REMARK SMILES C/C=C/C=C/C(=O)N[C@@](C)(C(=O)OCCOCCOC(=O)c1ccc(-c2c3nc(c(-c4c(F)c(F)c(F)c(F)c4F)c4ccc([nH]4)c(-c4c(F)c(F)c(F)c(F)c4F)c4nc(c(-c5c(F)c(F)c(F)c(F)c5F)c5ccc2[nH]5)C=C4)C=C3)cc1)C(F)(F)F
REMARK SMILES IDX 15 1 14 2 13 3 11 4 12 5 9 6 10 7 8 8 6 9 7 10 5 12 4 13
REMARK SMILES IDX 3 14 1 15 2 16 85 17 86 18 87 19 88 20 16 21 17 22 18 23
REMARK SMILES IDX 19 24 20 25 21 26 22 27 23 28 84 29 24 30 83 31 25 32 26 33
REMARK SMILES IDX 27 34 77 35 28 36 82 37 76 38 78 39 29 40 81 41 75 42 74 43
REMARK SMILES IDX 30 45 62 46 42 47 61 48 43 49 46 50 60 51 79 52 44 53 45 54
REMARK SMILES IDX 59 56 80 57 47 58 31 59 32 60 40 61 33 62 34 63 38 64 41 65
REMARK SMILES IDX 35 66 36 67 39 68 37 69 63 70 64 71 72 72 65 73 66 74 70 75
REMARK SMILES IDX 73 76 67 77 68 78 71 79 69 80 48 81 49 82 57 83 50 84 51 85
REMARK SMILES IDX 55 86 58 87 52 88 53 89 56 90 54 91
REMARK H PARENT 8 11 78 44 46 55
REMARK Flexibility Score: inf
ROOT
ATOM      1  C   UNL     1      -3.679  -0.606   6.967  1.00  0.00     0.202 C 
ENDROOT
BRANCH   1   2
ATOM      2  C   UNL     1      -2.373  -0.058   7.561  1.00  0.00     0.261 C 
BRANCH   2   3
ATOM      3  O   UNL     1      -1.879   1.096   6.863  1.00  0.00    -0.461 OA
BRANCH   3   4
ATOM      4  C   UNL     1      -0.538   1.092   6.589  1.00  0.00     0.341 C 
ATOM      5  O   UNL     1       0.249   0.306   7.101  1.00  0.00    -0.249 OA
BRANCH   4   6
ATOM      6  C   UNL     1      -0.137   2.216   5.615  1.00  0.00     0.231 C 
ATOM      7  C   UNL     1       0.717   3.219   6.399  1.00  0.00     0.058 C 
BRANCH   6   8
ATOM      8  N   UNL     1      -1.378   2.952   5.164  1.00  0.00    -0.329 N 
ATOM      9  C   UNL     1      -1.792   3.612   4.056  1.00  0.00     0.245 C 
ATOM     10  O   UNL     1      -2.756   4.369   4.146  1.00  0.00    -0.270 OA
ATOM     11  H   UNL     1      -2.071   2.952   5.864  1.00  0.00     0.165 HD
BRANCH   9  12
ATOM     12  C   UNL     1      -1.155   3.421   2.747  1.00  0.00     0.071 C 
ATOM     13  C   UNL     1      -1.191   2.220   2.154  1.00  0.00     0.005 C 
BRANCH  13  14
ATOM     14  C   UNL     1      -0.579   1.944   0.875  1.00  0.00    -0.004 C 
ATOM     15  C   UNL     1       0.709   0.404  -0.635  1.00  0.00     0.035 C 
ATOM     16  C   UNL     1       0.025   0.769   0.640  1.00  0.00    -0.030 C 
ENDBRANCH  13  14
ENDBRANCH   9  12
ENDBRANCH   6   8
BRANCH   6  17
ATOM     17  C   UNL     1       0.748   1.500   4.583  1.00  0.00     0.422 C 
ATOM     18  F   UNL     1       0.085   0.510   3.945  1.00  0.00    -0.168 F 
ATOM     19  F   UNL     1       1.218   2.366   3.653  1.00  0.00    -0.168 F 
ATOM     20  F   UNL     1       1.851   0.943   5.137  1.00  0.00    -0.168 F 
ENDBRANCH   6  17
ENDBRANCH   4   6
ENDBRANCH   3   4
ENDBRANCH   2   3
ENDBRANCH   1   2
BRANCH   1  21
ATOM     21  O   UNL     1      -3.766  -0.726   5.552  1.00  0.00    -0.374 OA
BRANCH  21  22
ATOM     22  C   UNL     1      -3.827   0.472   4.777  1.00  0.00     0.202 C 
BRANCH  22  23
ATOM     23  C   UNL     1      -5.014   1.423   4.990  1.00  0.00     0.261 C 
BRANCH  23  24
ATOM     24  O   UNL     1      -5.100   1.935   6.335  1.00  0.00    -0.460 OA
BRANCH  24  25
ATOM     25  C   UNL     1      -6.287   1.691   6.947  1.00  0.00     0.338 C 
ATOM     26  O   UNL     1      -7.272   1.150   6.474  1.00  0.00    -0.246 OA
BRANCH  25  27
ATOM     27  C   UNL     1      -6.202   2.005   8.385  1.00  0.00     0.060 A 
ATOM     28  C   UNL     1      -6.401   0.953   9.288  1.00  0.00     0.016 A 
ATOM     29  C   UNL     1      -6.074   3.318   8.840  1.00  0.00     0.016 A 
ATOM     30  C   UNL     1      -6.523   1.217  10.650  1.00  0.00     0.010 A 
ATOM     31  C   UNL     1      -6.207   3.583  10.209  1.00  0.00     0.010 A 
ATOM     32  C   UNL     1      -6.471   2.538  11.114  1.00  0.00    -0.014 A 
BRANCH  32  33
ATOM     33  C   UNL     1      -6.851   2.818  12.521  1.00  0.00     0.031 A 
ATOM     34  C   UNL     1      -8.255   3.265  12.826  1.00  0.00     0.074 A 
ATOM     35  C   UNL     1      -5.978   2.612  13.522  1.00  0.00     0.049 A 
ATOM     36  N   UNL     1      -8.814   3.524  13.981  1.00  0.00    -0.248 NA
ATOM     37  C   UNL     1      -9.151   3.442  11.672  1.00  0.00     0.031 C 
ATOM     38  C   UNL     1      -4.604   2.145  13.358  1.00  0.00     0.029 A 
ATOM     39  N   UNL     1      -6.124   2.764  14.879  1.00  0.00    -0.354 N 
ATOM     40  C   UNL     1     -10.123   3.888  13.695  1.00  0.00     0.074 A 
ATOM     41  C   UNL     1     -10.268   3.852  12.256  1.00  0.00     0.031 C 
ATOM     42  C   UNL     1      -4.029   2.049  14.569  1.00  0.00     0.029 A 
ATOM     43  C   UNL     1      -4.988   2.469  15.590  1.00  0.00     0.049 A 
ATOM     44  H   UNL     1      -6.963   3.058  15.301  1.00  0.00     0.167 HD
ATOM     45  C   UNL     1     -11.119   4.210  14.555  1.00  0.00     0.037 A 
ATOM     46  C   UNL     1      -4.749   2.539  16.914  1.00  0.00     0.037 A 
ATOM     47  C   UNL     1     -10.976   4.247  15.987  1.00  0.00     0.049 A 
ATOM     48  C   UNL     1      -5.857   2.961  17.845  1.00  0.00     0.074 A 
ATOM     49  C   UNL     1     -11.931   4.549  16.943  1.00  0.00     0.029 A 
ATOM     50  N   UNL     1      -9.799   3.979  16.668  1.00  0.00    -0.354 N 
ATOM     51  N   UNL     1      -7.099   3.272  17.567  1.00  0.00    -0.248 NA
ATOM     52  C   UNL     1      -5.528   3.033  19.276  1.00  0.00     0.031 C 
ATOM     53  C   UNL     1     -11.318   4.508  18.201  1.00  0.00     0.029 A 
ATOM     54  C   UNL     1      -9.995   4.132  18.032  1.00  0.00     0.049 A 
ATOM     55  H   UNL     1      -8.948   3.719  16.246  1.00  0.00     0.167 HD
ATOM     56  C   UNL     1      -7.706   3.549  18.785  1.00  0.00     0.074 A 
ATOM     57  C   UNL     1      -6.699   3.354  19.807  1.00  0.00     0.031 C 
ATOM     58  C   UNL     1      -8.984   3.929  19.036  1.00  0.00     0.037 A 
BRANCH  45  59
ATOM     59  C   UNL     1     -12.452   4.570  13.966  1.00  0.00     0.064 A 
ATOM     60  C   UNL     1     -13.288   3.602  13.391  1.00  0.00     0.173 A 
ATOM     61  C   UNL     1     -12.913   5.894  14.009  1.00  0.00     0.173 A 
ATOM     62  F   UNL     1     -12.887   2.324  13.314  1.00  0.00    -0.203 F 
ATOM     63  C   UNL     1     -14.527   3.950  12.859  1.00  0.00     0.198 A 
ATOM     64  C   UNL     1     -14.164   6.234  13.500  1.00  0.00     0.198 A 
ATOM     65  F   UNL     1     -12.154   6.858  14.552  1.00  0.00    -0.203 F 
ATOM     66  F   UNL     1     -15.291   3.016  12.276  1.00  0.00    -0.200 F 
ATOM     67  C   UNL     1     -14.966   5.264  12.919  1.00  0.00     0.200 A 
ATOM     68  F   UNL     1     -14.591   7.503  13.569  1.00  0.00    -0.200 F 
ATOM     69  F   UNL     1     -16.162   5.597  12.412  1.00  0.00    -0.200 F 
ENDBRANCH  45  59
BRANCH  46  70
ATOM     70  C   UNL     1      -3.403   2.201  17.444  1.00  0.00     0.064 A 
ATOM     71  C   UNL     1      -3.197   1.057  18.227  1.00  0.00     0.173 A 
ATOM     72  C   UNL     1      -2.297   3.028  17.194  1.00  0.00     0.173 A 
ATOM     73  F   UNL     1      -4.229   0.249  18.516  1.00  0.00    -0.203 F 
ATOM     74  C   UNL     1      -1.942   0.762  18.755  1.00  0.00     0.198 A 
ATOM     75  C   UNL     1      -1.037   2.717  17.699  1.00  0.00     0.198 A 
ATOM     76  F   UNL     1      -2.442   4.136  16.452  1.00  0.00    -0.203 F 
ATOM     77  F   UNL     1      -1.783  -0.313  19.539  1.00  0.00    -0.200 F 
ATOM     78  C   UNL     1      -0.862   1.589  18.486  1.00  0.00     0.200 A 
ATOM     79  F   UNL     1       0.006   3.514  17.428  1.00  0.00    -0.200 F 
ATOM     80  F   UNL     1       0.346   1.304  18.992  1.00  0.00    -0.200 F 
ENDBRANCH  46  70
BRANCH  58  81
ATOM     81  C   UNL     1      -9.373   4.128  20.473  1.00  0.00     0.064 A 
ATOM     82  C   UNL     1      -8.916   5.227  21.214  1.00  0.00     0.173 A 
ATOM     83  C   UNL     1     -10.242   3.225  21.105  1.00  0.00     0.173 A 
ATOM     84  F   UNL     1      -8.072   6.111  20.660  1.00  0.00    -0.203 F 
ATOM     85  C   UNL     1      -9.292   5.400  22.544  1.00  0.00     0.198 A 
ATOM     86  C   UNL     1     -10.640   3.417  22.425  1.00  0.00     0.198 A 
ATOM     87  F   UNL     1     -10.714   2.161  20.437  1.00  0.00    -0.203 F 
ATOM     88  F   UNL     1      -8.804   6.431  23.248  1.00  0.00    -0.200 F 
ATOM     89  C   UNL     1     -10.158   4.499  23.146  1.00  0.00     0.200 A 
ATOM     90  F   UNL     1     -11.486   2.552  23.001  1.00  0.00    -0.200 F 
ATOM     91  F   UNL     1     -10.522   4.669  24.424  1.00  0.00    -0.200 F 
ENDBRANCH  58  81
ENDBRANCH  32  33
ENDBRANCH  25  27
ENDBRANCH  24  25
ENDBRANCH  23  24
ENDBRANCH  22  23
ENDBRANCH  21  22
ENDBRANCH   1  21
TORSDOF 18
