REMARK SMILES CCOC(=O)C1=C(C)N(c2ccccc2)C(=O)[C@@H]1CC(=O)OCCOCCOC(=O)c1ccc(-c2c3nc(c(-c4c(F)c(F)c(F)c(F)c4F)c4ccc([nH]4)c(-c4c(F)c(F)c(F)c(F)c4F)c4nc(c(-c5c(F)c(F)c(F)c(F)c5F)c5ccc2[nH]5)C=C4)C=C3)cc1
REMARK SMILES IDX 24 1 23 2 22 3 20 4 21 5 19 6 18 7 6 8 7 9 8 10 9 11 16 12
REMARK SMILES IDX 17 13 4 14 5 15 3 16 2 17 1 18 10 19 11 20 15 21 12 22 14 23
REMARK SMILES IDX 13 24 25 25 26 26 27 27 28 28 29 29 30 30 31 31 32 32 93 33
REMARK SMILES IDX 33 34 92 35 34 36 35 37 36 38 86 39 37 40 91 41 85 42 87 43
REMARK SMILES IDX 38 44 90 45 84 46 83 47 39 49 71 50 51 51 70 52 52 53 55 54
REMARK SMILES IDX 69 55 88 56 53 57 54 58 68 60 89 61 56 62 40 63 41 64 49 65
REMARK SMILES IDX 42 66 43 67 47 68 50 69 44 70 45 71 48 72 46 73 72 74 73 75
REMARK SMILES IDX 81 76 74 77 75 78 79 79 82 80 76 81 77 82 80 83 78 84 57 85
REMARK SMILES IDX 58 86 66 87 59 88 60 89 64 90 67 91 61 92 62 93 65 94 63 95
REMARK H PARENT 87 48 55 59
REMARK Flexibility Score: inf
ROOT
ATOM      1  C   UNL     1       1.169  -1.300   9.550  1.00  0.00     0.202 C 
ENDROOT
BRANCH   1   2
ATOM      2  C   UNL     1       2.324  -2.172   9.050  1.00  0.00     0.261 C 
BRANCH   2   3
ATOM      3  O   UNL     1       2.928  -1.591   7.877  1.00  0.00    -0.463 OA
BRANCH   3   4
ATOM      4  C   UNL     1       2.837  -2.269   6.710  1.00  0.00     0.307 C 
ATOM      5  O   UNL     1       2.299  -3.356   6.561  1.00  0.00    -0.252 OA
BRANCH   4   6
ATOM      6  C   UNL     1       3.502  -1.513   5.585  1.00  0.00     0.141 C 
BRANCH   6   7
ATOM      7  C   UNL     1       2.838  -0.167   5.293  1.00  0.00     0.130 C 
ATOM      8  C   UNL     1       3.111   0.325   3.904  1.00  0.00     0.070 C 
ATOM      9  C   UNL     1       3.856   1.438   3.872  1.00  0.00     0.034 C 
ATOM     10  C   UNL     1       4.420   2.099   2.658  1.00  0.00     0.065 C 
ATOM     11  N   UNL     1       4.140   1.828   5.168  1.00  0.00    -0.284 N 
ATOM     12  C   UNL     1       3.523   0.948   6.083  1.00  0.00     0.239 C 
ATOM     13  O   UNL     1       3.491   1.039   7.304  1.00  0.00    -0.273 OA
BRANCH   8  14
ATOM     14  C   UNL     1       2.652  -0.400   2.723  1.00  0.00     0.336 C 
ATOM     15  O   UNL     1       3.394  -1.038   1.992  1.00  0.00    -0.246 OA
BRANCH  14  16
ATOM     16  O   UNL     1       1.318  -0.226   2.592  1.00  0.00    -0.463 OA
BRANCH  16  17
ATOM     17  C   UNL     1       0.726  -0.863   1.448  1.00  0.00     0.230 C 
ATOM     18  C   UNL     1       0.943  -0.032   0.195  1.00  0.00     0.049 C 
ENDBRANCH  16  17
ENDBRANCH  14  16
ENDBRANCH   8  14
BRANCH  11  19
ATOM     19  C   UNL     1       4.936   2.919   5.614  1.00  0.00     0.049 A 
ATOM     20  C   UNL     1       4.905   4.163   4.974  1.00  0.00     0.027 A 
ATOM     21  C   UNL     1       5.793   2.759   6.713  1.00  0.00     0.027 A 
ATOM     22  C   UNL     1       5.723   5.212   5.406  1.00  0.00     0.002 A 
ATOM     23  C   UNL     1       6.626   3.799   7.134  1.00  0.00     0.002 A 
ATOM     24  C   UNL     1       6.592   5.025   6.478  1.00  0.00     0.000 A 
ENDBRANCH  11  19
ENDBRANCH   6   7
ENDBRANCH   4   6
ENDBRANCH   3   4
ENDBRANCH   2   3
ENDBRANCH   1   2
BRANCH   1  25
ATOM     25  O   UNL     1      -0.087  -1.559   8.913  1.00  0.00    -0.374 OA
BRANCH  25  26
ATOM     26  C   UNL     1      -0.259  -0.988   7.619  1.00  0.00     0.202 C 
BRANCH  26  27
ATOM     27  C   UNL     1      -0.836   0.431   7.615  1.00  0.00     0.261 C 
BRANCH  27  28
ATOM     28  O   UNL     1       0.048   1.359   8.269  1.00  0.00    -0.460 OA
BRANCH  28  29
ATOM     29  C   UNL     1      -0.355   1.727   9.508  1.00  0.00     0.338 C 
ATOM     30  O   UNL     1      -1.422   1.463  10.041  1.00  0.00    -0.246 OA
BRANCH  29  31
ATOM     31  C   UNL     1       0.723   2.426  10.240  1.00  0.00     0.060 A 
ATOM     32  C   UNL     1       0.845   2.132  11.604  1.00  0.00     0.016 A 
ATOM     33  C   UNL     1       1.522   3.414   9.658  1.00  0.00     0.016 A 
ATOM     34  C   UNL     1       1.692   2.887  12.409  1.00  0.00     0.010 A 
ATOM     35  C   UNL     1       2.374   4.176  10.470  1.00  0.00     0.010 A 
ATOM     36  C   UNL     1       2.417   3.952  11.858  1.00  0.00    -0.014 A 
BRANCH  36  37
ATOM     37  C   UNL     1       3.038   4.929  12.787  1.00  0.00     0.031 A 
ATOM     38  C   UNL     1       2.276   6.181  13.135  1.00  0.00     0.074 A 
ATOM     39  C   UNL     1       4.206   4.664  13.396  1.00  0.00     0.049 A 
ATOM     40  N   UNL     1       2.566   7.121  13.999  1.00  0.00    -0.248 NA
ATOM     41  C   UNL     1       1.010   6.397  12.416  1.00  0.00     0.031 C 
ATOM     42  C   UNL     1       5.024   3.475  13.173  1.00  0.00     0.029 A 
ATOM     43  N   UNL     1       4.896   5.378  14.345  1.00  0.00    -0.354 N 
ATOM     44  C   UNL     1       1.520   8.032  13.931  1.00  0.00     0.074 A 
ATOM     45  C   UNL     1       0.606   7.555  12.916  1.00  0.00     0.031 C 
ATOM     46  C   UNL     1       6.105   3.536  13.970  1.00  0.00     0.029 A 
ATOM     47  C   UNL     1       6.059   4.773  14.749  1.00  0.00     0.049 A 
ATOM     48  H   UNL     1       4.586   6.242  14.701  1.00  0.00     0.167 HD
ATOM     49  C   UNL     1       1.326   9.157  14.660  1.00  0.00     0.037 A 
ATOM     50  C   UNL     1       6.978   5.172  15.650  1.00  0.00     0.037 A 
ATOM     51  C   UNL     1       2.228   9.637  15.672  1.00  0.00     0.049 A 
ATOM     52  C   UNL     1       6.759   6.449  16.421  1.00  0.00     0.074 A 
ATOM     53  C   UNL     1       2.120  10.769  16.461  1.00  0.00     0.029 A 
ATOM     54  N   UNL     1       3.410   9.008  16.034  1.00  0.00    -0.354 N 
ATOM     55  N   UNL     1       5.753   7.288  16.369  1.00  0.00    -0.248 NA
ATOM     56  C   UNL     1       7.800   6.823  17.389  1.00  0.00     0.031 C 
ATOM     57  C   UNL     1       3.256  10.845  17.276  1.00  0.00     0.029 A 
ATOM     58  C   UNL     1       4.048   9.736  17.026  1.00  0.00     0.049 A 
ATOM     59  H   UNL     1       3.746   8.170  15.643  1.00  0.00     0.167 HD
ATOM     60  C   UNL     1       6.023   8.268  17.317  1.00  0.00     0.074 A 
ATOM     61  C   UNL     1       7.282   7.913  17.937  1.00  0.00     0.031 C 
ATOM     62  C   UNL     1       5.292   9.362  17.645  1.00  0.00     0.037 A 
BRANCH  49  63
ATOM     63  C   UNL     1       0.090   9.957  14.372  1.00  0.00     0.064 A 
ATOM     64  C   UNL     1      -1.181   9.513  14.769  1.00  0.00     0.173 A 
ATOM     65  C   UNL     1       0.179  11.190  13.711  1.00  0.00     0.173 A 
ATOM     66  F   UNL     1      -1.320   8.332  15.390  1.00  0.00    -0.203 F 
ATOM     67  C   UNL     1      -2.320  10.264  14.491  1.00  0.00     0.198 A 
ATOM     68  C   UNL     1      -0.959  11.950  13.457  1.00  0.00     0.198 A 
ATOM     69  F   UNL     1       1.371  11.659  13.313  1.00  0.00    -0.203 F 
ATOM     70  F   UNL     1      -3.528   9.800  14.840  1.00  0.00    -0.200 F 
ATOM     71  C   UNL     1      -2.208  11.484  13.841  1.00  0.00     0.200 A 
ATOM     72  F   UNL     1      -0.849  13.133  12.837  1.00  0.00    -0.200 F 
ATOM     73  F   UNL     1      -3.304  12.207  13.577  1.00  0.00    -0.200 F 
ENDBRANCH  49  63
BRANCH  50  74
ATOM     74  C   UNL     1       8.189   4.347  15.890  1.00  0.00     0.064 A 
ATOM     75  C   UNL     1       8.372   3.660  17.098  1.00  0.00     0.173 A 
ATOM     76  C   UNL     1       9.202   4.253  14.925  1.00  0.00     0.173 A 
ATOM     77  F   UNL     1       7.443   3.743  18.062  1.00  0.00    -0.203 F 
ATOM     78  C   UNL     1       9.532   2.927  17.340  1.00  0.00     0.198 A 
ATOM     79  C   UNL     1      10.350   3.499  15.158  1.00  0.00     0.198 A 
ATOM     80  F   UNL     1       9.076   4.895  13.754  1.00  0.00    -0.203 F 
ATOM     81  F   UNL     1       9.704   2.321  18.523  1.00  0.00    -0.200 F 
ATOM     82  C   UNL     1      10.518   2.844  16.369  1.00  0.00     0.200 A 
ATOM     83  F   UNL     1      11.297   3.415  14.214  1.00  0.00    -0.200 F 
ATOM     84  F   UNL     1      11.634   2.141  16.603  1.00  0.00    -0.200 F 
ENDBRANCH  50  74
BRANCH  62  85
ATOM     85  C   UNL     1       5.812  10.229  18.755  1.00  0.00     0.064 A 
ATOM     86  C   UNL     1       6.934  11.053  18.584  1.00  0.00     0.173 A 
ATOM     87  C   UNL     1       5.162  10.253  19.998  1.00  0.00     0.173 A 
ATOM     88  F   UNL     1       7.598  11.056  17.418  1.00  0.00    -0.203 F 
ATOM     89  C   UNL     1       7.405  11.845  19.628  1.00  0.00     0.198 A 
ATOM     90  C   UNL     1       5.619  11.067  21.031  1.00  0.00     0.198 A 
ATOM     91  F   UNL     1       4.079   9.490  20.210  1.00  0.00    -0.203 F 
ATOM     92  F   UNL     1       8.509  12.586  19.459  1.00  0.00    -0.200 F 
ATOM     93  C   UNL     1       6.745  11.855  20.848  1.00  0.00     0.200 A 
ATOM     94  F   UNL     1       4.973  11.085  22.205  1.00  0.00    -0.200 F 
ATOM     95  F   UNL     1       7.200  12.618  21.851  1.00  0.00    -0.200 F 
ENDBRANCH  62  85
ENDBRANCH  36  37
ENDBRANCH  29  31
ENDBRANCH  28  29
ENDBRANCH  27  28
ENDBRANCH  26  27
ENDBRANCH  25  26
ENDBRANCH   1  25
TORSDOF 19
