REMARK SMILES C[C@H]1[C@H](C(=O)OCCOCCOC(=O)c2ccc(-c3c4nc(c(-c5c(F)c(F)c(F)c(F)c5F)c5ccc([nH]5)c(-c5c(F)c(F)c(F)c(F)c5F)c5nc(c(-c6c(F)c(F)c(F)c(F)c6F)c6ccc3[nH]6)C=C5)C=C4)cc2)CCN1C(=O)Nc1ccc(F)c(Cl)c1
REMARK SMILES IDX 9 1 8 2 7 3 6 4 4 5 5 6 3 7 1 8 2 9 80 10 78 11 79 12 81 13
REMARK SMILES IDX 82 14 83 15 84 17 85 18 91 19 86 20 89 21 87 22 90 23 88 24
REMARK SMILES IDX 10 25 11 26 12 27 13 28 14 29 15 30 16 31 77 32 17 33 76 34
REMARK SMILES IDX 18 35 19 36 20 37 70 38 21 39 75 40 69 41 71 42 22 43 74 44
REMARK SMILES IDX 68 45 67 46 23 48 55 49 35 50 54 51 36 52 39 53 53 54 72 55
REMARK SMILES IDX 37 56 38 57 52 59 73 60 40 61 24 62 25 63 33 64 26 65 27 66
REMARK SMILES IDX 31 67 34 68 28 69 29 70 32 71 30 72 56 73 57 74 65 75 58 76
REMARK SMILES IDX 59 77 63 78 66 79 60 80 61 81 64 82 62 83 41 84 42 85 50 86
REMARK SMILES IDX 43 87 44 88 48 89 51 90 45 91 46 92 49 93 47 94
REMARK H PARENT 83 16 71 47 39 58
REMARK Flexibility Score: inf
ROOT
ATOM      1  O   UNL     1       0.997   4.705   2.245  1.00  0.00    -0.374 OA
ENDROOT
BRANCH   1   2
ATOM      2  C   UNL     1       0.035   4.300   3.209  1.00  0.00     0.202 C 
BRANCH   2   3
ATOM      3  C   UNL     1      -1.120   3.404   2.749  1.00  0.00     0.261 C 
BRANCH   3   4
ATOM      4  O   UNL     1      -0.720   2.251   1.988  1.00  0.00    -0.463 OA
BRANCH   4   5
ATOM      5  C   UNL     1      -0.996   2.328   0.659  1.00  0.00     0.311 C 
ATOM      6  O   UNL     1      -1.510   3.293   0.104  1.00  0.00    -0.252 OA
BRANCH   5   7
ATOM      7  C   UNL     1      -0.702   1.055  -0.094  1.00  0.00     0.123 C 
ATOM      8  C   UNL     1       1.615   0.350  -0.695  1.00  0.00     0.032 C 
ATOM      9  C   UNL     1       0.504   0.178   0.347  1.00  0.00     0.098 C 
ATOM     10  N   UNL     1      -0.034  -1.196   0.388  1.00  0.00    -0.321 N 
ATOM     11  C   UNL     1      -1.926   0.157  -0.005  1.00  0.00     0.039 C 
ATOM     12  C   UNL     1      -1.359  -1.220  -0.219  1.00  0.00     0.122 C 
BRANCH  10  13
ATOM     13  C   UNL     1       0.455  -2.395   0.801  1.00  0.00     0.322 C 
ATOM     14  O   UNL     1      -0.269  -3.401   0.802  1.00  0.00    -0.248 OA
ATOM     15  N   UNL     1       1.742  -2.663   1.071  1.00  0.00    -0.308 N 
ATOM     16  H   UNL     1       1.885  -3.636   1.128  1.00  0.00     0.171 HD
BRANCH  15  17
ATOM     17  C   UNL     1       2.933  -1.984   1.294  1.00  0.00     0.044 A 
ATOM     18  C   UNL     1       4.044  -2.448   0.570  1.00  0.00     0.029 A 
ATOM     19  C   UNL     1       3.113  -1.057   2.319  1.00  0.00     0.049 A 
ATOM     20  C   UNL     1       5.318  -1.940   0.807  1.00  0.00     0.043 A 
ATOM     21  C   UNL     1       4.415  -0.621   2.614  1.00  0.00     0.078 A 
ATOM     22  C   UNL     1       5.498  -1.034   1.838  1.00  0.00     0.141 A 
ATOM     23  Cl  UNL     1       4.731   0.342   4.005  1.00  0.00    -0.081 Cl
ATOM     24  F   UNL     1       6.737  -0.592   2.096  1.00  0.00    -0.205 F 
ENDBRANCH  15  17
ENDBRANCH  10  13
ENDBRANCH   5   7
ENDBRANCH   4   5
ENDBRANCH   3   4
ENDBRANCH   2   3
ENDBRANCH   1   2
BRANCH   1  25
ATOM     25  C   UNL     1       1.855   3.723   1.677  1.00  0.00     0.202 C 
BRANCH  25  26
ATOM     26  C   UNL     1       2.796   2.946   2.602  1.00  0.00     0.261 C 
BRANCH  26  27
ATOM     27  O   UNL     1       2.128   2.192   3.635  1.00  0.00    -0.460 OA
BRANCH  27  28
ATOM     28  C   UNL     1       2.423   2.608   4.892  1.00  0.00     0.338 C 
ATOM     29  O   UNL     1       3.131   3.566   5.193  1.00  0.00    -0.246 OA
BRANCH  28  30
ATOM     30  C   UNL     1       1.703   1.851   5.935  1.00  0.00     0.060 A 
ATOM     31  C   UNL     1       1.200   2.593   7.010  1.00  0.00     0.016 A 
ATOM     32  C   UNL     1       1.652   0.454   5.967  1.00  0.00     0.016 A 
ATOM     33  C   UNL     1       0.726   1.945   8.147  1.00  0.00     0.010 A 
ATOM     34  C   UNL     1       1.173  -0.199   7.111  1.00  0.00     0.010 A 
ATOM     35  C   UNL     1       0.753   0.546   8.223  1.00  0.00    -0.014 A 
BRANCH  35  36
ATOM     36  C   UNL     1       0.420  -0.097   9.516  1.00  0.00     0.031 A 
ATOM     37  C   UNL     1       1.519  -0.513  10.452  1.00  0.00     0.074 A 
ATOM     38  C   UNL     1      -0.867  -0.220   9.884  1.00  0.00     0.049 A 
ATOM     39  N   UNL     1       1.438  -0.934  11.690  1.00  0.00    -0.248 NA
ATOM     40  C   UNL     1       2.892  -0.448   9.929  1.00  0.00     0.031 C 
ATOM     41  C   UNL     1      -2.015   0.141   9.055  1.00  0.00     0.029 A 
ATOM     42  N   UNL     1      -1.421  -0.663  11.058  1.00  0.00    -0.354 N 
ATOM     43  C   UNL     1       2.745  -1.169  12.097  1.00  0.00     0.074 A 
ATOM     44  C   UNL     1       3.598  -0.886  10.963  1.00  0.00     0.031 C 
ATOM     45  C   UNL     1      -3.141  -0.078   9.754  1.00  0.00     0.029 A 
ATOM     46  C   UNL     1      -2.791  -0.595  11.075  1.00  0.00     0.049 A 
ATOM     47  H   UNL     1      -0.887  -0.997  11.815  1.00  0.00     0.167 HD
ATOM     48  C   UNL     1       3.191  -1.567  13.313  1.00  0.00     0.037 A 
ATOM     49  C   UNL     1      -3.663  -0.899  12.054  1.00  0.00     0.037 A 
ATOM     50  C   UNL     1       2.339  -1.849  14.439  1.00  0.00     0.049 A 
ATOM     51  C   UNL     1      -3.142  -1.342  13.394  1.00  0.00     0.074 A 
ATOM     52  C   UNL     1       2.695  -2.230  15.722  1.00  0.00     0.029 A 
ATOM     53  N   UNL     1       0.953  -1.786  14.413  1.00  0.00    -0.354 N 
ATOM     54  N   UNL     1      -1.902  -1.495  13.790  1.00  0.00    -0.248 NA
ATOM     55  C   UNL     1      -4.144  -1.634  14.428  1.00  0.00     0.031 C 
ATOM     56  C   UNL     1       1.524  -2.434  16.460  1.00  0.00     0.029 A 
ATOM     57  C   UNL     1       0.439  -2.139  15.650  1.00  0.00     0.049 A 
ATOM     58  H   UNL     1       0.414  -1.527  13.630  1.00  0.00     0.167 HD
ATOM     59  C   UNL     1      -1.971  -1.879  15.122  1.00  0.00     0.074 A 
ATOM     60  C   UNL     1      -3.377  -1.918  15.472  1.00  0.00     0.031 C 
ATOM     61  C   UNL     1      -0.963  -2.174  15.979  1.00  0.00     0.037 A 
BRANCH  48  62
ATOM     62  C   UNL     1       4.673  -1.727  13.490  1.00  0.00     0.064 A 
ATOM     63  C   UNL     1       5.524  -0.615  13.574  1.00  0.00     0.173 A 
ATOM     64  C   UNL     1       5.242  -3.002  13.624  1.00  0.00     0.173 A 
ATOM     65  F   UNL     1       5.030   0.625  13.443  1.00  0.00    -0.203 F 
ATOM     66  C   UNL     1       6.895  -0.775  13.765  1.00  0.00     0.198 A 
ATOM     67  C   UNL     1       6.610  -3.157  13.838  1.00  0.00     0.198 A 
ATOM     68  F   UNL     1       4.471  -4.098  13.557  1.00  0.00    -0.203 F 
ATOM     69  F   UNL     1       7.694   0.300  13.807  1.00  0.00    -0.200 F 
ATOM     70  C   UNL     1       7.435  -2.045  13.903  1.00  0.00     0.200 A 
ATOM     71  F   UNL     1       7.129  -4.384  13.982  1.00  0.00    -0.200 F 
ATOM     72  F   UNL     1       8.753  -2.197  14.094  1.00  0.00    -0.200 F 
ENDBRANCH  48  62
BRANCH  49  73
ATOM     73  C   UNL     1      -5.119  -0.753  11.809  1.00  0.00     0.064 A 
ATOM     74  C   UNL     1      -5.854   0.275  12.413  1.00  0.00     0.173 A 
ATOM     75  C   UNL     1      -5.800  -1.630  10.953  1.00  0.00     0.173 A 
ATOM     76  F   UNL     1      -5.249   1.127  13.254  1.00  0.00    -0.203 F 
ATOM     77  C   UNL     1      -7.221   0.412  12.181  1.00  0.00     0.198 A 
ATOM     78  C   UNL     1      -7.161  -1.478  10.703  1.00  0.00     0.198 A 
ATOM     79  F   UNL     1      -5.137  -2.627  10.349  1.00  0.00    -0.203 F 
ATOM     80  F   UNL     1      -7.909   1.383  12.797  1.00  0.00    -0.200 F 
ATOM     81  C   UNL     1      -7.872  -0.460  11.321  1.00  0.00     0.200 A 
ATOM     82  F   UNL     1      -7.783  -2.315   9.862  1.00  0.00    -0.200 F 
ATOM     83  F   UNL     1      -9.185  -0.323  11.091  1.00  0.00    -0.200 F 
ENDBRANCH  49  73
BRANCH  61  84
ATOM     84  C   UNL     1      -1.347  -2.546  17.381  1.00  0.00     0.064 A 
ATOM     85  C   UNL     1      -1.929  -3.787  17.675  1.00  0.00     0.173 A 
ATOM     86  C   UNL     1      -1.113  -1.659  18.442  1.00  0.00     0.173 A 
ATOM     87  F   UNL     1      -2.187  -4.662  16.692  1.00  0.00    -0.203 F 
ATOM     88  C   UNL     1      -2.291  -4.115  18.979  1.00  0.00     0.198 A 
ATOM     89  C   UNL     1      -1.452  -2.001  19.748  1.00  0.00     0.198 A 
ATOM     90  F   UNL     1      -0.552  -0.462  18.212  1.00  0.00    -0.203 F 
ATOM     91  F   UNL     1      -2.892  -5.287  19.231  1.00  0.00    -0.200 F 
ATOM     92  C   UNL     1      -2.049  -3.225  20.014  1.00  0.00     0.200 A 
ATOM     93  F   UNL     1      -1.209  -1.143  20.749  1.00  0.00    -0.200 F 
ATOM     94  F   UNL     1      -2.400  -3.542  21.268  1.00  0.00    -0.200 F 
ENDBRANCH  61  84
ENDBRANCH  35  36
ENDBRANCH  28  30
ENDBRANCH  27  28
ENDBRANCH  26  27
ENDBRANCH  25  26
ENDBRANCH   1  25
TORSDOF 16
