REMARK SMILES Cc1nc(-c2ccccc2Cl)nc2sc(C(=O)OCCOCCOC(=O)c3ccc(-c4c5nc(c(-c6c(F)c(F)c(F)c(F)c6F)c6ccc([nH]6)c(-c6c(F)c(F)c(F)c(F)c6F)c6nc(c(-c7c(F)c(F)c(F)c(F)c7F)c7ccc4[nH]7)C=C6)C=C5)cc3)c(N)c12
REMARK SMILES IDX 22 1 21 2 20 3 19 4 18 5 16 6 17 7 15 8 1 9 2 10 3 11 92 12
REMARK SMILES IDX 4 13 13 14 90 15 12 16 14 17 5 18 6 19 10 20 7 21 9 22 11 23
REMARK SMILES IDX 8 24 91 25 23 28 24 29 25 30 26 31 27 32 28 33 89 34 29 35
REMARK SMILES IDX 88 36 30 37 31 38 32 39 82 40 33 41 87 42 81 43 83 44 34 45
REMARK SMILES IDX 86 46 80 47 79 48 35 50 67 51 47 52 66 53 48 54 51 55 65 56
REMARK SMILES IDX 84 57 49 58 50 59 64 61 85 62 52 63 36 64 37 65 45 66 38 67
REMARK SMILES IDX 39 68 43 69 46 70 40 71 41 72 44 73 42 74 68 75 69 76 77 77
REMARK SMILES IDX 70 78 71 79 75 80 78 81 72 82 73 83 76 84 74 85 53 86 54 87
REMARK SMILES IDX 62 88 55 89 56 90 60 91 63 92 57 93 58 94 61 95 59 96
REMARK H PARENT 91 26 91 27 83 49 51 60
REMARK Flexibility Score: inf
ROOT
ATOM      1  C   UNL     1      -1.138   6.745  -1.837  1.00  0.00     0.202 C 
ENDROOT
BRANCH   1   2
ATOM      2  O   UNL     1      -0.602   7.900  -2.472  1.00  0.00    -0.374 OA
BRANCH   2   3
ATOM      3  C   UNL     1      -0.487   7.917  -3.895  1.00  0.00     0.202 C 
BRANCH   3   4
ATOM      4  C   UNL     1       0.681   7.132  -4.495  1.00  0.00     0.261 C 
BRANCH   4   5
ATOM      5  O   UNL     1       0.493   5.717  -4.361  1.00  0.00    -0.459 OA
BRANCH   5   6
ATOM      6  C   UNL     1       1.209   5.094  -3.382  1.00  0.00     0.350 C 
ATOM      7  O   UNL     1       2.034   5.658  -2.660  1.00  0.00    -0.245 OA
BRANCH   6   8
ATOM      8  C   UNL     1       0.765   3.727  -3.208  1.00  0.00     0.138 A 
ATOM      9  C   UNL     1       0.852   0.242  -0.135  1.00  0.00     0.067 C 
ATOM     10  C   UNL     1       0.377   0.381  -1.551  1.00  0.00     0.052 A 
ATOM     11  N   UNL     1      -0.029  -0.772  -2.164  1.00  0.00    -0.233 NA
ATOM     12  C   UNL     1       0.408   1.575  -2.306  1.00  0.00     0.057 A 
ATOM     13  C   UNL     1      -0.445  -0.733  -3.442  1.00  0.00     0.162 A 
ATOM     14  C   UNL     1      -0.047   1.458  -3.609  1.00  0.00     0.130 A 
ATOM     15  C   UNL     1       0.826   2.936  -2.069  1.00  0.00     0.069 A 
ATOM     16  N   UNL     1      -0.497   0.356  -4.210  1.00  0.00    -0.217 NA
ATOM     17  S   UNL     1       0.036   2.890  -4.503  1.00  0.00    -0.106 S 
BRANCH  13  18
ATOM     18  C   UNL     1      -0.748  -1.977  -4.153  1.00  0.00     0.038 A 
ATOM     19  C   UNL     1      -0.122  -2.194  -5.405  1.00  0.00     0.013 A 
ATOM     20  C   UNL     1      -1.693  -2.920  -3.728  1.00  0.00     0.052 A 
ATOM     21  C   UNL     1      -0.449  -3.280  -6.215  1.00  0.00     0.001 A 
ATOM     22  C   UNL     1      -2.020  -4.015  -4.544  1.00  0.00     0.021 A 
ATOM     23  Cl  UNL     1      -2.563  -2.761  -2.241  1.00  0.00    -0.084 Cl
ATOM     24  C   UNL     1      -1.408  -4.187  -5.786  1.00  0.00     0.002 A 
ENDBRANCH  13  18
BRANCH  15  25
ATOM     25  N   UNL     1       1.256   3.416  -0.879  1.00  0.00    -0.397 N 
ATOM     26  H   UNL     1       1.525   4.360  -0.798  1.00  0.00     0.156 HD
ATOM     27  H   UNL     1       1.300   2.822  -0.095  1.00  0.00     0.156 HD
ENDBRANCH  15  25
ENDBRANCH   6   8
ENDBRANCH   5   6
ENDBRANCH   4   5
ENDBRANCH   3   4
ENDBRANCH   2   3
ENDBRANCH   1   2
BRANCH   1  28
ATOM     28  C   UNL     1      -2.635   6.512  -1.938  1.00  0.00     0.261 C 
BRANCH  28  29
ATOM     29  O   UNL     1      -3.064   6.296  -3.276  1.00  0.00    -0.460 OA
BRANCH  29  30
ATOM     30  C   UNL     1      -3.710   7.351  -3.817  1.00  0.00     0.338 C 
ATOM     31  O   UNL     1      -3.603   8.527  -3.495  1.00  0.00    -0.246 OA
BRANCH  30  32
ATOM     32  C   UNL     1      -4.747   6.848  -4.720  1.00  0.00     0.060 A 
ATOM     33  C   UNL     1      -5.609   7.795  -5.271  1.00  0.00     0.016 A 
ATOM     34  C   UNL     1      -5.014   5.470  -4.799  1.00  0.00     0.016 A 
ATOM     35  C   UNL     1      -6.830   7.370  -5.745  1.00  0.00     0.010 A 
ATOM     36  C   UNL     1      -6.239   5.047  -5.266  1.00  0.00     0.010 A 
ATOM     37  C   UNL     1      -7.159   6.007  -5.669  1.00  0.00    -0.014 A 
BRANCH  37  38
ATOM     38  C   UNL     1      -8.432   5.595  -6.222  1.00  0.00     0.031 A 
ATOM     39  C   UNL     1      -8.442   5.754  -7.691  1.00  0.00     0.074 A 
ATOM     40  C   UNL     1      -9.449   5.093  -5.495  1.00  0.00     0.049 A 
ATOM     41  N   UNL     1      -9.028   6.697  -8.347  1.00  0.00    -0.248 NA
ATOM     42  C   UNL     1      -7.527   4.940  -8.505  1.00  0.00     0.031 C 
ATOM     43  C   UNL     1      -9.431   4.679  -4.090  1.00  0.00     0.029 A 
ATOM     44  N   UNL     1     -10.718   4.778  -5.890  1.00  0.00    -0.354 N 
ATOM     45  C   UNL     1      -8.763   6.439  -9.687  1.00  0.00     0.074 A 
ATOM     46  C   UNL     1      -7.675   5.501  -9.707  1.00  0.00     0.031 C 
ATOM     47  C   UNL     1     -10.547   3.961  -3.819  1.00  0.00     0.029 A 
ATOM     48  C   UNL     1     -11.422   3.994  -4.979  1.00  0.00     0.049 A 
ATOM     49  H   UNL     1     -11.102   5.078  -6.745  1.00  0.00     0.167 HD
ATOM     50  C   UNL     1      -9.706   6.757 -10.615  1.00  0.00     0.037 A 
ATOM     51  C   UNL     1     -12.623   3.400  -5.196  1.00  0.00     0.037 A 
ATOM     52  C   UNL     1     -10.678   7.655 -10.042  1.00  0.00     0.049 A 
ATOM     53  C   UNL     1     -13.289   4.157  -6.280  1.00  0.00     0.074 A 
ATOM     54  C   UNL     1     -10.744   8.985  -9.694  1.00  0.00     0.029 A 
ATOM     55  N   UNL     1     -11.672   7.002  -9.364  1.00  0.00    -0.354 N 
ATOM     56  N   UNL     1     -13.729   5.376  -6.134  1.00  0.00    -0.248 NA
ATOM     57  C   UNL     1     -13.157   3.695  -7.658  1.00  0.00     0.031 C 
ATOM     58  C   UNL     1     -11.748   9.082  -8.685  1.00  0.00     0.029 A 
ATOM     59  C   UNL     1     -12.304   7.821  -8.478  1.00  0.00     0.049 A 
ATOM     60  H   UNL     1     -11.903   6.054  -9.501  1.00  0.00     0.167 HD
ATOM     61  C   UNL     1     -13.510   5.960  -7.364  1.00  0.00     0.074 A 
ATOM     62  C   UNL     1     -13.333   4.854  -8.297  1.00  0.00     0.031 C 
ATOM     63  C   UNL     1     -13.148   7.270  -7.444  1.00  0.00     0.037 A 
BRANCH  50  64
ATOM     64  C   UNL     1     -10.110   5.854 -11.768  1.00  0.00     0.064 A 
ATOM     65  C   UNL     1     -11.154   6.290 -12.615  1.00  0.00     0.173 A 
ATOM     66  C   UNL     1      -9.796   4.481 -11.859  1.00  0.00     0.173 A 
ATOM     67  F   UNL     1     -11.546   7.573 -12.614  1.00  0.00    -0.203 F 
ATOM     68  C   UNL     1     -11.890   5.400 -13.403  1.00  0.00     0.198 A 
ATOM     69  C   UNL     1     -10.505   3.605 -12.680  1.00  0.00     0.198 A 
ATOM     70  F   UNL     1      -8.877   3.897 -11.085  1.00  0.00    -0.203 F 
ATOM     71  F   UNL     1     -12.958   5.840 -14.083  1.00  0.00    -0.200 F 
ATOM     72  C   UNL     1     -11.572   4.056 -13.425  1.00  0.00     0.200 A 
ATOM     73  F   UNL     1     -10.195   2.301 -12.669  1.00  0.00    -0.200 F 
ATOM     74  F   UNL     1     -12.316   3.189 -14.124  1.00  0.00    -0.200 F 
ENDBRANCH  50  64
BRANCH  51  75
ATOM     75  C   UNL     1     -13.160   2.098  -4.728  1.00  0.00     0.064 A 
ATOM     76  C   UNL     1     -14.524   1.784  -4.886  1.00  0.00     0.173 A 
ATOM     77  C   UNL     1     -12.304   1.021  -4.434  1.00  0.00     0.173 A 
ATOM     78  F   UNL     1     -15.408   2.745  -5.192  1.00  0.00    -0.203 F 
ATOM     79  C   UNL     1     -14.990   0.467  -4.822  1.00  0.00     0.198 A 
ATOM     80  C   UNL     1     -12.772  -0.294  -4.366  1.00  0.00     0.198 A 
ATOM     81  F   UNL     1     -10.983   1.211  -4.312  1.00  0.00    -0.203 F 
ATOM     82  F   UNL     1     -16.282   0.201  -5.065  1.00  0.00    -0.200 F 
ATOM     83  C   UNL     1     -14.110  -0.574  -4.582  1.00  0.00     0.200 A 
ATOM     84  F   UNL     1     -11.906  -1.298  -4.167  1.00  0.00    -0.200 F 
ATOM     85  F   UNL     1     -14.539  -1.843  -4.605  1.00  0.00    -0.200 F 
ENDBRANCH  51  75
BRANCH  63  86
ATOM     86  C   UNL     1     -13.514   8.171  -6.313  1.00  0.00     0.064 A 
ATOM     87  C   UNL     1     -12.915   8.140  -5.045  1.00  0.00     0.173 A 
ATOM     88  C   UNL     1     -14.408   9.212  -6.596  1.00  0.00     0.173 A 
ATOM     89  F   UNL     1     -12.008   7.205  -4.732  1.00  0.00    -0.203 F 
ATOM     90  C   UNL     1     -13.204   9.125  -4.101  1.00  0.00     0.198 A 
ATOM     91  C   UNL     1     -14.665  10.210  -5.667  1.00  0.00     0.198 A 
ATOM     92  F   UNL     1     -14.979   9.293  -7.808  1.00  0.00    -0.203 F 
ATOM     93  F   UNL     1     -12.618   9.093  -2.895  1.00  0.00    -0.200 F 
ATOM     94  C   UNL     1     -14.064  10.166  -4.420  1.00  0.00     0.200 A 
ATOM     95  F   UNL     1     -15.462  11.235  -5.997  1.00  0.00    -0.200 F 
ATOM     96  F   UNL     1     -14.293  11.145  -3.534  1.00  0.00    -0.200 F 
ENDBRANCH  63  86
ENDBRANCH  37  38
ENDBRANCH  30  32
ENDBRANCH  29  30
ENDBRANCH  28  29
ENDBRANCH   1  28
TORSDOF 16
