REMARK SMILES C[C@H]1CN(C(=O)N2CC[NH+]([C@@H](C)C(=O)OCCOCCOC(=O)c3ccc(-c4c5nc(c(-c6c(F)c(F)c(F)c(F)c6F)c6ccc([nH]6)c(-c6c(F)c(F)c(F)c(F)c6F)c6nc(c(-c7c(F)c(F)c(F)c(F)c7F)c7ccc4[nH]7)C=C6)C=C5)cc3)CC2)C[C@@H]1C
REMARK SMILES IDX 19 1 18 2 17 3 16 4 15 5 13 6 14 7 11 8 12 9 10 10 1 11 2 12
REMARK SMILES IDX 3 13 90 14 4 15 89 16 91 17 5 18 6 19 7 20 8 21 88 22 9 23
REMARK SMILES IDX 87 24 20 26 21 27 22 28 23 29 24 30 25 31 86 32 26 33 85 34
REMARK SMILES IDX 27 35 28 36 29 37 79 38 30 39 84 40 78 41 80 42 31 43 83 44
REMARK SMILES IDX 77 45 76 46 32 48 64 49 44 50 63 51 45 52 48 53 62 54 81 55
REMARK SMILES IDX 46 56 47 57 61 59 82 60 49 61 33 62 34 63 42 64 35 65 36 66
REMARK SMILES IDX 40 67 43 68 37 69 38 70 41 71 39 72 65 73 66 74 74 75 67 76
REMARK SMILES IDX 68 77 72 78 75 79 69 80 70 81 73 82 71 83 50 84 51 85 59 86
REMARK SMILES IDX 52 87 53 88 57 89 60 90 54 91 55 92 58 93 56 94
REMARK H PARENT 10 25 80 47 48 58
REMARK Flexibility Score: inf
ROOT
ATOM      1  C   UNL     1       7.301   5.850   3.066  1.00  0.00     0.202 C 
ENDROOT
BRANCH   1   2
ATOM      2  O   UNL     1       7.645   7.050   3.762  1.00  0.00    -0.374 OA
BRANCH   2   3
ATOM      3  C   UNL     1       6.558   7.875   4.180  1.00  0.00     0.202 C 
BRANCH   3   4
ATOM      4  C   UNL     1       6.029   8.844   3.119  1.00  0.00     0.261 C 
BRANCH   4   5
ATOM      5  O   UNL     1       5.296   8.132   2.106  1.00  0.00    -0.459 OA
BRANCH   5   6
ATOM      6  C   UNL     1       5.912   7.974   0.907  1.00  0.00     0.364 C 
ATOM      7  O   UNL     1       6.951   8.545   0.588  1.00  0.00    -0.245 OA
BRANCH   6   8
ATOM      8  C   UNL     1       5.152   7.050  -0.063  1.00  0.00     0.292 C 
ATOM      9  C   UNL     1       4.235   7.903  -0.929  1.00  0.00     0.088 C 
BRANCH   8  10
ATOM     10  N   UNL     1       4.629   5.784   0.528  1.00  0.00    -0.321 N 
ATOM     11  C   UNL     1       0.403   0.533  -2.293  1.00  0.00     0.010 C 
ATOM     12  C   UNL     1       0.298   0.922  -0.815  1.00  0.00     0.010 C 
ATOM     13  C   UNL     1       1.173   2.143  -0.504  1.00  0.00     0.125 C 
ATOM     14  C   UNL     1      -1.113   1.417  -0.450  1.00  0.00     0.010 C 
ATOM     15  N   UNL     1       0.291   3.296  -0.684  1.00  0.00    -0.324 N 
ATOM     16  C   UNL     1      -1.082   2.872  -0.915  1.00  0.00     0.125 C 
ATOM     17  C   UNL     1      -1.367   1.327   1.059  1.00  0.00     0.010 C 
ATOM     18  C   UNL     1       0.547   4.589  -0.290  1.00  0.00     0.320 C 
ATOM     19  O   UNL     1      -0.353   5.405  -0.095  1.00  0.00    -0.248 OA
ATOM     20  N   UNL     1       1.863   4.903  -0.026  1.00  0.00    -0.313 N 
ATOM     21  C   UNL     1       2.109   5.926   0.979  1.00  0.00     0.183 C 
ATOM     22  C   UNL     1       2.875   4.833  -1.074  1.00  0.00     0.183 C 
ATOM     23  C   UNL     1       3.541   5.846   1.525  1.00  0.00     0.284 C 
ATOM     24  C   UNL     1       4.300   4.758  -0.492  1.00  0.00     0.284 C 
ATOM     25  H   UNL     1       5.445   5.515   1.077  1.00  0.00     0.348 HD
ENDBRANCH   8  10
ENDBRANCH   6   8
ENDBRANCH   5   6
ENDBRANCH   4   5
ENDBRANCH   3   4
ENDBRANCH   2   3
ENDBRANCH   1   2
BRANCH   1  26
ATOM     26  C   UNL     1       6.967   4.652   3.959  1.00  0.00     0.261 C 
BRANCH  26  27
ATOM     27  O   UNL     1       5.729   4.854   4.666  1.00  0.00    -0.460 OA
BRANCH  27  28
ATOM     28  C   UNL     1       5.864   5.120   5.984  1.00  0.00     0.338 C 
ATOM     29  O   UNL     1       6.893   5.099   6.647  1.00  0.00    -0.246 OA
BRANCH  28  30
ATOM     30  C   UNL     1       4.589   5.621   6.528  1.00  0.00     0.060 A 
ATOM     31  C   UNL     1       4.636   6.782   7.309  1.00  0.00     0.016 A 
ATOM     32  C   UNL     1       3.382   4.943   6.337  1.00  0.00     0.016 A 
ATOM     33  C   UNL     1       3.488   7.237   7.953  1.00  0.00     0.010 A 
ATOM     34  C   UNL     1       2.231   5.398   6.988  1.00  0.00     0.010 A 
ATOM     35  C   UNL     1       2.289   6.523   7.831  1.00  0.00    -0.014 A 
BRANCH  35  36
ATOM     36  C   UNL     1       1.149   6.866   8.714  1.00  0.00     0.031 A 
ATOM     37  C   UNL     1       0.933   6.062   9.966  1.00  0.00     0.074 A 
ATOM     38  C   UNL     1       0.347   7.906   8.434  1.00  0.00     0.049 A 
ATOM     39  N   UNL     1       0.017   6.192  10.892  1.00  0.00    -0.248 NA
ATOM     40  C   UNL     1       1.880   4.963  10.206  1.00  0.00     0.031 C 
ATOM     41  C   UNL     1       0.483   8.788   7.277  1.00  0.00     0.029 A 
ATOM     42  N   UNL     1      -0.740   8.399   9.111  1.00  0.00    -0.354 N 
ATOM     43  C   UNL     1       0.275   5.192  11.821  1.00  0.00     0.074 A 
ATOM     44  C   UNL     1       1.410   4.441  11.329  1.00  0.00     0.031 C 
ATOM     45  C   UNL     1      -0.481   9.722   7.328  1.00  0.00     0.029 A 
ATOM     46  C   UNL     1      -1.317   9.485   8.504  1.00  0.00     0.049 A 
ATOM     47  H   UNL     1      -1.073   8.010   9.952  1.00  0.00     0.167 HD
ATOM     48  C   UNL     1      -0.367   4.931  12.984  1.00  0.00     0.037 A 
ATOM     49  C   UNL     1      -2.403  10.199   8.857  1.00  0.00     0.037 A 
ATOM     50  C   UNL     1      -1.499   5.676  13.470  1.00  0.00     0.049 A 
ATOM     51  C   UNL     1      -3.158   9.832  10.107  1.00  0.00     0.074 A 
ATOM     52  C   UNL     1      -2.205   5.506  14.648  1.00  0.00     0.029 A 
ATOM     53  N   UNL     1      -2.098   6.728  12.793  1.00  0.00    -0.354 N 
ATOM     54  N   UNL     1      -2.890   8.907  10.996  1.00  0.00    -0.248 NA
ATOM     55  C   UNL     1      -4.368  10.612  10.401  1.00  0.00     0.031 C 
ATOM     56  C   UNL     1      -3.264   6.421  14.659  1.00  0.00     0.029 A 
ATOM     57  C   UNL     1      -3.187   7.196  13.512  1.00  0.00     0.049 A 
ATOM     58  H   UNL     1      -1.795   7.089  11.929  1.00  0.00     0.167 HD
ATOM     59  C   UNL     1      -3.877   9.012  11.968  1.00  0.00     0.074 A 
ATOM     60  C   UNL     1      -4.746  10.098  11.563  1.00  0.00     0.031 C 
ATOM     61  C   UNL     1      -4.044   8.279  13.097  1.00  0.00     0.037 A 
BRANCH  48  62
ATOM     62  C   UNL     1       0.125   3.763  13.790  1.00  0.00     0.064 A 
ATOM     63  C   UNL     1       1.361   3.791  14.454  1.00  0.00     0.173 A 
ATOM     64  C   UNL     1      -0.648   2.597  13.892  1.00  0.00     0.173 A 
ATOM     65  F   UNL     1       2.145   4.877  14.375  1.00  0.00    -0.203 F 
ATOM     66  C   UNL     1       1.822   2.680  15.156  1.00  0.00     0.198 A 
ATOM     67  C   UNL     1      -0.198   1.499  14.621  1.00  0.00     0.198 A 
ATOM     68  F   UNL     1      -1.839   2.518  13.280  1.00  0.00    -0.203 F 
ATOM     69  F   UNL     1       3.033   2.708  15.730  1.00  0.00    -0.200 F 
ATOM     70  C   UNL     1       1.041   1.537  15.242  1.00  0.00     0.200 A 
ATOM     71  F   UNL     1      -0.958   0.399  14.711  1.00  0.00    -0.200 F 
ATOM     72  F   UNL     1       1.489   0.467  15.914  1.00  0.00    -0.200 F 
ENDBRANCH  48  62
BRANCH  49  73
ATOM     73  C   UNL     1      -2.833  11.349   8.021  1.00  0.00     0.064 A 
ATOM     74  C   UNL     1      -2.698  12.664   8.486  1.00  0.00     0.173 A 
ATOM     75  C   UNL     1      -3.383  11.159   6.745  1.00  0.00     0.173 A 
ATOM     76  F   UNL     1      -2.203  12.893   9.711  1.00  0.00    -0.203 F 
ATOM     77  C   UNL     1      -3.103  13.747   7.708  1.00  0.00     0.198 A 
ATOM     78  C   UNL     1      -3.765  12.244   5.958  1.00  0.00     0.198 A 
ATOM     79  F   UNL     1      -3.538   9.919   6.258  1.00  0.00    -0.203 F 
ATOM     80  F   UNL     1      -2.993  14.992   8.189  1.00  0.00    -0.200 F 
ATOM     81  C   UNL     1      -3.628  13.536   6.442  1.00  0.00     0.200 A 
ATOM     82  F   UNL     1      -4.265  12.037   4.732  1.00  0.00    -0.200 F 
ATOM     83  F   UNL     1      -4.010  14.579   5.691  1.00  0.00    -0.200 F 
ENDBRANCH  49  73
BRANCH  61  84
ATOM     84  C   UNL     1      -5.190   8.648  13.995  1.00  0.00     0.064 A 
ATOM     85  C   UNL     1      -6.520   8.376  13.642  1.00  0.00     0.173 A 
ATOM     86  C   UNL     1      -4.952   9.250  15.240  1.00  0.00     0.173 A 
ATOM     87  F   UNL     1      -6.803   7.816  12.456  1.00  0.00    -0.203 F 
ATOM     88  C   UNL     1      -7.570   8.716  14.491  1.00  0.00     0.198 A 
ATOM     89  C   UNL     1      -6.002   9.562  16.099  1.00  0.00     0.198 A 
ATOM     90  F   UNL     1      -3.698   9.525  15.629  1.00  0.00    -0.203 F 
ATOM     91  F   UNL     1      -8.836   8.491  14.113  1.00  0.00    -0.200 F 
ATOM     92  C   UNL     1      -7.310   9.302  15.721  1.00  0.00     0.200 A 
ATOM     93  F   UNL     1      -5.747  10.115  17.293  1.00  0.00    -0.200 F 
ATOM     94  F   UNL     1      -8.321   9.623  16.540  1.00  0.00    -0.200 F 
ENDBRANCH  61  84
ENDBRANCH  35  36
ENDBRANCH  28  30
ENDBRANCH  27  28
ENDBRANCH  26  27
ENDBRANCH   1  26
TORSDOF 15
