REMARK SMILES CCCN(CCC)c1ccc(C(=O)OCCOCCOC(=O)c2ccc(-c3c4nc(c(-c5c(F)c(F)c(F)c(F)c5F)c5ccc([nH]5)c(-c5c(F)c(F)c(F)c(F)c5F)c5nc(c(-c6c(F)c(F)c(F)c(F)c6F)c6ccc3[nH]6)C=C5)C=C4)cc2)cc1[N+](=O)[O-]
REMARK SMILES IDX 16 1 15 2 14 3 12 4 13 5 11 6 8 7 9 8 87 9 10 10 86 11 4 12
REMARK SMILES IDX 3 13 2 14 1 15 5 16 6 17 7 18 88 19 89 20 90 21 17 22 18 23
REMARK SMILES IDX 19 24 20 25 21 26 22 27 23 28 24 29 85 30 25 31 84 32 26 33
REMARK SMILES IDX 27 34 28 35 78 36 29 37 83 38 77 39 79 40 30 41 82 42 76 43
REMARK SMILES IDX 75 44 31 46 63 47 43 48 62 49 44 50 47 51 61 52 80 53 45 54
REMARK SMILES IDX 46 55 60 57 81 58 48 59 32 60 33 61 41 62 34 63 35 64 39 65
REMARK SMILES IDX 42 66 36 67 37 68 40 69 38 70 64 71 65 72 73 73 66 74 67 75
REMARK SMILES IDX 71 76 74 77 68 78 69 79 72 80 70 81 49 82 50 83 58 84 51 85
REMARK SMILES IDX 52 86 56 87 59 88 53 89 54 90 57 91 55 92
REMARK H PARENT 79 45 47 56
REMARK Flexibility Score: inf
ROOT
ATOM      1  C   UNL     1       2.520  -2.448  -7.497  1.00  0.00     0.202 C 
ENDROOT
BRANCH   1   2
ATOM      2  C   UNL     1       3.421  -2.456  -6.260  1.00  0.00     0.261 C 
BRANCH   2   3
ATOM      3  O   UNL     1       2.778  -1.835  -5.138  1.00  0.00    -0.460 OA
BRANCH   3   4
ATOM      4  C   UNL     1       3.401  -0.723  -4.678  1.00  0.00     0.338 C 
ATOM      5  O   UNL     1       4.507  -0.324  -5.004  1.00  0.00    -0.246 OA
BRANCH   4   6
ATOM      6  C   UNL     1       2.519   0.045  -3.761  1.00  0.00     0.067 A 
ATOM      7  C   UNL     1       0.999   1.644  -1.969  1.00  0.00     0.116 A 
ATOM      8  C   UNL     1       2.172   2.126  -2.568  1.00  0.00     0.034 A 
ATOM      9  C   UNL     1       0.585   0.351  -2.341  1.00  0.00     0.293 A 
ATOM     10  C   UNL     1       2.914   1.351  -3.458  1.00  0.00     0.018 A 
ATOM     11  C   UNL     1       1.337  -0.461  -3.213  1.00  0.00     0.103 A 
BRANCH   7  12
ATOM     12  N   UNL     1       0.384   2.410  -0.990  1.00  0.00    -0.366 N 
BRANCH  12  13
ATOM     13  C   UNL     1       1.073   2.551   0.303  1.00  0.00     0.116 C 
BRANCH  13  14
ATOM     14  C   UNL     1       0.810   1.343   1.210  1.00  0.00     0.018 C 
ATOM     15  C   UNL     1       1.839   0.230   1.062  1.00  0.00     0.006 C 
ENDBRANCH  13  14
ENDBRANCH  12  13
BRANCH  12  16
ATOM     16  C   UNL     1      -0.642   3.397  -1.362  1.00  0.00     0.116 C 
BRANCH  16  17
ATOM     17  C   UNL     1      -0.070   4.621  -2.089  1.00  0.00     0.018 C 
ATOM     18  C   UNL     1      -0.228   4.527  -3.603  1.00  0.00     0.006 C 
ENDBRANCH  16  17
ENDBRANCH  12  16
ENDBRANCH   7  12
BRANCH   9  19
ATOM     19  N   UNL     1      -0.608  -0.240  -1.755  1.00  0.00     0.065 N 
ATOM     20  O   UNL     1      -0.467  -1.330  -1.180  1.00  0.00    -0.258 OA
ATOM     21  O   UNL     1      -1.691   0.332  -1.942  1.00  0.00    -0.258 OA
ENDBRANCH   9  19
ENDBRANCH   4   6
ENDBRANCH   3   4
ENDBRANCH   2   3
ENDBRANCH   1   2
BRANCH   1  22
ATOM     22  O   UNL     1       2.044  -1.175  -7.928  1.00  0.00    -0.374 OA
BRANCH  22  23
ATOM     23  C   UNL     1       0.947  -0.598  -7.215  1.00  0.00     0.202 C 
BRANCH  23  24
ATOM     24  C   UNL     1      -0.427  -1.248  -7.417  1.00  0.00     0.261 C 
BRANCH  24  25
ATOM     25  O   UNL     1      -0.498  -2.553  -6.809  1.00  0.00    -0.460 OA
BRANCH  25  26
ATOM     26  C   UNL     1      -0.749  -3.567  -7.673  1.00  0.00     0.338 C 
ATOM     27  O   UNL     1      -0.998  -3.484  -8.863  1.00  0.00    -0.246 OA
BRANCH  26  28
ATOM     28  C   UNL     1      -0.493  -4.864  -7.017  1.00  0.00     0.060 A 
ATOM     29  C   UNL     1       0.442  -5.716  -7.618  1.00  0.00     0.016 A 
ATOM     30  C   UNL     1      -1.220  -5.279  -5.900  1.00  0.00     0.016 A 
ATOM     31  C   UNL     1       0.619  -7.010  -7.133  1.00  0.00     0.010 A 
ATOM     32  C   UNL     1      -1.049  -6.584  -5.422  1.00  0.00     0.010 A 
ATOM     33  C   UNL     1      -0.156  -7.465  -6.059  1.00  0.00    -0.014 A 
BRANCH  33  34
ATOM     34  C   UNL     1      -0.133  -8.907  -5.713  1.00  0.00     0.031 A 
ATOM     35  C   UNL     1      -1.203  -9.808  -6.266  1.00  0.00     0.074 A 
ATOM     36  C   UNL     1       0.854  -9.417  -4.956  1.00  0.00     0.049 A 
ATOM     37  N   UNL     1      -1.367 -11.097  -6.110  1.00  0.00    -0.248 NA
ATOM     38  C   UNL     1      -2.224  -9.169  -7.111  1.00  0.00     0.031 C 
ATOM     39  C   UNL     1       1.963  -8.653  -4.391  1.00  0.00     0.029 A 
ATOM     40  N   UNL     1       1.079 -10.703  -4.535  1.00  0.00    -0.354 N 
ATOM     41  C   UNL     1      -2.505 -11.423  -6.836  1.00  0.00     0.074 A 
ATOM     42  C   UNL     1      -3.010 -10.193  -7.407  1.00  0.00     0.031 C 
ATOM     43  C   UNL     1       2.751  -9.485  -3.688  1.00  0.00     0.029 A 
ATOM     44  C   UNL     1       2.188 -10.834  -3.737  1.00  0.00     0.049 A 
ATOM     45  H   UNL     1       0.500 -11.461  -4.782  1.00  0.00     0.167 HD
ATOM     46  C   UNL     1      -3.071 -12.640  -7.019  1.00  0.00     0.037 A 
ATOM     47  C   UNL     1       2.683 -11.918  -3.108  1.00  0.00     0.037 A 
ATOM     48  C   UNL     1      -2.569 -13.863  -6.451  1.00  0.00     0.049 A 
ATOM     49  C   UNL     1       1.997 -13.249  -3.276  1.00  0.00     0.074 A 
ATOM     50  C   UNL     1      -3.060 -15.149  -6.597  1.00  0.00     0.029 A 
ATOM     51  N   UNL     1      -1.464 -13.949  -5.618  1.00  0.00    -0.354 N 
ATOM     52  N   UNL     1       0.944 -13.554  -3.994  1.00  0.00    -0.248 NA
ATOM     53  C   UNL     1       2.575 -14.388  -2.548  1.00  0.00     0.031 C 
ATOM     54  C   UNL     1      -2.279 -16.007  -5.817  1.00  0.00     0.029 A 
ATOM     55  C   UNL     1      -1.272 -15.263  -5.221  1.00  0.00     0.049 A 
ATOM     56  H   UNL     1      -0.898 -13.190  -5.349  1.00  0.00     0.167 HD
ATOM     57  C   UNL     1       0.748 -14.918  -3.825  1.00  0.00     0.074 A 
ATOM     58  C   UNL     1       1.800 -15.386  -2.947  1.00  0.00     0.031 C 
ATOM     59  C   UNL     1      -0.217 -15.713  -4.351  1.00  0.00     0.037 A 
BRANCH  46  60
ATOM     60  C   UNL     1      -4.314 -12.704  -7.856  1.00  0.00     0.064 A 
ATOM     61  C   UNL     1      -4.271 -12.545  -9.249  1.00  0.00     0.173 A 
ATOM     62  C   UNL     1      -5.558 -12.963  -7.261  1.00  0.00     0.173 A 
ATOM     63  F   UNL     1      -3.107 -12.283  -9.863  1.00  0.00    -0.203 F 
ATOM     64  C   UNL     1      -5.432 -12.620 -10.014  1.00  0.00     0.198 A 
ATOM     65  C   UNL     1      -6.713 -13.062  -8.032  1.00  0.00     0.198 A 
ATOM     66  F   UNL     1      -5.652 -13.127  -5.933  1.00  0.00    -0.203 F 
ATOM     67  F   UNL     1      -5.374 -12.424 -11.338  1.00  0.00    -0.200 F 
ATOM     68  C   UNL     1      -6.650 -12.885  -9.406  1.00  0.00     0.200 A 
ATOM     69  F   UNL     1      -7.888 -13.328  -7.445  1.00  0.00    -0.200 F 
ATOM     70  F   UNL     1      -7.766 -12.963 -10.144  1.00  0.00    -0.200 F 
ENDBRANCH  46  60
BRANCH  47  71
ATOM     71  C   UNL     1       3.892 -11.791  -2.255  1.00  0.00     0.064 A 
ATOM     72  C   UNL     1       5.110 -12.370  -2.635  1.00  0.00     0.173 A 
ATOM     73  C   UNL     1       3.847 -11.105  -1.032  1.00  0.00     0.173 A 
ATOM     74  F   UNL     1       5.195 -13.059  -3.782  1.00  0.00    -0.203 F 
ATOM     75  C   UNL     1       6.234 -12.281  -1.816  1.00  0.00     0.198 A 
ATOM     76  C   UNL     1       4.979 -10.995  -0.227  1.00  0.00     0.198 A 
ATOM     77  F   UNL     1       2.704 -10.537  -0.623  1.00  0.00    -0.203 F 
ATOM     78  F   UNL     1       7.375 -12.882  -2.182  1.00  0.00    -0.200 F 
ATOM     79  C   UNL     1       6.169 -11.589  -0.616  1.00  0.00     0.200 A 
ATOM     80  F   UNL     1       4.914 -10.317   0.927  1.00  0.00    -0.200 F 
ATOM     81  F   UNL     1       7.251 -11.503   0.170  1.00  0.00    -0.200 F 
ENDBRANCH  47  71
BRANCH  59  82
ATOM     82  C   UNL     1      -0.165 -17.175  -4.014  1.00  0.00     0.064 A 
ATOM     83  C   UNL     1      -0.511 -17.648  -2.740  1.00  0.00     0.173 A 
ATOM     84  C   UNL     1       0.195 -18.116  -4.991  1.00  0.00     0.173 A 
ATOM     85  F   UNL     1      -0.848 -16.787  -1.769  1.00  0.00    -0.203 F 
ATOM     86  C   UNL     1      -0.476 -19.010  -2.450  1.00  0.00     0.198 A 
ATOM     87  C   UNL     1       0.202 -19.479  -4.704  1.00  0.00     0.198 A 
ATOM     88  F   UNL     1       0.528 -17.715  -6.227  1.00  0.00    -0.203 F 
ATOM     89  F   UNL     1      -0.768 -19.437  -1.213  1.00  0.00    -0.200 F 
ATOM     90  C   UNL     1      -0.127 -19.924  -3.433  1.00  0.00     0.200 A 
ATOM     91  F   UNL     1       0.528 -20.361  -5.659  1.00  0.00    -0.200 F 
ATOM     92  F   UNL     1      -0.100 -21.234  -3.153  1.00  0.00    -0.200 F 
ENDBRANCH  59  82
ENDBRANCH  33  34
ENDBRANCH  26  28
ENDBRANCH  25  26
ENDBRANCH  24  25
ENDBRANCH  23  24
ENDBRANCH  22  23
ENDBRANCH   1  22
TORSDOF 20
