REMARK SMILES Cc1cc(C(=O)OCCOCCOC(=O)c2ccc(-c3c4nc(c(-c5c(F)c(F)c(F)c(F)c5F)c5ccc([nH]5)c(-c5c(F)c(F)c(F)c(F)c5F)c5nc(c(-c6c(F)c(F)c(F)c(F)c6F)c6ccc3[nH]6)C=C5)C=C4)cc2)ccc1NS(=O)(=O)c1ccc(C#N)cc1C
REMARK SMILES IDX 9 1 8 2 7 3 5 4 6 5 4 6 1 7 2 8 3 9 81 10 80 11 79 12 82 13
REMARK SMILES IDX 83 15 84 16 85 17 86 18 87 19 93 20 88 21 92 22 94 23 89 24
REMARK SMILES IDX 90 25 91 26 10 27 11 28 12 29 13 30 14 31 15 32 16 33 17 34
REMARK SMILES IDX 78 35 18 36 77 37 19 38 20 39 21 40 71 41 22 42 76 43 70 44
REMARK SMILES IDX 72 45 23 46 75 47 69 48 68 49 24 51 56 52 36 53 55 54 37 55
REMARK SMILES IDX 40 56 54 57 73 58 38 59 39 60 53 62 74 63 41 64 25 65 26 66
REMARK SMILES IDX 34 67 27 68 28 69 32 70 35 71 29 72 30 73 33 74 31 75 57 76
REMARK SMILES IDX 58 77 66 78 59 79 60 80 64 81 67 82 61 83 62 84 65 85 63 86
REMARK SMILES IDX 42 87 43 88 51 89 44 90 45 91 49 92 52 93 46 94 47 95 50 96
REMARK SMILES IDX 48 97
REMARK H PARENT 82 14 72 50 40 61
REMARK Flexibility Score: inf
ROOT
ATOM      1  C   UNL     1      -3.051  -2.358  -2.240  1.00  0.00     0.202 C 
ENDROOT
BRANCH   1   2
ATOM      2  C   UNL     1      -3.542  -2.172  -0.848  1.00  0.00     0.261 C 
BRANCH   2   3
ATOM      3  O   UNL     1      -2.642  -1.426  -0.005  1.00  0.00    -0.460 OA
BRANCH   3   4
ATOM      4  C   UNL     1      -1.369  -1.887   0.146  1.00  0.00     0.338 C 
ATOM      5  O   UNL     1      -1.008  -2.935   0.647  1.00  0.00    -0.246 OA
BRANCH   4   6
ATOM      6  C   UNL     1      -0.481  -0.794  -0.274  1.00  0.00     0.060 A 
ATOM      7  C   UNL     1       3.039   0.422   0.205  1.00  0.00     0.046 C 
ATOM      8  C   UNL     1       1.553   0.437  -0.008  1.00  0.00    -0.026 A 
ATOM      9  C   UNL     1       0.839  -0.754   0.154  1.00  0.00     0.021 A 
ATOM     10  C   UNL     1       0.874   1.578  -0.484  1.00  0.00     0.052 A 
ATOM     11  C   UNL     1      -0.274   1.405  -1.238  1.00  0.00     0.028 A 
ATOM     12  C   UNL     1      -0.982   0.231  -1.083  1.00  0.00     0.018 A 
BRANCH  10  13
ATOM     13  N   UNL     1       0.952   2.738   0.354  1.00  0.00    -0.279 N 
ATOM     14  H   UNL     1       1.532   2.672   1.147  1.00  0.00     0.180 HD
BRANCH  13  15
ATOM     15  S   UNL     1       0.157   4.195   0.120  1.00  0.00     0.262 S 
ATOM     16  O   UNL     1       0.608   5.035   1.210  1.00  0.00    -0.201 OA
ATOM     17  O   UNL     1       0.357   4.578  -1.263  1.00  0.00    -0.201 OA
BRANCH  15  18
ATOM     18  C   UNL     1      -1.630   4.013   0.346  1.00  0.00     0.090 A 
ATOM     19  C   UNL     1      -2.215   2.786   0.688  1.00  0.00     0.024 A 
ATOM     20  C   UNL     1      -2.470   5.098   0.007  1.00  0.00    -0.029 A 
ATOM     21  C   UNL     1      -3.595   2.580   0.515  1.00  0.00     0.021 A 
ATOM     22  C   UNL     1      -3.858   4.881  -0.133  1.00  0.00     0.024 A 
ATOM     23  C   UNL     1      -1.995   6.520  -0.135  1.00  0.00     0.046 C 
ATOM     24  C   UNL     1      -4.416   3.619   0.072  1.00  0.00     0.052 A 
BRANCH  24  25
ATOM     25  C   UNL     1      -5.822   3.412  -0.170  1.00  0.00     0.099 C 
ATOM     26  N   UNL     1      -6.948   3.270  -0.383  1.00  0.00    -0.192 NA
ENDBRANCH  24  25
ENDBRANCH  15  18
ENDBRANCH  13  15
ENDBRANCH  10  13
ENDBRANCH   4   6
ENDBRANCH   3   4
ENDBRANCH   2   3
ENDBRANCH   1   2
BRANCH   1  27
ATOM     27  O   UNL     1      -1.896  -3.164  -2.106  1.00  0.00    -0.374 OA
BRANCH  27  28
ATOM     28  C   UNL     1      -1.140  -3.344  -3.281  1.00  0.00     0.202 C 
BRANCH  28  29
ATOM     29  C   UNL     1      -1.985  -3.951  -4.404  1.00  0.00     0.261 C 
BRANCH  29  30
ATOM     30  O   UNL     1      -2.426  -5.275  -4.014  1.00  0.00    -0.460 OA
BRANCH  30  31
ATOM     31  C   UNL     1      -3.715  -5.395  -3.578  1.00  0.00     0.338 C 
ATOM     32  O   UNL     1      -4.698  -4.997  -4.178  1.00  0.00    -0.246 OA
BRANCH  31  33
ATOM     33  C   UNL     1      -3.732  -5.810  -2.139  1.00  0.00     0.060 A 
ATOM     34  C   UNL     1      -4.915  -5.712  -1.375  1.00  0.00     0.016 A 
ATOM     35  C   UNL     1      -2.509  -5.936  -1.493  1.00  0.00     0.016 A 
ATOM     36  C   UNL     1      -4.848  -5.553   0.021  1.00  0.00     0.010 A 
ATOM     37  C   UNL     1      -2.443  -5.626  -0.154  1.00  0.00     0.010 A 
ATOM     38  C   UNL     1      -3.600  -5.397   0.613  1.00  0.00    -0.014 A 
BRANCH  38  39
ATOM     39  C   UNL     1      -3.316  -4.948   1.982  1.00  0.00     0.031 A 
ATOM     40  C   UNL     1      -2.528  -5.888   2.812  1.00  0.00     0.074 A 
ATOM     41  C   UNL     1      -3.451  -3.643   2.348  1.00  0.00     0.049 A 
ATOM     42  N   UNL     1      -2.214  -5.662   4.032  1.00  0.00    -0.248 NA
ATOM     43  C   UNL     1      -2.038  -7.193   2.354  1.00  0.00     0.031 C 
ATOM     44  C   UNL     1      -2.715  -2.882   3.369  1.00  0.00     0.029 A 
ATOM     45  N   UNL     1      -4.260  -2.637   1.799  1.00  0.00    -0.354 N 
ATOM     46  C   UNL     1      -1.244  -6.562   4.399  1.00  0.00     0.074 A 
ATOM     47  C   UNL     1      -1.269  -7.573   3.379  1.00  0.00     0.031 C 
ATOM     48  C   UNL     1      -3.324  -1.699   3.592  1.00  0.00     0.029 A 
ATOM     49  C   UNL     1      -4.539  -1.688   2.793  1.00  0.00     0.049 A 
ATOM     50  H   UNL     1      -4.580  -2.603   0.869  1.00  0.00     0.167 HD
ATOM     51  C   UNL     1      -0.475  -6.238   5.475  1.00  0.00     0.037 A 
ATOM     52  C   UNL     1      -5.821  -1.470   3.185  1.00  0.00     0.037 A 
ATOM     53  C   UNL     1      -1.024  -5.032   6.118  1.00  0.00     0.049 A 
ATOM     54  C   UNL     1      -5.892  -1.962   4.595  1.00  0.00     0.074 A 
ATOM     55  C   UNL     1      -0.633  -3.706   6.159  1.00  0.00     0.029 A 
ATOM     56  N   UNL     1      -2.358  -5.056   6.531  1.00  0.00    -0.354 N 
ATOM     57  N   UNL     1      -5.128  -2.931   5.032  1.00  0.00    -0.248 NA
ATOM     58  C   UNL     1      -6.613  -1.270   5.654  1.00  0.00     0.031 C 
ATOM     59  C   UNL     1      -1.783  -2.930   6.516  1.00  0.00     0.029 A 
ATOM     60  C   UNL     1      -2.864  -3.783   6.709  1.00  0.00     0.049 A 
ATOM     61  H   UNL     1      -2.876  -5.881   6.677  1.00  0.00     0.167 HD
ATOM     62  C   UNL     1      -5.097  -2.872   6.388  1.00  0.00     0.074 A 
ATOM     63  C   UNL     1      -6.092  -1.868   6.738  1.00  0.00     0.031 C 
ATOM     64  C   UNL     1      -4.240  -3.592   7.162  1.00  0.00     0.037 A 
BRANCH  51  65
ATOM     65  C   UNL     1       0.832  -6.883   5.886  1.00  0.00     0.064 A 
ATOM     66  C   UNL     1       1.483  -6.447   7.061  1.00  0.00     0.173 A 
ATOM     67  C   UNL     1       1.541  -7.867   5.161  1.00  0.00     0.173 A 
ATOM     68  F   UNL     1       0.939  -5.506   7.846  1.00  0.00    -0.203 F 
ATOM     69  C   UNL     1       2.724  -6.949   7.472  1.00  0.00     0.198 A 
ATOM     70  C   UNL     1       2.762  -8.399   5.595  1.00  0.00     0.198 A 
ATOM     71  F   UNL     1       1.122  -8.332   3.982  1.00  0.00    -0.203 F 
ATOM     72  F   UNL     1       3.304  -6.462   8.577  1.00  0.00    -0.200 F 
ATOM     73  C   UNL     1       3.358  -7.934   6.745  1.00  0.00     0.200 A 
ATOM     74  F   UNL     1       3.364  -9.354   4.870  1.00  0.00    -0.200 F 
ATOM     75  F   UNL     1       4.540  -8.424   7.143  1.00  0.00    -0.200 F 
ENDBRANCH  51  65
BRANCH  52  76
ATOM     76  C   UNL     1      -6.770  -1.608   2.034  1.00  0.00     0.064 A 
ATOM     77  C   UNL     1      -6.680  -0.599   1.044  1.00  0.00     0.173 A 
ATOM     78  C   UNL     1      -7.274  -2.851   1.623  1.00  0.00     0.173 A 
ATOM     79  F   UNL     1      -6.169   0.600   1.366  1.00  0.00    -0.203 F 
ATOM     80  C   UNL     1      -6.906  -0.873  -0.307  1.00  0.00     0.198 A 
ATOM     81  C   UNL     1      -7.509  -3.116   0.265  1.00  0.00     0.198 A 
ATOM     82  F   UNL     1      -7.374  -3.861   2.498  1.00  0.00    -0.203 F 
ATOM     83  F   UNL     1      -6.579   0.038  -1.238  1.00  0.00    -0.200 F 
ATOM     84  C   UNL     1      -7.274  -2.147  -0.699  1.00  0.00     0.200 A 
ATOM     85  F   UNL     1      -7.841  -4.356  -0.127  1.00  0.00    -0.200 F 
ATOM     86  F   UNL     1      -7.294  -2.467  -2.002  1.00  0.00    -0.200 F 
ENDBRANCH  52  76
BRANCH  64  87
ATOM     87  C   UNL     1      -4.702  -4.158   8.473  1.00  0.00     0.064 A 
ATOM     88  C   UNL     1      -6.063  -4.273   8.813  1.00  0.00     0.173 A 
ATOM     89  C   UNL     1      -3.795  -4.777   9.359  1.00  0.00     0.173 A 
ATOM     90  F   UNL     1      -7.039  -3.889   7.978  1.00  0.00    -0.203 F 
ATOM     91  C   UNL     1      -6.477  -4.845  10.009  1.00  0.00     0.198 A 
ATOM     92  C   UNL     1      -4.222  -5.433  10.508  1.00  0.00     0.198 A 
ATOM     93  F   UNL     1      -2.476  -4.804   9.124  1.00  0.00    -0.203 F 
ATOM     94  F   UNL     1      -7.779  -4.844  10.322  1.00  0.00    -0.200 F 
ATOM     95  C   UNL     1      -5.557  -5.432  10.852  1.00  0.00     0.200 A 
ATOM     96  F   UNL     1      -3.330  -6.082  11.268  1.00  0.00    -0.200 F 
ATOM     97  F   UNL     1      -5.961  -6.018  11.985  1.00  0.00    -0.200 F 
ENDBRANCH  64  87
ENDBRANCH  38  39
ENDBRANCH  31  33
ENDBRANCH  30  31
ENDBRANCH  29  30
ENDBRANCH  28  29
ENDBRANCH  27  28
ENDBRANCH   1  27
TORSDOF 18
