REMARK SMILES C[C@H]([C@@H](C)O)[NH+]1CCC(C)(C(=O)OCCOCCOC(=O)c2ccc(-c3c4nc(c(-c5c(F)c(F)c(F)c(F)c5F)c5ccc([nH]5)c(-c5c(F)c(F)c(F)c(F)c5F)c5nc(c(-c6c(F)c(F)c(F)c(F)c6F)c6ccc3[nH]6)C=C5)C=C4)cc2)CC1
REMARK SMILES IDX 15 1 14 2 13 3 11 4 12 5 9 6 6 7 7 8 86 9 8 11 85 12 10 13
REMARK SMILES IDX 2 14 1 15 3 16 4 17 5 18 16 20 17 21 18 22 19 23 20 24 21 25
REMARK SMILES IDX 22 26 23 27 84 28 24 29 83 30 25 31 26 32 27 33 77 34 28 35
REMARK SMILES IDX 82 36 76 37 78 38 29 39 81 40 75 41 74 42 30 44 62 45 42 46
REMARK SMILES IDX 61 47 43 48 46 49 60 50 79 51 44 52 45 53 59 55 80 56 47 57
REMARK SMILES IDX 31 58 32 59 40 60 33 61 34 62 38 63 41 64 35 65 36 66 39 67
REMARK SMILES IDX 37 68 63 69 64 70 72 71 65 72 66 73 70 74 73 75 67 76 68 77
REMARK SMILES IDX 71 78 69 79 48 80 49 81 57 82 50 83 51 84 55 85 58 86 52 87
REMARK SMILES IDX 53 88 56 89 54 90
REMARK H PARENT 6 10 5 19 78 43 46 54
REMARK Flexibility Score: inf
ROOT
ATOM      1  C   UNL     1      -6.099   2.454  -0.915  1.00  0.00     0.202 C 
ENDROOT
BRANCH   1   2
ATOM      2  C   UNL     1      -4.993   3.449  -0.541  1.00  0.00     0.261 C 
BRANCH   2   3
ATOM      3  O   UNL     1      -3.656   3.042  -0.914  1.00  0.00    -0.463 OA
BRANCH   3   4
ATOM      4  C   UNL     1      -2.784   2.979   0.127  1.00  0.00     0.312 C 
ATOM      5  O   UNL     1      -3.103   3.237   1.287  1.00  0.00    -0.252 OA
BRANCH   4   6
ATOM      6  C   UNL     1      -1.342   2.570  -0.221  1.00  0.00     0.076 C 
ATOM      7  N   UNL     1      -0.408  -0.083  -1.215  1.00  0.00    -0.331 N 
ATOM      8  C   UNL     1      -0.851   0.891  -2.205  1.00  0.00     0.263 C 
ATOM      9  C   UNL     1      -1.174   0.009   0.001  1.00  0.00     0.263 C 
ATOM     10  H   UNL     1      -0.658  -1.006  -1.570  1.00  0.00     0.348 HD
ATOM     11  C   UNL     1      -0.971   2.341  -1.712  1.00  0.00     0.080 C 
ATOM     12  C   UNL     1      -1.000   1.358   0.682  1.00  0.00     0.080 C 
ATOM     13  C   UNL     1      -0.506   3.790   0.252  1.00  0.00     0.024 C 
BRANCH   7  14
ATOM     14  C   UNL     1       1.031  -0.408  -1.170  1.00  0.00     0.209 C 
ATOM     15  C   UNL     1       1.149  -1.855  -1.690  1.00  0.00     0.078 C 
BRANCH  14  16
ATOM     16  C   UNL     1       1.892  -0.220   0.134  1.00  0.00     0.169 C 
ATOM     17  C   UNL     1       1.519  -1.029   1.378  1.00  0.00     0.045 C 
BRANCH  16  18
ATOM     18  O   UNL     1       3.269  -0.519  -0.163  1.00  0.00    -0.387 OA
ATOM     19  H   UNL     1       3.354  -1.459  -0.389  1.00  0.00     0.211 HD
ENDBRANCH  16  18
ENDBRANCH  14  16
ENDBRANCH   7  14
ENDBRANCH   4   6
ENDBRANCH   3   4
ENDBRANCH   2   3
ENDBRANCH   1   2
BRANCH   1  20
ATOM     20  O   UNL     1      -5.990   1.114  -0.447  1.00  0.00    -0.374 OA
BRANCH  20  21
ATOM     21  C   UNL     1      -4.897   0.342  -0.935  1.00  0.00     0.202 C 
BRANCH  21  22
ATOM     22  C   UNL     1      -4.883   0.000  -2.432  1.00  0.00     0.261 C 
BRANCH  22  23
ATOM     23  O   UNL     1      -4.867   1.175  -3.264  1.00  0.00    -0.460 OA
BRANCH  23  24
ATOM     24  C   UNL     1      -5.797   1.179  -4.253  1.00  0.00     0.338 C 
ATOM     25  O   UNL     1      -6.512   0.259  -4.607  1.00  0.00    -0.246 OA
BRANCH  24  26
ATOM     26  C   UNL     1      -5.976   2.552  -4.756  1.00  0.00     0.060 A 
ATOM     27  C   UNL     1      -7.144   3.238  -4.395  1.00  0.00     0.016 A 
ATOM     28  C   UNL     1      -5.058   3.126  -5.634  1.00  0.00     0.016 A 
ATOM     29  C   UNL     1      -7.397   4.507  -4.911  1.00  0.00     0.010 A 
ATOM     30  C   UNL     1      -5.326   4.390  -6.172  1.00  0.00     0.010 A 
ATOM     31  C   UNL     1      -6.502   5.080  -5.824  1.00  0.00    -0.014 A 
BRANCH  31  32
ATOM     32  C   UNL     1      -6.848   6.361  -6.484  1.00  0.00     0.031 A 
ATOM     33  C   UNL     1      -7.536   6.341  -7.819  1.00  0.00     0.074 A 
ATOM     34  C   UNL     1      -6.559   7.531  -5.886  1.00  0.00     0.049 A 
ATOM     35  N   UNL     1      -7.885   7.342  -8.586  1.00  0.00    -0.248 NA
ATOM     36  C   UNL     1      -7.880   5.017  -8.361  1.00  0.00     0.031 C 
ATOM     37  C   UNL     1      -5.930   7.673  -4.574  1.00  0.00     0.029 A 
ATOM     38  N   UNL     1      -6.746   8.822  -6.312  1.00  0.00    -0.354 N 
ATOM     39  C   UNL     1      -8.486   6.771  -9.700  1.00  0.00     0.074 A 
ATOM     40  C   UNL     1      -8.442   5.336  -9.519  1.00  0.00     0.031 C 
ATOM     41  C   UNL     1      -5.756   8.980  -4.314  1.00  0.00     0.029 A 
ATOM     42  C   UNL     1      -6.234   9.763  -5.453  1.00  0.00     0.049 A 
ATOM     43  H   UNL     1      -7.204   9.052  -7.153  1.00  0.00     0.167 HD
ATOM     44  C   UNL     1      -9.025   7.394 -10.774  1.00  0.00     0.037 A 
ATOM     45  C   UNL     1      -6.131  11.099  -5.588  1.00  0.00     0.037 A 
ATOM     46  C   UNL     1      -9.070   8.821 -10.949  1.00  0.00     0.049 A 
ATOM     47  C   UNL     1      -6.669  11.757  -6.834  1.00  0.00     0.074 A 
ATOM     48  C   UNL     1      -9.644   9.546 -11.978  1.00  0.00     0.029 A 
ATOM     49  N   UNL     1      -8.504   9.740 -10.078  1.00  0.00    -0.354 N 
ATOM     50  N   UNL     1      -7.281  11.215  -7.858  1.00  0.00    -0.248 NA
ATOM     51  C   UNL     1      -6.496  13.213  -6.944  1.00  0.00     0.031 C 
ATOM     52  C   UNL     1      -9.378  10.902 -11.759  1.00  0.00     0.029 A 
ATOM     53  C   UNL     1      -8.678  11.023 -10.569  1.00  0.00     0.049 A 
ATOM     54  H   UNL     1      -8.047   9.513  -9.236  1.00  0.00     0.167 HD
ATOM     55  C   UNL     1      -7.578  12.259  -8.724  1.00  0.00     0.074 A 
ATOM     56  C   UNL     1      -7.098  13.472  -8.096  1.00  0.00     0.031 C 
ATOM     57  C   UNL     1      -8.189  12.218  -9.933  1.00  0.00     0.037 A 
BRANCH  44  58
ATOM     58  C   UNL     1      -9.595   6.540 -11.867  1.00  0.00     0.064 A 
ATOM     59  C   UNL     1     -10.830   5.893 -11.726  1.00  0.00     0.173 A 
ATOM     60  C   UNL     1      -8.930   6.433 -13.097  1.00  0.00     0.173 A 
ATOM     61  F   UNL     1     -11.498   5.958 -10.565  1.00  0.00    -0.203 F 
ATOM     62  C   UNL     1     -11.377   5.163 -12.779  1.00  0.00     0.198 A 
ATOM     63  C   UNL     1      -9.489   5.720 -14.153  1.00  0.00     0.198 A 
ATOM     64  F   UNL     1      -7.746   7.038 -13.281  1.00  0.00    -0.203 F 
ATOM     65  F   UNL     1     -12.550   4.535 -12.618  1.00  0.00    -0.200 F 
ATOM     66  C   UNL     1     -10.711   5.085 -13.993  1.00  0.00     0.200 A 
ATOM     67  F   UNL     1      -8.849   5.654 -15.329  1.00  0.00    -0.200 F 
ATOM     68  F   UNL     1     -11.247   4.395 -15.010  1.00  0.00    -0.200 F 
ENDBRANCH  44  58
BRANCH  45  69
ATOM     69  C   UNL     1      -5.448  11.906  -4.544  1.00  0.00     0.064 A 
ATOM     70  C   UNL     1      -6.151  12.834  -3.763  1.00  0.00     0.173 A 
ATOM     71  C   UNL     1      -4.065  11.794  -4.336  1.00  0.00     0.173 A 
ATOM     72  F   UNL     1      -7.470  12.998  -3.945  1.00  0.00    -0.203 F 
ATOM     73  C   UNL     1      -5.493  13.634  -2.830  1.00  0.00     0.198 A 
ATOM     74  C   UNL     1      -3.413  12.574  -3.383  1.00  0.00     0.198 A 
ATOM     75  F   UNL     1      -3.344  10.926  -5.061  1.00  0.00    -0.203 F 
ATOM     76  F   UNL     1      -6.180  14.551  -2.136  1.00  0.00    -0.200 F 
ATOM     77  C   UNL     1      -4.126  13.501  -2.638  1.00  0.00     0.200 A 
ATOM     78  F   UNL     1      -2.094  12.435  -3.195  1.00  0.00    -0.200 F 
ATOM     79  F   UNL     1      -3.494  14.274  -1.744  1.00  0.00    -0.200 F 
ENDBRANCH  45  69
BRANCH  57  80
ATOM     80  C   UNL     1      -8.377  13.520 -10.654  1.00  0.00     0.064 A 
ATOM     81  C   UNL     1      -7.299  14.180 -11.261  1.00  0.00     0.173 A 
ATOM     82  C   UNL     1      -9.654  14.087 -10.783  1.00  0.00     0.173 A 
ATOM     83  F   UNL     1      -6.057  13.684 -11.152  1.00  0.00    -0.203 F 
ATOM     84  C   UNL     1      -7.490  15.370 -11.957  1.00  0.00     0.198 A 
ATOM     85  C   UNL     1      -9.845  15.264 -11.502  1.00  0.00     0.198 A 
ATOM     86  F   UNL     1     -10.718  13.491 -10.225  1.00  0.00    -0.203 F 
ATOM     87  F   UNL     1      -6.439  16.005 -12.496  1.00  0.00    -0.200 F 
ATOM     88  C   UNL     1      -8.763  15.907 -12.083  1.00  0.00     0.200 A 
ATOM     89  F   UNL     1     -11.077  15.774 -11.634  1.00  0.00    -0.200 F 
ATOM     90  F   UNL     1      -8.945  17.048 -12.762  1.00  0.00    -0.200 F 
ENDBRANCH  57  80
ENDBRANCH  31  32
ENDBRANCH  24  26
ENDBRANCH  23  24
ENDBRANCH  22  23
ENDBRANCH  21  22
ENDBRANCH  20  21
ENDBRANCH   1  20
TORSDOF 17
