REMARK SMILES COc1ccc2[nH]c(C(=O)c3cc(C)ccn3)c(CC(=O)OCCOCCOC(=O)c3ccc(-c4c5nc(c(-c6c(F)c(F)c(F)c(F)c6F)c6ccc([nH]6)c(-c6c(F)c(F)c(F)c(F)c6F)c6nc(c(-c7c(F)c(F)c(F)c(F)c7F)c7ccc4[nH]7)C=C6)C=C5)cc3)c2c1
REMARK SMILES IDX 24 1 23 2 22 3 20 4 21 5 19 6 18 7 3 8 4 9 95 10 5 11 94 12
REMARK SMILES IDX 6 13 7 14 8 15 2 17 1 18 9 19 10 20 11 21 12 22 17 23 13 24
REMARK SMILES IDX 16 25 14 26 15 27 25 28 26 29 27 30 28 31 29 32 30 33 31 34
REMARK SMILES IDX 32 35 93 36 33 37 92 38 34 39 35 40 36 41 86 42 37 43 91 44
REMARK SMILES IDX 85 45 87 46 38 47 90 48 84 49 83 50 39 52 71 53 51 54 70 55
REMARK SMILES IDX 52 56 55 57 69 58 88 59 53 60 54 61 68 63 89 64 56 65 40 66
REMARK SMILES IDX 41 67 49 68 42 69 43 70 47 71 50 72 44 73 45 74 48 75 46 76
REMARK SMILES IDX 72 77 73 78 81 79 74 80 75 81 79 82 82 83 76 84 77 85 80 86
REMARK SMILES IDX 78 87 57 88 58 89 66 90 59 91 60 92 64 93 67 94 61 95 62 96
REMARK SMILES IDX 65 97 63 98
REMARK H PARENT 7 16 87 51 55 62
REMARK Flexibility Score: inf
ROOT
ATOM      1  C   UNL     1      -4.227   3.824   6.594  1.00  0.00     0.202 C 
ENDROOT
BRANCH   1   2
ATOM      2  C   UNL     1      -4.196   3.427   5.110  1.00  0.00     0.261 C 
BRANCH   2   3
ATOM      3  O   UNL     1      -3.084   3.986   4.380  1.00  0.00    -0.463 OA
BRANCH   3   4
ATOM      4  C   UNL     1      -3.396   4.458   3.139  1.00  0.00     0.310 C 
ATOM      5  O   UNL     1      -4.492   4.297   2.605  1.00  0.00    -0.252 OA
BRANCH   4   6
ATOM      6  C   UNL     1      -2.330   5.315   2.484  1.00  0.00     0.161 C 
BRANCH   6   7
ATOM      7  C   UNL     1      -0.893   5.077   2.865  1.00  0.00     0.000 A 
ATOM      8  C   UNL     1       0.713   2.114   1.042  1.00  0.00     0.119 A 
ATOM      9  C   UNL     1       1.990   2.291   1.569  1.00  0.00     0.048 A 
ATOM     10  C   UNL     1      -0.332   2.962   1.425  1.00  0.00     0.057 A 
ATOM     11  C   UNL     1       2.248   3.302   2.505  1.00  0.00     0.030 A 
ATOM     12  C   UNL     1      -0.092   4.006   2.344  1.00  0.00     0.008 A 
ATOM     13  C   UNL     1       1.190   4.148   2.861  1.00  0.00     0.046 A 
ATOM     14  N   UNL     1       1.163   5.236   3.702  1.00  0.00    -0.352 N 
ATOM     15  C   UNL     1      -0.041   5.907   3.608  1.00  0.00     0.093 A 
ATOM     16  H   UNL     1       1.904   5.501   4.293  1.00  0.00     0.167 HD
BRANCH   8  17
ATOM     17  O   UNL     1       0.391   1.197   0.076  1.00  0.00    -0.497 OA
ATOM     18  C   UNL     1       1.044  -0.061   0.195  1.00  0.00     0.278 C 
ENDBRANCH   8  17
BRANCH  15  19
ATOM     19  C   UNL     1      -0.313   7.227   4.183  1.00  0.00     0.227 C 
ATOM     20  O   UNL     1      -1.348   7.854   3.966  1.00  0.00    -0.285 OA
BRANCH  19  21
ATOM     21  C   UNL     1       0.670   7.845   5.126  1.00  0.00     0.113 A 
ATOM     22  C   UNL     1       1.899   8.324   4.694  1.00  0.00     0.036 A 
ATOM     23  N   UNL     1       0.265   7.893   6.421  1.00  0.00    -0.253 NA
ATOM     24  C   UNL     1       2.768   8.858   5.655  1.00  0.00    -0.047 A 
ATOM     25  C   UNL     1       1.119   8.398   7.328  1.00  0.00     0.112 A 
ATOM     26  C   UNL     1       4.102   9.430   5.280  1.00  0.00     0.044 C 
ATOM     27  C   UNL     1       2.369   8.883   6.996  1.00  0.00     0.023 A 
ENDBRANCH  19  21
ENDBRANCH  15  19
ENDBRANCH   6   7
ENDBRANCH   4   6
ENDBRANCH   3   4
ENDBRANCH   2   3
ENDBRANCH   1   2
BRANCH   1  28
ATOM     28  O   UNL     1      -4.225   5.217   6.902  1.00  0.00    -0.374 OA
BRANCH  28  29
ATOM     29  C   UNL     1      -3.098   5.976   6.471  1.00  0.00     0.202 C 
BRANCH  29  30
ATOM     30  C   UNL     1      -1.754   5.648   7.124  1.00  0.00     0.261 C 
BRANCH  30  31
ATOM     31  O   UNL     1      -1.477   4.255   7.267  1.00  0.00    -0.460 OA
BRANCH  31  32
ATOM     32  C   UNL     1      -0.947   3.912   8.456  1.00  0.00     0.338 C 
ATOM     33  O   UNL     1      -0.603   4.635   9.381  1.00  0.00    -0.246 OA
BRANCH  32  34
ATOM     34  C   UNL     1      -0.902   2.454   8.531  1.00  0.00     0.060 A 
ATOM     35  C   UNL     1      -1.857   1.808   9.319  1.00  0.00     0.016 A 
ATOM     36  C   UNL     1       0.134   1.752   7.912  1.00  0.00     0.016 A 
ATOM     37  C   UNL     1      -1.738   0.442   9.541  1.00  0.00     0.010 A 
ATOM     38  C   UNL     1       0.246   0.380   8.130  1.00  0.00     0.010 A 
ATOM     39  C   UNL     1      -0.664  -0.269   8.981  1.00  0.00    -0.014 A 
BRANCH  39  40
ATOM     40  C   UNL     1      -0.447  -1.670   9.400  1.00  0.00     0.031 A 
ATOM     41  C   UNL     1       0.561  -1.965  10.472  1.00  0.00     0.074 A 
ATOM     42  C   UNL     1      -1.201  -2.647   8.871  1.00  0.00     0.049 A 
ATOM     43  N   UNL     1       0.827  -3.097  11.071  1.00  0.00    -0.248 NA
ATOM     44  C   UNL     1       1.383  -0.834  10.932  1.00  0.00     0.031 C 
ATOM     45  C   UNL     1      -2.205  -2.459   7.826  1.00  0.00     0.029 A 
ATOM     46  N   UNL     1      -1.249  -3.987   9.152  1.00  0.00    -0.354 N 
ATOM     47  C   UNL     1       1.835  -2.814  11.982  1.00  0.00     0.074 A 
ATOM     48  C   UNL     1       2.167  -1.414  11.829  1.00  0.00     0.031 C 
ATOM     49  C   UNL     1      -2.785  -3.642   7.563  1.00  0.00     0.029 A 
ATOM     50  C   UNL     1      -2.183  -4.667   8.413  1.00  0.00     0.049 A 
ATOM     51  H   UNL     1      -0.669  -4.420   9.820  1.00  0.00     0.167 HD
ATOM     52  C   UNL     1       2.418  -3.647  12.877  1.00  0.00     0.037 A 
ATOM     53  C   UNL     1      -2.517  -5.970   8.431  1.00  0.00     0.037 A 
ATOM     54  C   UNL     1       2.079  -5.039  13.015  1.00  0.00     0.049 A 
ATOM     55  C   UNL     1      -1.844  -6.879   9.424  1.00  0.00     0.074 A 
ATOM     56  C   UNL     1       2.591  -5.971  13.900  1.00  0.00     0.029 A 
ATOM     57  N   UNL     1       1.139  -5.700  12.236  1.00  0.00    -0.354 N 
ATOM     58  N   UNL     1      -0.929  -6.593  10.319  1.00  0.00    -0.248 NA
ATOM     59  C   UNL     1      -2.263  -8.287   9.421  1.00  0.00     0.031 C 
ATOM     60  C   UNL     1       1.994  -7.207  13.625  1.00  0.00     0.029 A 
ATOM     61  C   UNL     1       1.072  -7.033  12.604  1.00  0.00     0.049 A 
ATOM     62  H   UNL     1       0.600  -5.282  11.527  1.00  0.00     0.167 HD
ATOM     63  C   UNL     1      -0.678  -7.775  11.002  1.00  0.00     0.074 A 
ATOM     64  C   UNL     1      -1.552  -8.779  10.426  1.00  0.00     0.031 C 
ATOM     65  C   UNL     1       0.193  -8.011  12.014  1.00  0.00     0.037 A 
BRANCH  52  66
ATOM     66  C   UNL     1       3.492  -3.076  13.755  1.00  0.00     0.064 A 
ATOM     67  C   UNL     1       3.199  -2.170  14.786  1.00  0.00     0.173 A 
ATOM     68  C   UNL     1       4.832  -3.452  13.576  1.00  0.00     0.173 A 
ATOM     69  F   UNL     1       1.936  -1.765  14.990  1.00  0.00    -0.203 F 
ATOM     70  C   UNL     1       4.209  -1.641  15.586  1.00  0.00     0.198 A 
ATOM     71  C   UNL     1       5.836  -2.943  14.395  1.00  0.00     0.198 A 
ATOM     72  F   UNL     1       5.168  -4.316  12.606  1.00  0.00    -0.203 F 
ATOM     73  F   UNL     1       3.911  -0.741  16.533  1.00  0.00    -0.200 F 
ATOM     74  C   UNL     1       5.526  -2.032  15.394  1.00  0.00     0.200 A 
ATOM     75  F   UNL     1       7.107  -3.328  14.213  1.00  0.00    -0.200 F 
ATOM     76  F   UNL     1       6.497  -1.524  16.165  1.00  0.00    -0.200 F 
ENDBRANCH  52  66
BRANCH  53  77
ATOM     77  C   UNL     1      -3.560  -6.474   7.502  1.00  0.00     0.064 A 
ATOM     78  C   UNL     1      -4.818  -6.875   7.969  1.00  0.00     0.173 A 
ATOM     79  C   UNL     1      -3.324  -6.540   6.120  1.00  0.00     0.173 A 
ATOM     80  F   UNL     1      -5.084  -6.847   9.283  1.00  0.00    -0.203 F 
ATOM     81  C   UNL     1      -5.798  -7.336   7.092  1.00  0.00     0.198 A 
ATOM     82  C   UNL     1      -4.313  -6.976   5.241  1.00  0.00     0.198 A 
ATOM     83  F   UNL     1      -2.138  -6.163   5.622  1.00  0.00    -0.203 F 
ATOM     84  F   UNL     1      -6.981  -7.747   7.568  1.00  0.00    -0.200 F 
ATOM     85  C   UNL     1      -5.547  -7.379   5.728  1.00  0.00     0.200 A 
ATOM     86  F   UNL     1      -4.071  -7.003   3.924  1.00  0.00    -0.200 F 
ATOM     87  F   UNL     1      -6.494  -7.812   4.884  1.00  0.00    -0.200 F 
ENDBRANCH  53  77
BRANCH  65  88
ATOM     88  C   UNL     1       0.225  -9.402  12.575  1.00  0.00     0.064 A 
ATOM     89  C   UNL     1       0.789 -10.470  11.862  1.00  0.00     0.173 A 
ATOM     90  C   UNL     1      -0.285  -9.661  13.857  1.00  0.00     0.173 A 
ATOM     91  F   UNL     1       1.277 -10.274  10.628  1.00  0.00    -0.203 F 
ATOM     92  C   UNL     1       0.815 -11.753  12.400  1.00  0.00     0.198 A 
ATOM     93  C   UNL     1      -0.231 -10.940  14.402  1.00  0.00     0.198 A 
ATOM     94  F   UNL     1      -0.827  -8.671  14.582  1.00  0.00    -0.203 F 
ATOM     95  F   UNL     1       1.313 -12.769  11.681  1.00  0.00    -0.200 F 
ATOM     96  C   UNL     1       0.310 -11.986  13.671  1.00  0.00     0.200 A 
ATOM     97  F   UNL     1      -0.707 -11.161  15.636  1.00  0.00    -0.200 F 
ATOM     98  F   UNL     1       0.340 -13.222  14.188  1.00  0.00    -0.200 F 
ENDBRANCH  65  88
ENDBRANCH  39  40
ENDBRANCH  32  34
ENDBRANCH  31  32
ENDBRANCH  30  31
ENDBRANCH  29  30
ENDBRANCH  28  29
ENDBRANCH   1  28
TORSDOF 18
