REMARK SMILES COc1cccc([C@H]2[NH2+][C@@](CC(C)C)(C(=O)OCCOCCOC(=O)c3ccc(-c4c5nc(c(-c6c(F)c(F)c(F)c(F)c6F)c6ccc([nH]6)c(-c6c(F)c(F)c(F)c(F)c6F)c6nc(c(-c7c(F)c(F)c(F)c(F)c7F)c7ccc4[nH]7)C=C6)C=C5)cc3)[C@H]3C(=O)N(C(C)C)C(=O)[C@H]23)c1O
REMARK SMILES IDX 20 1 19 2 18 3 17 4 15 5 16 6 10 7 8 8 9 9 98 10 89 13 96 14
REMARK SMILES IDX 90 15 92 16 97 17 91 18 7 19 3 20 4 21 99 22 5 23 6 24 2 25
REMARK SMILES IDX 1 26 100 27 11 29 12 30 13 31 14 32 93 33 94 34 95 35 21 36
REMARK SMILES IDX 22 37 23 38 24 39 25 40 26 41 27 42 88 43 28 44 87 45 29 46
REMARK SMILES IDX 30 47 31 48 81 49 32 50 86 51 80 52 82 53 33 54 85 55 79 56
REMARK SMILES IDX 78 57 34 59 66 60 46 61 65 62 47 63 50 64 64 65 83 66 48 67
REMARK SMILES IDX 49 68 63 70 84 71 51 72 35 73 36 74 44 75 37 76 38 77 42 78
REMARK SMILES IDX 45 79 39 80 40 81 43 82 41 83 67 84 68 85 76 86 69 87 70 88
REMARK SMILES IDX 74 89 77 90 71 91 72 92 75 93 73 94 52 95 53 96 61 97 54 98
REMARK SMILES IDX 55 99 59 100 62 101 56 102 57 103 60 104 58 105
REMARK H PARENT 9 11 9 12 100 28 82 58 50 69
REMARK Flexibility Score: inf
ROOT
ATOM      1  O   UNL     1       7.206  -1.256   6.670  1.00  0.00    -0.374 OA
ENDROOT
BRANCH   1   2
ATOM      2  C   UNL     1       6.627  -2.513   7.017  1.00  0.00     0.202 C 
BRANCH   2   3
ATOM      3  C   UNL     1       5.098  -2.598   7.074  1.00  0.00     0.261 C 
BRANCH   3   4
ATOM      4  O   UNL     1       4.454  -2.611   5.784  1.00  0.00    -0.459 OA
BRANCH   4   5
ATOM      5  C   UNL     1       3.876  -1.433   5.416  1.00  0.00     0.369 C 
ATOM      6  O   UNL     1       4.086  -0.376   6.005  1.00  0.00    -0.245 OA
BRANCH   5   7
ATOM      7  C   UNL     1       2.918  -1.533   4.188  1.00  0.00     0.207 C 
ATOM      8  C   UNL     1       2.951  -3.518   2.714  1.00  0.00     0.232 C 
ATOM      9  N   UNL     1       2.408  -2.935   3.987  1.00  0.00    -0.324 N 
ATOM     10  C   UNL     1       4.169  -2.666   2.547  1.00  0.00     0.161 C 
ATOM     11  H   UNL     1       2.701  -3.514   4.774  1.00  0.00     0.347 HD
ATOM     12  H   UNL     1       1.390  -2.909   3.929  1.00  0.00     0.347 HD
ATOM     13  C   UNL     1       3.615  -1.288   2.859  1.00  0.00     0.171 C 
ATOM     14  C   UNL     1       4.862  -2.397   1.255  1.00  0.00     0.240 C 
ATOM     15  C   UNL     1       4.845  -0.490   2.513  1.00  0.00     0.240 C 
ATOM     16  N   UNL     1       5.436  -1.152   1.440  1.00  0.00    -0.279 N 
ATOM     17  O   UNL     1       4.935  -3.134   0.290  1.00  0.00    -0.274 OA
ATOM     18  O   UNL     1       5.172   0.576   3.000  1.00  0.00    -0.274 OA
BRANCH   8  19
ATOM     19  C   UNL     1       3.065  -5.007   2.918  1.00  0.00     0.056 A 
ATOM     20  C   UNL     1       4.237  -6.904   3.828  1.00  0.00     0.161 A 
ATOM     21  C   UNL     1       3.064  -7.636   3.957  1.00  0.00     0.050 A 
ATOM     22  C   UNL     1       4.258  -5.650   3.217  1.00  0.00     0.166 A 
ATOM     23  C   UNL     1       1.874  -7.070   3.517  1.00  0.00     0.005 A 
ATOM     24  C   UNL     1       1.872  -5.760   3.025  1.00  0.00     0.014 A 
BRANCH  20  25
ATOM     25  O   UNL     1       5.370  -7.351   4.460  1.00  0.00    -0.493 OA
ATOM     26  C   UNL     1       5.579  -6.520   5.613  1.00  0.00     0.278 C 
ENDBRANCH  20  25
BRANCH  22  27
ATOM     27  O   UNL     1       5.469  -5.054   3.004  1.00  0.00    -0.504 OA
ATOM     28  H   UNL     1       6.259  -5.510   3.215  1.00  0.00     0.293 HD
ENDBRANCH  22  27
ENDBRANCH   8  19
BRANCH   7  29
ATOM     29  C   UNL     1       1.792  -0.495   4.510  1.00  0.00     0.085 C 
BRANCH  29  30
ATOM     30  C   UNL     1       0.327  -0.823   4.164  1.00  0.00    -0.011 C 
ATOM     31  C   UNL     1      -0.314  -1.803   5.165  1.00  0.00     0.007 C 
ATOM     32  C   UNL     1      -0.487   0.476   4.194  1.00  0.00     0.007 C 
ENDBRANCH  29  30
ENDBRANCH   7  29
BRANCH  16  33
ATOM     33  C   UNL     1       6.447  -0.560   0.556  1.00  0.00     0.087 C 
ATOM     34  C   UNL     1       7.701  -1.429   0.412  1.00  0.00     0.031 C 
ATOM     35  C   UNL     1       5.872  -0.267  -0.831  1.00  0.00     0.031 C 
ENDBRANCH  16  33
ENDBRANCH   5   7
ENDBRANCH   4   5
ENDBRANCH   3   4
ENDBRANCH   2   3
ENDBRANCH   1   2
BRANCH   1  36
ATOM     36  C   UNL     1       7.130  -0.877   5.301  1.00  0.00     0.202 C 
BRANCH  36  37
ATOM     37  C   UNL     1       8.198  -1.450   4.371  1.00  0.00     0.261 C 
BRANCH  37  38
ATOM     38  O   UNL     1       8.329  -2.874   4.480  1.00  0.00    -0.460 OA
BRANCH  38  39
ATOM     39  C   UNL     1       9.420  -3.280   5.174  1.00  0.00     0.338 C 
ATOM     40  O   UNL     1      10.342  -2.595   5.583  1.00  0.00    -0.246 OA
BRANCH  39  41
ATOM     41  C   UNL     1       9.261  -4.702   5.531  1.00  0.00     0.060 A 
ATOM     42  C   UNL     1       9.381  -5.053   6.881  1.00  0.00     0.016 A 
ATOM     43  C   UNL     1       9.003  -5.676   4.566  1.00  0.00     0.016 A 
ATOM     44  C   UNL     1       9.273  -6.389   7.271  1.00  0.00     0.010 A 
ATOM     45  C   UNL     1       8.871  -7.011   4.964  1.00  0.00     0.010 A 
ATOM     46  C   UNL     1       9.036  -7.386   6.316  1.00  0.00    -0.014 A 
BRANCH  46  47
ATOM     47  C   UNL     1       9.119  -8.829   6.686  1.00  0.00     0.031 A 
ATOM     48  C   UNL     1      10.255  -9.645   6.124  1.00  0.00     0.074 A 
ATOM     49  C   UNL     1       8.218  -9.420   7.498  1.00  0.00     0.049 A 
ATOM     50  N   UNL     1      10.501 -10.926   6.238  1.00  0.00    -0.248 NA
ATOM     51  C   UNL     1      11.248  -8.915   5.317  1.00  0.00     0.031 C 
ATOM     52  C   UNL     1       7.098  -8.758   8.162  1.00  0.00     0.029 A 
ATOM     53  N   UNL     1       8.093 -10.733   7.887  1.00  0.00    -0.354 N 
ATOM     54  C   UNL     1      11.666 -11.148   5.516  1.00  0.00     0.074 A 
ATOM     55  C   UNL     1      12.033  -9.894   4.898  1.00  0.00     0.031 C 
ATOM     56  C   UNL     1       6.359  -9.672   8.813  1.00  0.00     0.029 A 
ATOM     57  C   UNL     1       6.977 -10.983   8.652  1.00  0.00     0.049 A 
ATOM     58  H   UNL     1       8.742 -11.431   7.641  1.00  0.00     0.167 HD
ATOM     59  C   UNL     1      12.402 -12.280   5.417  1.00  0.00     0.037 A 
ATOM     60  C   UNL     1       6.516 -12.134   9.178  1.00  0.00     0.037 A 
ATOM     61  C   UNL     1      12.074 -13.518   6.066  1.00  0.00     0.049 A 
ATOM     62  C   UNL     1       7.328 -13.394   9.016  1.00  0.00     0.074 A 
ATOM     63  C   UNL     1      12.775 -14.710   6.057  1.00  0.00     0.029 A 
ATOM     64  N   UNL     1      10.950 -13.717   6.853  1.00  0.00    -0.354 N 
ATOM     65  N   UNL     1       8.464 -13.572   8.387  1.00  0.00    -0.248 NA
ATOM     66  C   UNL     1       6.812 -14.605   9.673  1.00  0.00     0.031 C 
ATOM     67  C   UNL     1      12.061 -15.641   6.817  1.00  0.00     0.029 A 
ATOM     68  C   UNL     1      10.936 -15.017   7.331  1.00  0.00     0.049 A 
ATOM     69  H   UNL     1      10.265 -13.037   7.044  1.00  0.00     0.167 HD
ATOM     70  C   UNL     1       8.825 -14.892   8.621  1.00  0.00     0.074 A 
ATOM     71  C   UNL     1       7.790 -15.470   9.450  1.00  0.00     0.031 C 
ATOM     72  C   UNL     1       9.920 -15.564   8.190  1.00  0.00     0.037 A 
BRANCH  59  73
ATOM     73  C   UNL     1      13.656 -12.211   4.598  1.00  0.00     0.064 A 
ATOM     74  C   UNL     1      14.773 -11.479   5.034  1.00  0.00     0.173 A 
ATOM     75  C   UNL     1      13.750 -12.885   3.372  1.00  0.00     0.173 A 
ATOM     76  F   UNL     1      14.726 -10.803   6.192  1.00  0.00    -0.203 F 
ATOM     77  C   UNL     1      15.923 -11.396   4.256  1.00  0.00     0.198 A 
ATOM     78  C   UNL     1      14.915 -12.825   2.612  1.00  0.00     0.198 A 
ATOM     79  F   UNL     1      12.714 -13.602   2.913  1.00  0.00    -0.203 F 
ATOM     80  F   UNL     1      16.953 -10.642   4.665  1.00  0.00    -0.200 F 
ATOM     81  C   UNL     1      15.995 -12.073   3.049  1.00  0.00     0.200 A 
ATOM     82  F   UNL     1      14.989 -13.489   1.450  1.00  0.00    -0.200 F 
ATOM     83  F   UNL     1      17.104 -11.993   2.300  1.00  0.00    -0.200 F 
ENDBRANCH  59  73
BRANCH  60  84
ATOM     84  C   UNL     1       5.252 -12.159   9.963  1.00  0.00     0.064 A 
ATOM     85  C   UNL     1       5.268 -12.382  11.348  1.00  0.00     0.173 A 
ATOM     86  C   UNL     1       4.002 -12.033   9.338  1.00  0.00     0.173 A 
ATOM     87  F   UNL     1       6.438 -12.529  11.987  1.00  0.00    -0.203 F 
ATOM     88  C   UNL     1       4.085 -12.522  12.070  1.00  0.00     0.198 A 
ATOM     89  C   UNL     1       2.819 -12.148  10.067  1.00  0.00     0.198 A 
ATOM     90  F   UNL     1       3.930 -11.814   8.018  1.00  0.00    -0.203 F 
ATOM     91  F   UNL     1       4.132 -12.803  13.379  1.00  0.00    -0.200 F 
ATOM     92  C   UNL     1       2.861 -12.406  11.429  1.00  0.00     0.200 A 
ATOM     93  F   UNL     1       1.637 -12.027   9.447  1.00  0.00    -0.200 F 
ATOM     94  F   UNL     1       1.724 -12.560  12.121  1.00  0.00    -0.200 F 
ENDBRANCH  60  84
BRANCH  72  95
ATOM     95  C   UNL     1      10.096 -16.979   8.656  1.00  0.00     0.064 A 
ATOM     96  C   UNL     1       9.296 -18.021   8.169  1.00  0.00     0.173 A 
ATOM     97  C   UNL     1      11.123 -17.302   9.557  1.00  0.00     0.173 A 
ATOM     98  F   UNL     1       8.292 -17.761   7.318  1.00  0.00    -0.203 F 
ATOM     99  C   UNL     1       9.504 -19.334   8.583  1.00  0.00     0.198 A 
ATOM    100  C   UNL     1      11.348 -18.619   9.944  1.00  0.00     0.198 A 
ATOM    101  F   UNL     1      11.921 -16.340  10.047  1.00  0.00    -0.203 F 
ATOM    102  F   UNL     1       8.701 -20.310   8.137  1.00  0.00    -0.200 F 
ATOM    103  C   UNL     1      10.535 -19.633   9.461  1.00  0.00     0.200 A 
ATOM    104  F   UNL     1      12.354 -18.908  10.781  1.00  0.00    -0.200 F 
ATOM    105  F   UNL     1      10.743 -20.900   9.846  1.00  0.00    -0.200 F 
ENDBRANCH  72  95
ENDBRANCH  46  47
ENDBRANCH  39  41
ENDBRANCH  38  39
ENDBRANCH  37  38
ENDBRANCH  36  37
ENDBRANCH   1  36
TORSDOF 20
