REMARK SMILES O=C(OCCOCCOC(=O)c1cccc2nc(Cl)c(Cl)nc12)c1ccc(-c2c3nc(c(-c4c(F)c(F)c(F)c(F)c4F)c4ccc([nH]4)c(-c4c(F)c(F)c(F)c(F)c4F)c4nc(c(-c5c(F)c(F)c(F)c(F)c5F)c5ccc2[nH]5)C=C4)C=C3)cc1
REMARK SMILES IDX 5 1 4 2 3 3 2 4 1 5 24 6 25 7 86 8 26 9 85 10 27 11 28 12
REMARK SMILES IDX 29 13 79 14 30 15 84 16 78 17 80 18 31 19 83 20 77 21 76 22
REMARK SMILES IDX 32 24 64 25 44 26 63 27 45 28 48 29 62 30 81 31 46 32 47 33
REMARK SMILES IDX 61 35 82 36 49 37 33 38 34 39 42 40 35 41 36 42 40 43 43 44
REMARK SMILES IDX 37 45 38 46 41 47 39 48 65 49 66 50 74 51 67 52 68 53 72 54
REMARK SMILES IDX 75 55 69 56 70 57 73 58 71 59 50 60 51 61 59 62 52 63 53 64
REMARK SMILES IDX 57 65 60 66 54 67 55 68 58 69 56 70 6 71 7 72 8 73 9 74
REMARK SMILES IDX 10 75 11 76 12 77 13 78 23 79 14 80 16 81 22 82 15 83 17 84
REMARK SMILES IDX 20 85 18 86 21 87 19 88
REMARK H PARENT 80 23 48 34
REMARK Flexibility Score: inf
ROOT
ATOM      1  C   UNL     1       4.180   0.551  -1.224  1.00  0.00     0.202 C 
ENDROOT
BRANCH   1   2
ATOM      2  C   UNL     1       4.023  -0.938  -0.908  1.00  0.00     0.261 C 
BRANCH   2   3
ATOM      3  O   UNL     1       2.683  -1.259  -0.524  1.00  0.00    -0.460 OA
BRANCH   3   4
ATOM      4  C   UNL     1       2.091  -1.031   0.671  1.00  0.00     0.338 C 
ATOM      5  O   UNL     1       0.872  -1.191   0.738  1.00  0.00    -0.246 OA
BRANCH   4   6
ATOM      6  C   UNL     1       2.804  -0.612   1.930  1.00  0.00     0.060 A 
ATOM      7  C   UNL     1       2.038  -0.672   3.110  1.00  0.00     0.016 A 
ATOM      8  C   UNL     1       4.103  -0.101   2.036  1.00  0.00     0.016 A 
ATOM      9  C   UNL     1       2.531  -0.184   4.321  1.00  0.00     0.010 A 
ATOM     10  C   UNL     1       4.601   0.398   3.233  1.00  0.00     0.010 A 
ATOM     11  C   UNL     1       3.810   0.373   4.374  1.00  0.00    -0.014 A 
BRANCH  11  12
ATOM     12  C   UNL     1       4.402   0.825   5.637  1.00  0.00     0.031 A 
ATOM     13  C   UNL     1       4.506   2.279   5.958  1.00  0.00     0.074 A 
ATOM     14  C   UNL     1       4.946  -0.123   6.418  1.00  0.00     0.049 A 
ATOM     15  N   UNL     1       4.919   2.845   7.060  1.00  0.00    -0.248 NA
ATOM     16  C   UNL     1       4.124   3.227   4.898  1.00  0.00     0.031 C 
ATOM     17  C   UNL     1       4.997  -1.548   6.079  1.00  0.00     0.029 A 
ATOM     18  N   UNL     1       5.568  -0.040   7.629  1.00  0.00    -0.354 N 
ATOM     19  C   UNL     1       4.824   4.211   6.840  1.00  0.00     0.074 A 
ATOM     20  C   UNL     1       4.375   4.394   5.477  1.00  0.00     0.031 C 
ATOM     21  C   UNL     1       5.599  -2.211   7.075  1.00  0.00     0.029 A 
ATOM     22  C   UNL     1       5.967  -1.258   8.115  1.00  0.00     0.049 A 
ATOM     23  H   UNL     1       5.715   0.809   8.106  1.00  0.00     0.167 HD
ATOM     24  C   UNL     1       5.073   5.206   7.723  1.00  0.00     0.037 A 
ATOM     25  C   UNL     1       6.538  -1.565   9.292  1.00  0.00     0.037 A 
ATOM     26  C   UNL     1       5.540   4.962   9.064  1.00  0.00     0.049 A 
ATOM     27  C   UNL     1       6.751  -0.454  10.276  1.00  0.00     0.074 A 
ATOM     28  C   UNL     1       5.738   5.865  10.091  1.00  0.00     0.029 A 
ATOM     29  N   UNL     1       5.901   3.711   9.553  1.00  0.00    -0.354 N 
ATOM     30  N   UNL     1       6.506   0.827  10.131  1.00  0.00    -0.248 NA
ATOM     31  C   UNL     1       7.291  -0.823  11.587  1.00  0.00     0.031 C 
ATOM     32  C   UNL     1       6.271   5.170  11.181  1.00  0.00     0.029 A 
ATOM     33  C   UNL     1       6.355   3.823  10.856  1.00  0.00     0.049 A 
ATOM     34  H   UNL     1       5.843   2.869   9.046  1.00  0.00     0.167 HD
ATOM     35  C   UNL     1       6.857   1.422  11.331  1.00  0.00     0.074 A 
ATOM     36  C   UNL     1       7.306   0.352  12.204  1.00  0.00     0.031 C 
ATOM     37  C   UNL     1       6.817   2.732  11.680  1.00  0.00     0.037 A 
BRANCH  24  38
ATOM     38  C   UNL     1       4.825   6.625   7.292  1.00  0.00     0.064 A 
ATOM     39  C   UNL     1       3.526   7.098   7.046  1.00  0.00     0.173 A 
ATOM     40  C   UNL     1       5.880   7.547   7.205  1.00  0.00     0.173 A 
ATOM     41  F   UNL     1       2.478   6.263   7.112  1.00  0.00    -0.203 F 
ATOM     42  C   UNL     1       3.295   8.432   6.716  1.00  0.00     0.198 A 
ATOM     43  C   UNL     1       5.642   8.887   6.901  1.00  0.00     0.198 A 
ATOM     44  F   UNL     1       7.142   7.156   7.436  1.00  0.00    -0.203 F 
ATOM     45  F   UNL     1       2.047   8.851   6.459  1.00  0.00    -0.200 F 
ATOM     46  C   UNL     1       4.351   9.327   6.654  1.00  0.00     0.200 A 
ATOM     47  F   UNL     1       6.662   9.755   6.859  1.00  0.00    -0.200 F 
ATOM     48  F   UNL     1       4.124  10.615   6.358  1.00  0.00    -0.200 F 
ENDBRANCH  24  38
BRANCH  25  49
ATOM     49  C   UNL     1       6.817  -2.989   9.596  1.00  0.00     0.064 A 
ATOM     50  C   UNL     1       5.992  -3.704  10.474  1.00  0.00     0.173 A 
ATOM     51  C   UNL     1       7.815  -3.700   8.911  1.00  0.00     0.173 A 
ATOM     52  F   UNL     1       5.023  -3.068  11.148  1.00  0.00    -0.203 F 
ATOM     53  C   UNL     1       6.150  -5.077  10.651  1.00  0.00     0.198 A 
ATOM     54  C   UNL     1       7.956  -5.076   9.071  1.00  0.00     0.198 A 
ATOM     55  F   UNL     1       8.612  -3.065   8.038  1.00  0.00    -0.203 F 
ATOM     56  F   UNL     1       5.346  -5.737  11.496  1.00  0.00    -0.200 F 
ATOM     57  C   UNL     1       7.122  -5.764   9.940  1.00  0.00     0.200 A 
ATOM     58  F   UNL     1       8.877  -5.741   8.360  1.00  0.00    -0.200 F 
ATOM     59  F   UNL     1       7.248  -7.090  10.083  1.00  0.00    -0.200 F 
ENDBRANCH  25  49
BRANCH  37  60
ATOM     60  C   UNL     1       7.305   3.080  13.053  1.00  0.00     0.064 A 
ATOM     61  C   UNL     1       8.673   3.066  13.357  1.00  0.00     0.173 A 
ATOM     62  C   UNL     1       6.409   3.514  14.041  1.00  0.00     0.173 A 
ATOM     63  F   UNL     1       9.564   2.646  12.446  1.00  0.00    -0.203 F 
ATOM     64  C   UNL     1       9.128   3.466  14.609  1.00  0.00     0.198 A 
ATOM     65  C   UNL     1       6.870   3.941  15.281  1.00  0.00     0.198 A 
ATOM     66  F   UNL     1       5.092   3.552  13.791  1.00  0.00    -0.203 F 
ATOM     67  F   UNL     1      10.437   3.417  14.891  1.00  0.00    -0.200 F 
ATOM     68  C   UNL     1       8.228   3.914  15.565  1.00  0.00     0.200 A 
ATOM     69  F   UNL     1       6.003   4.389  16.199  1.00  0.00    -0.200 F 
ATOM     70  F   UNL     1       8.670   4.319  16.764  1.00  0.00    -0.200 F 
ENDBRANCH  37  60
ENDBRANCH  11  12
ENDBRANCH   4   6
ENDBRANCH   3   4
ENDBRANCH   2   3
ENDBRANCH   1   2
BRANCH   1  71
ATOM     71  O   UNL     1       3.613   1.415  -0.241  1.00  0.00    -0.374 OA
BRANCH  71  72
ATOM     72  C   UNL     1       2.421   2.090  -0.637  1.00  0.00     0.202 C 
BRANCH  72  73
ATOM     73  C   UNL     1       2.742   3.470  -1.210  1.00  0.00     0.261 C 
BRANCH  73  74
ATOM     74  O   UNL     1       3.394   3.329  -2.484  1.00  0.00    -0.460 OA
BRANCH  74  75
ATOM     75  C   UNL     1       4.748   3.443  -2.493  1.00  0.00     0.340 C 
ATOM     76  O   UNL     1       5.469   3.780  -1.573  1.00  0.00    -0.246 OA
BRANCH  75  77
ATOM     77  C   UNL     1       5.209   3.017  -3.831  1.00  0.00     0.088 A 
ATOM     78  C   UNL     1       4.593   3.595  -4.951  1.00  0.00     0.018 A 
ATOM     79  C   UNL     1       6.189   2.017  -3.951  1.00  0.00     0.105 A 
ATOM     80  C   UNL     1       4.961   3.181  -6.220  1.00  0.00     0.003 A 
ATOM     81  C   UNL     1       6.543   1.604  -5.262  1.00  0.00     0.091 A 
ATOM     82  N   UNL     1       6.759   1.399  -2.886  1.00  0.00    -0.230 NA
ATOM     83  C   UNL     1       5.934   2.194  -6.360  1.00  0.00     0.031 A 
ATOM     84  N   UNL     1       7.436   0.621  -5.491  1.00  0.00    -0.231 NA
ATOM     85  C   UNL     1       7.641   0.400  -3.125  1.00  0.00     0.167 A 
ATOM     86  C   UNL     1       7.976   0.020  -4.407  1.00  0.00     0.167 A 
ATOM     87  Cl  UNL     1       8.202  -0.380  -1.703  1.00  0.00    -0.059 Cl
ATOM     88  Cl  UNL     1       9.047  -1.265  -4.783  1.00  0.00    -0.059 Cl
ENDBRANCH  75  77
ENDBRANCH  74  75
ENDBRANCH  73  74
ENDBRANCH  72  73
ENDBRANCH  71  72
ENDBRANCH   1  71
TORSDOF 14
