REMARK SMILES C[N@@H+]1CCC[C@@H](NC(=O)N(CC(=O)OCCOCCOC(=O)c2ccc(-c3c4nc(c(-c5c(F)c(F)c(F)c(F)c5F)c5ccc([nH]5)c(-c5c(F)c(F)c(F)c(F)c5F)c5nc(c(-c6c(F)c(F)c(F)c(F)c6F)c6ccc3[nH]6)C=C5)C=C4)cc2)C(C)(C)C)C1
REMARK SMILES IDX 16 1 15 2 14 3 12 4 13 5 11 6 10 7 8 8 7 9 9 11 6 12 1 13
REMARK SMILES IDX 2 14 3 15 90 16 4 18 5 19 86 20 87 21 88 22 89 23 17 24
REMARK SMILES IDX 18 25 19 26 20 27 21 28 22 29 23 30 24 31 85 32 25 33 84 34
REMARK SMILES IDX 26 35 27 36 28 37 78 38 29 39 83 40 77 41 79 42 30 43 82 44
REMARK SMILES IDX 76 45 75 46 31 48 63 49 43 50 62 51 44 52 47 53 61 54 80 55
REMARK SMILES IDX 45 56 46 57 60 59 81 60 48 61 32 62 33 63 41 64 34 65 35 66
REMARK SMILES IDX 39 67 42 68 36 69 37 70 40 71 38 72 64 73 65 74 73 75 66 76
REMARK SMILES IDX 67 77 71 78 74 79 68 80 69 81 72 82 70 83 49 84 50 85 58 86
REMARK SMILES IDX 51 87 52 88 56 89 59 90 53 91 54 92 57 93 55 94
REMARK H PARENT 7 10 2 17 79 47 47 58
REMARK Flexibility Score: inf
ROOT
ATOM      1  C   UNL     1       6.471  -3.211  -1.195  1.00  0.00     0.202 C 
ENDROOT
BRANCH   1   2
ATOM      2  C   UNL     1       5.105  -2.541  -1.392  1.00  0.00     0.261 C 
BRANCH   2   3
ATOM      3  O   UNL     1       4.109  -2.968  -0.437  1.00  0.00    -0.462 OA
BRANCH   3   4
ATOM      4  C   UNL     1       2.981  -3.516  -0.967  1.00  0.00     0.325 C 
ATOM      5  O   UNL     1       2.796  -3.696  -2.168  1.00  0.00    -0.250 OA
BRANCH   4   6
ATOM      6  C   UNL     1       1.909  -3.899   0.062  1.00  0.00     0.244 C 
BRANCH   6   7
ATOM      7  N   UNL     1       2.114  -3.592   1.483  1.00  0.00    -0.309 N 
BRANCH   7   8
ATOM      8  C   UNL     1       1.843  -2.356   2.032  1.00  0.00     0.318 C 
ATOM      9  N   UNL     1       1.440  -1.285   1.330  1.00  0.00    -0.330 N 
ATOM     10  H   UNL     1       1.269  -0.531   1.940  1.00  0.00     0.165 HD
ATOM     11  O   UNL     1       1.941  -2.135   3.243  1.00  0.00    -0.249 OA
BRANCH   9  12
ATOM     12  C   UNL     1       1.173  -0.879  -0.053  1.00  0.00     0.139 C 
ATOM     13  C   UNL     1      -2.488   0.166  -0.022  1.00  0.00     0.332 C 
ATOM     14  N   UNL     1      -1.059   0.232   0.293  1.00  0.00    -0.336 N 
ATOM     15  C   UNL     1      -0.504   1.526  -0.125  1.00  0.00     0.262 C 
ATOM     16  C   UNL     1      -0.343  -0.882  -0.356  1.00  0.00     0.287 C 
ATOM     17  H   UNL     1      -0.938   0.146   1.302  1.00  0.00     0.347 HD
ATOM     18  C   UNL     1       0.966   1.635   0.272  1.00  0.00     0.064 C 
ATOM     19  C   UNL     1       1.790   0.499  -0.328  1.00  0.00     0.037 C 
ENDBRANCH   9  12
ENDBRANCH   7   8
BRANCH   7  20
ATOM     20  C   UNL     1       2.507  -4.717   2.429  1.00  0.00     0.037 C 
ATOM     21  C   UNL     1       3.787  -4.343   3.212  1.00  0.00     0.034 C 
ATOM     22  C   UNL     1       1.355  -5.021   3.418  1.00  0.00     0.034 C 
ATOM     23  C   UNL     1       2.796  -6.075   1.738  1.00  0.00     0.034 C 
ENDBRANCH   7  20
ENDBRANCH   6   7
ENDBRANCH   4   6
ENDBRANCH   3   4
ENDBRANCH   2   3
ENDBRANCH   1   2
BRANCH   1  24
ATOM     24  O   UNL     1       6.542  -4.616  -1.443  1.00  0.00    -0.374 OA
BRANCH  24  25
ATOM     25  C   UNL     1       5.885  -5.468  -0.509  1.00  0.00     0.202 C 
BRANCH  25  26
ATOM     26  C   UNL     1       6.604  -5.690   0.827  1.00  0.00     0.261 C 
BRANCH  26  27
ATOM     27  O   UNL     1       6.841  -4.453   1.518  1.00  0.00    -0.460 OA
BRANCH  27  28
ATOM     28  C   UNL     1       8.137  -4.219   1.811  1.00  0.00     0.338 C 
ATOM     29  O   UNL     1       9.073  -5.006   1.713  1.00  0.00    -0.246 OA
BRANCH  28  30
ATOM     30  C   UNL     1       8.356  -2.798   2.127  1.00  0.00     0.060 A 
ATOM     31  C   UNL     1       9.356  -2.142   1.399  1.00  0.00     0.016 A 
ATOM     32  C   UNL     1       7.702  -2.153   3.180  1.00  0.00     0.016 A 
ATOM     33  C   UNL     1       9.779  -0.875   1.787  1.00  0.00     0.010 A 
ATOM     34  C   UNL     1       8.131  -0.877   3.570  1.00  0.00     0.010 A 
ATOM     35  C   UNL     1       9.213  -0.263   2.913  1.00  0.00    -0.014 A 
BRANCH  35  36
ATOM     36  C   UNL     1       9.921   0.901   3.501  1.00  0.00     0.031 A 
ATOM     37  C   UNL     1      10.893   0.660   4.625  1.00  0.00     0.074 A 
ATOM     38  C   UNL     1       9.796   2.128   2.968  1.00  0.00     0.049 A 
ATOM     39  N   UNL     1      11.727   1.491   5.199  1.00  0.00    -0.248 NA
ATOM     40  C   UNL     1      10.939  -0.707   5.167  1.00  0.00     0.031 C 
ATOM     41  C   UNL     1       8.923   2.475   1.850  1.00  0.00     0.029 A 
ATOM     42  N   UNL     1      10.430   3.304   3.282  1.00  0.00    -0.354 N 
ATOM     43  C   UNL     1      12.402   0.745   6.157  1.00  0.00     0.074 A 
ATOM     44  C   UNL     1      11.849  -0.591   6.121  1.00  0.00     0.031 C 
ATOM     45  C   UNL     1       9.092   3.775   1.555  1.00  0.00     0.029 A 
ATOM     46  C   UNL     1      10.074   4.352   2.472  1.00  0.00     0.049 A 
ATOM     47  H   UNL     1      11.079   3.387   4.018  1.00  0.00     0.167 HD
ATOM     48  C   UNL     1      13.405   1.131   6.982  1.00  0.00     0.037 A 
ATOM     49  C   UNL     1      10.502   5.630   2.468  1.00  0.00     0.037 A 
ATOM     50  C   UNL     1      13.946   2.463   7.028  1.00  0.00     0.049 A 
ATOM     51  C   UNL     1      11.563   6.057   3.448  1.00  0.00     0.074 A 
ATOM     52  C   UNL     1      14.958   2.960   7.830  1.00  0.00     0.029 A 
ATOM     53  N   UNL     1      13.507   3.516   6.238  1.00  0.00    -0.354 N 
ATOM     54  N   UNL     1      12.216   5.340   4.329  1.00  0.00    -0.248 NA
ATOM     55  C   UNL     1      11.952   7.474   3.422  1.00  0.00     0.031 C 
ATOM     56  C   UNL     1      15.101   4.326   7.556  1.00  0.00     0.029 A 
ATOM     57  C   UNL     1      14.212   4.668   6.550  1.00  0.00     0.049 A 
ATOM     58  H   UNL     1      12.799   3.454   5.557  1.00  0.00     0.167 HD
ATOM     59  C   UNL     1      13.114   6.206   4.939  1.00  0.00     0.074 A 
ATOM     60  C   UNL     1      12.926   7.503   4.322  1.00  0.00     0.031 C 
ATOM     61  C   UNL     1      14.017   5.949   5.918  1.00  0.00     0.037 A 
BRANCH  48  62
ATOM     62  C   UNL     1      13.954   0.095   7.919  1.00  0.00     0.064 A 
ATOM     63  C   UNL     1      14.730  -0.979   7.455  1.00  0.00     0.173 A 
ATOM     64  C   UNL     1      13.692   0.168   9.294  1.00  0.00     0.173 A 
ATOM     65  F   UNL     1      14.997  -1.103   6.146  1.00  0.00    -0.203 F 
ATOM     66  C   UNL     1      15.188  -1.963   8.328  1.00  0.00     0.198 A 
ATOM     67  C   UNL     1      14.176  -0.802  10.169  1.00  0.00     0.198 A 
ATOM     68  F   UNL     1      12.959   1.176   9.791  1.00  0.00    -0.203 F 
ATOM     69  F   UNL     1      15.875  -3.011   7.854  1.00  0.00    -0.200 F 
ATOM     70  C   UNL     1      14.913  -1.872   9.684  1.00  0.00     0.200 A 
ATOM     71  F   UNL     1      13.917  -0.708  11.481  1.00  0.00    -0.200 F 
ATOM     72  F   UNL     1      15.349  -2.822  10.523  1.00  0.00    -0.200 F 
ENDBRANCH  48  62
BRANCH  49  73
ATOM     73  C   UNL     1       9.951   6.587   1.476  1.00  0.00     0.064 A 
ATOM     74  C   UNL     1      10.739   7.062   0.418  1.00  0.00     0.173 A 
ATOM     75  C   UNL     1       8.626   7.040   1.559  1.00  0.00     0.173 A 
ATOM     76  F   UNL     1      12.018   6.676   0.311  1.00  0.00    -0.203 F 
ATOM     77  C   UNL     1      10.223   7.958  -0.516  1.00  0.00     0.198 A 
ATOM     78  C   UNL     1       8.105   7.918   0.611  1.00  0.00     0.198 A 
ATOM     79  F   UNL     1       7.833   6.617   2.554  1.00  0.00    -0.203 F 
ATOM     80  F   UNL     1      11.006   8.421  -1.501  1.00  0.00    -0.200 F 
ATOM     81  C   UNL     1       8.905   8.379  -0.424  1.00  0.00     0.200 A 
ATOM     82  F   UNL     1       6.828   8.314   0.698  1.00  0.00    -0.200 F 
ATOM     83  F   UNL     1       8.407   9.233  -1.328  1.00  0.00    -0.200 F 
ENDBRANCH  49  73
BRANCH  61  84
ATOM     84  C   UNL     1      14.900   7.081   6.355  1.00  0.00     0.064 A 
ATOM     85  C   UNL     1      14.409   8.142   7.130  1.00  0.00     0.173 A 
ATOM     86  C   UNL     1      16.264   7.083   6.026  1.00  0.00     0.173 A 
ATOM     87  F   UNL     1      13.110   8.193   7.458  1.00  0.00    -0.203 F 
ATOM     88  C   UNL     1      15.248   9.177   7.538  1.00  0.00     0.198 A 
ATOM     89  C   UNL     1      17.105   8.104   6.459  1.00  0.00     0.198 A 
ATOM     90  F   UNL     1      16.785   6.087   5.293  1.00  0.00    -0.203 F 
ATOM     91  F   UNL     1      14.748  10.204   8.239  1.00  0.00    -0.200 F 
ATOM     92  C   UNL     1      16.595   9.154   7.208  1.00  0.00     0.200 A 
ATOM     93  F   UNL     1      18.409   8.075   6.149  1.00  0.00    -0.200 F 
ATOM     94  F   UNL     1      17.401  10.148   7.606  1.00  0.00    -0.200 F 
ENDBRANCH  61  84
ENDBRANCH  35  36
ENDBRANCH  28  30
ENDBRANCH  27  28
ENDBRANCH  26  27
ENDBRANCH  25  26
ENDBRANCH  24  25
ENDBRANCH   1  24
TORSDOF 18
