REMARK SMILES C[C@H](CCCO)NS(=O)(=O)c1cc(Cl)cc(C(=O)OCCOCCOC(=O)c2ccc(-c3c4nc(c(-c5c(F)c(F)c(F)c(F)c5F)c5ccc([nH]5)c(-c5c(F)c(F)c(F)c(F)c5F)c5nc(c(-c6c(F)c(F)c(F)c(F)c6F)c6ccc3[nH]6)C=C5)C=C4)cc2)c1Cl
REMARK SMILES IDX 20 1 19 2 17 3 18 4 16 5 11 6 12 7 91 8 13 9 92 10 14 11
REMARK SMILES IDX 15 12 8 13 9 14 10 15 7 16 2 18 1 19 3 20 4 21 5 22 6 23
REMARK SMILES IDX 21 25 22 26 23 27 24 28 25 29 26 30 27 31 28 32 29 33 90 34
REMARK SMILES IDX 30 35 89 36 31 37 32 38 33 39 83 40 34 41 88 42 82 43 84 44
REMARK SMILES IDX 35 45 87 46 81 47 80 48 36 50 68 51 48 52 67 53 49 54 52 55
REMARK SMILES IDX 66 56 85 57 50 58 51 59 65 61 86 62 53 63 37 64 38 65 46 66
REMARK SMILES IDX 39 67 40 68 44 69 47 70 41 71 42 72 45 73 43 74 69 75 70 76
REMARK SMILES IDX 78 77 71 78 72 79 76 80 79 81 73 82 74 83 77 84 75 85 54 86
REMARK SMILES IDX 55 87 63 88 56 89 57 90 61 91 64 92 58 93 59 94 62 95 60 96
REMARK H PARENT 7 17 6 24 84 49 52 60
REMARK Flexibility Score: inf
ROOT
ATOM      1  C   UNL     1      -0.055   0.874  -6.699  1.00  0.00     0.261 C 
ENDROOT
BRANCH   1   2
ATOM      2  O   UNL     1      -0.406  -0.021  -5.628  1.00  0.00    -0.460 OA
BRANCH   2   3
ATOM      3  C   UNL     1      -1.230  -1.040  -5.961  1.00  0.00     0.339 C 
ATOM      4  O   UNL     1      -1.787  -1.224  -7.028  1.00  0.00    -0.246 OA
BRANCH   3   5
ATOM      5  C   UNL     1      -1.176  -2.072  -4.906  1.00  0.00     0.081 A 
ATOM      6  C   UNL     1      -1.450  -2.928  -2.671  1.00  0.00     0.103 A 
ATOM      7  C   UNL     1      -1.004  -4.190  -3.108  1.00  0.00     0.044 A 
ATOM      8  C   UNL     1      -1.533  -1.849  -3.564  1.00  0.00     0.075 A 
ATOM      9  C   UNL     1      -0.648  -4.384  -4.437  1.00  0.00     0.043 A 
ATOM     10  Cl  UNL     1      -2.052  -0.277  -3.060  1.00  0.00    -0.082 Cl
ATOM     11  Cl  UNL     1      -0.096  -5.922  -4.964  1.00  0.00    -0.084 Cl
ATOM     12  C   UNL     1      -0.741  -3.336  -5.341  1.00  0.00     0.037 A 
BRANCH   6  13
ATOM     13  S   UNL     1      -1.970  -2.809  -0.975  1.00  0.00     0.242 S 
ATOM     14  O   UNL     1      -1.714  -4.081  -0.347  1.00  0.00    -0.207 OA
ATOM     15  O   UNL     1      -3.302  -2.239  -0.967  1.00  0.00    -0.207 OA
BRANCH  13  16
ATOM     16  N   UNL     1      -0.949  -1.679  -0.276  1.00  0.00    -0.208 NA
ATOM     17  H   UNL     1      -1.215  -0.779  -0.674  1.00  0.00     0.141 HD
BRANCH  16  18
ATOM     18  C   UNL     1       0.520  -1.743  -0.370  1.00  0.00     0.067 C 
ATOM     19  C   UNL     1       1.069  -2.914   0.432  1.00  0.00     0.025 C 
BRANCH  18  20
ATOM     20  C   UNL     1       1.098  -0.354  -0.001  1.00  0.00     0.022 C 
BRANCH  20  21
ATOM     21  C   UNL     1       1.753  -0.161   1.376  1.00  0.00     0.030 C 
BRANCH  21  22
ATOM     22  C   UNL     1       3.189  -0.665   1.514  1.00  0.00     0.156 C 
BRANCH  22  23
ATOM     23  O   UNL     1       3.958  -0.331   0.366  1.00  0.00    -0.396 OA
ATOM     24  H   UNL     1       3.567  -0.746  -0.418  1.00  0.00     0.210 HD
ENDBRANCH  22  23
ENDBRANCH  21  22
ENDBRANCH  20  21
ENDBRANCH  18  20
ENDBRANCH  16  18
ENDBRANCH  13  16
ENDBRANCH   6  13
ENDBRANCH   3   5
ENDBRANCH   2   3
ENDBRANCH   1   2
BRANCH   1  25
ATOM     25  C   UNL     1       1.459   1.091  -6.707  1.00  0.00     0.202 C 
BRANCH  25  26
ATOM     26  O   UNL     1       2.215  -0.044  -7.139  1.00  0.00    -0.374 OA
BRANCH  26  27
ATOM     27  C   UNL     1       2.440  -1.072  -6.174  1.00  0.00     0.202 C 
BRANCH  27  28
ATOM     28  C   UNL     1       3.634  -0.840  -5.242  1.00  0.00     0.261 C 
BRANCH  28  29
ATOM     29  O   UNL     1       3.396   0.254  -4.336  1.00  0.00    -0.460 OA
BRANCH  29  30
ATOM     30  C   UNL     1       4.106   1.375  -4.610  1.00  0.00     0.338 C 
ATOM     31  O   UNL     1       4.959   1.517  -5.470  1.00  0.00    -0.246 OA
BRANCH  30  32
ATOM     32  C   UNL     1       3.599   2.510  -3.814  1.00  0.00     0.060 A 
ATOM     33  C   UNL     1       3.346   3.707  -4.496  1.00  0.00     0.016 A 
ATOM     34  C   UNL     1       3.455   2.440  -2.426  1.00  0.00     0.016 A 
ATOM     35  C   UNL     1       3.006   4.856  -3.787  1.00  0.00     0.010 A 
ATOM     36  C   UNL     1       3.115   3.596  -1.715  1.00  0.00     0.010 A 
ATOM     37  C   UNL     1       2.929   4.818  -2.388  1.00  0.00    -0.014 A 
BRANCH  37  38
ATOM     38  C   UNL     1       2.816   6.090  -1.632  1.00  0.00     0.031 A 
ATOM     39  C   UNL     1       4.056   6.696  -1.036  1.00  0.00     0.074 A 
ATOM     40  C   UNL     1       1.634   6.720  -1.515  1.00  0.00     0.049 A 
ATOM     41  N   UNL     1       4.191   7.791  -0.331  1.00  0.00    -0.248 NA
ATOM     42  C   UNL     1       5.315   5.971  -1.267  1.00  0.00     0.031 C 
ATOM     43  C   UNL     1       0.370   6.255  -2.081  1.00  0.00     0.029 A 
ATOM     44  N   UNL     1       1.308   7.890  -0.875  1.00  0.00    -0.354 N 
ATOM     45  C   UNL     1       5.544   7.882  -0.031  1.00  0.00     0.074 A 
ATOM     46  C   UNL     1       6.185   6.718  -0.603  1.00  0.00     0.031 C 
ATOM     47  C   UNL     1      -0.599   7.128  -1.757  1.00  0.00     0.029 A 
ATOM     48  C   UNL     1      -0.028   8.197  -0.939  1.00  0.00     0.049 A 
ATOM     49  H   UNL     1       1.970   8.455  -0.415  1.00  0.00     0.167 HD
ATOM     50  C   UNL     1       6.195   8.854   0.651  1.00  0.00     0.037 A 
ATOM     51  C   UNL     1      -0.713   9.216  -0.384  1.00  0.00     0.037 A 
ATOM     52  C   UNL     1       5.560  10.015   1.216  1.00  0.00     0.049 A 
ATOM     53  C   UNL     1       0.026  10.252   0.423  1.00  0.00     0.074 A 
ATOM     54  C   UNL     1       6.138  11.064   1.909  1.00  0.00     0.029 A 
ATOM     55  N   UNL     1       4.199  10.276   1.156  1.00  0.00    -0.354 N 
ATOM     56  N   UNL     1       1.308  10.344   0.681  1.00  0.00    -0.248 NA
ATOM     57  C   UNL     1      -0.780  11.331   1.014  1.00  0.00     0.031 C 
ATOM     58  C   UNL     1       5.120  11.938   2.308  1.00  0.00     0.029 A 
ATOM     59  C   UNL     1       3.915  11.458   1.820  1.00  0.00     0.049 A 
ATOM     60  H   UNL     1       3.534   9.705   0.708  1.00  0.00     0.167 HD
ATOM     61  C   UNL     1       1.466  11.500   1.434  1.00  0.00     0.074 A 
ATOM     62  C   UNL     1       0.150  12.083   1.585  1.00  0.00     0.031 C 
ATOM     63  C   UNL     1       2.600  12.032   1.952  1.00  0.00     0.037 A 
BRANCH  50  64
ATOM     64  C   UNL     1       7.674   8.691   0.845  1.00  0.00     0.064 A 
ATOM     65  C   UNL     1       8.579   8.857  -0.215  1.00  0.00     0.173 A 
ATOM     66  C   UNL     1       8.195   8.399   2.114  1.00  0.00     0.173 A 
ATOM     67  F   UNL     1       8.129   9.124  -1.450  1.00  0.00    -0.203 F 
ATOM     68  C   UNL     1       9.949   8.713  -0.015  1.00  0.00     0.198 A 
ATOM     69  C   UNL     1       9.568   8.282   2.316  1.00  0.00     0.198 A 
ATOM     70  F   UNL     1       7.373   8.234   3.161  1.00  0.00    -0.203 F 
ATOM     71  F   UNL     1      10.792   8.834  -1.050  1.00  0.00    -0.200 F 
ATOM     72  C   UNL     1      10.443   8.433   1.251  1.00  0.00     0.200 A 
ATOM     73  F   UNL     1      10.044   8.021   3.541  1.00  0.00    -0.200 F 
ATOM     74  F   UNL     1      11.763   8.301   1.443  1.00  0.00    -0.200 F 
ENDBRANCH  50  64
BRANCH  51  75
ATOM     75  C   UNL     1      -2.184   9.307  -0.568  1.00  0.00     0.064 A 
ATOM     76  C   UNL     1      -2.756  10.323  -1.345  1.00  0.00     0.173 A 
ATOM     77  C   UNL     1      -3.049   8.388   0.045  1.00  0.00     0.173 A 
ATOM     78  F   UNL     1      -1.972  11.241  -1.929  1.00  0.00    -0.203 F 
ATOM     79  C   UNL     1      -4.138  10.427  -1.488  1.00  0.00     0.198 A 
ATOM     80  C   UNL     1      -4.429   8.477  -0.121  1.00  0.00     0.198 A 
ATOM     81  F   UNL     1      -2.551   7.399   0.802  1.00  0.00    -0.203 F 
ATOM     82  F   UNL     1      -4.662  11.434  -2.200  1.00  0.00    -0.200 F 
ATOM     83  C   UNL     1      -4.973   9.500  -0.881  1.00  0.00     0.200 A 
ATOM     84  F   UNL     1      -5.231   7.574   0.460  1.00  0.00    -0.200 F 
ATOM     85  F   UNL     1      -6.302   9.600  -1.022  1.00  0.00    -0.200 F 
ENDBRANCH  51  75
BRANCH  63  86
ATOM     86  C   UNL     1       2.478  13.329   2.697  1.00  0.00     0.064 A 
ATOM     87  C   UNL     1       1.903  13.394   3.974  1.00  0.00     0.173 A 
ATOM     88  C   UNL     1       2.986  14.514   2.144  1.00  0.00     0.173 A 
ATOM     89  F   UNL     1       1.390  12.291   4.540  1.00  0.00    -0.203 F 
ATOM     90  C   UNL     1       1.820  14.603   4.661  1.00  0.00     0.198 A 
ATOM     91  C   UNL     1       2.927  15.716   2.845  1.00  0.00     0.198 A 
ATOM     92  F   UNL     1       3.554  14.505   0.928  1.00  0.00    -0.203 F 
ATOM     93  F   UNL     1       1.227  14.650   5.862  1.00  0.00    -0.200 F 
ATOM     94  C   UNL     1       2.338  15.760   4.099  1.00  0.00     0.200 A 
ATOM     95  F   UNL     1       3.440  16.831   2.306  1.00  0.00    -0.200 F 
ATOM     96  F   UNL     1       2.264  16.921   4.764  1.00  0.00    -0.200 F 
ENDBRANCH  63  86
ENDBRANCH  37  38
ENDBRANCH  30  32
ENDBRANCH  29  30
ENDBRANCH  28  29
ENDBRANCH  27  28
ENDBRANCH  26  27
ENDBRANCH  25  26
ENDBRANCH   1  25
TORSDOF 21
