REMARK SMILES Cc1cc([C@H](C(=O)OCCOCCOC(=O)c2ccc(-c3c4nc(c(-c5c(F)c(F)c(F)c(F)c5F)c5ccc([nH]5)c(-c5c(F)c(F)c(F)c(F)c5F)c5nc(c(-c6c(F)c(F)c(F)c(F)c6F)c6ccc3[nH]6)C=C5)C=C4)cc2)[NH+]2CC[NH+](C)CC2)ccc1Br
REMARK SMILES IDX 12 1 11 2 10 3 9 4 8 5 6 6 7 7 5 8 4 9 1 10 2 11 3 12 89 13
REMARK SMILES IDX 88 14 90 15 87 16 80 17 81 18 86 19 82 21 85 22 83 23 84 24
REMARK SMILES IDX 13 26 14 27 15 28 16 29 17 30 18 31 79 32 19 33 78 34 20 35
REMARK SMILES IDX 21 36 22 37 72 38 23 39 77 40 71 41 73 42 24 43 76 44 70 45
REMARK SMILES IDX 69 46 25 48 57 49 37 50 56 51 38 52 41 53 55 54 74 55 39 56
REMARK SMILES IDX 40 57 54 59 75 60 42 61 26 62 27 63 35 64 28 65 29 66 33 67
REMARK SMILES IDX 36 68 30 69 31 70 34 71 32 72 58 73 59 74 67 75 60 76 61 77
REMARK SMILES IDX 65 78 68 79 62 80 63 81 66 82 64 83 43 84 44 85 52 86 45 87
REMARK SMILES IDX 46 88 50 89 53 90 47 91 48 92 51 93 49 94
REMARK H PARENT 80 20 83 25 73 47 41 58
REMARK Flexibility Score: inf
ROOT
ATOM      1  C   UNL     1       1.998  -1.841  -0.713  1.00  0.00     0.202 C 
ENDROOT
BRANCH   1   2
ATOM      2  O   UNL     1       0.811  -1.309  -0.114  1.00  0.00    -0.374 OA
BRANCH   2   3
ATOM      3  C   UNL     1       0.416   0.014  -0.480  1.00  0.00     0.202 C 
BRANCH   3   4
ATOM      4  C   UNL     1       1.276   1.149   0.085  1.00  0.00     0.261 C 
BRANCH   4   5
ATOM      5  O   UNL     1       2.630   0.976  -0.344  1.00  0.00    -0.459 OA
BRANCH   5   6
ATOM      6  C   UNL     1       3.598   1.466   0.470  1.00  0.00     0.369 C 
ATOM      7  O   UNL     1       3.372   2.280   1.362  1.00  0.00    -0.245 OA
BRANCH   6   8
ATOM      8  C   UNL     1       5.002   0.818   0.236  1.00  0.00     0.326 C 
BRANCH   8   9
ATOM      9  C   UNL     1       5.390   0.007   1.492  1.00  0.00     0.021 A 
ATOM     10  C   UNL     1       8.615  -0.850   3.350  1.00  0.00     0.045 C 
ATOM     11  C   UNL     1       7.151  -0.800   3.014  1.00  0.00    -0.036 A 
ATOM     12  C   UNL     1       6.728  -0.005   1.933  1.00  0.00     0.015 A 
ATOM     13  C   UNL     1       6.186  -1.516   3.733  1.00  0.00     0.020 A 
ATOM     14  C   UNL     1       4.849  -1.497   3.330  1.00  0.00     0.016 A 
ATOM     15  Br  UNL     1       6.628  -2.535   5.273  1.00  0.00    -0.051 Br
ATOM     16  C   UNL     1       4.459  -0.768   2.203  1.00  0.00     0.012 A 
ENDBRANCH   8   9
BRANCH   8  17
ATOM     17  N   UNL     1       5.162   0.003  -1.035  1.00  0.00    -0.310 N 
ATOM     18  C   UNL     1       6.576  -0.443  -1.190  1.00  0.00     0.325 C 
ATOM     19  C   UNL     1       4.784   0.755  -2.256  1.00  0.00     0.325 C 
ATOM     20  H   UNL     1       4.534  -0.795  -0.938  1.00  0.00     0.349 HD
ATOM     21  C   UNL     1       6.923  -1.132  -2.532  1.00  0.00     0.324 C 
ATOM     22  C   UNL     1       5.091  -0.013  -3.568  1.00  0.00     0.324 C 
ATOM     23  N   UNL     1       6.498  -0.404  -3.737  1.00  0.00    -0.328 N 
ATOM     24  C   UNL     1       7.353   0.746  -4.017  1.00  0.00     0.333 C 
ATOM     25  H   UNL     1       6.588  -1.016  -4.549  1.00  0.00     0.348 HD
ENDBRANCH   8  17
ENDBRANCH   6   8
ENDBRANCH   5   6
ENDBRANCH   4   5
ENDBRANCH   3   4
ENDBRANCH   2   3
ENDBRANCH   1   2
BRANCH   1  26
ATOM     26  C   UNL     1       1.915  -2.216  -2.198  1.00  0.00     0.261 C 
BRANCH  26  27
ATOM     27  O   UNL     1       1.709  -1.071  -3.050  1.00  0.00    -0.460 OA
BRANCH  27  28
ATOM     28  C   UNL     1       0.581  -1.112  -3.795  1.00  0.00     0.338 C 
ATOM     29  O   UNL     1      -0.223  -2.032  -3.882  1.00  0.00    -0.246 OA
BRANCH  28  30
ATOM     30  C   UNL     1       0.315   0.208  -4.393  1.00  0.00     0.060 A 
ATOM     31  C   UNL     1      -0.907   0.820  -4.084  1.00  0.00     0.016 A 
ATOM     32  C   UNL     1       1.187   0.790  -5.315  1.00  0.00     0.016 A 
ATOM     33  C   UNL     1      -1.284   1.994  -4.731  1.00  0.00     0.010 A 
ATOM     34  C   UNL     1       0.802   1.968  -5.970  1.00  0.00     0.010 A 
ATOM     35  C   UNL     1      -0.450   2.555  -5.708  1.00  0.00    -0.014 A 
BRANCH  35  36
ATOM     36  C   UNL     1      -0.967   3.664  -6.551  1.00  0.00     0.031 A 
ATOM     37  C   UNL     1      -1.511   3.352  -7.919  1.00  0.00     0.074 A 
ATOM     38  C   UNL     1      -1.005   4.925  -6.087  1.00  0.00     0.049 A 
ATOM     39  N   UNL     1      -2.015   4.159  -8.819  1.00  0.00    -0.248 NA
ATOM     40  C   UNL     1      -1.486   1.938  -8.326  1.00  0.00     0.031 C 
ATOM     41  C   UNL     1      -0.553   5.352  -4.765  1.00  0.00     0.029 A 
ATOM     42  N   UNL     1      -1.450   6.081  -6.682  1.00  0.00    -0.354 N 
ATOM     43  C   UNL     1      -2.366   3.354  -9.894  1.00  0.00     0.074 A 
ATOM     44  C   UNL     1      -1.988   2.000  -9.551  1.00  0.00     0.031 C 
ATOM     45  C   UNL     1      -0.738   6.678  -4.649  1.00  0.00     0.029 A 
ATOM     46  C   UNL     1      -1.295   7.197  -5.898  1.00  0.00     0.049 A 
ATOM     47  H   UNL     1      -1.842   6.106  -7.584  1.00  0.00     0.167 HD
ATOM     48  C   UNL     1      -2.962   3.708 -11.058  1.00  0.00     0.037 A 
ATOM     49  C   UNL     1      -1.556   8.492  -6.166  1.00  0.00     0.037 A 
ATOM     50  C   UNL     1      -3.342   5.053 -11.402  1.00  0.00     0.049 A 
ATOM     51  C   UNL     1      -2.145   8.871  -7.501  1.00  0.00     0.074 A 
ATOM     52  C   UNL     1      -3.969   5.506 -12.550  1.00  0.00     0.029 A 
ATOM     53  N   UNL     1      -3.125   6.164 -10.601  1.00  0.00    -0.354 N 
ATOM     54  N   UNL     1      -2.499   8.100  -8.500  1.00  0.00    -0.248 NA
ATOM     55  C   UNL     1      -2.374  10.303  -7.743  1.00  0.00     0.031 C 
ATOM     56  C   UNL     1      -4.084   6.898 -12.467  1.00  0.00     0.029 A 
ATOM     57  C   UNL     1      -3.578   7.306 -11.243  1.00  0.00     0.049 A 
ATOM     58  H   UNL     1      -2.710   6.145  -9.709  1.00  0.00     0.167 HD
ATOM     59  C   UNL     1      -3.015   8.946  -9.474  1.00  0.00     0.074 A 
ATOM     60  C   UNL     1      -2.942  10.290  -8.940  1.00  0.00     0.031 C 
ATOM     61  C   UNL     1      -3.505   8.638 -10.700  1.00  0.00     0.037 A 
BRANCH  48  62
ATOM     62  C   UNL     1      -3.221   2.623 -12.062  1.00  0.00     0.064 A 
ATOM     63  C   UNL     1      -4.221   1.659 -11.863  1.00  0.00     0.173 A 
ATOM     64  C   UNL     1      -2.485   2.570 -13.255  1.00  0.00     0.173 A 
ATOM     65  F   UNL     1      -4.944   1.659 -10.733  1.00  0.00    -0.203 F 
ATOM     66  C   UNL     1      -4.458   0.668 -12.812  1.00  0.00     0.198 A 
ATOM     67  C   UNL     1      -2.743   1.594 -14.213  1.00  0.00     0.198 A 
ATOM     68  F   UNL     1      -1.521   3.471 -13.495  1.00  0.00    -0.203 F 
ATOM     69  F   UNL     1      -5.389  -0.268 -12.583  1.00  0.00    -0.200 F 
ATOM     70  C   UNL     1      -3.724   0.640 -13.989  1.00  0.00     0.200 A 
ATOM     71  F   UNL     1      -2.042   1.577 -15.355  1.00  0.00    -0.200 F 
ATOM     72  F   UNL     1      -3.959  -0.310 -14.905  1.00  0.00    -0.200 F 
ENDBRANCH  48  62
BRANCH  49  73
ATOM     73  C   UNL     1      -1.251   9.537  -5.154  1.00  0.00     0.064 A 
ATOM     74  C   UNL     1      -2.275  10.255  -4.521  1.00  0.00     0.173 A 
ATOM     75  C   UNL     1       0.073   9.859  -4.821  1.00  0.00     0.173 A 
ATOM     76  F   UNL     1      -3.556  10.004  -4.827  1.00  0.00    -0.203 F 
ATOM     77  C   UNL     1      -1.985  11.268  -3.608  1.00  0.00     0.198 A 
ATOM     78  C   UNL     1       0.361  10.852  -3.888  1.00  0.00     0.198 A 
ATOM     79  F   UNL     1       1.090   9.204  -5.402  1.00  0.00    -0.203 F 
ATOM     80  F   UNL     1      -2.982  11.973  -3.056  1.00  0.00    -0.200 F 
ATOM     81  C   UNL     1      -0.668  11.562  -3.288  1.00  0.00     0.200 A 
ATOM     82  F   UNL     1       1.635  11.125  -3.575  1.00  0.00    -0.200 F 
ATOM     83  F   UNL     1      -0.391  12.536  -2.411  1.00  0.00    -0.200 F 
ENDBRANCH  49  73
BRANCH  61  84
ATOM     84  C   UNL     1      -4.032   9.766 -11.539  1.00  0.00     0.064 A 
ATOM     85  C   UNL     1      -3.175  10.703 -12.136  1.00  0.00     0.173 A 
ATOM     86  C   UNL     1      -5.409   9.887 -11.785  1.00  0.00     0.173 A 
ATOM     87  F   UNL     1      -1.852  10.640 -11.920  1.00  0.00    -0.203 F 
ATOM     88  C   UNL     1      -3.679  11.732 -12.927  1.00  0.00     0.198 A 
ATOM     89  C   UNL     1      -5.906  10.900 -12.601  1.00  0.00     0.198 A 
ATOM     90  F   UNL     1      -6.271   9.013 -11.245  1.00  0.00    -0.203 F 
ATOM     91  F   UNL     1      -2.845  12.643 -13.449  1.00  0.00    -0.200 F 
ATOM     92  C   UNL     1      -5.042  11.825 -13.165  1.00  0.00     0.200 A 
ATOM     93  F   UNL     1      -7.222  10.980 -12.841  1.00  0.00    -0.200 F 
ATOM     94  F   UNL     1      -5.524  12.812 -13.933  1.00  0.00    -0.200 F 
ENDBRANCH  61  84
ENDBRANCH  35  36
ENDBRANCH  28  30
ENDBRANCH  27  28
ENDBRANCH  26  27
ENDBRANCH   1  26
TORSDOF 16
