REMARK SMILES Cc1ccc(-c2cc(Cl)cc3c2O[C@H](C(F)(F)F)C(C(=O)OCCOCCOC(=O)c2ccc(-c4c5nc(c(-c6c(F)c(F)c(F)c(F)c6F)c6ccc([nH]6)c(-c6c(F)c(F)c(F)c(F)c6F)c6nc(c(-c7c(F)c(F)c(F)c(F)c7F)c7ccc4[nH]7)C=C6)C=C5)cc2)=C3)cc1F
REMARK SMILES IDX 26 1 25 2 24 3 23 4 22 5 20 6 21 7 19 8 6 9 7 10 12 11 8 12
REMARK SMILES IDX 11 13 13 14 9 15 10 16 94 17 14 18 5 19 1 20 2 21 3 22 96 23
REMARK SMILES IDX 4 24 95 25 97 26 15 27 16 28 17 29 18 30 27 31 28 32 29 33
REMARK SMILES IDX 30 34 31 35 32 36 93 37 33 38 92 39 34 40 35 41 36 42 86 43
REMARK SMILES IDX 37 44 91 45 85 46 87 47 38 48 90 49 84 50 83 51 39 53 71 54
REMARK SMILES IDX 51 55 70 56 52 57 55 58 69 59 88 60 53 61 54 62 68 64 89 65
REMARK SMILES IDX 56 66 40 67 41 68 49 69 42 70 43 71 47 72 50 73 44 74 45 75
REMARK SMILES IDX 48 76 46 77 72 78 73 79 81 80 74 81 75 82 79 83 82 84 76 85
REMARK SMILES IDX 77 86 80 87 78 88 57 89 58 90 66 91 59 92 60 93 64 94 67 95
REMARK SMILES IDX 61 96 62 97 65 98 63 99
REMARK H PARENT 87 52 55 63
REMARK Flexibility Score: inf
ROOT
ATOM      1  C   UNL     1      -6.549  -4.838   6.843  1.00  0.00     0.202 C 
ENDROOT
BRANCH   1   2
ATOM      2  O   UNL     1      -5.514  -5.766   6.499  1.00  0.00    -0.374 OA
BRANCH   2   3
ATOM      3  C   UNL     1      -4.172  -5.437   6.787  1.00  0.00     0.202 C 
BRANCH   3   4
ATOM      4  C   UNL     1      -3.062  -6.101   5.821  1.00  0.00     0.261 C 
BRANCH   4   5
ATOM      5  O   UNL     1      -2.560  -5.512   3.951  1.00  0.00    -0.460 OA
BRANCH   5   6
ATOM      6  C   UNL     1      -2.105  -5.382   2.624  1.00  0.00     0.338 C 
ATOM      7  O   UNL     1      -1.469  -6.211   1.984  1.00  0.00    -0.246 OA
BRANCH   6   8
ATOM      8  C   UNL     1      -2.565  -4.125   2.000  1.00  0.00     0.087 C 
ATOM      9  C   UNL     1      -3.035  -1.030  -0.664  1.00  0.00     0.026 A 
ATOM     10  C   UNL     1      -4.055  -1.086  -1.618  1.00  0.00     0.033 A 
ATOM     11  C   UNL     1      -3.050  -1.962   0.392  1.00  0.00     0.135 A 
ATOM     12  C   UNL     1      -5.055  -2.058  -1.508  1.00  0.00     0.042 A 
ATOM     13  C   UNL     1      -3.981  -2.999   0.439  1.00  0.00     0.019 A 
ATOM     14  O   UNL     1      -2.102  -1.791   1.368  1.00  0.00    -0.475 OA
ATOM     15  Cl  UNL     1      -6.299  -2.134  -2.696  1.00  0.00    -0.084 Cl
ATOM     16  C   UNL     1      -5.021  -3.018  -0.491  1.00  0.00     0.032 A 
ATOM     17  C   UNL     1      -3.726  -4.130   1.323  1.00  0.00     0.027 C 
ATOM     18  C   UNL     1      -1.621  -2.959   2.052  1.00  0.00     0.316 C 
BRANCH   9  19
ATOM     19  C   UNL     1      -1.871  -0.142  -0.786  1.00  0.00    -0.012 A 
ATOM     20  C   UNL     1       1.761   2.068  -0.080  1.00  0.00     0.047 C 
ATOM     21  C   UNL     1       0.494   1.349  -0.428  1.00  0.00    -0.015 A 
ATOM     22  C   UNL     1      -0.760   1.956  -0.276  1.00  0.00     0.007 A 
ATOM     23  C   UNL     1       0.549   0.015  -0.823  1.00  0.00     0.126 A 
ATOM     24  C   UNL     1      -1.936   1.216  -0.456  1.00  0.00     0.009 A 
ATOM     25  C   UNL     1      -0.610  -0.718  -1.026  1.00  0.00     0.048 A 
ATOM     26  F   UNL     1       1.733  -0.603  -0.943  1.00  0.00    -0.207 F 
ENDBRANCH   9  19
BRANCH  18  27
ATOM     27  C   UNL     1      -0.195  -3.282   1.593  1.00  0.00     0.430 C 
ATOM     28  F   UNL     1       0.593  -2.184   1.645  1.00  0.00    -0.167 F 
ATOM     29  F   UNL     1       0.377  -4.200   2.409  1.00  0.00    -0.167 F 
ATOM     30  F   UNL     1      -0.162  -3.761   0.333  1.00  0.00    -0.167 F 
ENDBRANCH  18  27
ENDBRANCH   6   8
ENDBRANCH   5   6
ENDBRANCH   4   5
ENDBRANCH   3   4
ENDBRANCH   2   3
ENDBRANCH   1   2
BRANCH   1  31
ATOM     31  C   UNL     1      -6.387  -3.602   7.775  1.00  0.00     0.261 C 
BRANCH  31  32
ATOM     32  O   UNL     1      -5.122  -3.479   8.431  1.00  0.00    -0.460 OA
BRANCH  32  33
ATOM     33  C   UNL     1      -5.054  -3.777   9.748  1.00  0.00     0.338 C 
ATOM     34  O   UNL     1      -5.969  -3.800  10.548  1.00  0.00    -0.246 OA
BRANCH  33  35
ATOM     35  C   UNL     1      -3.750  -4.464   9.923  1.00  0.00     0.060 A 
ATOM     36  C   UNL     1      -2.568  -4.017   9.304  1.00  0.00     0.016 A 
ATOM     37  C   UNL     1      -3.834  -5.761  10.437  1.00  0.00     0.016 A 
ATOM     38  C   UNL     1      -1.510  -4.915   9.107  1.00  0.00     0.010 A 
ATOM     39  C   UNL     1      -2.792  -6.654  10.217  1.00  0.00     0.010 A 
ATOM     40  C   UNL     1      -1.648  -6.250   9.514  1.00  0.00    -0.014 A 
BRANCH  40  41
ATOM     41  C   UNL     1      -0.620  -7.266   9.277  1.00  0.00     0.031 A 
ATOM     42  C   UNL     1       0.560  -7.317  10.163  1.00  0.00     0.074 A 
ATOM     43  C   UNL     1      -0.702  -8.193   8.292  1.00  0.00     0.049 A 
ATOM     44  N   UNL     1       1.742  -7.679   9.786  1.00  0.00    -0.248 NA
ATOM     45  C   UNL     1       0.471  -6.970  11.575  1.00  0.00     0.031 C 
ATOM     46  C   UNL     1       0.192  -9.330   8.073  1.00  0.00     0.029 A 
ATOM     47  N   UNL     1      -1.486  -8.168   7.130  1.00  0.00    -0.354 N 
ATOM     48  C   UNL     1       2.445  -7.963  10.931  1.00  0.00     0.074 A 
ATOM     49  C   UNL     1       1.663  -7.392  12.010  1.00  0.00     0.031 C 
ATOM     50  C   UNL     1       0.182  -9.635   6.766  1.00  0.00     0.029 A 
ATOM     51  C   UNL     1      -0.643  -8.643   6.094  1.00  0.00     0.049 A 
ATOM     52  H   UNL     1      -2.425  -7.881   7.051  1.00  0.00     0.167 HD
ATOM     53  C   UNL     1       3.508  -8.818  10.894  1.00  0.00     0.037 A 
ATOM     54  C   UNL     1      -0.254  -7.856   5.050  1.00  0.00     0.037 A 
ATOM     55  C   UNL     1       3.818  -9.296   9.549  1.00  0.00     0.049 A 
ATOM     56  C   UNL     1       1.258  -7.692   4.916  1.00  0.00     0.074 A 
ATOM     57  C   UNL     1       3.655 -10.500   8.881  1.00  0.00     0.029 A 
ATOM     58  N   UNL     1       4.150  -8.373   8.569  1.00  0.00    -0.354 N 
ATOM     59  N   UNL     1       2.121  -8.154   5.780  1.00  0.00    -0.248 NA
ATOM     60  C   UNL     1       1.919  -6.932   3.852  1.00  0.00     0.031 C 
ATOM     61  C   UNL     1       3.926 -10.300   7.502  1.00  0.00     0.029 A 
ATOM     62  C   UNL     1       4.212  -8.963   7.323  1.00  0.00     0.049 A 
ATOM     63  H   UNL     1       4.320  -7.418   8.740  1.00  0.00     0.167 HD
ATOM     64  C   UNL     1       3.393  -7.786   5.419  1.00  0.00     0.074 A 
ATOM     65  C   UNL     1       3.216  -7.007   4.211  1.00  0.00     0.031 C 
ATOM     66  C   UNL     1       4.487  -8.148   6.154  1.00  0.00     0.037 A 
BRANCH  53  67
ATOM     67  C   UNL     1       4.040  -9.424  12.167  1.00  0.00     0.064 A 
ATOM     68  C   UNL     1       4.323 -10.799  12.276  1.00  0.00     0.173 A 
ATOM     69  C   UNL     1       4.211  -8.679  13.348  1.00  0.00     0.173 A 
ATOM     70  F   UNL     1       4.290 -11.613  11.217  1.00  0.00    -0.203 F 
ATOM     71  C   UNL     1       4.628 -11.402  13.497  1.00  0.00     0.198 A 
ATOM     72  C   UNL     1       4.463  -9.290  14.580  1.00  0.00     0.198 A 
ATOM     73  F   UNL     1       4.123  -7.340  13.331  1.00  0.00    -0.203 F 
ATOM     74  F   UNL     1       4.862 -12.721  13.543  1.00  0.00    -0.200 F 
ATOM     75  C   UNL     1       4.656 -10.655  14.656  1.00  0.00     0.200 A 
ATOM     76  F   UNL     1       4.491  -8.549  15.697  1.00  0.00    -0.200 F 
ATOM     77  F   UNL     1       4.876 -11.248  15.837  1.00  0.00    -0.200 F 
ENDBRANCH  53  67
BRANCH  54  78
ATOM     78  C   UNL     1      -1.272  -6.850   4.632  1.00  0.00     0.064 A 
ATOM     79  C   UNL     1      -2.883  -7.416   4.003  1.00  0.00     0.173 A 
ATOM     80  C   UNL     1      -1.083  -5.130   5.139  1.00  0.00     0.173 A 
ATOM     81  F   UNL     1      -3.071  -8.711   3.720  1.00  0.00    -0.203 F 
ATOM     82  C   UNL     1      -4.301  -6.281   3.947  1.00  0.00     0.198 A 
ATOM     83  C   UNL     1      -2.488  -4.002   5.103  1.00  0.00     0.198 A 
ATOM     84  F   UNL     1       0.065  -4.722   5.694  1.00  0.00    -0.203 F 
ATOM     85  F   UNL     1      -5.490  -6.706   3.505  1.00  0.00    -0.200 F 
ATOM     86  C   UNL     1      -4.098  -4.559   4.478  1.00  0.00     0.200 A 
ATOM     87  F   UNL     1      -2.344  -2.751   5.556  1.00  0.00    -0.200 F 
ATOM     88  F   UNL     1      -5.119  -3.696   4.423  1.00  0.00    -0.200 F 
ENDBRANCH  54  78
BRANCH  66  89
ATOM     89  C   UNL     1       5.925  -7.855   5.825  1.00  0.00     0.064 A 
ATOM     90  C   UNL     1       6.465  -8.027   4.543  1.00  0.00     0.173 A 
ATOM     91  C   UNL     1       6.854  -7.583   6.858  1.00  0.00     0.173 A 
ATOM     92  F   UNL     1       5.676  -8.336   3.504  1.00  0.00    -0.203 F 
ATOM     93  C   UNL     1       7.842  -7.933   4.310  1.00  0.00     0.198 A 
ATOM     94  C   UNL     1       8.228  -7.534   6.631  1.00  0.00     0.198 A 
ATOM     95  F   UNL     1       6.447  -7.354   8.115  1.00  0.00    -0.203 F 
ATOM     96  F   UNL     1       8.319  -8.088   3.066  1.00  0.00    -0.200 F 
ATOM     97  C   UNL     1       8.723  -7.706   5.354  1.00  0.00     0.200 A 
ATOM     98  F   UNL     1       9.067  -7.333   7.657  1.00  0.00    -0.200 F 
ATOM     99  F   UNL     1      10.044  -7.658   5.133  1.00  0.00    -0.200 F 
ENDBRANCH  66  89
ENDBRANCH  40  41
ENDBRANCH  33  35
ENDBRANCH  32  33
ENDBRANCH  31  32
ENDBRANCH   1  31
TORSDOF 16
