REMARK SMILES CCCc1cc(OC(F)(F)F)cc2c1O[C@H](C(F)(F)F)C(C(=O)OCCOCCOC(=O)c1ccc(-c3c4nc(c(-c5c(F)c(F)c(F)c(F)c5F)c5ccc([nH]5)c(-c5c(F)c(F)c(F)c(F)c5F)c5nc(c(-c6c(F)c(F)c(F)c(F)c6F)c6ccc3[nH]6)C=C5)C=C4)cc1)=C2
REMARK SMILES IDX 27 1 26 2 25 3 24 4 22 5 23 6 21 7 4 8 5 9 14 10 6 11 13 12
REMARK SMILES IDX 15 13 12 14 96 15 16 16 3 17 2 18 1 19 7 20 8 21 9 22 10 23
REMARK SMILES IDX 11 24 17 25 18 26 19 27 20 28 28 29 29 30 30 31 31 32 32 33
REMARK SMILES IDX 33 34 34 35 95 36 35 37 94 38 36 39 37 40 38 41 88 42 39 43
REMARK SMILES IDX 93 44 87 45 89 46 40 47 92 48 86 49 85 50 41 52 73 53 53 54
REMARK SMILES IDX 72 55 54 56 57 57 71 58 90 59 55 60 56 61 70 63 91 64 58 65
REMARK SMILES IDX 42 66 43 67 51 68 44 69 45 70 49 71 52 72 46 73 47 74 50 75
REMARK SMILES IDX 48 76 74 77 75 78 83 79 76 80 77 81 81 82 84 83 78 84 79 85
REMARK SMILES IDX 82 86 80 87 59 88 60 89 68 90 61 91 62 92 66 93 69 94 63 95
REMARK SMILES IDX 64 96 67 97 65 98
REMARK H PARENT 89 51 57 62
REMARK Flexibility Score: inf
ROOT
ATOM      1  O   UNL     1       2.172 -10.270  -3.705  1.00  0.00    -0.374 OA
ENDROOT
BRANCH   1   2
ATOM      2  C   UNL     1       2.688 -10.637  -2.426  1.00  0.00     0.202 C 
BRANCH   2   3
ATOM      3  C   UNL     1       3.622  -9.627  -1.753  1.00  0.00     0.261 C 
BRANCH   3   4
ATOM      4  O   UNL     1       2.902  -8.469  -1.286  1.00  0.00    -0.460 OA
BRANCH   4   5
ATOM      5  C   UNL     1       3.167  -7.324  -1.957  1.00  0.00     0.338 C 
ATOM      6  O   UNL     1       3.982  -7.191  -2.857  1.00  0.00    -0.246 OA
BRANCH   5   7
ATOM      7  C   UNL     1       2.256  -6.228  -1.568  1.00  0.00     0.087 C 
ATOM      8  C   UNL     1       0.549  -2.515  -0.742  1.00  0.00    -0.002 A 
ATOM      9  C   UNL     1      -0.334  -2.398   0.339  1.00  0.00     0.054 A 
ATOM     10  C   UNL     1       1.137  -3.767  -0.971  1.00  0.00     0.131 A 
ATOM     11  C   UNL     1      -0.552  -3.472   1.212  1.00  0.00     0.130 A 
ATOM     12  C   UNL     1       0.928  -4.863  -0.118  1.00  0.00     0.021 A 
ATOM     13  O   UNL     1       1.969  -3.858  -2.059  1.00  0.00    -0.475 OA
ATOM     14  C   UNL     1       0.075  -4.704   0.975  1.00  0.00     0.058 A 
ATOM     15  C   UNL     1       1.678  -6.102  -0.361  1.00  0.00     0.027 C 
ATOM     16  C   UNL     1       2.050  -5.178  -2.635  1.00  0.00     0.316 C 
BRANCH   8  17
ATOM     17  C   UNL     1       0.860  -1.377  -1.695  1.00  0.00     0.039 C 
BRANCH  17  18
ATOM     18  C   UNL     1       0.533   0.054  -1.262  1.00  0.00     0.001 C 
ATOM     19  C   UNL     1       1.369   0.532  -0.083  1.00  0.00     0.004 C 
ENDBRANCH  17  18
ENDBRANCH   8  17
BRANCH  11  20
ATOM     20  O   UNL     1      -1.350  -3.436   2.323  1.00  0.00    -0.406 OA
BRANCH  20  21
ATOM     21  C   UNL     1      -1.695  -2.154   2.831  1.00  0.00     0.573 C 
ATOM     22  F   UNL     1      -0.601  -1.379   2.999  1.00  0.00    -0.132 F 
ATOM     23  F   UNL     1      -2.568  -1.530   2.011  1.00  0.00    -0.132 F 
ATOM     24  F   UNL     1      -2.287  -2.309   4.035  1.00  0.00    -0.132 F 
ENDBRANCH  20  21
ENDBRANCH  11  20
BRANCH  16  25
ATOM     25  C   UNL     1       0.835  -5.474  -3.536  1.00  0.00     0.430 C 
ATOM     26  F   UNL     1       0.496  -4.402  -4.290  1.00  0.00    -0.167 F 
ATOM     27  F   UNL     1       1.095  -6.488  -4.394  1.00  0.00    -0.167 F 
ATOM     28  F   UNL     1      -0.267  -5.833  -2.834  1.00  0.00    -0.167 F 
ENDBRANCH  16  25
ENDBRANCH   5   7
ENDBRANCH   4   5
ENDBRANCH   3   4
ENDBRANCH   2   3
ENDBRANCH   1   2
BRANCH   1  29
ATOM     29  C   UNL     1       1.104  -9.325  -3.732  1.00  0.00     0.202 C 
BRANCH  29  30
ATOM     30  C   UNL     1      -0.307  -9.869  -3.489  1.00  0.00     0.261 C 
BRANCH  30  31
ATOM     31  O   UNL     1      -0.419 -10.515  -2.211  1.00  0.00    -0.460 OA
BRANCH  31  32
ATOM     32  C   UNL     1      -0.477 -11.864  -2.276  1.00  0.00     0.338 C 
ATOM     33  O   UNL     1      -0.561 -12.559  -3.281  1.00  0.00    -0.246 OA
BRANCH  32  34
ATOM     34  C   UNL     1      -0.250 -12.444  -0.943  1.00  0.00     0.060 A 
ATOM     35  C   UNL     1       0.727 -13.443  -0.841  1.00  0.00     0.016 A 
ATOM     36  C   UNL     1      -1.013 -12.078   0.169  1.00  0.00     0.016 A 
ATOM     37  C   UNL     1       0.901 -14.125   0.358  1.00  0.00     0.010 A 
ATOM     38  C   UNL     1      -0.841 -12.771   1.372  1.00  0.00     0.010 A 
ATOM     39  C   UNL     1       0.087 -13.824   1.458  1.00  0.00    -0.014 A 
BRANCH  39  40
ATOM     40  C   UNL     1       0.112 -14.726   2.634  1.00  0.00     0.031 A 
ATOM     41  C   UNL     1      -0.941 -15.793   2.753  1.00  0.00     0.074 A 
ATOM     42  C   UNL     1       1.091 -14.633   3.549  1.00  0.00     0.049 A 
ATOM     43  N   UNL     1      -1.093 -16.710   3.675  1.00  0.00    -0.248 NA
ATOM     44  C   UNL     1      -1.958 -15.834   1.690  1.00  0.00     0.031 C 
ATOM     45  C   UNL     1       2.181 -13.660   3.523  1.00  0.00     0.029 A 
ATOM     46  N   UNL     1       1.326 -15.374   4.680  1.00  0.00    -0.354 N 
ATOM     47  C   UNL     1      -2.219 -17.433   3.304  1.00  0.00     0.074 A 
ATOM     48  C   UNL     1      -2.732 -16.831   2.093  1.00  0.00     0.031 C 
ATOM     49  C   UNL     1       2.968 -13.859   4.594  1.00  0.00     0.029 A 
ATOM     50  C   UNL     1       2.425 -14.959   5.390  1.00  0.00     0.049 A 
ATOM     51  H   UNL     1       0.760 -16.131   4.956  1.00  0.00     0.167 HD
ATOM     52  C   UNL     1      -2.768 -18.511   3.913  1.00  0.00     0.037 A 
ATOM     53  C   UNL     1       2.925 -15.409   6.557  1.00  0.00     0.037 A 
ATOM     54  C   UNL     1      -2.252 -19.114   5.113  1.00  0.00     0.049 A 
ATOM     55  C   UNL     1       2.263 -16.577   7.242  1.00  0.00     0.074 A 
ATOM     56  C   UNL     1      -2.719 -20.228   5.788  1.00  0.00     0.029 A 
ATOM     57  N   UNL     1      -1.156 -18.645   5.822  1.00  0.00    -0.354 N 
ATOM     58  N   UNL     1       1.225 -17.281   6.862  1.00  0.00    -0.248 NA
ATOM     59  C   UNL     1       2.848 -17.016   8.517  1.00  0.00     0.031 C 
ATOM     60  C   UNL     1      -1.935 -20.404   6.933  1.00  0.00     0.029 A 
ATOM     61  C   UNL     1      -0.949 -19.431   6.944  1.00  0.00     0.049 A 
ATOM     62  H   UNL     1      -0.607 -17.870   5.565  1.00  0.00     0.167 HD
ATOM     63  C   UNL     1       1.048 -18.258   7.833  1.00  0.00     0.074 A 
ATOM     64  C   UNL     1       2.096 -18.066   8.813  1.00  0.00     0.031 C 
ATOM     65  C   UNL     1       0.102 -19.227   7.908  1.00  0.00     0.037 A 
BRANCH  52  66
ATOM     66  C   UNL     1      -4.005 -19.098   3.300  1.00  0.00     0.064 A 
ATOM     67  C   UNL     1      -3.959 -19.828   2.103  1.00  0.00     0.173 A 
ATOM     68  C   UNL     1      -5.245 -18.962   3.941  1.00  0.00     0.173 A 
ATOM     69  F   UNL     1      -2.799 -19.975   1.445  1.00  0.00    -0.203 F 
ATOM     70  C   UNL     1      -5.115 -20.383   1.559  1.00  0.00     0.198 A 
ATOM     71  C   UNL     1      -6.394 -19.540   3.408  1.00  0.00     0.198 A 
ATOM     72  F   UNL     1      -5.341 -18.275   5.089  1.00  0.00    -0.203 F 
ATOM     73  F   UNL     1      -5.056 -21.043   0.394  1.00  0.00    -0.200 F 
ATOM     74  C   UNL     1      -6.329 -20.245   2.215  1.00  0.00     0.200 A 
ATOM     75  F   UNL     1      -7.564 -19.414   4.048  1.00  0.00    -0.200 F 
ATOM     76  F   UNL     1      -7.439 -20.786   1.695  1.00  0.00    -0.200 F 
ENDBRANCH  52  66
BRANCH  53  77
ATOM     77  C   UNL     1       4.113 -14.751   7.158  1.00  0.00     0.064 A 
ATOM     78  C   UNL     1       5.346 -15.411   7.239  1.00  0.00     0.173 A 
ATOM     79  C   UNL     1       4.032 -13.452   7.682  1.00  0.00     0.173 A 
ATOM     80  F   UNL     1       5.467 -16.663   6.774  1.00  0.00    -0.203 F 
ATOM     81  C   UNL     1       6.449 -14.805   7.839  1.00  0.00     0.198 A 
ATOM     82  C   UNL     1       5.142 -12.837   8.257  1.00  0.00     0.198 A 
ATOM     83  F   UNL     1       2.874 -12.778   7.630  1.00  0.00    -0.203 F 
ATOM     84  F   UNL     1       7.604 -15.476   7.946  1.00  0.00    -0.200 F 
ATOM     85  C   UNL     1       6.347 -13.517   8.342  1.00  0.00     0.200 A 
ATOM     86  F   UNL     1       5.042 -11.588   8.731  1.00  0.00    -0.200 F 
ATOM     87  F   UNL     1       7.408 -12.934   8.917  1.00  0.00    -0.200 F 
ENDBRANCH  53  77
BRANCH  65  88
ATOM     88  C   UNL     1       0.172 -20.170   9.073  1.00  0.00     0.064 A 
ATOM     89  C   UNL     1      -0.173 -19.762  10.370  1.00  0.00     0.173 A 
ATOM     90  C   UNL     1       0.547 -21.509   8.883  1.00  0.00     0.173 A 
ATOM     91  F   UNL     1      -0.524 -18.488  10.606  1.00  0.00    -0.203 F 
ATOM     92  C   UNL     1      -0.121 -20.653  11.438  1.00  0.00     0.198 A 
ATOM     93  C   UNL     1       0.570 -22.404   9.949  1.00  0.00     0.198 A 
ATOM     94  F   UNL     1       0.879 -21.951   7.661  1.00  0.00    -0.203 F 
ATOM     95  F   UNL     1      -0.411 -20.230  12.676  1.00  0.00    -0.200 F 
ATOM     96  C   UNL     1       0.243 -21.975  11.226  1.00  0.00     0.200 A 
ATOM     97  F   UNL     1       0.908 -23.684   9.739  1.00  0.00    -0.200 F 
ATOM     98  F   UNL     1       0.285 -22.833  12.254  1.00  0.00    -0.200 F 
ENDBRANCH  65  88
ENDBRANCH  39  40
ENDBRANCH  32  34
ENDBRANCH  31  32
ENDBRANCH  30  31
ENDBRANCH  29  30
ENDBRANCH   1  29
TORSDOF 19
