REMARK SMILES C[C@@H](C(=O)OCCOCCOC(=O)c1ccc(-c2c3nc(c(-c4c(F)c(F)c(F)c(F)c4F)c4ccc([nH]4)c(-c4c(F)c(F)c(F)c(F)c4F)c4nc(c(-c5c(F)c(F)c(F)c(F)c5F)c5ccc2[nH]5)C=C4)C=C3)cc1)[C@@H](C)C(=O)c1cc(Cl)c2c(c1)OCCCO2
REMARK SMILES IDX 6 1 5 2 3 3 4 4 2 5 1 6 77 7 78 8 79 9 80 10 81 11 82 12
REMARK SMILES IDX 87 13 83 14 86 15 84 16 85 17 88 18 89 19 90 20 92 22 91 23
REMARK SMILES IDX 7 25 8 26 9 27 10 28 11 29 12 30 13 31 14 32 15 33 76 34
REMARK SMILES IDX 16 35 75 36 17 37 18 38 19 39 69 40 20 41 74 42 68 43 70 44
REMARK SMILES IDX 21 45 73 46 67 47 66 48 22 50 54 51 34 52 53 53 35 54 38 55
REMARK SMILES IDX 52 56 71 57 36 58 37 59 51 61 72 62 39 63 23 64 24 65 32 66
REMARK SMILES IDX 25 67 26 68 30 69 33 70 27 71 28 72 31 73 29 74 55 75 56 76
REMARK SMILES IDX 64 77 57 78 58 79 62 80 65 81 59 82 60 83 63 84 61 85 40 86
REMARK SMILES IDX 41 87 49 88 42 89 43 90 47 91 50 92 44 93 45 94 48 95 46 96
REMARK H PARENT 70 49 38 60
REMARK Flexibility Score: 90.00
ROOT
ATOM      1  C   UNL     1       2.551   0.276   4.106  1.00  0.00     0.261 C 
ENDROOT
BRANCH   1   2
ATOM      2  O   UNL     1       2.122  -0.144   2.807  1.00  0.00    -0.463 OA
BRANCH   2   3
ATOM      3  C   UNL     1       0.852  -0.625   2.819  1.00  0.00     0.309 C 
ATOM      4  O   UNL     1       0.164  -0.675   3.830  1.00  0.00    -0.252 OA
BRANCH   3   5
ATOM      5  C   UNL     1       0.382  -1.144   1.466  1.00  0.00     0.106 C 
ATOM      6  C   UNL     1       0.954  -0.332   0.293  1.00  0.00     0.021 C 
BRANCH   5   7
ATOM      7  C   UNL     1      -1.171  -1.192   1.476  1.00  0.00     0.072 C 
ATOM      8  C   UNL     1      -1.739  -1.694   0.143  1.00  0.00     0.017 C 
BRANCH   7   9
ATOM      9  C   UNL     1      -1.836  -2.002   2.633  1.00  0.00     0.166 C 
ATOM     10  O   UNL     1      -2.879  -1.628   3.164  1.00  0.00    -0.294 OA
BRANCH   9  11
ATOM     11  C   UNL     1      -1.372  -3.391   2.892  1.00  0.00     0.023 A 
ATOM     12  C   UNL     1      -2.184  -4.404   2.373  1.00  0.00     0.036 A 
ATOM     13  C   UNL     1      -0.073  -3.667   3.326  1.00  0.00     0.062 A 
ATOM     14  C   UNL     1      -1.596  -5.604   2.000  1.00  0.00     0.087 A 
ATOM     15  C   UNL     1       0.529  -4.827   2.877  1.00  0.00     0.163 A 
ATOM     16  Cl  UNL     1      -2.546  -6.785   1.187  1.00  0.00    -0.080 Cl
ATOM     17  C   UNL     1      -0.211  -5.728   2.114  1.00  0.00     0.179 A 
BRANCH  15  18
ATOM     18  O   UNL     1       1.876  -5.017   3.025  1.00  0.00    -0.489 OA
BRANCH  18  19
ATOM     19  C   UNL     1       2.610  -4.440   1.942  1.00  0.00     0.233 C 
BRANCH  19  20
ATOM     20  C   UNL     1       2.418  -5.105   0.572  1.00  0.00     0.083 CG0
ATOM     21  G   UNL     1       1.007  -5.572   0.221  1.00  0.00     0.000 G0
ENDBRANCH  19  20
ENDBRANCH  18  19
ENDBRANCH  15  18
BRANCH  17  22
ATOM     22  O   UNL     1       0.482  -6.496   1.200  1.00  0.00    -0.488 OA
BRANCH  22  23
ATOM     23  C   UNL     1       1.007  -5.572   0.221  1.00  0.00     0.233 CG0
ATOM     24  G   UNL     1       2.418  -5.105   0.572  1.00  0.00     0.000 G0
ENDBRANCH  22  23
ENDBRANCH  17  22
ENDBRANCH   9  11
ENDBRANCH   7   9
ENDBRANCH   5   7
ENDBRANCH   3   5
ENDBRANCH   2   3
ENDBRANCH   1   2
BRANCH   1  25
ATOM     25  C   UNL     1       2.164   1.713   4.490  1.00  0.00     0.202 C 
BRANCH  25  26
ATOM     26  O   UNL     1       0.853   2.196   4.237  1.00  0.00    -0.374 OA
BRANCH  26  27
ATOM     27  C   UNL     1       0.435   2.475   2.904  1.00  0.00     0.202 C 
BRANCH  27  28
ATOM     28  C   UNL     1       1.181   3.536   2.092  1.00  0.00     0.261 C 
BRANCH  28  29
ATOM     29  O   UNL     1       2.561   3.193   1.877  1.00  0.00    -0.460 OA
BRANCH  29  30
ATOM     30  C   UNL     1       3.438   4.073   2.411  1.00  0.00     0.338 C 
ATOM     31  O   UNL     1       3.183   5.135   2.969  1.00  0.00    -0.246 OA
BRANCH  30  32
ATOM     32  C   UNL     1       4.790   3.501   2.424  1.00  0.00     0.060 A 
ATOM     33  C   UNL     1       5.425   3.372   3.668  1.00  0.00     0.016 A 
ATOM     34  C   UNL     1       5.470   3.215   1.240  1.00  0.00     0.016 A 
ATOM     35  C   UNL     1       6.765   3.013   3.730  1.00  0.00     0.010 A 
ATOM     36  C   UNL     1       6.823   2.872   1.303  1.00  0.00     0.010 A 
ATOM     37  C   UNL     1       7.483   2.815   2.545  1.00  0.00    -0.014 A 
BRANCH  37  38
ATOM     38  C   UNL     1       8.960   2.740   2.609  1.00  0.00     0.031 A 
ATOM     39  C   UNL     1       9.756   3.988   2.346  1.00  0.00     0.074 A 
ATOM     40  C   UNL     1       9.574   1.595   2.947  1.00  0.00     0.049 A 
ATOM     41  N   UNL     1      11.053   4.158   2.328  1.00  0.00    -0.248 NA
ATOM     42  C   UNL     1       8.985   5.211   2.070  1.00  0.00     0.031 C 
ATOM     43  C   UNL     1       8.900   0.342   3.277  1.00  0.00     0.029 A 
ATOM     44  N   UNL     1      10.909   1.305   3.067  1.00  0.00    -0.354 N 
ATOM     45  C   UNL     1      11.252   5.500   2.031  1.00  0.00     0.074 A 
ATOM     46  C   UNL     1       9.946   6.095   1.851  1.00  0.00     0.031 C 
ATOM     47  C   UNL     1       9.828  -0.590   3.554  1.00  0.00     0.029 A 
ATOM     48  C   UNL     1      11.157  -0.005   3.389  1.00  0.00     0.049 A 
ATOM     49  H   UNL     1      11.620   1.973   2.935  1.00  0.00     0.167 HD
ATOM     50  C   UNL     1      12.421   6.175   1.926  1.00  0.00     0.037 A 
ATOM     51  C   UNL     1      12.329  -0.658   3.514  1.00  0.00     0.037 A 
ATOM     52  C   UNL     1      13.716   5.577   2.114  1.00  0.00     0.049 A 
ATOM     53  C   UNL     1      13.616   0.100   3.318  1.00  0.00     0.074 A 
ATOM     54  C   UNL     1      14.962   6.177   2.049  1.00  0.00     0.029 A 
ATOM     55  N   UNL     1      13.931   4.237   2.398  1.00  0.00    -0.354 N 
ATOM     56  N   UNL     1      13.798   1.372   3.055  1.00  0.00    -0.248 NA
ATOM     57  C   UNL     1      14.862  -0.670   3.439  1.00  0.00     0.031 C 
ATOM     58  C   UNL     1      15.932   5.188   2.243  1.00  0.00     0.029 A 
ATOM     59  C   UNL     1      15.290   3.984   2.483  1.00  0.00     0.049 A 
ATOM     60  H   UNL     1      13.222   3.565   2.521  1.00  0.00     0.167 HD
ATOM     61  C   UNL     1      15.173   1.561   3.010  1.00  0.00     0.074 A 
ATOM     62  C   UNL     1      15.779   0.274   3.283  1.00  0.00     0.031 C 
ATOM     63  C   UNL     1      15.873   2.696   2.765  1.00  0.00     0.037 A 
BRANCH  50  64
ATOM     64  C   UNL     1      12.354   7.629   1.563  1.00  0.00     0.064 A 
ATOM     65  C   UNL     1      11.894   8.597   2.468  1.00  0.00     0.173 A 
ATOM     66  C   UNL     1      12.786   8.063   0.300  1.00  0.00     0.173 A 
ATOM     67  F   UNL     1      11.454   8.232   3.681  1.00  0.00    -0.203 F 
ATOM     68  C   UNL     1      11.849   9.944   2.114  1.00  0.00     0.198 A 
ATOM     69  C   UNL     1      12.766   9.412  -0.040  1.00  0.00     0.198 A 
ATOM     70  F   UNL     1      13.235   7.177  -0.602  1.00  0.00    -0.203 F 
ATOM     71  F   UNL     1      11.365  10.847   2.978  1.00  0.00    -0.200 F 
ATOM     72  C   UNL     1      12.292  10.351   0.864  1.00  0.00     0.200 A 
ATOM     73  F   UNL     1      13.204   9.805  -1.244  1.00  0.00    -0.200 F 
ATOM     74  F   UNL     1      12.255  11.648   0.528  1.00  0.00    -0.200 F 
ENDBRANCH  50  64
BRANCH  51  75
ATOM     75  C   UNL     1      12.339  -2.110   3.827  1.00  0.00     0.064 A 
ATOM     76  C   UNL     1      12.819  -2.583   5.056  1.00  0.00     0.173 A 
ATOM     77  C   UNL     1      11.886  -3.056   2.896  1.00  0.00     0.173 A 
ATOM     78  F   UNL     1      13.285  -1.718   5.969  1.00  0.00    -0.203 F 
ATOM     79  C   UNL     1      12.861  -3.947   5.335  1.00  0.00     0.198 A 
ATOM     80  C   UNL     1      11.902  -4.418   3.187  1.00  0.00     0.198 A 
ATOM     81  F   UNL     1      11.417  -2.656   1.704  1.00  0.00    -0.203 F 
ATOM     82  F   UNL     1      13.366  -4.375   6.500  1.00  0.00    -0.200 F 
ATOM     83  C   UNL     1      12.397  -4.863   4.402  1.00  0.00     0.200 A 
ATOM     84  F   UNL     1      11.440  -5.298   2.288  1.00  0.00    -0.200 F 
ATOM     85  F   UNL     1      12.435  -6.175   4.672  1.00  0.00    -0.200 F 
ENDBRANCH  51  75
BRANCH  63  86
ATOM     86  C   UNL     1      17.371   2.608   2.819  1.00  0.00     0.064 A 
ATOM     87  C   UNL     1      18.107   1.960   1.817  1.00  0.00     0.173 A 
ATOM     88  C   UNL     1      18.079   3.218   3.866  1.00  0.00     0.173 A 
ATOM     89  F   UNL     1      17.475   1.349   0.803  1.00  0.00    -0.203 F 
ATOM     90  C   UNL     1      19.497   1.904   1.875  1.00  0.00     0.198 A 
ATOM     91  C   UNL     1      19.470   3.187   3.904  1.00  0.00     0.198 A 
ATOM     92  F   UNL     1      17.422   3.858   4.845  1.00  0.00    -0.203 F 
ATOM     93  F   UNL     1      20.178   1.238   0.931  1.00  0.00    -0.200 F 
ATOM     94  C   UNL     1      20.177   2.523   2.913  1.00  0.00     0.200 A 
ATOM     95  F   UNL     1      20.126   3.798   4.900  1.00  0.00    -0.200 F 
ATOM     96  F   UNL     1      21.516   2.474   2.962  1.00  0.00    -0.200 F 
ENDBRANCH  63  86
ENDBRANCH  37  38
ENDBRANCH  30  32
ENDBRANCH  29  30
ENDBRANCH  28  29
ENDBRANCH  27  28
ENDBRANCH  26  27
ENDBRANCH  25  26
ENDBRANCH   1  25
TORSDOF 17
