REMARK SMILES O=C(OCCOCCOC(=O)c1ccc(-c2c3nc(c(-c4c(F)c(F)c(F)c(F)c4F)c4ccc([nH]4)c(-c4c(F)c(F)c(F)c(F)c4F)c4nc(c(-c5c(F)c(F)c(F)c(F)c5F)c5ccc2[nH]5)C=C4)C=C3)cc1)C1=Cc2c(Cl)cc(Cl)cc2O[C@@H]1C(F)(F)F
REMARK SMILES IDX 7 1 6 2 5 3 4 4 3 5 2 6 1 7 75 8 76 9 86 10 77 11 85 12
REMARK SMILES IDX 78 13 84 14 79 15 80 16 83 17 81 18 82 19 87 20 88 21 89 22
REMARK SMILES IDX 90 23 8 24 9 25 10 26 11 27 12 28 13 29 74 30 14 31 73 32
REMARK SMILES IDX 15 33 16 34 17 35 67 36 18 37 72 38 66 39 68 40 19 41 71 42
REMARK SMILES IDX 65 43 64 44 20 46 52 47 32 48 51 49 33 50 36 51 50 52 69 53
REMARK SMILES IDX 34 54 35 55 49 57 70 58 37 59 21 60 22 61 30 62 23 63 24 64
REMARK SMILES IDX 28 65 31 66 25 67 26 68 29 69 27 70 53 71 54 72 62 73 55 74
REMARK SMILES IDX 56 75 60 76 63 77 57 78 58 79 61 80 59 81 38 82 39 83 47 84
REMARK SMILES IDX 40 85 41 86 45 87 48 88 42 89 43 90 46 91 44 92
REMARK H PARENT 68 45 36 56
REMARK Flexibility Score: inf
ROOT
ATOM      1  C   UNL     1       2.778  -2.934  -1.061  1.00  0.00     0.202 C 
ENDROOT
BRANCH   1   2
ATOM      2  O   UNL     1       4.011  -2.190  -1.165  1.00  0.00    -0.374 OA
BRANCH   2   3
ATOM      3  C   UNL     1       4.314  -0.588  -1.116  1.00  0.00     0.202 C 
BRANCH   3   4
ATOM      4  C   UNL     1       3.461   0.949   0.180  1.00  0.00     0.261 C 
BRANCH   4   5
ATOM      5  O   UNL     1       2.427   2.002  -0.217  1.00  0.00    -0.460 OA
BRANCH   5   6
ATOM      6  C   UNL     1       2.511   2.348  -1.505  1.00  0.00     0.338 C 
ATOM      7  O   UNL     1       1.799   3.076  -2.147  1.00  0.00    -0.246 OA
BRANCH   6   8
ATOM      8  C   UNL     1       3.422   1.290  -1.890  1.00  0.00     0.087 C 
ATOM      9  C   UNL     1       4.815   1.596  -1.509  1.00  0.00     0.029 C 
ATOM     10  C   UNL     1       2.368  -0.150  -1.149  1.00  0.00     0.316 C 
ATOM     11  C   UNL     1       5.675   0.836  -0.100  1.00  0.00     0.036 A 
ATOM     12  O   UNL     1       3.223  -0.940   0.396  1.00  0.00    -0.475 OA
ATOM     13  C   UNL     1       6.880   1.330   0.333  1.00  0.00     0.053 A 
ATOM     14  C   UNL     1       4.888  -0.357   0.895  1.00  0.00     0.130 A 
ATOM     15  Cl  UNL     1       7.799   2.489  -0.528  1.00  0.00    -0.083 Cl
ATOM     16  C   UNL     1       7.312   0.877   1.586  1.00  0.00     0.042 A 
ATOM     17  C   UNL     1       5.338  -0.668   2.148  1.00  0.00     0.067 A 
ATOM     18  C   UNL     1       6.566  -0.021   2.449  1.00  0.00     0.046 A 
ATOM     19  Cl  UNL     1       7.264  -0.214   4.023  1.00  0.00    -0.084 Cl
BRANCH  10  20
ATOM     20  C   UNL     1       1.906  -0.771  -2.551  1.00  0.00     0.430 C 
ATOM     21  F   UNL     1       1.010  -1.771  -2.477  1.00  0.00    -0.167 F 
ATOM     22  F   UNL     1       1.263   0.220  -3.239  1.00  0.00    -0.167 F 
ATOM     23  F   UNL     1       2.912  -1.156  -3.368  1.00  0.00    -0.167 F 
ENDBRANCH  10  20
ENDBRANCH   6   8
ENDBRANCH   5   6
ENDBRANCH   4   5
ENDBRANCH   3   4
ENDBRANCH   2   3
ENDBRANCH   1   2
BRANCH   1  24
ATOM     24  C   UNL     1       2.838  -4.213  -0.230  1.00  0.00     0.261 C 
BRANCH  24  25
ATOM     25  O   UNL     1       3.327  -3.970   1.081  1.00  0.00    -0.460 OA
BRANCH  25  26
ATOM     26  C   UNL     1       4.662  -4.138   1.189  1.00  0.00     0.338 C 
ATOM     27  O   UNL     1       5.464  -4.362   0.300  1.00  0.00    -0.246 OA
BRANCH  26  28
ATOM     28  C   UNL     1       5.033  -4.015   2.605  1.00  0.00     0.060 A 
ATOM     29  C   UNL     1       6.347  -3.640   2.891  1.00  0.00     0.016 A 
ATOM     30  C   UNL     1       4.111  -4.259   3.634  1.00  0.00     0.016 A 
ATOM     31  C   UNL     1       6.739  -3.488   4.211  1.00  0.00     0.010 A 
ATOM     32  C   UNL     1       4.506  -4.113   4.958  1.00  0.00     0.010 A 
ATOM     33  C   UNL     1       5.823  -3.732   5.242  1.00  0.00    -0.014 A 
BRANCH  33  34
ATOM     34  C   UNL     1       6.329  -3.799   6.620  1.00  0.00     0.031 A 
ATOM     35  C   UNL     1       6.856  -5.117   7.088  1.00  0.00     0.074 A 
ATOM     36  C   UNL     1       6.369  -2.703   7.393  1.00  0.00     0.049 A 
ATOM     37  N   UNL     1       7.396  -5.433   8.232  1.00  0.00    -0.248 NA
ATOM     38  C   UNL     1       6.761  -6.232   6.130  1.00  0.00     0.031 C 
ATOM     39  C   UNL     1       5.904  -1.377   7.000  1.00  0.00     0.029 A 
ATOM     40  N   UNL     1       6.836  -2.534   8.668  1.00  0.00    -0.354 N 
ATOM     41  C   UNL     1       7.724  -6.775   8.124  1.00  0.00     0.074 A 
ATOM     42  C   UNL     1       7.282  -7.229   6.825  1.00  0.00     0.031 C 
ATOM     43  C   UNL     1       6.135  -0.516   8.006  1.00  0.00     0.029 A 
ATOM     44  C   UNL     1       6.706  -1.249   9.133  1.00  0.00     0.049 A 
ATOM     45  H   UNL     1       7.228  -3.263   9.201  1.00  0.00     0.167 HD
ATOM     46  C   UNL     1       8.350  -7.553   9.034  1.00  0.00     0.037 A 
ATOM     47  C   UNL     1       6.996  -0.744  10.346  1.00  0.00     0.037 A 
ATOM     48  C   UNL     1       8.736  -7.091  10.338  1.00  0.00     0.049 A 
ATOM     49  C   UNL     1       7.583  -1.669  11.383  1.00  0.00     0.074 A 
ATOM     50  C   UNL     1       9.344  -7.797  11.358  1.00  0.00     0.029 A 
ATOM     51  N   UNL     1       8.527  -5.801  10.808  1.00  0.00    -0.354 N 
ATOM     52  N   UNL     1       7.916  -2.934  11.276  1.00  0.00    -0.248 NA
ATOM     53  C   UNL     1       7.837  -1.096  12.711  1.00  0.00     0.031 C 
ATOM     54  C   UNL     1       9.438  -6.955  12.470  1.00  0.00     0.029 A 
ATOM     55  C   UNL     1       8.968  -5.699  12.117  1.00  0.00     0.049 A 
ATOM     56  H   UNL     1       8.125  -5.067  10.288  1.00  0.00     0.167 HD
ATOM     57  C   UNL     1       8.451  -3.297  12.506  1.00  0.00     0.074 A 
ATOM     58  C   UNL     1       8.414  -2.111  13.336  1.00  0.00     0.031 C 
ATOM     59  C   UNL     1       8.929  -4.499  12.915  1.00  0.00     0.037 A 
BRANCH  46  60
ATOM     60  C   UNL     1       8.598  -8.982   8.656  1.00  0.00     0.064 A 
ATOM     61  C   UNL     1       9.507  -9.332   7.645  1.00  0.00     0.173 A 
ATOM     62  C   UNL     1       7.911 -10.016   9.307  1.00  0.00     0.173 A 
ATOM     63  F   UNL     1      10.169  -8.379   6.971  1.00  0.00    -0.203 F 
ATOM     64  C   UNL     1       9.694 -10.662   7.280  1.00  0.00     0.198 A 
ATOM     65  C   UNL     1       8.129 -11.347   8.966  1.00  0.00     0.198 A 
ATOM     66  F   UNL     1       7.024  -9.735  10.274  1.00  0.00    -0.203 F 
ATOM     67  F   UNL     1      10.518 -10.969   6.268  1.00  0.00    -0.200 F 
ATOM     68  C   UNL     1       9.012 -11.669   7.947  1.00  0.00     0.200 A 
ATOM     69  F   UNL     1       7.476 -12.319   9.618  1.00  0.00    -0.200 F 
ATOM     70  F   UNL     1       9.196 -12.949   7.598  1.00  0.00    -0.200 F 
ENDBRANCH  46  60
BRANCH  47  71
ATOM     71  C   UNL     1       6.710   0.682  10.663  1.00  0.00     0.064 A 
ATOM     72  C   UNL     1       7.738   1.574  11.002  1.00  0.00     0.173 A 
ATOM     73  C   UNL     1       5.395   1.171  10.689  1.00  0.00     0.173 A 
ATOM     74  F   UNL     1       9.012   1.155  11.013  1.00  0.00    -0.203 F 
ATOM     75  C   UNL     1       7.459   2.883  11.393  1.00  0.00     0.198 A 
ATOM     76  C   UNL     1       5.120   2.490  11.042  1.00  0.00     0.198 A 
ATOM     77  F   UNL     1       4.370   0.364  10.374  1.00  0.00    -0.203 F 
ATOM     78  F   UNL     1       8.455   3.690  11.783  1.00  0.00    -0.200 F 
ATOM     79  C   UNL     1       6.150   3.341  11.409  1.00  0.00     0.200 A 
ATOM     80  F   UNL     1       3.855   2.932  11.040  1.00  0.00    -0.200 F 
ATOM     81  F   UNL     1       5.881   4.596  11.792  1.00  0.00    -0.200 F 
ENDBRANCH  47  71
BRANCH  59  82
ATOM     82  C   UNL     1       9.504  -4.575  14.302  1.00  0.00     0.064 A 
ATOM     83  C   UNL     1       8.704  -4.457  15.448  1.00  0.00     0.173 A 
ATOM     84  C   UNL     1      10.877  -4.812  14.483  1.00  0.00     0.173 A 
ATOM     85  F   UNL     1       7.388  -4.221  15.333  1.00  0.00    -0.203 F 
ATOM     86  C   UNL     1       9.262  -4.535  16.721  1.00  0.00     0.198 A 
ATOM     87  C   UNL     1      11.423  -4.935  15.756  1.00  0.00     0.198 A 
ATOM     88  F   UNL     1      11.686  -4.946  13.421  1.00  0.00    -0.203 F 
ATOM     89  F   UNL     1       8.489  -4.354  17.801  1.00  0.00    -0.200 F 
ATOM     90  C   UNL     1      10.618  -4.783  16.874  1.00  0.00     0.200 A 
ATOM     91  F   UNL     1      12.729  -5.199  15.900  1.00  0.00    -0.200 F 
ATOM     92  F   UNL     1      11.151  -4.868  18.101  1.00  0.00    -0.200 F 
ENDBRANCH  59  82
ENDBRANCH  33  34
ENDBRANCH  26  28
ENDBRANCH  25  26
ENDBRANCH  24  25
ENDBRANCH   1  24
TORSDOF 15
