REMARK SMILES Cc1c(C(=O)OCCOCCOC(=O)c2ccc(-c3c4nc(c(-c5c(F)c(F)c(F)c(F)c5F)c5ccc([nH]5)c(-c5c(F)c(F)c(F)c(F)c5F)c5nc(c(-c6c(F)c(F)c(F)c(F)c6F)c6ccc3[nH]6)C=C5)C=C4)cc2)oc2c1/C(=N/NC(=O)C(c1ccccc1)c1ccccc1)CCC2
REMARK SMILES IDX 8 1 7 2 6 3 4 4 5 5 3 6 1 7 2 8 80 9 78 10 79 11 81 12
REMARK SMILES IDX 101 13 82 14 99 15 100 16 83 17 84 18 85 20 86 21 87 22
REMARK SMILES IDX 88 23 92 24 89 25 91 26 90 27 93 28 94 29 98 30 95 31 97 32
REMARK SMILES IDX 96 33 9 34 10 35 11 36 12 37 13 38 14 39 15 40 16 41 77 42
REMARK SMILES IDX 17 43 76 44 18 45 19 46 20 47 70 48 21 49 75 50 69 51 71 52
REMARK SMILES IDX 22 53 74 54 68 55 67 56 23 58 55 59 35 60 54 61 36 62 39 63
REMARK SMILES IDX 53 64 72 65 37 66 38 67 52 69 73 70 40 71 24 72 25 73 33 74
REMARK SMILES IDX 26 75 27 76 31 77 34 78 28 79 29 80 32 81 30 82 56 83 57 84
REMARK SMILES IDX 65 85 58 86 59 87 63 88 66 89 60 90 61 91 64 92 62 93 41 94
REMARK SMILES IDX 42 95 50 96 43 97 44 98 48 99 51 100 45 101 46 102 49 103
REMARK SMILES IDX 47 104
REMARK H PARENT 83 19 71 57 39 68
REMARK Flexibility Score: inf
ROOT
ATOM      1  C   UNL     1      -0.356  -4.870  -3.571  1.00  0.00     0.202 C 
ENDROOT
BRANCH   1   2
ATOM      2  C   UNL     1      -1.701  -4.162  -3.396  1.00  0.00     0.261 C 
BRANCH   2   3
ATOM      3  O   UNL     1      -1.539  -2.751  -3.497  1.00  0.00    -0.457 OA
BRANCH   3   4
ATOM      4  C   UNL     1      -1.419  -2.091  -2.307  1.00  0.00     0.374 C 
ATOM      5  O   UNL     1      -1.641  -2.550  -1.212  1.00  0.00    -0.242 OA
BRANCH   4   6
ATOM      6  C   UNL     1      -0.825  -0.808  -2.589  1.00  0.00     0.215 A 
ATOM      7  C   UNL     1       0.466  -0.180  -0.427  1.00  0.00     0.049 C 
ATOM      8  C   UNL     1      -0.052   0.038  -1.803  1.00  0.00     0.012 A 
ATOM      9  C   UNL     1       0.073   1.219  -2.579  1.00  0.00     0.043 A 
ATOM     10  O   UNL     1      -0.977  -0.295  -3.848  1.00  0.00    -0.453 OA
ATOM     11  C   UNL     1      -0.434   0.930  -3.825  1.00  0.00     0.114 A 
ATOM     12  C   UNL     1       0.471   2.573  -2.232  1.00  0.00     0.072 C 
ATOM     13  C   UNL     1      -0.611   1.799  -5.006  1.00  0.00     0.076 C 
ATOM     14  N   UNL     1       1.166   2.612  -1.125  1.00  0.00    -0.177 NA
ATOM     15  C   UNL     1      -0.205   3.544  -3.230  1.00  0.00     0.059 C 
ATOM     16  C   UNL     1       0.012   3.157  -4.702  1.00  0.00     0.014 C 
BRANCH  14  17
ATOM     17  N   UNL     1       1.702   3.547  -0.263  1.00  0.00    -0.246 N 
ATOM     18  C   UNL     1       1.748   4.929  -0.205  1.00  0.00     0.252 C 
ATOM     19  H   UNL     1       2.164   3.128   0.498  1.00  0.00     0.193 HD
ATOM     20  O   UNL     1       2.315   5.483   0.742  1.00  0.00    -0.272 OA
BRANCH  18  21
ATOM     21  C   UNL     1       1.101   5.728  -1.317  1.00  0.00     0.140 C 
BRANCH  21  22
ATOM     22  C   UNL     1       2.004   5.482  -2.629  1.00  0.00    -0.031 A 
ATOM     23  C   UNL     1       2.933   4.395  -2.727  1.00  0.00     0.005 A 
ATOM     24  C   UNL     1       1.999   6.321  -3.751  1.00  0.00     0.005 A 
ATOM     25  C   UNL     1       3.639   4.042  -3.881  1.00  0.00     0.000 A 
ATOM     26  C   UNL     1       2.782   6.016  -4.899  1.00  0.00     0.000 A 
ATOM     27  C   UNL     1       3.561   4.860  -4.982  1.00  0.00     0.000 A 
ENDBRANCH  21  22
BRANCH  21  28
ATOM     28  C   UNL     1      -0.487   5.538  -1.138  1.00  0.00    -0.031 A 
ATOM     29  C   UNL     1      -1.445   6.408  -1.674  1.00  0.00     0.005 A 
ATOM     30  C   UNL     1      -1.047   4.478  -0.352  1.00  0.00     0.005 A 
ATOM     31  C   UNL     1      -2.837   6.154  -1.520  1.00  0.00     0.000 A 
ATOM     32  C   UNL     1      -2.410   4.169  -0.276  1.00  0.00     0.000 A 
ATOM     33  C   UNL     1      -3.316   5.014  -0.869  1.00  0.00     0.000 A 
ENDBRANCH  21  28
ENDBRANCH  18  21
ENDBRANCH  14  17
ENDBRANCH   4   6
ENDBRANCH   3   4
ENDBRANCH   2   3
ENDBRANCH   1   2
BRANCH   1  34
ATOM     34  O   UNL     1       0.578  -4.756  -2.496  1.00  0.00    -0.374 OA
BRANCH  34  35
ATOM     35  C   UNL     1       1.408  -3.602  -2.404  1.00  0.00     0.202 C 
BRANCH  35  36
ATOM     36  C   UNL     1       2.557  -3.461  -3.387  1.00  0.00     0.261 C 
BRANCH  36  37
ATOM     37  O   UNL     1       2.096  -3.274  -4.718  1.00  0.00    -0.460 OA
BRANCH  37  38
ATOM     38  C   UNL     1       2.211  -4.370  -5.498  1.00  0.00     0.338 C 
ATOM     39  O   UNL     1       2.316  -5.529  -5.135  1.00  0.00    -0.246 OA
BRANCH  38  40
ATOM     40  C   UNL     1       2.409  -3.926  -6.881  1.00  0.00     0.060 A 
ATOM     41  C   UNL     1       2.735  -4.920  -7.803  1.00  0.00     0.016 A 
ATOM     42  C   UNL     1       2.549  -2.560  -7.179  1.00  0.00     0.016 A 
ATOM     43  C   UNL     1       3.393  -4.548  -8.952  1.00  0.00     0.010 A 
ATOM     44  C   UNL     1       3.213  -2.191  -8.325  1.00  0.00     0.010 A 
ATOM     45  C   UNL     1       3.696  -3.194  -9.156  1.00  0.00    -0.014 A 
BRANCH  45  46
ATOM     46  C   UNL     1       4.418  -2.851 -10.361  1.00  0.00     0.031 A 
ATOM     47  C   UNL     1       3.607  -3.082 -11.574  1.00  0.00     0.074 A 
ATOM     48  C   UNL     1       5.663  -2.340 -10.368  1.00  0.00     0.049 A 
ATOM     49  N   UNL     1       3.775  -4.013 -12.451  1.00  0.00    -0.248 NA
ATOM     50  C   UNL     1       2.355  -2.325 -11.724  1.00  0.00     0.031 C 
ATOM     51  C   UNL     1       6.457  -1.847  -9.242  1.00  0.00     0.029 A 
ATOM     52  N   UNL     1       6.466  -2.095 -11.439  1.00  0.00    -0.354 N 
ATOM     53  C   UNL     1       2.758  -3.837 -13.380  1.00  0.00     0.074 A 
ATOM     54  C   UNL     1       1.821  -2.917 -12.792  1.00  0.00     0.031 C 
ATOM     55  C   UNL     1       7.527  -1.164  -9.715  1.00  0.00     0.029 A 
ATOM     56  C   UNL     1       7.568  -1.297 -11.162  1.00  0.00     0.049 A 
ATOM     57  H   UNL     1       6.280  -2.453 -12.337  1.00  0.00     0.167 HD
ATOM     58  C   UNL     1       2.930  -4.252 -14.662  1.00  0.00     0.037 A 
ATOM     59  C   UNL     1       8.411  -0.754 -12.077  1.00  0.00     0.037 A 
ATOM     60  C   UNL     1       3.985  -5.232 -14.749  1.00  0.00     0.049 A 
ATOM     61  C   UNL     1       8.275  -1.547 -13.325  1.00  0.00     0.074 A 
ATOM     62  C   UNL     1       4.188  -6.497 -14.233  1.00  0.00     0.029 A 
ATOM     63  N   UNL     1       5.218  -4.792 -15.158  1.00  0.00    -0.354 N 
ATOM     64  N   UNL     1       8.677  -2.781 -13.445  1.00  0.00    -0.248 NA
ATOM     65  C   UNL     1       7.288  -1.114 -14.302  1.00  0.00     0.031 C 
ATOM     66  C   UNL     1       5.585  -6.567 -13.950  1.00  0.00     0.029 A 
ATOM     67  C   UNL     1       6.170  -5.369 -14.362  1.00  0.00     0.049 A 
ATOM     68  H   UNL     1       5.389  -4.167 -15.899  1.00  0.00     0.167 HD
ATOM     69  C   UNL     1       7.687  -3.399 -14.194  1.00  0.00     0.074 A 
ATOM     70  C   UNL     1       6.916  -2.305 -14.779  1.00  0.00     0.031 C 
ATOM     71  C   UNL     1       7.421  -4.728 -14.029  1.00  0.00     0.037 A 
BRANCH  58  72
ATOM     72  C   UNL     1       2.478  -3.447 -15.858  1.00  0.00     0.064 A 
ATOM     73  C   UNL     1       2.664  -3.991 -17.145  1.00  0.00     0.173 A 
ATOM     74  C   UNL     1       2.187  -2.065 -15.820  1.00  0.00     0.173 A 
ATOM     75  F   UNL     1       2.958  -5.290 -17.300  1.00  0.00    -0.203 F 
ATOM     76  C   UNL     1       2.661  -3.191 -18.290  1.00  0.00     0.198 A 
ATOM     77  C   UNL     1       2.132  -1.281 -16.969  1.00  0.00     0.198 A 
ATOM     78  F   UNL     1       2.060  -1.385 -14.675  1.00  0.00    -0.203 F 
ATOM     79  F   UNL     1       2.985  -3.727 -19.474  1.00  0.00    -0.200 F 
ATOM     80  C   UNL     1       2.405  -1.835 -18.200  1.00  0.00     0.200 A 
ATOM     81  F   UNL     1       1.903   0.035 -16.856  1.00  0.00    -0.200 F 
ATOM     82  F   UNL     1       2.473  -1.055 -19.285  1.00  0.00    -0.200 F 
ENDBRANCH  58  72
BRANCH  59  83
ATOM     83  C   UNL     1       9.060   0.579 -12.067  1.00  0.00     0.064 A 
ATOM     84  C   UNL     1      10.099   0.885 -12.965  1.00  0.00     0.173 A 
ATOM     85  C   UNL     1       8.474   1.669 -11.396  1.00  0.00     0.173 A 
ATOM     86  F   UNL     1      10.680  -0.089 -13.681  1.00  0.00    -0.203 F 
ATOM     87  C   UNL     1      10.502   2.204 -13.201  1.00  0.00     0.198 A 
ATOM     88  C   UNL     1       8.880   2.985 -11.630  1.00  0.00     0.198 A 
ATOM     89  F   UNL     1       7.427   1.491 -10.579  1.00  0.00    -0.203 F 
ATOM     90  F   UNL     1      11.447   2.461 -14.117  1.00  0.00    -0.200 F 
ATOM     91  C   UNL     1       9.883   3.253 -12.543  1.00  0.00     0.200 A 
ATOM     92  F   UNL     1       8.245   3.994 -11.017  1.00  0.00    -0.200 F 
ATOM     93  F   UNL     1      10.220   4.521 -12.819  1.00  0.00    -0.200 F 
ENDBRANCH  59  83
BRANCH  71  94
ATOM     94  C   UNL     1       8.425  -5.542 -13.260  1.00  0.00     0.064 A 
ATOM     95  C   UNL     1       8.749  -5.336 -11.907  1.00  0.00     0.173 A 
ATOM     96  C   UNL     1       9.004  -6.647 -13.898  1.00  0.00     0.173 A 
ATOM     97  F   UNL     1       8.165  -4.361 -11.197  1.00  0.00    -0.203 F 
ATOM     98  C   UNL     1       9.650  -6.169 -11.244  1.00  0.00     0.198 A 
ATOM     99  C   UNL     1       9.872  -7.500 -13.223  1.00  0.00     0.198 A 
ATOM    100  F   UNL     1       8.693  -6.924 -15.174  1.00  0.00    -0.203 F 
ATOM    101  F   UNL     1       9.960  -5.939  -9.959  1.00  0.00    -0.200 F 
ATOM    102  C   UNL     1      10.205  -7.254 -11.902  1.00  0.00     0.200 A 
ATOM    103  F   UNL     1      10.368  -8.575 -13.851  1.00  0.00    -0.200 F 
ATOM    104  F   UNL     1      11.044  -8.076 -11.256  1.00  0.00    -0.200 F 
ENDBRANCH  71  94
ENDBRANCH  45  46
ENDBRANCH  38  40
ENDBRANCH  37  38
ENDBRANCH  36  37
ENDBRANCH  35  36
ENDBRANCH  34  35
ENDBRANCH   1  34
TORSDOF 18
