REMARK SMILES COc1ccc2[nH]cc([C@H](C(=O)OCCOCCOC(=O)c3ccc(-c4c5nc(c(-c6c(F)c(F)c(F)c(F)c6F)c6ccc([nH]6)c(-c6c(F)c(F)c(F)c(F)c6F)c6nc(c(-c7c(F)c(F)c(F)c(F)c7F)c7ccc4[nH]7)C=C6)C=C5)cc3)[NH+]3CC[NH+](Cc4cccc5ccccc45)CC3)c2c1
REMARK SMILES IDX 15 1 14 2 13 3 11 4 12 5 10 6 9 7 3 8 4 9 103 10 5 11 102 12
REMARK SMILES IDX 6 13 7 14 8 15 2 17 1 18 85 19 86 20 101 21 87 23 100 24
REMARK SMILES IDX 88 25 89 27 90 28 91 29 99 30 92 31 94 32 98 33 93 34 95 35
REMARK SMILES IDX 97 36 96 37 16 38 17 39 18 40 19 41 20 42 21 43 22 44 23 45
REMARK SMILES IDX 84 46 24 47 83 48 25 49 26 50 27 51 77 52 28 53 82 54 76 55
REMARK SMILES IDX 78 56 29 57 81 58 75 59 74 60 30 62 62 63 42 64 61 65 43 66
REMARK SMILES IDX 46 67 60 68 79 69 44 70 45 71 59 73 80 74 47 75 31 76 32 77
REMARK SMILES IDX 40 78 33 79 34 80 38 81 41 82 35 83 36 84 39 85 37 86 63 87
REMARK SMILES IDX 64 88 72 89 65 90 66 91 70 92 73 93 67 94 68 95 71 96 69 97
REMARK SMILES IDX 48 98 49 99 57 100 50 101 51 102 55 103 58 104 52 105 53 106
REMARK SMILES IDX 56 107 54 108
REMARK H PARENT 7 16 85 22 88 26 78 61 46 72
REMARK Flexibility Score: inf
ROOT
ATOM      1  C   UNL     1       2.783  -4.116  -4.512  1.00  0.00     0.202 C 
ENDROOT
BRANCH   1   2
ATOM      2  C   UNL     1       1.857  -3.425  -3.490  1.00  0.00     0.261 C 
BRANCH   2   3
ATOM      3  O   UNL     1       0.503  -3.928  -3.561  1.00  0.00    -0.459 OA
BRANCH   3   4
ATOM      4  C   UNL     1      -0.523  -3.064  -3.829  1.00  0.00     0.370 C 
ATOM      5  O   UNL     1      -0.372  -1.848  -3.888  1.00  0.00    -0.245 OA
BRANCH   4   6
ATOM      6  C   UNL     1      -1.888  -3.784  -3.989  1.00  0.00     0.328 C 
BRANCH   6   7
ATOM      7  C   UNL     1      -2.740  -3.382  -5.220  1.00  0.00     0.046 A 
ATOM      8  C   UNL     1      -1.051  -1.904  -8.345  1.00  0.00     0.119 A 
ATOM      9  C   UNL     1      -2.054  -2.239  -9.242  1.00  0.00     0.048 A 
ATOM     10  C   UNL     1      -1.238  -2.078  -6.964  1.00  0.00     0.057 A 
ATOM     11  C   UNL     1      -3.269  -2.750  -8.774  1.00  0.00     0.030 A 
ATOM     12  C   UNL     1      -2.377  -2.743  -6.471  1.00  0.00     0.013 A 
ATOM     13  C   UNL     1      -3.389  -3.016  -7.398  1.00  0.00     0.046 A 
ATOM     14  N   UNL     1      -4.418  -3.603  -6.704  1.00  0.00    -0.361 N 
ATOM     15  C   UNL     1      -4.045  -3.828  -5.408  1.00  0.00     0.094 A 
ATOM     16  H   UNL     1      -5.297  -3.830  -7.085  1.00  0.00     0.166 HD
BRANCH   8  17
ATOM     17  O   UNL     1       0.239  -1.669  -8.741  1.00  0.00    -0.497 OA
ATOM     18  C   UNL     1       0.434  -0.556  -9.598  1.00  0.00     0.278 C 
ENDBRANCH   8  17
ENDBRANCH   6   7
BRANCH   6  19
ATOM     19  N   UNL     1      -1.793  -5.259  -4.012  1.00  0.00    -0.310 N 
ATOM     20  C   UNL     1      -1.325  -5.913  -5.214  1.00  0.00     0.325 C 
ATOM     21  C   UNL     1      -1.665  -6.059  -2.803  1.00  0.00     0.325 C 
ATOM     22  H   UNL     1      -2.812  -5.248  -4.058  1.00  0.00     0.349 HD
ATOM     23  C   UNL     1       0.024  -6.614  -5.053  1.00  0.00     0.324 C 
ATOM     24  C   UNL     1      -0.443  -7.040  -2.711  1.00  0.00     0.324 C 
ATOM     25  N   UNL     1       0.164  -7.540  -3.948  1.00  0.00    -0.322 N 
ATOM     26  H   UNL     1       1.146  -7.565  -3.672  1.00  0.00     0.348 HD
BRANCH  25  27
ATOM     27  C   UNL     1       0.046  -8.954  -4.310  1.00  0.00     0.300 C 
BRANCH  27  28
ATOM     28  C   UNL     1      -1.346  -9.478  -4.592  1.00  0.00     0.014 A 
ATOM     29  C   UNL     1      -1.950 -10.231  -3.573  1.00  0.00     0.010 A 
ATOM     30  C   UNL     1      -2.092  -9.148  -5.766  1.00  0.00    -0.010 A 
ATOM     31  C   UNL     1      -3.304 -10.515  -3.619  1.00  0.00     0.001 A 
ATOM     32  C   UNL     1      -3.495  -9.280  -5.706  1.00  0.00    -0.018 A 
ATOM     33  C   UNL     1      -1.548  -8.638  -6.975  1.00  0.00     0.009 A 
ATOM     34  C   UNL     1      -4.082  -9.976  -4.639  1.00  0.00     0.009 A 
ATOM     35  C   UNL     1      -4.296  -8.694  -6.703  1.00  0.00     0.009 A 
ATOM     36  C   UNL     1      -2.353  -8.086  -7.977  1.00  0.00     0.001 A 
ATOM     37  C   UNL     1      -3.729  -8.068  -7.813  1.00  0.00     0.001 A 
ENDBRANCH  27  28
ENDBRANCH  25  27
ENDBRANCH   6  19
ENDBRANCH   4   6
ENDBRANCH   3   4
ENDBRANCH   2   3
ENDBRANCH   1   2
BRANCH   1  38
ATOM     38  O   UNL     1       2.774  -3.613  -5.849  1.00  0.00    -0.374 OA
BRANCH  38  39
ATOM     39  C   UNL     1       1.534  -3.649  -6.542  1.00  0.00     0.202 C 
BRANCH  39  40
ATOM     40  C   UNL     1       1.485  -4.546  -7.784  1.00  0.00     0.261 C 
BRANCH  40  41
ATOM     41  O   UNL     1       1.843  -5.891  -7.445  1.00  0.00    -0.460 OA
BRANCH  41  42
ATOM     42  C   UNL     1       3.168  -6.136  -7.510  1.00  0.00     0.338 C 
ATOM     43  O   UNL     1       4.034  -5.448  -8.025  1.00  0.00    -0.246 OA
BRANCH  42  44
ATOM     44  C   UNL     1       3.461  -7.327  -6.699  1.00  0.00     0.060 A 
ATOM     45  C   UNL     1       4.482  -7.222  -5.751  1.00  0.00     0.016 A 
ATOM     46  C   UNL     1       2.779  -8.531  -6.880  1.00  0.00     0.016 A 
ATOM     47  C   UNL     1       4.865  -8.340  -5.016  1.00  0.00     0.010 A 
ATOM     48  C   UNL     1       3.147  -9.646  -6.121  1.00  0.00     0.010 A 
ATOM     49  C   UNL     1       4.224  -9.570  -5.219  1.00  0.00    -0.014 A 
BRANCH  49  50
ATOM     50  C   UNL     1       4.817 -10.808  -4.649  1.00  0.00     0.031 A 
ATOM     51  C   UNL     1       5.480 -11.783  -5.587  1.00  0.00     0.074 A 
ATOM     52  C   UNL     1       4.827 -11.040  -3.323  1.00  0.00     0.049 A 
ATOM     53  N   UNL     1       6.049 -12.933  -5.330  1.00  0.00    -0.248 NA
ATOM     54  C   UNL     1       5.488 -11.418  -7.013  1.00  0.00     0.031 C 
ATOM     55  C   UNL     1       4.249 -10.168  -2.303  1.00  0.00     0.029 A 
ATOM     56  N   UNL     1       5.359 -12.086  -2.608  1.00  0.00    -0.354 N 
ATOM     57  C   UNL     1       6.460 -13.431  -6.560  1.00  0.00     0.074 A 
ATOM     58  C   UNL     1       6.026 -12.491  -7.568  1.00  0.00     0.031 C 
ATOM     59  C   UNL     1       4.474 -10.705  -1.091  1.00  0.00     0.029 A 
ATOM     60  C   UNL     1       5.178 -11.977  -1.251  1.00  0.00     0.049 A 
ATOM     61  H   UNL     1       5.827 -12.844  -3.029  1.00  0.00     0.167 HD
ATOM     62  C   UNL     1       7.163 -14.556  -6.830  1.00  0.00     0.037 A 
ATOM     63  C   UNL     1       5.530 -12.816  -0.256  1.00  0.00     0.037 A 
ATOM     64  C   UNL     1       7.630 -15.476  -5.830  1.00  0.00     0.049 A 
ATOM     65  C   UNL     1       6.266 -14.093  -0.587  1.00  0.00     0.074 A 
ATOM     66  C   UNL     1       8.375 -16.629  -6.000  1.00  0.00     0.029 A 
ATOM     67  N   UNL     1       7.399 -15.345  -4.469  1.00  0.00    -0.354 N 
ATOM     68  N   UNL     1       6.674 -14.540  -1.750  1.00  0.00    -0.248 NA
ATOM     69  C   UNL     1       6.593 -14.981   0.540  1.00  0.00     0.031 C 
ATOM     70  C   UNL     1       8.546 -17.227  -4.748  1.00  0.00     0.029 A 
ATOM     71  C   UNL     1       7.965 -16.411  -3.790  1.00  0.00     0.049 A 
ATOM     72  H   UNL     1       6.906 -14.604  -4.048  1.00  0.00     0.167 HD
ATOM     73  C   UNL     1       7.333 -15.737  -1.491  1.00  0.00     0.074 A 
ATOM     74  C   UNL     1       7.283 -15.940  -0.060  1.00  0.00     0.031 C 
ATOM     75  C   UNL     1       7.926 -16.591  -2.362  1.00  0.00     0.037 A 
BRANCH  62  76
ATOM     76  C   UNL     1       7.454 -14.859  -8.271  1.00  0.00     0.064 A 
ATOM     77  C   UNL     1       8.344 -14.081  -9.027  1.00  0.00     0.173 A 
ATOM     78  C   UNL     1       6.842 -15.953  -8.900  1.00  0.00     0.173 A 
ATOM     79  F   UNL     1       8.943 -13.013  -8.478  1.00  0.00    -0.203 F 
ATOM     80  C   UNL     1       8.582 -14.366 -10.369  1.00  0.00     0.198 A 
ATOM     81  C   UNL     1       7.111 -16.257 -10.232  1.00  0.00     0.198 A 
ATOM     82  F   UNL     1       5.985 -16.732  -8.222  1.00  0.00    -0.203 F 
ATOM     83  F   UNL     1       9.388 -13.572 -11.088  1.00  0.00    -0.200 F 
ATOM     84  C   UNL     1       7.972 -15.458 -10.967  1.00  0.00     0.200 A 
ATOM     85  F   UNL     1       6.531 -17.321 -10.804  1.00  0.00    -0.200 F 
ATOM     86  F   UNL     1       8.207 -15.734 -12.257  1.00  0.00    -0.200 F 
ENDBRANCH  62  76
BRANCH  63  87
ATOM     87  C   UNL     1       5.191 -12.491   1.157  1.00  0.00     0.064 A 
ATOM     88  C   UNL     1       6.194 -12.233   2.103  1.00  0.00     0.173 A 
ATOM     89  C   UNL     1       3.861 -12.482   1.601  1.00  0.00     0.173 A 
ATOM     90  F   UNL     1       7.484 -12.257   1.736  1.00  0.00    -0.203 F 
ATOM     91  C   UNL     1       5.881 -12.009   3.443  1.00  0.00     0.198 A 
ATOM     92  C   UNL     1       3.547 -12.225   2.935  1.00  0.00     0.198 A 
ATOM     93  F   UNL     1       2.862 -12.726   0.740  1.00  0.00    -0.203 F 
ATOM     94  F   UNL     1       6.863 -11.828   4.337  1.00  0.00    -0.200 F 
ATOM     95  C   UNL     1       4.558 -12.000   3.857  1.00  0.00     0.200 A 
ATOM     96  F   UNL     1       2.266 -12.207   3.327  1.00  0.00    -0.200 F 
ATOM     97  F   UNL     1       4.257 -11.790   5.146  1.00  0.00    -0.200 F 
ENDBRANCH  63  87
BRANCH  75  98
ATOM     98  C   UNL     1       8.618 -17.800  -1.795  1.00  0.00     0.064 A 
ATOM     99  C   UNL     1       7.903 -18.868  -1.235  1.00  0.00     0.173 A 
ATOM    100  C   UNL     1      10.016 -17.914  -1.870  1.00  0.00     0.173 A 
ATOM    101  F   UNL     1       6.567 -18.806  -1.129  1.00  0.00    -0.203 F 
ATOM    102  C   UNL     1       8.563 -19.994  -0.747  1.00  0.00     0.198 A 
ATOM    103  C   UNL     1      10.669 -19.055  -1.413  1.00  0.00     0.198 A 
ATOM    104  F   UNL     1      10.748 -16.926  -2.406  1.00  0.00    -0.203 F 
ATOM    105  F   UNL     1       7.863 -20.981  -0.172  1.00  0.00    -0.200 F 
ATOM    106  C   UNL     1       9.943 -20.090  -0.845  1.00  0.00     0.200 A 
ATOM    107  F   UNL     1      12.001 -19.154  -1.527  1.00  0.00    -0.200 F 
ATOM    108  F   UNL     1      10.575 -21.180  -0.387  1.00  0.00    -0.200 F 
ENDBRANCH  75  98
ENDBRANCH  49  50
ENDBRANCH  42  44
ENDBRANCH  41  42
ENDBRANCH  40  41
ENDBRANCH  39  40
ENDBRANCH  38  39
ENDBRANCH   1  38
TORSDOF 19
