REMARK SMILES CCCCCCNC(=O)Oc1cccc(-c2ccc([C@@H](C)C(=O)OCCOCCOC(=O)c3ccc(-c4c5nc(c(-c6c(F)c(F)c(F)c(F)c6F)c6ccc([nH]6)c(-c6c(F)c(F)c(F)c(F)c6F)c6nc(c(-c7c(F)c(F)c(F)c(F)c7F)c7ccc4[nH]7)C=C6)C=C5)cc3)cc2[N+](=O)[O-])c1
REMARK SMILES IDX 22 1 23 2 20 3 21 4 19 5 16 6 17 7 97 8 18 9 96 10 15 11
REMARK SMILES IDX 11 12 12 13 101 14 13 15 14 16 10 17 8 18 7 19 9 21 6 22
REMARK SMILES IDX 5 23 4 24 3 25 2 26 1 27 98 28 99 29 100 30 24 31 25 32
REMARK SMILES IDX 26 33 27 34 28 35 29 36 30 37 31 38 32 39 33 40 34 41 95 42
REMARK SMILES IDX 35 43 94 44 36 45 37 46 38 47 88 48 39 49 93 50 87 51 89 52
REMARK SMILES IDX 40 53 92 54 86 55 85 56 41 58 73 59 53 60 72 61 54 62 57 63
REMARK SMILES IDX 71 64 90 65 55 66 56 67 70 69 91 70 58 71 42 72 43 73 51 74
REMARK SMILES IDX 44 75 45 76 49 77 52 78 46 79 47 80 50 81 48 82 74 83 75 84
REMARK SMILES IDX 83 85 76 86 77 87 81 88 84 89 78 90 79 91 82 92 80 93 59 94
REMARK SMILES IDX 60 95 68 96 61 97 62 98 66 99 69 100 63 101 64 102 67 103
REMARK SMILES IDX 65 104
REMARK H PARENT 7 20 89 57 57 68
REMARK Flexibility Score: inf
ROOT
ATOM      1  C   UNL     1      -3.493  -1.576 -14.823  1.00  0.00     0.313 C 
ATOM      2  O   UNL     1      -3.155  -2.498 -15.559  1.00  0.00    -0.252 OA
ENDROOT
BRANCH   1   3
ATOM      3  C   UNL     1      -4.679  -1.701 -13.878  1.00  0.00     0.126 C 
ATOM      4  C   UNL     1      -5.969  -1.498 -14.668  1.00  0.00     0.025 C 
BRANCH   3   5
ATOM      5  C   UNL     1      -4.667  -0.877 -12.592  1.00  0.00    -0.027 A 
ATOM      6  C   UNL     1      -4.827   0.599 -10.129  1.00  0.00     0.060 A 
ATOM      7  C   UNL     1      -4.797   1.242 -11.381  1.00  0.00     0.016 A 
ATOM      8  C   UNL     1      -4.760  -0.805 -10.149  1.00  0.00     0.277 A 
ATOM      9  C   UNL     1      -4.727   0.522 -12.586  1.00  0.00     0.006 A 
ATOM     10  C   UNL     1      -4.670  -1.536 -11.352  1.00  0.00     0.091 A 
BRANCH   6  11
ATOM     11  C   UNL     1      -4.949   1.411  -8.904  1.00  0.00    -0.008 A 
ATOM     12  C   UNL     1      -4.125   2.156  -6.745  1.00  0.00     0.133 A 
ATOM     13  C   UNL     1      -5.267   2.926  -6.541  1.00  0.00     0.047 A 
ATOM     14  C   UNL     1      -3.958   1.400  -7.909  1.00  0.00     0.056 A 
ATOM     15  C   UNL     1      -6.251   2.958  -7.525  1.00  0.00     0.004 A 
ATOM     16  C   UNL     1      -6.092   2.207  -8.693  1.00  0.00     0.009 A 
BRANCH  12  17
ATOM     17  O   UNL     1      -3.222   2.076  -5.670  1.00  0.00    -0.410 OA
BRANCH  17  18
ATOM     18  C   UNL     1      -1.870   2.260  -5.916  1.00  0.00     0.412 C 
ATOM     19  N   UNL     1      -1.092   2.083  -4.804  1.00  0.00    -0.321 N 
ATOM     20  H   UNL     1      -0.122   2.201  -4.925  1.00  0.00     0.167 HD
ATOM     21  O   UNL     1      -1.372   2.561  -6.995  1.00  0.00    -0.224 OA
BRANCH  19  22
ATOM     22  C   UNL     1      -1.541   1.740  -3.468  1.00  0.00     0.119 C 
BRANCH  22  23
ATOM     23  C   UNL     1      -0.944   0.420  -2.979  1.00  0.00     0.021 C 
BRANCH  23  24
ATOM     24  C   UNL     1       0.585   0.410  -2.844  1.00  0.00     0.002 C 
BRANCH  24  25
ATOM     25  C   UNL     1       1.172   1.451  -1.885  1.00  0.00    -0.000 C 
BRANCH  25  26
ATOM     26  C   UNL     1       0.696   1.353  -0.434  1.00  0.00    -0.003 C 
ATOM     27  C   UNL     1       1.088   0.048   0.243  1.00  0.00     0.004 C 
ENDBRANCH  25  26
ENDBRANCH  24  25
ENDBRANCH  23  24
ENDBRANCH  22  23
ENDBRANCH  19  22
ENDBRANCH  17  18
ENDBRANCH  12  17
ENDBRANCH   6  11
BRANCH   8  28
ATOM     28  N   UNL     1      -4.826  -1.583  -8.918  1.00  0.00     0.063 N 
ATOM     29  O   UNL     1      -3.944  -2.438  -8.754  1.00  0.00    -0.258 OA
ATOM     30  O   UNL     1      -5.776  -1.378  -8.153  1.00  0.00    -0.258 OA
ENDBRANCH   8  28
ENDBRANCH   3   5
ENDBRANCH   1   3
BRANCH   1  31
ATOM     31  O   UNL     1      -2.892  -0.358 -14.795  1.00  0.00    -0.463 OA
BRANCH  31  32
ATOM     32  C   UNL     1      -1.691  -0.233 -15.578  1.00  0.00     0.261 C 
BRANCH  32  33
ATOM     33  C   UNL     1      -0.479   0.063 -14.691  1.00  0.00     0.202 C 
BRANCH  33  34
ATOM     34  O   UNL     1      -0.085  -0.972 -13.793  1.00  0.00    -0.374 OA
BRANCH  34  35
ATOM     35  C   UNL     1      -0.865  -1.155 -12.612  1.00  0.00     0.202 C 
BRANCH  35  36
ATOM     36  C   UNL     1      -0.656  -0.138 -11.482  1.00  0.00     0.261 C 
BRANCH  36  37
ATOM     37  O   UNL     1      -1.080   1.187 -11.848  1.00  0.00    -0.460 OA
BRANCH  37  38
ATOM     38  C   UNL     1      -0.073   2.090 -11.965  1.00  0.00     0.338 C 
ATOM     39  O   UNL     1       1.110   1.914 -11.745  1.00  0.00    -0.246 OA
BRANCH  38  40
ATOM     40  C   UNL     1      -0.575   3.318 -12.614  1.00  0.00     0.060 A 
ATOM     41  C   UNL     1       0.103   3.761 -13.758  1.00  0.00     0.016 A 
ATOM     42  C   UNL     1      -1.628   4.062 -12.081  1.00  0.00     0.016 A 
ATOM     43  C   UNL     1      -0.243   4.972 -14.351  1.00  0.00     0.010 A 
ATOM     44  C   UNL     1      -1.970   5.284 -12.675  1.00  0.00     0.010 A 
ATOM     45  C   UNL     1      -1.259   5.758 -13.793  1.00  0.00    -0.014 A 
BRANCH  45  46
ATOM     46  C   UNL     1      -1.487   7.131 -14.308  1.00  0.00     0.031 A 
ATOM     47  C   UNL     1      -0.912   8.302 -13.563  1.00  0.00     0.074 A 
ATOM     48  C   UNL     1      -2.177   7.331 -15.445  1.00  0.00     0.049 A 
ATOM     49  N   UNL     1      -1.024   9.582 -13.811  1.00  0.00    -0.248 NA
ATOM     50  C   UNL     1      -0.101   7.986 -12.377  1.00  0.00     0.031 C 
ATOM     51  C   UNL     1      -2.746   6.277 -16.281  1.00  0.00     0.029 A 
ATOM     52  N   UNL     1      -2.523   8.495 -16.085  1.00  0.00    -0.354 N 
ATOM     53  C   UNL     1      -0.307  10.224 -12.810  1.00  0.00     0.074 A 
ATOM     54  C   UNL     1       0.214   9.195 -11.936  1.00  0.00     0.031 C 
ATOM     55  C   UNL     1      -3.386   6.843 -17.318  1.00  0.00     0.029 A 
ATOM     56  C   UNL     1      -3.301   8.298 -17.198  1.00  0.00     0.049 A 
ATOM     57  H   UNL     1      -2.240   9.386 -15.775  1.00  0.00     0.167 HD
ATOM     58  C   UNL     1      -0.098  11.552 -12.639  1.00  0.00     0.037 A 
ATOM     59  C   UNL     1      -3.900   9.190 -18.010  1.00  0.00     0.037 A 
ATOM     60  C   UNL     1      -0.616  12.574 -13.511  1.00  0.00     0.049 A 
ATOM     61  C   UNL     1      -3.720  10.664 -17.755  1.00  0.00     0.074 A 
ATOM     62  C   UNL     1      -0.424  13.944 -13.446  1.00  0.00     0.029 A 
ATOM     63  N   UNL     1      -1.440  12.339 -14.602  1.00  0.00    -0.354 N 
ATOM     64  N   UNL     1      -3.016  11.263 -16.826  1.00  0.00    -0.248 NA
ATOM     65  C   UNL     1      -4.421  11.584 -18.662  1.00  0.00     0.031 C 
ATOM     66  C   UNL     1      -1.180  14.540 -14.461  1.00  0.00     0.029 A 
ATOM     67  C   UNL     1      -1.800  13.540 -15.193  1.00  0.00     0.049 A 
ATOM     68  H   UNL     1      -1.727  11.449 -14.911  1.00  0.00     0.167 HD
ATOM     69  C   UNL     1      -3.175  12.625 -17.042  1.00  0.00     0.074 A 
ATOM     70  C   UNL     1      -4.028  12.765 -18.204  1.00  0.00     0.031 C 
ATOM     71  C   UNL     1      -2.662  13.666 -16.341  1.00  0.00     0.037 A 
BRANCH  58  72
ATOM     72  C   UNL     1       0.697  11.977 -11.439  1.00  0.00     0.064 A 
ATOM     73  C   UNL     1       2.078  11.752 -11.348  1.00  0.00     0.173 A 
ATOM     74  C   UNL     1       0.068  12.641 -10.374  1.00  0.00     0.173 A 
ATOM     75  F   UNL     1       2.725  11.112 -12.333  1.00  0.00    -0.203 F 
ATOM     76  C   UNL     1       2.796  12.149 -10.221  1.00  0.00     0.198 A 
ATOM     77  C   UNL     1       0.793  13.062  -9.263  1.00  0.00     0.198 A 
ATOM     78  F   UNL     1      -1.250  12.886 -10.414  1.00  0.00    -0.203 F 
ATOM     79  F   UNL     1       4.106  11.880 -10.133  1.00  0.00    -0.200 F 
ATOM     80  C   UNL     1       2.154  12.808  -9.183  1.00  0.00     0.200 A 
ATOM     81  F   UNL     1       0.174  13.710  -8.267  1.00  0.00    -0.200 F 
ATOM     82  F   UNL     1       2.846  13.192  -8.101  1.00  0.00    -0.200 F 
ENDBRANCH  58  72
BRANCH  59  83
ATOM     83  C   UNL     1      -4.753   8.709 -19.128  1.00  0.00     0.064 A 
ATOM     84  C   UNL     1      -4.358   8.869 -20.462  1.00  0.00     0.173 A 
ATOM     85  C   UNL     1      -5.979   8.075 -18.880  1.00  0.00     0.173 A 
ATOM     86  F   UNL     1      -3.207   9.493 -20.750  1.00  0.00    -0.203 F 
ATOM     87  C   UNL     1      -5.162   8.418 -21.508  1.00  0.00     0.198 A 
ATOM     88  C   UNL     1      -6.769   7.601 -19.925  1.00  0.00     0.198 A 
ATOM     89  F   UNL     1      -6.404   7.901 -17.620  1.00  0.00    -0.203 F 
ATOM     90  F   UNL     1      -4.778   8.615 -22.777  1.00  0.00    -0.200 F 
ATOM     91  C   UNL     1      -6.362   7.778 -21.239  1.00  0.00     0.200 A 
ATOM     92  F   UNL     1      -7.922   6.971 -19.659  1.00  0.00    -0.200 F 
ATOM     93  F   UNL     1      -7.129   7.336 -22.245  1.00  0.00    -0.200 F 
ENDBRANCH  59  83
BRANCH  71  94
ATOM     94  C   UNL     1      -3.003  15.051 -16.813  1.00  0.00     0.064 A 
ATOM     95  C   UNL     1      -4.288  15.587 -16.646  1.00  0.00     0.173 A 
ATOM     96  C   UNL     1      -2.024  15.866 -17.403  1.00  0.00     0.173 A 
ATOM     97  F   UNL     1      -5.264  14.843 -16.102  1.00  0.00    -0.203 F 
ATOM     98  C   UNL     1      -4.587  16.879 -17.071  1.00  0.00     0.198 A 
ATOM     99  C   UNL     1      -2.318  17.168 -17.800  1.00  0.00     0.198 A 
ATOM    100  F   UNL     1      -0.777  15.404 -17.581  1.00  0.00    -0.203 F 
ATOM    101  F   UNL     1      -5.834  17.353 -16.942  1.00  0.00    -0.200 F 
ATOM    102  C   UNL     1      -3.601  17.670 -17.640  1.00  0.00     0.200 A 
ATOM    103  F   UNL     1      -1.361  17.936 -18.338  1.00  0.00    -0.200 F 
ATOM    104  F   UNL     1      -3.888  18.916 -18.042  1.00  0.00    -0.200 F 
ENDBRANCH  71  94
ENDBRANCH  45  46
ENDBRANCH  38  40
ENDBRANCH  37  38
ENDBRANCH  36  37
ENDBRANCH  35  36
ENDBRANCH  34  35
ENDBRANCH  33  34
ENDBRANCH  32  33
ENDBRANCH  31  32
ENDBRANCH   1  31
TORSDOF 24
