REMARK SMILES CCCCCCNC(=O)Oc1cccc(-c2ccc([C@@H](C)C(=O)OCCOCCOC(=O)c3ccc(-c4c5nc(c(-c6c(F)c(F)c(F)c(F)c6F)c6ccc([nH]6)c(-c6c(F)c(F)c(F)c(F)c6F)c6nc(c(-c7c(F)c(F)c(F)c(F)c7F)c7ccc4[nH]7)C=C6)C=C5)cc3)cc2F)c1
REMARK SMILES IDX 22 1 23 2 20 3 21 4 19 5 16 6 17 7 97 8 18 9 96 10 98 11
REMARK SMILES IDX 15 12 11 13 12 14 99 15 13 16 14 17 10 18 8 19 7 20 9 22
REMARK SMILES IDX 6 23 5 24 4 25 3 26 2 27 1 28 24 29 25 30 26 31 27 32 28 33
REMARK SMILES IDX 29 34 30 35 31 36 32 37 33 38 34 39 95 40 35 41 94 42 36 43
REMARK SMILES IDX 37 44 38 45 88 46 39 47 93 48 87 49 89 50 40 51 92 52 86 53
REMARK SMILES IDX 85 54 41 56 73 57 53 58 72 59 54 60 57 61 71 62 90 63 55 64
REMARK SMILES IDX 56 65 70 67 91 68 58 69 42 70 43 71 51 72 44 73 45 74 49 75
REMARK SMILES IDX 52 76 46 77 47 78 50 79 48 80 74 81 75 82 83 83 76 84 77 85
REMARK SMILES IDX 81 86 84 87 78 88 79 89 82 90 80 91 59 92 60 93 68 94 61 95
REMARK SMILES IDX 62 96 66 97 69 98 63 99 64 100 67 101 65 102
REMARK H PARENT 7 21 89 55 57 66
REMARK Flexibility Score: inf
ROOT
ATOM      1  C   UNL     1      -4.208  12.775   8.029  1.00  0.00     0.313 C 
ATOM      2  O   UNL     1      -3.937  13.944   7.769  1.00  0.00    -0.252 OA
ENDROOT
BRANCH   1   3
ATOM      3  C   UNL     1      -5.247  12.000   7.233  1.00  0.00     0.126 C 
ATOM      4  C   UNL     1      -6.641  12.418   7.696  1.00  0.00     0.025 C 
BRANCH   3   5
ATOM      5  C   UNL     1      -5.107  10.483   7.152  1.00  0.00    -0.031 A 
ATOM      6  C   UNL     1      -5.063   7.637   6.866  1.00  0.00     0.018 A 
ATOM      7  C   UNL     1      -5.256   8.245   8.118  1.00  0.00     0.012 A 
ATOM      8  C   UNL     1      -4.850   8.488   5.774  1.00  0.00     0.131 A 
ATOM      9  C   UNL     1      -5.280   9.643   8.260  1.00  0.00     0.005 A 
ATOM     10  C   UNL     1      -4.870   9.879   5.907  1.00  0.00     0.044 A 
ATOM     11  F   UNL     1      -4.662   7.980   4.546  1.00  0.00    -0.206 F 
BRANCH   6  12
ATOM     12  C   UNL     1      -5.143   6.172   6.704  1.00  0.00    -0.012 A 
ATOM     13  C   UNL     1      -4.267   4.063   5.870  1.00  0.00     0.133 A 
ATOM     14  C   UNL     1      -5.390   3.379   6.329  1.00  0.00     0.047 A 
ATOM     15  C   UNL     1      -4.141   5.445   6.038  1.00  0.00     0.056 A 
ATOM     16  C   UNL     1      -6.390   4.082   6.992  1.00  0.00     0.004 A 
ATOM     17  C   UNL     1      -6.265   5.463   7.178  1.00  0.00     0.009 A 
BRANCH  13  18
ATOM     18  O   UNL     1      -3.339   3.315   5.125  1.00  0.00    -0.410 OA
BRANCH  18  19
ATOM     19  C   UNL     1      -2.002   3.372   5.484  1.00  0.00     0.412 C 
ATOM     20  N   UNL     1      -1.196   2.594   4.701  1.00  0.00    -0.321 N 
ATOM     21  H   UNL     1      -0.232   2.617   4.902  1.00  0.00     0.167 HD
ATOM     22  O   UNL     1      -1.533   4.025   6.415  1.00  0.00    -0.224 OA
BRANCH  20  23
ATOM     23  C   UNL     1      -1.607   1.737   3.604  1.00  0.00     0.119 C 
BRANCH  23  24
ATOM     24  C   UNL     1      -0.998   2.172   2.271  1.00  0.00     0.021 C 
BRANCH  24  25
ATOM     25  C   UNL     1       0.531   2.072   2.194  1.00  0.00     0.002 C 
BRANCH  25  26
ATOM     26  C   UNL     1       1.117   0.671   2.402  1.00  0.00    -0.000 C 
BRANCH  26  27
ATOM     27  C   UNL     1       0.643  -0.397   1.412  1.00  0.00    -0.003 C 
ATOM     28  C   UNL     1       1.035  -0.102  -0.028  1.00  0.00     0.004 C 
ENDBRANCH  26  27
ENDBRANCH  25  26
ENDBRANCH  24  25
ENDBRANCH  23  24
ENDBRANCH  20  23
ENDBRANCH  18  19
ENDBRANCH  13  18
ENDBRANCH   6  12
ENDBRANCH   3   5
ENDBRANCH   1   3
BRANCH   1  29
ATOM     29  O   UNL     1      -3.655  12.069   9.049  1.00  0.00    -0.463 OA
BRANCH  29  30
ATOM     30  C   UNL     1      -2.566  12.711   9.738  1.00  0.00     0.261 C 
BRANCH  30  31
ATOM     31  C   UNL     1      -1.271  11.907   9.595  1.00  0.00     0.202 C 
BRANCH  31  32
ATOM     32  O   UNL     1      -0.710  11.839   8.285  1.00  0.00    -0.374 OA
BRANCH  32  33
ATOM     33  C   UNL     1      -1.341  10.979   7.337  1.00  0.00     0.202 C 
BRANCH  33  34
ATOM     34  C   UNL     1      -1.079   9.476   7.484  1.00  0.00     0.261 C 
BRANCH  34  35
ATOM     35  O   UNL     1      -1.589   8.945   8.721  1.00  0.00    -0.460 OA
BRANCH  35  36
ATOM     36  C   UNL     1      -0.631   8.558   9.597  1.00  0.00     0.338 C 
ATOM     37  O   UNL     1       0.576   8.556   9.423  1.00  0.00    -0.246 OA
BRANCH  36  38
ATOM     38  C   UNL     1      -1.221   8.295  10.924  1.00  0.00     0.060 A 
ATOM     39  C   UNL     1      -0.613   8.920  12.020  1.00  0.00     0.016 A 
ATOM     40  C   UNL     1      -2.263   7.385  11.115  1.00  0.00     0.016 A 
ATOM     41  C   UNL     1      -0.989   8.579  13.315  1.00  0.00     0.010 A 
ATOM     42  C   UNL     1      -2.640   7.042  12.421  1.00  0.00     0.010 A 
ATOM     43  C   UNL     1      -1.969   7.600  13.525  1.00  0.00    -0.014 A 
BRANCH  43  44
ATOM     44  C   UNL     1      -2.135   7.048  14.894  1.00  0.00     0.031 A 
ATOM     45  C   UNL     1      -1.468   5.742  15.239  1.00  0.00     0.074 A 
ATOM     46  C   UNL     1      -2.782   7.743  15.847  1.00  0.00     0.049 A 
ATOM     47  N   UNL     1      -1.421   5.107  16.383  1.00  0.00    -0.248 NA
ATOM     48  C   UNL     1      -0.752   5.063  14.147  1.00  0.00     0.031 C 
ATOM     49  C   UNL     1      -3.426   9.040  15.653  1.00  0.00     0.029 A 
ATOM     50  N   UNL     1      -2.988   7.458  17.174  1.00  0.00    -0.354 N 
ATOM     51  C   UNL     1      -0.668   3.963  16.150  1.00  0.00     0.074 A 
ATOM     52  C   UNL     1      -0.316   3.966  14.747  1.00  0.00     0.031 C 
ATOM     53  C   UNL     1      -3.951   9.444  16.822  1.00  0.00     0.029 A 
ATOM     54  C   UNL     1      -3.701   8.425  17.840  1.00  0.00     0.049 A 
ATOM     55  H   UNL     1      -2.657   6.639  17.607  1.00  0.00     0.167 HD
ATOM     56  C   UNL     1      -0.288   3.005  17.029  1.00  0.00     0.037 A 
ATOM     57  C   UNL     1      -4.109   8.475  19.123  1.00  0.00     0.037 A 
ATOM     58  C   UNL     1      -0.635   2.999  18.425  1.00  0.00     0.049 A 
ATOM     59  C   UNL     1      -3.741   7.353  20.061  1.00  0.00     0.074 A 
ATOM     60  C   UNL     1      -0.294   2.074  19.397  1.00  0.00     0.029 A 
ATOM     61  N   UNL     1      -1.409   3.966  19.049  1.00  0.00    -0.354 N 
ATOM     62  N   UNL     1      -3.009   6.289  19.837  1.00  0.00    -0.248 NA
ATOM     63  C   UNL     1      -4.254   7.446  21.436  1.00  0.00     0.031 C 
ATOM     64  C   UNL     1      -0.901   2.456  20.598  1.00  0.00     0.029 A 
ATOM     65  C   UNL     1      -1.577   3.647  20.387  1.00  0.00     0.049 A 
ATOM     66  H   UNL     1      -1.783   4.762  18.607  1.00  0.00     0.167 HD
ATOM     67  C   UNL     1      -2.949   5.604  21.044  1.00  0.00     0.074 A 
ATOM     68  C   UNL     1      -3.705   6.381  22.003  1.00  0.00     0.031 C 
ATOM     69  C   UNL     1      -2.325   4.435  21.332  1.00  0.00     0.037 A 
BRANCH  56  70
ATOM     70  C   UNL     1       0.539   1.870  16.499  1.00  0.00     0.064 A 
ATOM     71  C   UNL     1       1.880   2.048  16.127  1.00  0.00     0.173 A 
ATOM     72  C   UNL     1      -0.006   0.581  16.394  1.00  0.00     0.173 A 
ATOM     73  F   UNL     1       2.444   3.263  16.196  1.00  0.00    -0.203 F 
ATOM     74  C   UNL     1       2.638   0.982  15.646  1.00  0.00     0.198 A 
ATOM     75  C   UNL     1       0.763  -0.487  15.940  1.00  0.00     0.198 A 
ATOM     76  F   UNL     1      -1.282   0.356  16.742  1.00  0.00    -0.203 F 
ATOM     77  F   UNL     1       3.904   1.184  15.256  1.00  0.00    -0.200 F 
ATOM     78  C   UNL     1       2.081  -0.285  15.560  1.00  0.00     0.200 A 
ATOM     79  F   UNL     1       0.227  -1.714  15.869  1.00  0.00    -0.200 F 
ATOM     80  F   UNL     1       2.813  -1.311  15.105  1.00  0.00    -0.200 F 
ENDBRANCH  56  70
BRANCH  57  81
ATOM     81  C   UNL     1      -4.917   9.626  19.606  1.00  0.00     0.064 A 
ATOM     82  C   UNL     1      -4.403  10.529  20.547  1.00  0.00     0.173 A 
ATOM     83  C   UNL     1      -6.232   9.825  19.162  1.00  0.00     0.173 A 
ATOM     84  F   UNL     1      -3.160  10.365  21.023  1.00  0.00    -0.203 F 
ATOM     85  C   UNL     1      -5.182  11.572  21.043  1.00  0.00     0.198 A 
ATOM     86  C   UNL     1      -7.000  10.886  19.637  1.00  0.00     0.198 A 
ATOM     87  F   UNL     1      -6.773   8.987  18.265  1.00  0.00    -0.203 F 
ATOM     88  F   UNL     1      -4.684  12.389  21.982  1.00  0.00    -0.200 F 
ATOM     89  C   UNL     1      -6.478  11.753  20.584  1.00  0.00     0.200 A 
ATOM     90  F   UNL     1      -8.248  11.062  19.183  1.00  0.00    -0.200 F 
ATOM     91  F   UNL     1      -7.227  12.755  21.063  1.00  0.00    -0.200 F 
ENDBRANCH  57  81
BRANCH  69  92
ATOM     92  C   UNL     1      -2.404   3.942  22.748  1.00  0.00     0.064 A 
ATOM     93  C   UNL     1      -3.595   3.432  23.285  1.00  0.00     0.173 A 
ATOM     94  C   UNL     1      -1.265   3.948  23.568  1.00  0.00     0.173 A 
ATOM     95  F   UNL     1      -4.716   3.417  22.548  1.00  0.00    -0.203 F 
ATOM     96  C   UNL     1      -3.650   2.973  24.599  1.00  0.00     0.198 A 
ATOM     97  C   UNL     1      -1.316   3.460  24.871  1.00  0.00     0.198 A 
ATOM     98  F   UNL     1      -0.098   4.418  23.101  1.00  0.00    -0.203 F 
ATOM     99  F   UNL     1      -4.811   2.538  25.107  1.00  0.00    -0.200 F 
ATOM    100  C   UNL     1      -2.510   2.982  25.388  1.00  0.00     0.200 A 
ATOM    101  F   UNL     1      -0.209   3.456  25.627  1.00  0.00    -0.200 F 
ATOM    102  F   UNL     1      -2.563   2.535  26.651  1.00  0.00    -0.200 F 
ENDBRANCH  69  92
ENDBRANCH  43  44
ENDBRANCH  36  38
ENDBRANCH  35  36
ENDBRANCH  34  35
ENDBRANCH  33  34
ENDBRANCH  32  33
ENDBRANCH  31  32
ENDBRANCH  30  31
ENDBRANCH  29  30
ENDBRANCH   1  29
TORSDOF 23
