REMARK SMILES CC(C)[C@@H](NC(=O)[C@@](C)([NH3+])C(F)(F)F)C(=O)OCCOCCOC(=O)c1ccc(-c2c3nc(c(-c4c(F)c(F)c(F)c(F)c4F)c4ccc([nH]4)c(-c4c(F)c(F)c(F)c(F)c4F)c4nc(c(-c5c(F)c(F)c(F)c(F)c5F)c5ccc2[nH]5)C=C4)C=C3)cc1
REMARK SMILES IDX 19 1 18 2 17 3 15 4 16 5 4 6 2 7 1 8 3 9 5 10 6 11 7 13 8 14
REMARK SMILES IDX 9 15 10 16 11 20 12 21 13 22 14 23 20 24 21 25 22 26 23 27
REMARK SMILES IDX 24 28 25 29 26 30 27 31 88 32 28 33 87 34 29 35 30 36 31 37
REMARK SMILES IDX 81 38 32 39 86 40 80 41 82 42 33 43 85 44 79 45 78 46 34 48
REMARK SMILES IDX 66 49 46 50 65 51 47 52 50 53 64 54 83 55 48 56 49 57 63 59
REMARK SMILES IDX 84 60 51 61 35 62 36 63 44 64 37 65 38 66 42 67 45 68 39 69
REMARK SMILES IDX 40 70 43 71 41 72 67 73 68 74 76 75 69 76 70 77 74 78 77 79
REMARK SMILES IDX 71 80 72 81 75 82 73 83 52 84 53 85 61 86 54 87 55 88 59 89
REMARK SMILES IDX 62 90 56 91 57 92 60 93 58 94
REMARK H PARENT 5 12 10 17 10 18 10 19 82 47 50 58
REMARK Flexibility Score: inf
ROOT
ATOM      1  C   UNL     1      -1.828  -3.482   4.985  1.00  0.00     0.202 C 
ENDROOT
BRANCH   1   2
ATOM      2  C   UNL     1      -2.435  -3.270   3.600  1.00  0.00     0.261 C 
BRANCH   2   3
ATOM      3  O   UNL     1      -1.566  -2.605   2.660  1.00  0.00    -0.462 OA
BRANCH   3   4
ATOM      4  C   UNL     1      -2.101  -1.494   2.075  1.00  0.00     0.328 C 
ATOM      5  O   UNL     1      -3.115  -0.918   2.464  1.00  0.00    -0.250 OA
BRANCH   4   6
ATOM      6  C   UNL     1      -1.382  -1.067   0.777  1.00  0.00     0.195 C 
BRANCH   6   7
ATOM      7  C   UNL     1       0.145  -1.283   0.596  1.00  0.00     0.017 C 
ATOM      8  C   UNL     1       0.681  -0.361  -0.520  1.00  0.00     0.010 C 
ATOM      9  C   UNL     1       0.953  -0.982   1.859  1.00  0.00     0.010 C 
ENDBRANCH   6   7
BRANCH   6  10
ATOM     10  N   UNL     1      -2.134  -1.319  -0.476  1.00  0.00    -0.337 N 
ATOM     11  C   UNL     1      -2.600  -2.428  -1.119  1.00  0.00     0.291 C 
ATOM     12  H   UNL     1      -2.347  -0.487  -0.958  1.00  0.00     0.164 HD
ATOM     13  O   UNL     1      -2.769  -2.289  -2.334  1.00  0.00    -0.267 OA
BRANCH  11  14
ATOM     14  C   UNL     1      -2.974  -3.743  -0.404  1.00  0.00     0.267 C 
ATOM     15  C   UNL     1      -1.734  -4.530   0.030  1.00  0.00     0.100 C 
BRANCH  14  16
ATOM     16  N   UNL     1      -3.797  -3.424   0.810  1.00  0.00    -0.337 N 
ATOM     17  H   UNL     1      -3.249  -2.849   1.451  1.00  0.00     0.345 HD
ATOM     18  H   UNL     1      -4.066  -4.290   1.276  1.00  0.00     0.345 HD
ATOM     19  H   UNL     1      -4.635  -2.915   0.529  1.00  0.00     0.345 HD
ENDBRANCH  14  16
BRANCH  14  20
ATOM     20  C   UNL     1      -3.768  -4.621  -1.413  1.00  0.00     0.453 C 
ATOM     21  F   UNL     1      -4.896  -4.012  -1.845  1.00  0.00    -0.164 F 
ATOM     22  F   UNL     1      -3.044  -5.016  -2.479  1.00  0.00    -0.164 F 
ATOM     23  F   UNL     1      -4.178  -5.759  -0.780  1.00  0.00    -0.164 F 
ENDBRANCH  14  20
ENDBRANCH  11  14
ENDBRANCH   6  10
ENDBRANCH   4   6
ENDBRANCH   3   4
ENDBRANCH   2   3
ENDBRANCH   1   2
BRANCH   1  24
ATOM     24  O   UNL     1      -1.520  -2.301   5.715  1.00  0.00    -0.374 OA
BRANCH  24  25
ATOM     25  C   UNL     1      -0.367  -1.571   5.300  1.00  0.00     0.202 C 
BRANCH  25  26
ATOM     26  C   UNL     1       0.974  -2.271   5.553  1.00  0.00     0.261 C 
BRANCH  26  27
ATOM     27  O   UNL     1       1.193  -3.382   4.655  1.00  0.00    -0.460 OA
BRANCH  27  28
ATOM     28  C   UNL     1       1.589  -4.528   5.255  1.00  0.00     0.338 C 
ATOM     29  O   UNL     1       1.831  -4.697   6.445  1.00  0.00    -0.246 OA
BRANCH  28  30
ATOM     30  C   UNL     1       1.608  -5.654   4.306  1.00  0.00     0.060 A 
ATOM     31  C   UNL     1       0.723  -6.716   4.528  1.00  0.00     0.016 A 
ATOM     32  C   UNL     1       2.613  -5.760   3.343  1.00  0.00     0.016 A 
ATOM     33  C   UNL     1       0.881  -7.915   3.828  1.00  0.00     0.010 A 
ATOM     34  C   UNL     1       2.772  -6.965   2.645  1.00  0.00     0.010 A 
ATOM     35  C   UNL     1       1.936  -8.064   2.917  1.00  0.00    -0.014 A 
BRANCH  35  36
ATOM     36  C   UNL     1       2.254  -9.409   2.369  1.00  0.00     0.031 A 
ATOM     37  C   UNL     1       3.350 -10.227   3.000  1.00  0.00     0.074 A 
ATOM     38  C   UNL     1       1.558  -9.918   1.337  1.00  0.00     0.049 A 
ATOM     39  N   UNL     1       3.804 -11.409   2.666  1.00  0.00    -0.248 NA
ATOM     40  C   UNL     1       4.023  -9.634   4.167  1.00  0.00     0.031 C 
ATOM     41  C   UNL     1       0.449  -9.253   0.657  1.00  0.00     0.029 A 
ATOM     42  N   UNL     1       1.691 -11.115   0.677  1.00  0.00    -0.354 N 
ATOM     43  C   UNL     1       4.811 -11.701   3.577  1.00  0.00     0.074 A 
ATOM     44  C   UNL     1       4.923 -10.561   4.462  1.00  0.00     0.031 C 
ATOM     45  C   UNL     1       0.008 -10.048  -0.333  1.00  0.00     0.029 A 
ATOM     46  C   UNL     1       0.822 -11.263  -0.375  1.00  0.00     0.049 A 
ATOM     47  H   UNL     1       2.348 -11.802   0.934  1.00  0.00     0.167 HD
ATOM     48  C   UNL     1       5.566 -12.821   3.676  1.00  0.00     0.037 A 
ATOM     49  C   UNL     1       0.710 -12.253  -1.281  1.00  0.00     0.037 A 
ATOM     50  C   UNL     1       5.457 -13.964   2.808  1.00  0.00     0.049 A 
ATOM     51  C   UNL     1       1.624 -13.448  -1.205  1.00  0.00     0.074 A 
ATOM     52  C   UNL     1       6.148 -15.163   2.867  1.00  0.00     0.029 A 
ATOM     53  N   UNL     1       4.610 -14.045   1.714  1.00  0.00    -0.354 N 
ATOM     54  N   UNL     1       2.549 -13.727  -0.322  1.00  0.00    -0.248 NA
ATOM     55  C   UNL     1       1.479 -14.462  -2.261  1.00  0.00     0.031 C 
ATOM     56  C   UNL     1       5.752 -15.951   1.780  1.00  0.00     0.029 A 
ATOM     57  C   UNL     1       4.787 -15.258   1.068  1.00  0.00     0.049 A 
ATOM     58  H   UNL     1       3.976 -13.345   1.437  1.00  0.00     0.167 HD
ATOM     59  C   UNL     1       3.087 -14.950  -0.704  1.00  0.00     0.074 A 
ATOM     60  C   UNL     1       2.374 -15.368  -1.892  1.00  0.00     0.031 C 
ATOM     61  C   UNL     1       4.084 -15.660  -0.122  1.00  0.00     0.037 A 
BRANCH  48  62
ATOM     62  C   UNL     1       6.598 -12.867   4.762  1.00  0.00     0.064 A 
ATOM     63  C   UNL     1       6.243 -13.069   6.104  1.00  0.00     0.173 A 
ATOM     64  C   UNL     1       7.962 -12.762   4.450  1.00  0.00     0.173 A 
ATOM     65  F   UNL     1       4.951 -13.165   6.452  1.00  0.00    -0.203 F 
ATOM     66  C   UNL     1       7.216 -13.146   7.097  1.00  0.00     0.198 A 
ATOM     67  C   UNL     1       8.933 -12.861   5.443  1.00  0.00     0.198 A 
ATOM     68  F   UNL     1       8.352 -12.574   3.180  1.00  0.00    -0.203 F 
ATOM     69  F   UNL     1       6.853 -13.307   8.377  1.00  0.00    -0.200 F 
ATOM     70  C   UNL     1       8.559 -13.048   6.765  1.00  0.00     0.200 A 
ATOM     71  F   UNL     1      10.231 -12.776   5.119  1.00  0.00    -0.200 F 
ATOM     72  F   UNL     1       9.495 -13.131   7.721  1.00  0.00    -0.200 F 
ENDBRANCH  48  62
BRANCH  49  73
ATOM     73  C   UNL     1      -0.296 -12.146  -2.368  1.00  0.00     0.064 A 
ATOM     74  C   UNL     1      -1.427 -12.972  -2.390  1.00  0.00     0.173 A 
ATOM     75  C   UNL     1      -0.134 -11.227  -3.415  1.00  0.00     0.173 A 
ATOM     76  F   UNL     1      -1.606 -13.887  -1.427  1.00  0.00    -0.203 F 
ATOM     77  C   UNL     1      -2.355 -12.889  -3.426  1.00  0.00     0.198 A 
ATOM     78  C   UNL     1      -1.074 -11.129  -4.437  1.00  0.00     0.198 A 
ATOM     79  F   UNL     1       0.938 -10.421  -3.441  1.00  0.00    -0.203 F 
ATOM     80  F   UNL     1      -3.409 -13.717  -3.446  1.00  0.00    -0.200 F 
ATOM     81  C   UNL     1      -2.181 -11.964  -4.445  1.00  0.00     0.200 A 
ATOM     82  F   UNL     1      -0.904 -10.232  -5.418  1.00  0.00    -0.200 F 
ATOM     83  F   UNL     1      -3.075 -11.885  -5.440  1.00  0.00    -0.200 F 
ENDBRANCH  49  73
BRANCH  61  84
ATOM     84  C   UNL     1       4.465 -16.964  -0.758  1.00  0.00     0.064 A 
ATOM     85  C   UNL     1       5.204 -17.005  -1.949  1.00  0.00     0.173 A 
ATOM     86  C   UNL     1       4.126 -18.183  -0.152  1.00  0.00     0.173 A 
ATOM     87  F   UNL     1       5.538 -15.866  -2.575  1.00  0.00    -0.203 F 
ATOM     88  C   UNL     1       5.575 -18.220  -2.520  1.00  0.00     0.198 A 
ATOM     89  C   UNL     1       4.519 -19.396  -0.713  1.00  0.00     0.198 A 
ATOM     90  F   UNL     1       3.425 -18.198   0.991  1.00  0.00    -0.203 F 
ATOM     91  F   UNL     1       6.250 -18.235  -3.678  1.00  0.00    -0.200 F 
ATOM     92  C   UNL     1       5.239 -19.413  -1.899  1.00  0.00     0.200 A 
ATOM     93  F   UNL     1       4.201 -20.548  -0.107  1.00  0.00    -0.200 F 
ATOM     94  F   UNL     1       5.602 -20.581  -2.447  1.00  0.00    -0.200 F 
ENDBRANCH  61  84
ENDBRANCH  35  36
ENDBRANCH  28  30
ENDBRANCH  27  28
ENDBRANCH  26  27
ENDBRANCH  25  26
ENDBRANCH  24  25
ENDBRANCH   1  24
TORSDOF 19
