REMARK SMILES Cc1c(Cl)ccc2c(OCC(=O)OCCOCCOC(=O)c3ccc(-c4c5nc(c(-c6c(F)c(F)c(F)c(F)c6F)c6ccc([nH]6)c(-c6c(F)c(F)c(F)c(F)c6F)c6nc(c(-c7c(F)c(F)c(F)c(F)c7F)c7ccc4[nH]7)C=C6)C=C5)cc3)ccnc12
REMARK SMILES IDX 16 1 15 2 14 3 13 4 11 5 12 6 10 7 9 8 8 9 1 10 2 11 3 12
REMARK SMILES IDX 88 13 4 14 5 15 7 16 87 17 6 18 86 19 85 20 17 21 18 22
REMARK SMILES IDX 19 23 20 24 21 25 22 26 23 27 84 28 24 29 83 30 25 31 26 32
REMARK SMILES IDX 27 33 77 34 28 35 82 36 76 37 78 38 29 39 81 40 75 41 74 42
REMARK SMILES IDX 30 44 62 45 42 46 61 47 43 48 46 49 60 50 79 51 44 52 45 53
REMARK SMILES IDX 59 55 80 56 47 57 31 58 32 59 40 60 33 61 34 62 38 63 41 64
REMARK SMILES IDX 35 65 36 66 39 67 37 68 63 69 64 70 72 71 65 72 66 73 70 74
REMARK SMILES IDX 73 75 67 76 68 77 71 78 69 79 48 80 49 81 57 82 50 83 51 84
REMARK SMILES IDX 55 85 58 86 52 87 53 88 56 89 54 90
REMARK H PARENT 78 43 46 54
REMARK Flexibility Score: inf
ROOT
ATOM      1  O   UNL     1       3.359   7.056  -1.301  1.00  0.00    -0.374 OA
ENDROOT
BRANCH   1   2
ATOM      2  C   UNL     1       4.113   7.362  -0.131  1.00  0.00     0.202 C 
BRANCH   2   3
ATOM      3  C   UNL     1       3.377   8.077   1.010  1.00  0.00     0.261 C 
BRANCH   3   4
ATOM      4  O   UNL     1       2.301   7.306   1.586  1.00  0.00    -0.461 OA
BRANCH   4   5
ATOM      5  C   UNL     1       1.054   7.840   1.453  1.00  0.00     0.344 C 
ATOM      6  O   UNL     1       0.802   8.892   0.874  1.00  0.00    -0.248 OA
BRANCH   5   7
ATOM      7  C   UNL     1      -0.036   7.030   2.163  1.00  0.00     0.352 C 
BRANCH   7   8
ATOM      8  O   UNL     1       0.120   5.644   2.399  1.00  0.00    -0.481 OA
BRANCH   8   9
ATOM      9  C   UNL     1      -0.179   4.732   1.417  1.00  0.00     0.131 A 
ATOM     10  C   UNL     1       0.412   0.044  -0.042  1.00  0.00     0.048 C 
ATOM     11  C   UNL     1       0.218   1.055   1.063  1.00  0.00    -0.006 A 
ATOM     12  C   UNL     1       0.409   0.677   2.405  1.00  0.00     0.046 A 
ATOM     13  C   UNL     1      -0.066   2.396   0.747  1.00  0.00     0.078 A 
ATOM     14  Cl  UNL     1       0.719  -0.962   2.861  1.00  0.00    -0.084 Cl
ATOM     15  C   UNL     1       0.362   1.622   3.424  1.00  0.00     0.022 A 
ATOM     16  C   UNL     1      -0.016   3.370   1.771  1.00  0.00     0.043 A 
ATOM     17  N   UNL     1      -0.374   2.746  -0.517  1.00  0.00    -0.256 NA
ATOM     18  C   UNL     1       0.188   2.962   3.104  1.00  0.00     0.016 A 
ATOM     19  C   UNL     1      -0.667   4.033  -0.792  1.00  0.00     0.115 A 
ATOM     20  C   UNL     1      -0.569   5.058   0.126  1.00  0.00     0.067 A 
ENDBRANCH   8   9
ENDBRANCH   7   8
ENDBRANCH   5   7
ENDBRANCH   4   5
ENDBRANCH   3   4
ENDBRANCH   2   3
ENDBRANCH   1   2
BRANCH   1  21
ATOM     21  C   UNL     1       2.414   5.992  -1.200  1.00  0.00     0.202 C 
BRANCH  21  22
ATOM     22  C   UNL     1       2.978   4.568  -1.179  1.00  0.00     0.261 C 
BRANCH  22  23
ATOM     23  O   UNL     1       3.768   4.325  -0.006  1.00  0.00    -0.460 OA
BRANCH  23  24
ATOM     24  C   UNL     1       5.042   3.964  -0.260  1.00  0.00     0.338 C 
ATOM     25  O   UNL     1       5.560   3.731  -1.345  1.00  0.00    -0.246 OA
BRANCH  24  26
ATOM     26  C   UNL     1       5.830   4.050   0.973  1.00  0.00     0.060 A 
ATOM     27  C   UNL     1       6.886   4.969   0.998  1.00  0.00     0.016 A 
ATOM     28  C   UNL     1       5.611   3.167   2.033  1.00  0.00     0.016 A 
ATOM     29  C   UNL     1       7.775   4.965   2.064  1.00  0.00     0.010 A 
ATOM     30  C   UNL     1       6.515   3.154   3.096  1.00  0.00     0.010 A 
ATOM     31  C   UNL     1       7.623   4.018   3.085  1.00  0.00    -0.014 A 
BRANCH  31  32
ATOM     32  C   UNL     1       8.749   3.805   4.017  1.00  0.00     0.031 A 
ATOM     33  C   UNL     1       9.769   2.759   3.675  1.00  0.00     0.074 A 
ATOM     34  C   UNL     1       8.883   4.571   5.111  1.00  0.00     0.049 A 
ATOM     35  N   UNL     1      10.869   2.436   4.302  1.00  0.00    -0.248 NA
ATOM     36  C   UNL     1       9.516   1.973   2.456  1.00  0.00     0.031 C 
ATOM     37  C   UNL     1       7.962   5.632   5.509  1.00  0.00     0.029 A 
ATOM     38  N   UNL     1       9.849   4.572   6.082  1.00  0.00    -0.354 N 
ATOM     39  C   UNL     1      11.442   1.418   3.552  1.00  0.00     0.074 A 
ATOM     40  C   UNL     1      10.552   1.148   2.445  1.00  0.00     0.031 C 
ATOM     41  C   UNL     1       8.407   6.184   6.651  1.00  0.00     0.029 A 
ATOM     42  C   UNL     1       9.630   5.500   7.068  1.00  0.00     0.049 A 
ATOM     43  H   UNL     1      10.624   3.966   6.073  1.00  0.00     0.167 HD
ATOM     44  C   UNL     1      12.614   0.776   3.765  1.00  0.00     0.037 A 
ATOM     45  C   UNL     1      10.339   5.757   8.183  1.00  0.00     0.037 A 
ATOM     46  C   UNL     1      13.482   1.049   4.878  1.00  0.00     0.049 A 
ATOM     47  C   UNL     1      11.605   4.985   8.439  1.00  0.00     0.074 A 
ATOM     48  C   UNL     1      14.708   0.483   5.175  1.00  0.00     0.029 A 
ATOM     49  N   UNL     1      13.202   1.959   5.889  1.00  0.00    -0.354 N 
ATOM     50  N   UNL     1      12.168   4.058   7.702  1.00  0.00    -0.248 NA
ATOM     51  C   UNL     1      12.336   5.298   9.674  1.00  0.00     0.031 C 
ATOM     52  C   UNL     1      15.143   1.008   6.396  1.00  0.00     0.029 A 
ATOM     53  C   UNL     1      14.214   1.942   6.833  1.00  0.00     0.049 A 
ATOM     54  H   UNL     1      12.402   2.531   5.928  1.00  0.00     0.167 HD
ATOM     55  C   UNL     1      13.324   3.682   8.373  1.00  0.00     0.074 A 
ATOM     56  C   UNL     1      13.389   4.495   9.572  1.00  0.00     0.031 C 
ATOM     57  C   UNL     1      14.248   2.751   8.027  1.00  0.00     0.037 A 
BRANCH  44  58
ATOM     58  C   UNL     1      13.001  -0.298   2.792  1.00  0.00     0.064 A 
ATOM     59  C   UNL     1      13.393   0.002   1.478  1.00  0.00     0.173 A 
ATOM     60  C   UNL     1      12.991  -1.645   3.181  1.00  0.00     0.173 A 
ATOM     61  F   UNL     1      13.404   1.274   1.050  1.00  0.00    -0.203 F 
ATOM     62  C   UNL     1      13.733  -1.009   0.583  1.00  0.00     0.198 A 
ATOM     63  C   UNL     1      13.360  -2.652   2.292  1.00  0.00     0.198 A 
ATOM     64  F   UNL     1      12.625  -1.987   4.426  1.00  0.00    -0.203 F 
ATOM     65  F   UNL     1      14.056  -0.703  -0.681  1.00  0.00    -0.200 F 
ATOM     66  C   UNL     1      13.722  -2.334   0.992  1.00  0.00     0.200 A 
ATOM     67  F   UNL     1      13.358  -3.931   2.692  1.00  0.00    -0.200 F 
ATOM     68  F   UNL     1      14.053  -3.306   0.131  1.00  0.00    -0.200 F 
ENDBRANCH  44  58
BRANCH  45  69
ATOM     69  C   UNL     1       9.857   6.807   9.114  1.00  0.00     0.064 A 
ATOM     70  C   UNL     1      10.503   8.047   9.202  1.00  0.00     0.173 A 
ATOM     71  C   UNL     1       8.693   6.620   9.875  1.00  0.00     0.173 A 
ATOM     72  F   UNL     1      11.628   8.266   8.507  1.00  0.00    -0.203 F 
ATOM     73  C   UNL     1       9.996   9.065  10.008  1.00  0.00     0.198 A 
ATOM     74  C   UNL     1       8.176   7.645  10.663  1.00  0.00     0.198 A 
ATOM     75  F   UNL     1       8.037   5.452   9.821  1.00  0.00    -0.203 F 
ATOM     76  F   UNL     1      10.636  10.240  10.081  1.00  0.00    -0.200 F 
ATOM     77  C   UNL     1       8.827   8.868  10.728  1.00  0.00     0.200 A 
ATOM     78  F   UNL     1       7.037   7.456  11.343  1.00  0.00    -0.200 F 
ATOM     79  F   UNL     1       8.325   9.857  11.479  1.00  0.00    -0.200 F 
ENDBRANCH  45  69
BRANCH  57  80
ATOM     80  C   UNL     1      15.409   2.548   8.956  1.00  0.00     0.064 A 
ATOM     81  C   UNL     1      15.256   1.879  10.178  1.00  0.00     0.173 A 
ATOM     82  C   UNL     1      16.702   2.943   8.577  1.00  0.00     0.173 A 
ATOM     83  F   UNL     1      14.039   1.493  10.589  1.00  0.00    -0.203 F 
ATOM     84  C   UNL     1      16.355   1.620  10.993  1.00  0.00     0.198 A 
ATOM     85  C   UNL     1      17.801   2.656   9.380  1.00  0.00     0.198 A 
ATOM     86  F   UNL     1      16.901   3.577   7.412  1.00  0.00    -0.203 F 
ATOM     87  F   UNL     1      16.183   1.003  12.170  1.00  0.00    -0.200 F 
ATOM     88  C   UNL     1      17.627   1.998  10.588  1.00  0.00     0.200 A 
ATOM     89  F   UNL     1      19.031   3.006   8.979  1.00  0.00    -0.200 F 
ATOM     90  F   UNL     1      18.686   1.727  11.363  1.00  0.00    -0.200 F 
ENDBRANCH  57  80
ENDBRANCH  31  32
ENDBRANCH  24  26
ENDBRANCH  23  24
ENDBRANCH  22  23
ENDBRANCH  21  22
ENDBRANCH   1  21
TORSDOF 16
