REMARK SMILES CCC(CC)(NC(=O)NCCc1nccs1)C(=O)OCCOCCOC(=O)c1ccc(-c2c3nc(c(-c4c(F)c(F)c(F)c(F)c4F)c4ccc([nH]4)c(-c4c(F)c(F)c(F)c(F)c4F)c4nc(c(-c5c(F)c(F)c(F)c(F)c5F)c5ccc2[nH]5)C=C4)C=C3)cc1
REMARK SMILES IDX 21 1 20 2 19 3 17 4 18 5 3 6 2 7 1 8 4 9 5 10 6 11 7 12 8 14
REMARK SMILES IDX 9 15 10 17 11 18 12 19 13 20 16 21 14 22 15 23 22 24 23 25
REMARK SMILES IDX 24 26 25 27 26 28 27 29 28 30 29 31 90 32 30 33 89 34 31 35
REMARK SMILES IDX 32 36 33 37 83 38 34 39 88 40 82 41 84 42 35 43 87 44 81 45
REMARK SMILES IDX 80 46 36 48 68 49 48 50 67 51 49 52 52 53 66 54 85 55 50 56
REMARK SMILES IDX 51 57 65 59 86 60 53 61 37 62 38 63 46 64 39 65 40 66 44 67
REMARK SMILES IDX 47 68 41 69 42 70 45 71 43 72 69 73 70 74 78 75 71 76 72 77
REMARK SMILES IDX 76 78 79 79 73 80 74 81 77 82 75 83 54 84 55 85 63 86 56 87
REMARK SMILES IDX 57 88 61 89 64 90 58 91 59 92 62 93 60 94
REMARK H PARENT 6 13 9 16 84 47 52 58
REMARK Flexibility Score: inf
ROOT
ATOM      1  C   UNL     1       5.319  -2.437  -0.568  1.00  0.00     0.202 C 
ENDROOT
BRANCH   1   2
ATOM      2  C   UNL     1       4.799  -1.182   0.155  1.00  0.00     0.261 C 
BRANCH   2   3
ATOM      3  O   UNL     1       3.561  -1.417   0.863  1.00  0.00    -0.461 OA
BRANCH   3   4
ATOM      4  C   UNL     1       2.417  -1.168   0.185  1.00  0.00     0.331 C 
ATOM      5  O   UNL     1       2.409  -0.652  -0.928  1.00  0.00    -0.249 OA
BRANCH   4   6
ATOM      6  C   UNL     1       1.131  -1.695   0.918  1.00  0.00     0.139 C 
BRANCH   6   7
ATOM      7  C   UNL     1      -0.056  -1.284  -0.040  1.00  0.00     0.037 C 
ATOM      8  C   UNL     1      -0.347   0.216  -0.145  1.00  0.00     0.007 C 
ENDBRANCH   6   7
BRANCH   6   9
ATOM      9  C   UNL     1       0.894  -1.088   2.322  1.00  0.00     0.037 C 
ATOM     10  C   UNL     1      -0.483  -1.406   2.918  1.00  0.00     0.007 C 
ENDBRANCH   6   9
BRANCH   6  11
ATOM     11  N   UNL     1       1.105  -3.198   0.975  1.00  0.00    -0.322 N 
ATOM     12  C   UNL     1       1.499  -4.186   1.784  1.00  0.00     0.315 C 
ATOM     13  H   UNL     1       0.666  -3.564   0.174  1.00  0.00     0.166 HD
ATOM     14  O   UNL     1       0.979  -5.292   1.612  1.00  0.00    -0.249 OA
ATOM     15  N   UNL     1       2.387  -4.083   2.784  1.00  0.00    -0.338 N 
ATOM     16  H   UNL     1       2.143  -4.527   3.628  1.00  0.00     0.165 HD
BRANCH  15  17
ATOM     17  C   UNL     1       3.667  -3.393   2.772  1.00  0.00     0.125 C 
BRANCH  17  18
ATOM     18  C   UNL     1       4.676  -3.877   3.824  1.00  0.00     0.089 C 
BRANCH  18  19
ATOM     19  C   UNL     1       6.106  -3.699   3.375  1.00  0.00     0.094 A 
ATOM     20  N   UNL     1       6.495  -3.607   2.121  1.00  0.00    -0.250 NA
ATOM     21  S   UNL     1       7.395  -3.719   4.519  1.00  0.00    -0.127 S 
ATOM     22  C   UNL     1       7.871  -3.613   2.032  1.00  0.00     0.123 A 
ATOM     23  C   UNL     1       8.533  -3.682   3.235  1.00  0.00     0.087 A 
ENDBRANCH  18  19
ENDBRANCH  17  18
ENDBRANCH  15  17
ENDBRANCH   6  11
ENDBRANCH   4   6
ENDBRANCH   3   4
ENDBRANCH   2   3
ENDBRANCH   1   2
BRANCH   1  24
ATOM     24  O   UNL     1       4.592  -2.771  -1.749  1.00  0.00    -0.374 OA
BRANCH  24  25
ATOM     25  C   UNL     1       3.554  -3.737  -1.555  1.00  0.00     0.202 C 
BRANCH  25  26
ATOM     26  C   UNL     1       4.038  -5.190  -1.590  1.00  0.00     0.261 C 
BRANCH  26  27
ATOM     27  O   UNL     1       4.452  -5.635  -0.278  1.00  0.00    -0.460 OA
BRANCH  27  28
ATOM     28  C   UNL     1       4.175  -6.935   0.008  1.00  0.00     0.338 C 
ATOM     29  O   UNL     1       3.571  -7.724  -0.699  1.00  0.00    -0.246 OA
BRANCH  28  30
ATOM     30  C   UNL     1       4.757  -7.333   1.316  1.00  0.00     0.060 A 
ATOM     31  C   UNL     1       5.997  -6.843   1.727  1.00  0.00     0.016 A 
ATOM     32  C   UNL     1       4.120  -8.318   2.083  1.00  0.00     0.016 A 
ATOM     33  C   UNL     1       6.614  -7.353   2.876  1.00  0.00     0.010 A 
ATOM     34  C   UNL     1       4.729  -8.816   3.246  1.00  0.00     0.010 A 
ATOM     35  C   UNL     1       6.000  -8.361   3.634  1.00  0.00    -0.014 A 
BRANCH  35  36
ATOM     36  C   UNL     1       6.768  -9.028   4.723  1.00  0.00     0.031 A 
ATOM     37  C   UNL     1       7.375 -10.385   4.475  1.00  0.00     0.074 A 
ATOM     38  C   UNL     1       7.018  -8.403   5.889  1.00  0.00     0.049 A 
ATOM     39  N   UNL     1       8.099 -11.132   5.272  1.00  0.00    -0.248 NA
ATOM     40  C   UNL     1       7.142 -10.972   3.147  1.00  0.00     0.031 C 
ATOM     41  C   UNL     1       6.539  -7.073   6.251  1.00  0.00     0.029 A 
ATOM     42  N   UNL     1       7.761  -8.798   6.978  1.00  0.00    -0.354 N 
ATOM     43  C   UNL     1       8.403 -12.276   4.545  1.00  0.00     0.074 A 
ATOM     44  C   UNL     1       7.767 -12.136   3.252  1.00  0.00     0.031 C 
ATOM     45  C   UNL     1       7.029  -6.742   7.458  1.00  0.00     0.029 A 
ATOM     46  C   UNL     1       7.823  -7.856   7.976  1.00  0.00     0.049 A 
ATOM     47  H   UNL     1       8.207  -9.673   7.035  1.00  0.00     0.167 HD
ATOM     48  C   UNL     1       9.151 -13.345   4.911  1.00  0.00     0.037 A 
ATOM     49  C   UNL     1       8.440  -7.890   9.175  1.00  0.00     0.037 A 
ATOM     50  C   UNL     1       9.787 -13.505   6.191  1.00  0.00     0.049 A 
ATOM     51  C   UNL     1       9.226  -9.113   9.577  1.00  0.00     0.074 A 
ATOM     52  C   UNL     1      10.503 -14.587   6.674  1.00  0.00     0.029 A 
ATOM     53  N   UNL     1       9.791 -12.546   7.192  1.00  0.00    -0.354 N 
ATOM     54  N   UNL     1       9.467 -10.206   8.896  1.00  0.00    -0.248 NA
ATOM     55  C   UNL     1       9.821  -9.107  10.924  1.00  0.00     0.031 C 
ATOM     56  C   UNL     1      10.924 -14.290   7.976  1.00  0.00     0.029 A 
ATOM     57  C   UNL     1      10.498 -13.011   8.290  1.00  0.00     0.049 A 
ATOM     58  H   UNL     1       9.356 -11.665   7.131  1.00  0.00     0.167 HD
ATOM     59  C   UNL     1      10.242 -11.010   9.724  1.00  0.00     0.074 A 
ATOM     60  C   UNL     1      10.462 -10.267  10.945  1.00  0.00     0.031 C 
ATOM     61  C   UNL     1      10.715 -12.260   9.498  1.00  0.00     0.037 A 
BRANCH  48  62
ATOM     62  C   UNL     1       9.293 -14.447   3.905  1.00  0.00     0.064 A 
ATOM     63  C   UNL     1      10.131 -14.314   2.788  1.00  0.00     0.173 A 
ATOM     64  C   UNL     1       8.586 -15.648   4.060  1.00  0.00     0.173 A 
ATOM     65  F   UNL     1      10.814 -13.176   2.589  1.00  0.00    -0.203 F 
ATOM     66  C   UNL     1      10.233 -15.334   1.847  1.00  0.00     0.198 A 
ATOM     67  C   UNL     1       8.708 -16.675   3.128  1.00  0.00     0.198 A 
ATOM     68  F   UNL     1       7.775 -15.824   5.114  1.00  0.00    -0.203 F 
ATOM     69  F   UNL     1      11.003 -15.168   0.762  1.00  0.00    -0.200 F 
ATOM     70  C   UNL     1       9.525 -16.514   2.019  1.00  0.00     0.200 A 
ATOM     71  F   UNL     1       8.029 -17.818   3.299  1.00  0.00    -0.200 F 
ATOM     72  F   UNL     1       9.622 -17.494   1.109  1.00  0.00    -0.200 F 
ENDBRANCH  48  62
BRANCH  49  73
ATOM     73  C   UNL     1       8.334  -6.736  10.107  1.00  0.00     0.064 A 
ATOM     74  C   UNL     1       9.455  -5.958  10.430  1.00  0.00     0.173 A 
ATOM     75  C   UNL     1       7.119  -6.418  10.732  1.00  0.00     0.173 A 
ATOM     76  F   UNL     1      10.646  -6.241   9.882  1.00  0.00    -0.203 F 
ATOM     77  C   UNL     1       9.370  -4.922  11.359  1.00  0.00     0.198 A 
ATOM     78  C   UNL     1       7.029  -5.364  11.638  1.00  0.00     0.198 A 
ATOM     79  F   UNL     1       6.018  -7.134  10.463  1.00  0.00    -0.203 F 
ATOM     80  F   UNL     1      10.469  -4.231  11.691  1.00  0.00    -0.200 F 
ATOM     81  C   UNL     1       8.156  -4.623  11.959  1.00  0.00     0.200 A 
ATOM     82  F   UNL     1       5.851  -5.072  12.208  1.00  0.00    -0.200 F 
ATOM     83  F   UNL     1       8.075  -3.630  12.854  1.00  0.00    -0.200 F 
ENDBRANCH  49  73
BRANCH  61  84
ATOM     84  C   UNL     1      11.526 -12.898  10.588  1.00  0.00     0.064 A 
ATOM     85  C   UNL     1      10.925 -13.370  11.765  1.00  0.00     0.173 A 
ATOM     86  C   UNL     1      12.911 -13.064  10.445  1.00  0.00     0.173 A 
ATOM     87  F   UNL     1       9.606 -13.221  11.955  1.00  0.00    -0.203 F 
ATOM     88  C   UNL     1      11.686 -13.965  12.768  1.00  0.00     0.198 A 
ATOM     89  C   UNL     1      13.665 -13.681  11.441  1.00  0.00     0.198 A 
ATOM     90  F   UNL     1      13.534 -12.633   9.338  1.00  0.00    -0.203 F 
ATOM     91  F   UNL     1      11.097 -14.370  13.902  1.00  0.00    -0.200 F 
ATOM     92  C   UNL     1      13.053 -14.124  12.604  1.00  0.00     0.200 A 
ATOM     93  F   UNL     1      14.986 -13.841  11.278  1.00  0.00    -0.200 F 
ATOM     94  F   UNL     1      13.784 -14.697  13.571  1.00  0.00    -0.200 F 
ENDBRANCH  61  84
ENDBRANCH  35  36
ENDBRANCH  28  30
ENDBRANCH  27  28
ENDBRANCH  26  27
ENDBRANCH  25  26
ENDBRANCH  24  25
ENDBRANCH   1  24
TORSDOF 20
