REMARK SMILES CC[C@H](Oc1cccc(/C=C2\SC(=S)N(NC(=O)c3cccc(O)c3)C2=O)c1)C(=O)OCCOCCOC(=O)c1ccc(-c2c3nc(c(-c4c(F)c(F)c(F)c(F)c4F)c4ccc([nH]4)c(-c4c(F)c(F)c(F)c(F)c4F)c4nc(c(-c5c(F)c(F)c(F)c(F)c5F)c5ccc2[nH]5)C=C4)C=C3)cc1
REMARK SMILES IDX 32 1 31 2 29 3 30 4 3 5 2 6 1 7 4 8 5 9 6 10 28 11 7 12 9 13
REMARK SMILES IDX 8 14 10 15 11 16 12 17 26 18 13 19 15 20 27 21 14 22 16 23
REMARK SMILES IDX 17 24 18 26 19 27 20 28 25 29 21 30 23 31 22 32 24 33 33 35
REMARK SMILES IDX 34 36 35 37 36 38 37 39 38 40 39 41 40 42 41 43 102 44 42 45
REMARK SMILES IDX 101 46 43 47 44 48 45 49 95 50 46 51 100 52 94 53 96 54
REMARK SMILES IDX 47 55 99 56 93 57 92 58 48 60 80 61 60 62 79 63 61 64 64 65
REMARK SMILES IDX 78 66 97 67 62 68 63 69 77 71 98 72 65 73 49 74 50 75 58 76
REMARK SMILES IDX 51 77 52 78 56 79 59 80 53 81 54 82 57 83 55 84 81 85 82 86
REMARK SMILES IDX 90 87 83 88 84 89 88 90 91 91 85 92 86 93 89 94 87 95 66 96
REMARK SMILES IDX 67 97 75 98 68 99 69 100 73 101 76 102 70 103 71 104 74 105
REMARK SMILES IDX 72 106
REMARK H PARENT 16 25 24 34 96 59 64 70
REMARK Flexibility Score: inf
ROOT
ATOM      1  C   UNL     1      -0.303  -5.355   1.662  1.00  0.00     0.261 C 
ENDROOT
BRANCH   1   2
ATOM      2  O   UNL     1      -0.179  -3.931   1.538  1.00  0.00    -0.461 OA
BRANCH   2   3
ATOM      3  C   UNL     1       0.985  -3.381   2.000  1.00  0.00     0.347 C 
ATOM      4  O   UNL     1       1.950  -4.015   2.410  1.00  0.00    -0.248 OA
BRANCH   3   5
ATOM      5  C   UNL     1       0.882  -1.852   2.071  1.00  0.00     0.282 C 
BRANCH   5   6
ATOM      6  C   UNL     1       0.088  -1.611   3.374  1.00  0.00     0.054 C 
ATOM      7  C   UNL     1      -0.486  -0.235   3.643  1.00  0.00     0.008 C 
ENDBRANCH   5   6
BRANCH   5   8
ATOM      8  O   UNL     1       0.275  -1.390   0.859  1.00  0.00    -0.479 OA
BRANCH   8   9
ATOM      9  C   UNL     1       0.307  -0.054   0.557  1.00  0.00     0.121 A 
ATOM     10  C   UNL     1       1.077   0.904   1.210  1.00  0.00     0.046 A 
ATOM     11  C   UNL     1      -0.597   0.347  -0.441  1.00  0.00     0.054 A 
ATOM     12  C   UNL     1       0.835   2.256   0.985  1.00  0.00     0.004 A 
ATOM     13  C   UNL     1      -0.847   1.703  -0.696  1.00  0.00    -0.021 A 
ATOM     14  C   UNL     1      -0.130   2.648   0.057  1.00  0.00     0.008 A 
BRANCH  13  15
ATOM     15  C   UNL     1      -1.843   2.246  -1.646  1.00  0.00     0.029 C 
ATOM     16  C   UNL     1      -2.743   1.687  -2.468  1.00  0.00     0.082 C 
ATOM     17  S   UNL     1      -3.059   0.041  -2.828  1.00  0.00    -0.052 SA
ATOM     18  C   UNL     1      -3.624   2.562  -3.303  1.00  0.00     0.285 C 
ATOM     19  C   UNL     1      -4.058   0.436  -4.220  1.00  0.00     0.168 C 
ATOM     20  N   UNL     1      -4.134   1.808  -4.348  1.00  0.00    -0.198 N 
ATOM     21  O   UNL     1      -3.861   3.731  -3.040  1.00  0.00    -0.266 OA
ATOM     22  S   UNL     1      -4.787  -0.719  -5.178  1.00  0.00    -0.050 S 
BRANCH  20  23
ATOM     23  N   UNL     1      -4.880   2.382  -5.389  1.00  0.00    -0.255 N 
ATOM     24  C   UNL     1      -4.523   3.450  -6.188  1.00  0.00     0.270 C 
ATOM     25  H   UNL     1      -5.759   1.977  -5.571  1.00  0.00     0.192 HD
ATOM     26  O   UNL     1      -5.230   3.757  -7.145  1.00  0.00    -0.267 OA
BRANCH  24  27
ATOM     27  C   UNL     1      -3.348   4.292  -5.880  1.00  0.00     0.045 A 
ATOM     28  C   UNL     1      -3.585   5.659  -5.678  1.00  0.00     0.014 A 
ATOM     29  C   UNL     1      -2.057   3.768  -5.758  1.00  0.00     0.060 A 
ATOM     30  C   UNL     1      -2.543   6.496  -5.283  1.00  0.00     0.005 A 
ATOM     31  C   UNL     1      -1.031   4.617  -5.348  1.00  0.00     0.116 A 
ATOM     32  C   UNL     1      -1.266   5.969  -5.103  1.00  0.00     0.046 A 
BRANCH  31  33
ATOM     33  O   UNL     1       0.238   4.160  -5.146  1.00  0.00    -0.508 OA
ATOM     34  H   UNL     1       0.911   4.750  -4.870  1.00  0.00     0.293 HD
ENDBRANCH  31  33
ENDBRANCH  24  27
ENDBRANCH  20  23
ENDBRANCH  13  15
ENDBRANCH   8   9
ENDBRANCH   5   8
ENDBRANCH   3   5
ENDBRANCH   2   3
ENDBRANCH   1   2
BRANCH   1  35
ATOM     35  C   UNL     1      -0.278  -6.069   0.312  1.00  0.00     0.202 C 
BRANCH  35  36
ATOM     36  O   UNL     1       0.936  -5.999  -0.429  1.00  0.00    -0.374 OA
BRANCH  36  37
ATOM     37  C   UNL     1       1.249  -4.768  -1.076  1.00  0.00     0.202 C 
BRANCH  37  38
ATOM     38  C   UNL     1       0.482  -4.446  -2.364  1.00  0.00     0.261 C 
BRANCH  38  39
ATOM     39  O   UNL     1      -0.931  -4.279  -2.154  1.00  0.00    -0.460 OA
BRANCH  39  40
ATOM     40  C   UNL     1      -1.699  -5.275  -2.660  1.00  0.00     0.338 C 
ATOM     41  O   UNL     1      -1.330  -6.250  -3.288  1.00  0.00    -0.246 OA
BRANCH  40  42
ATOM     42  C   UNL     1      -3.098  -5.111  -2.222  1.00  0.00     0.060 A 
ATOM     43  C   UNL     1      -3.723  -6.200  -1.603  1.00  0.00     0.016 A 
ATOM     44  C   UNL     1      -3.818  -3.952  -2.513  1.00  0.00     0.016 A 
ATOM     45  C   UNL     1      -5.087  -6.153  -1.319  1.00  0.00     0.010 A 
ATOM     46  C   UNL     1      -5.187  -3.906  -2.230  1.00  0.00     0.010 A 
ATOM     47  C   UNL     1      -5.835  -5.021  -1.668  1.00  0.00    -0.014 A 
BRANCH  47  48
ATOM     48  C   UNL     1      -7.315  -5.060  -1.581  1.00  0.00     0.031 A 
ATOM     49  C   UNL     1      -8.116  -5.296  -2.832  1.00  0.00     0.074 A 
ATOM     50  C   UNL     1      -7.937  -4.906  -0.399  1.00  0.00     0.049 A 
ATOM     51  N   UNL     1      -9.415  -5.336  -2.992  1.00  0.00    -0.248 NA
ATOM     52  C   UNL     1      -7.350  -5.513  -4.069  1.00  0.00     0.031 C 
ATOM     53  C   UNL     1      -7.270  -4.704   0.885  1.00  0.00     0.029 A 
ATOM     54  N   UNL     1      -9.275  -4.889  -0.091  1.00  0.00    -0.354 N 
ATOM     55  C   UNL     1      -9.620  -5.576  -4.345  1.00  0.00     0.074 A 
ATOM     56  C   UNL     1      -8.316  -5.642  -4.967  1.00  0.00     0.031 C 
ATOM     57  C   UNL     1      -8.202  -4.574   1.845  1.00  0.00     0.029 A 
ATOM     58  C   UNL     1      -9.530  -4.652   1.237  1.00  0.00     0.049 A 
ATOM     59  H   UNL     1      -9.984  -5.033  -0.759  1.00  0.00     0.167 HD
ATOM     60  C   UNL     1     -10.792  -5.736  -5.006  1.00  0.00     0.037 A 
ATOM     61  C   UNL     1     -10.702  -4.495   1.882  1.00  0.00     0.037 A 
ATOM     62  C   UNL     1     -12.089  -5.674  -4.385  1.00  0.00     0.049 A 
ATOM     63  C   UNL     1     -11.992  -4.611   1.110  1.00  0.00     0.074 A 
ATOM     64  C   UNL     1     -13.333  -5.852  -4.964  1.00  0.00     0.029 A 
ATOM     65  N   UNL     1     -12.308  -5.403  -3.042  1.00  0.00    -0.354 N 
ATOM     66  N   UNL     1     -12.177  -4.875  -0.161  1.00  0.00    -0.248 NA
ATOM     67  C   UNL     1     -13.236  -4.409   1.866  1.00  0.00     0.031 C 
ATOM     68  C   UNL     1     -14.307  -5.636  -3.983  1.00  0.00     0.029 A 
ATOM     69  C   UNL     1     -13.668  -5.380  -2.780  1.00  0.00     0.049 A 
ATOM     70  H   UNL     1     -11.601  -5.250  -2.374  1.00  0.00     0.167 HD
ATOM     71  C   UNL     1     -13.553  -4.903  -0.350  1.00  0.00     0.074 A 
ATOM     72  C   UNL     1     -14.156  -4.640   0.940  1.00  0.00     0.031 C 
ATOM     73  C   UNL     1     -14.254  -5.128  -1.488  1.00  0.00     0.037 A 
BRANCH  60  74
ATOM     74  C   UNL     1     -10.728  -5.971  -6.487  1.00  0.00     0.064 A 
ATOM     75  C   UNL     1     -10.274  -7.185  -7.023  1.00  0.00     0.173 A 
ATOM     76  C   UNL     1     -11.171  -4.984  -7.381  1.00  0.00     0.173 A 
ATOM     77  F   UNL     1      -9.829  -8.157  -6.212  1.00  0.00    -0.203 F 
ATOM     78  C   UNL     1     -10.244  -7.394  -8.400  1.00  0.00     0.198 A 
ATOM     79  C   UNL     1     -11.166  -5.207  -8.755  1.00  0.00     0.198 A 
ATOM     80  F   UNL     1     -11.621  -3.807  -6.920  1.00  0.00    -0.203 F 
ATOM     81  F   UNL     1      -9.767  -8.546  -8.891  1.00  0.00    -0.200 F 
ATOM     82  C   UNL     1     -10.697  -6.408  -9.264  1.00  0.00     0.200 A 
ATOM     83  F   UNL     1     -11.618  -4.258  -9.588  1.00  0.00    -0.200 F 
ATOM     84  F   UNL     1     -10.677  -6.615 -10.588  1.00  0.00    -0.200 F 
ENDBRANCH  60  74
BRANCH  61  85
ATOM     85  C   UNL     1     -10.716  -4.203   3.339  1.00  0.00     0.064 A 
ATOM     86  C   UNL     1     -11.209  -5.139   4.259  1.00  0.00     0.173 A 
ATOM     87  C   UNL     1     -10.261  -2.974   3.838  1.00  0.00     0.173 A 
ATOM     88  F   UNL     1     -11.680  -6.318   3.828  1.00  0.00    -0.203 F 
ATOM     89  C   UNL     1     -11.263  -4.848   5.621  1.00  0.00     0.198 A 
ATOM     90  C   UNL     1     -10.289  -2.696   5.203  1.00  0.00     0.198 A 
ATOM     91  F   UNL     1      -9.782  -2.043   3.000  1.00  0.00    -0.203 F 
ATOM     92  F   UNL     1     -11.784  -5.741   6.474  1.00  0.00    -0.200 F 
ATOM     93  C   UNL     1     -10.798  -3.630   6.093  1.00  0.00     0.200 A 
ATOM     94  F   UNL     1      -9.827  -1.523   5.655  1.00  0.00    -0.200 F 
ATOM     95  F   UNL     1     -10.849  -3.352   7.402  1.00  0.00    -0.200 F 
ENDBRANCH  61  85
BRANCH  73  96
ATOM     96  C   UNL     1     -15.753  -5.142  -1.387  1.00  0.00     0.064 A 
ATOM     97  C   UNL     1     -16.490  -3.967  -1.179  1.00  0.00     0.173 A 
ATOM     98  C   UNL     1     -16.462  -6.343  -1.541  1.00  0.00     0.173 A 
ATOM     99  F   UNL     1     -15.859  -2.795  -1.011  1.00  0.00    -0.203 F 
ATOM    100  C   UNL     1     -17.880  -3.998  -1.104  1.00  0.00     0.198 A 
ATOM    101  C   UNL     1     -17.853  -6.366  -1.496  1.00  0.00     0.198 A 
ATOM    102  F   UNL     1     -15.805  -7.494  -1.749  1.00  0.00    -0.203 F 
ATOM    103  F   UNL     1     -18.561  -2.870  -0.857  1.00  0.00    -0.200 F 
ATOM    104  C   UNL     1     -18.560  -5.195  -1.270  1.00  0.00     0.200 A 
ATOM    105  F   UNL     1     -18.509  -7.521  -1.671  1.00  0.00    -0.200 F 
ATOM    106  F   UNL     1     -19.899  -5.222  -1.204  1.00  0.00    -0.200 F 
ENDBRANCH  73  96
ENDBRANCH  47  48
ENDBRANCH  40  42
ENDBRANCH  39  40
ENDBRANCH  38  39
ENDBRANCH  37  38
ENDBRANCH  36  37
ENDBRANCH  35  36
ENDBRANCH   1  35
TORSDOF 21
