REMARK SMILES COc1ccc(F)c(NC(=O)N2CCCC[C@@H]2C(=O)OCCOCCOC(=O)c2ccc(-c3c4nc(c(-c5c(F)c(F)c(F)c(F)c5F)c5ccc([nH]5)c(-c5c(F)c(F)c(F)c(F)c5F)c5nc(c(-c6c(F)c(F)c(F)c(F)c6F)c6ccc3[nH]6)C=C5)C=C4)cc2)c1
REMARK SMILES IDX 22 1 21 2 20 3 18 4 19 5 17 6 12 7 13 8 14 9 16 10 15 11
REMARK SMILES IDX 10 12 9 13 11 15 8 16 3 17 4 18 92 19 5 20 6 21 7 22 2 23
REMARK SMILES IDX 1 24 23 25 24 26 25 27 26 28 27 29 28 30 29 31 30 32 91 33
REMARK SMILES IDX 31 34 90 35 32 36 33 37 34 38 84 39 35 40 89 41 83 42 85 43
REMARK SMILES IDX 36 44 88 45 82 46 81 47 37 49 69 50 49 51 68 52 50 53 53 54
REMARK SMILES IDX 67 55 86 56 51 57 52 58 66 60 87 61 54 62 38 63 39 64 47 65
REMARK SMILES IDX 40 66 41 67 45 68 48 69 42 70 43 71 46 72 44 73 70 74 71 75
REMARK SMILES IDX 79 76 72 77 73 78 77 79 80 80 74 81 75 82 78 83 76 84 55 85
REMARK SMILES IDX 56 86 64 87 57 88 58 89 62 90 65 91 59 92 60 93 63 94 61 95
REMARK H PARENT 9 14 85 48 53 59
REMARK Flexibility Score: inf
ROOT
ATOM      1  C   UNL     1      -0.161   0.456  -5.158  1.00  0.00     0.202 C 
ENDROOT
BRANCH   1   2
ATOM      2  C   UNL     1      -0.581  -1.025  -5.263  1.00  0.00     0.261 C 
BRANCH   2   3
ATOM      3  O   UNL     1      -1.654  -1.441  -4.399  1.00  0.00    -0.462 OA
BRANCH   3   4
ATOM      4  C   UNL     1      -1.226  -1.669  -3.134  1.00  0.00     0.329 C 
ATOM      5  O   UNL     1      -0.099  -1.373  -2.752  1.00  0.00    -0.250 OA
BRANCH   4   6
ATOM      6  C   UNL     1      -2.263  -2.232  -2.169  1.00  0.00     0.196 C 
ATOM      7  N   UNL     1      -2.686  -3.641  -2.321  1.00  0.00    -0.311 N 
ATOM      8  C   UNL     1      -3.744  -4.088  -1.417  1.00  0.00     0.122 C 
ATOM      9  C   UNL     1      -4.924  -3.128  -1.318  1.00  0.00     0.022 C 
ATOM     10  C   UNL     1      -3.476  -1.280  -2.132  1.00  0.00     0.037 C 
ATOM     11  C   UNL     1      -4.462  -1.704  -1.052  1.00  0.00     0.005 C 
BRANCH   7  12
ATOM     12  C   UNL     1      -2.102  -4.607  -3.103  1.00  0.00     0.322 C 
ATOM     13  N   UNL     1      -0.773  -4.622  -3.367  1.00  0.00    -0.305 N 
ATOM     14  H   UNL     1      -0.554  -5.056  -4.223  1.00  0.00     0.171 HD
ATOM     15  O   UNL     1      -2.791  -5.479  -3.640  1.00  0.00    -0.248 OA
BRANCH  13  16
ATOM     16  C   UNL     1       0.362  -4.149  -2.678  1.00  0.00     0.082 A 
ATOM     17  C   UNL     1       1.402  -2.955  -0.854  1.00  0.00     0.121 A 
ATOM     18  C   UNL     1       2.529  -2.701  -1.643  1.00  0.00     0.049 A 
ATOM     19  C   UNL     1       0.359  -3.759  -1.338  1.00  0.00     0.075 A 
ATOM     20  C   UNL     1       2.603  -3.230  -2.932  1.00  0.00     0.045 A 
ATOM     21  C   UNL     1       1.524  -3.947  -3.438  1.00  0.00     0.147 A 
ATOM     22  F   UNL     1       1.554  -4.341  -4.722  1.00  0.00    -0.205 F 
BRANCH  17  23
ATOM     23  O   UNL     1       1.205  -2.378   0.375  1.00  0.00    -0.497 OA
ATOM     24  C   UNL     1       1.479  -0.972   0.381  1.00  0.00     0.278 C 
ENDBRANCH  17  23
ENDBRANCH  13  16
ENDBRANCH   7  12
ENDBRANCH   4   6
ENDBRANCH   3   4
ENDBRANCH   2   3
ENDBRANCH   1   2
BRANCH   1  25
ATOM     25  O   UNL     1       0.333   1.001  -3.935  1.00  0.00    -0.374 OA
BRANCH  25  26
ATOM     26  C   UNL     1      -0.619   1.320  -2.917  1.00  0.00     0.202 C 
BRANCH  26  27
ATOM     27  C   UNL     1      -1.225   2.718  -2.952  1.00  0.00     0.261 C 
BRANCH  27  28
ATOM     28  O   UNL     1      -2.183   2.787  -4.020  1.00  0.00    -0.460 OA
BRANCH  28  29
ATOM     29  C   UNL     1      -1.713   3.369  -5.144  1.00  0.00     0.338 C 
ATOM     30  O   UNL     1      -0.681   4.010  -5.268  1.00  0.00    -0.246 OA
BRANCH  29  31
ATOM     31  C   UNL     1      -2.514   2.915  -6.297  1.00  0.00     0.060 A 
ATOM     32  C   UNL     1      -1.807   2.593  -7.465  1.00  0.00     0.016 A 
ATOM     33  C   UNL     1      -3.905   2.792  -6.247  1.00  0.00     0.016 A 
ATOM     34  C   UNL     1      -2.491   2.237  -8.616  1.00  0.00     0.010 A 
ATOM     35  C   UNL     1      -4.596   2.454  -7.411  1.00  0.00     0.010 A 
ATOM     36  C   UNL     1      -3.890   2.236  -8.608  1.00  0.00    -0.014 A 
BRANCH  36  37
ATOM     37  C   UNL     1      -4.596   2.260  -9.903  1.00  0.00     0.031 A 
ATOM     38  C   UNL     1      -5.021   3.595 -10.445  1.00  0.00     0.074 A 
ATOM     39  C   UNL     1      -4.779   1.135 -10.611  1.00  0.00     0.049 A 
ATOM     40  N   UNL     1      -5.672   3.878 -11.542  1.00  0.00    -0.248 NA
ATOM     41  C   UNL     1      -4.657   4.775  -9.640  1.00  0.00     0.031 C 
ATOM     42  C   UNL     1      -4.333  -0.196 -10.207  1.00  0.00     0.029 A 
ATOM     43  N   UNL     1      -5.386   0.939 -11.824  1.00  0.00    -0.354 N 
ATOM     44  C   UNL     1      -5.799   5.260 -11.554  1.00  0.00     0.074 A 
ATOM     45  C   UNL     1      -5.191   5.761 -10.343  1.00  0.00     0.031 C 
ATOM     46  C   UNL     1      -4.687  -1.077 -11.157  1.00  0.00     0.029 A 
ATOM     47  C   UNL     1      -5.416  -0.376 -12.213  1.00  0.00     0.049 A 
ATOM     48  H   UNL     1      -5.763   1.671 -12.363  1.00  0.00     0.167 HD
ATOM     49  C   UNL     1      -6.363   6.040 -12.504  1.00  0.00     0.037 A 
ATOM     50  C   UNL     1      -5.991  -0.943 -13.290  1.00  0.00     0.037 A 
ATOM     51  C   UNL     1      -6.959   5.525 -13.707  1.00  0.00     0.049 A 
ATOM     52  C   UNL     1      -6.700  -0.065 -14.287  1.00  0.00     0.074 A 
ATOM     53  C   UNL     1      -7.562   6.224 -14.736  1.00  0.00     0.029 A 
ATOM     54  N   UNL     1      -7.028   4.179 -14.039  1.00  0.00    -0.354 N 
ATOM     55  N   UNL     1      -6.829   1.241 -14.293  1.00  0.00    -0.248 NA
ATOM     56  C   UNL     1      -7.342  -0.734 -15.426  1.00  0.00     0.031 C 
ATOM     57  C   UNL     1      -8.050   5.298 -15.660  1.00  0.00     0.029 A 
ATOM     58  C   UNL     1      -7.691   4.025 -15.244  1.00  0.00     0.049 A 
ATOM     59  H   UNL     1      -6.660   3.443 -13.497  1.00  0.00     0.167 HD
ATOM     60  C   UNL     1      -7.543   1.552 -15.443  1.00  0.00     0.074 A 
ATOM     61  C   UNL     1      -7.811   0.297 -16.116  1.00  0.00     0.031 C 
ATOM     62  C   UNL     1      -7.940   2.765 -15.900  1.00  0.00     0.037 A 
BRANCH  49  63
ATOM     63  C   UNL     1      -6.385   7.522 -12.274  1.00  0.00     0.064 A 
ATOM     64  C   UNL     1      -7.601   8.184 -12.046  1.00  0.00     0.173 A 
ATOM     65  C   UNL     1      -5.217   8.297 -12.334  1.00  0.00     0.173 A 
ATOM     66  F   UNL     1      -8.747   7.490 -11.976  1.00  0.00    -0.203 F 
ATOM     67  C   UNL     1      -7.649   9.569 -11.908  1.00  0.00     0.198 A 
ATOM     68  C   UNL     1      -5.265   9.678 -12.164  1.00  0.00     0.198 A 
ATOM     69  F   UNL     1      -4.026   7.711 -12.529  1.00  0.00    -0.203 F 
ATOM     70  F   UNL     1      -8.827  10.182 -11.727  1.00  0.00    -0.200 F 
ATOM     71  C   UNL     1      -6.481  10.314 -11.963  1.00  0.00     0.200 A 
ATOM     72  F   UNL     1      -4.132  10.394 -12.188  1.00  0.00    -0.200 F 
ATOM     73  F   UNL     1      -6.527  11.646 -11.819  1.00  0.00    -0.200 F 
ENDBRANCH  49  63
BRANCH  50  74
ATOM     74  C   UNL     1      -5.912  -2.416 -13.468  1.00  0.00     0.064 A 
ATOM     75  C   UNL     1      -6.573  -3.290 -12.591  1.00  0.00     0.173 A 
ATOM     76  C   UNL     1      -5.141  -2.979 -14.492  1.00  0.00     0.173 A 
ATOM     77  F   UNL     1      -7.326  -2.801 -11.595  1.00  0.00    -0.203 F 
ATOM     78  C   UNL     1      -6.440  -4.671 -12.715  1.00  0.00     0.198 A 
ATOM     79  C   UNL     1      -5.031  -4.362 -14.632  1.00  0.00     0.198 A 
ATOM     80  F   UNL     1      -4.509  -2.185 -15.368  1.00  0.00    -0.203 F 
ATOM     81  F   UNL     1      -7.048  -5.482 -11.839  1.00  0.00    -0.200 F 
ATOM     82  C   UNL     1      -5.671  -5.206 -13.737  1.00  0.00     0.200 A 
ATOM     83  F   UNL     1      -4.306  -4.875 -15.635  1.00  0.00    -0.200 F 
ATOM     84  F   UNL     1      -5.548  -6.535 -13.860  1.00  0.00    -0.200 F 
ENDBRANCH  50  74
BRANCH  62  85
ATOM     85  C   UNL     1      -8.685   2.814 -17.203  1.00  0.00     0.064 A 
ATOM     86  C   UNL     1      -8.096   3.403 -18.333  1.00  0.00     0.173 A 
ATOM     87  C   UNL     1     -10.012   2.375 -17.306  1.00  0.00     0.173 A 
ATOM     88  F   UNL     1      -6.832   3.850 -18.282  1.00  0.00    -0.203 F 
ATOM     89  C   UNL     1      -8.816   3.571 -19.512  1.00  0.00     0.198 A 
ATOM     90  C   UNL     1     -10.719   2.515 -18.498  1.00  0.00     0.198 A 
ATOM     91  F   UNL     1     -10.617   1.798 -16.257  1.00  0.00    -0.203 F 
ATOM     92  F   UNL     1      -8.248   4.179 -20.562  1.00  0.00    -0.200 F 
ATOM     93  C   UNL     1     -10.126   3.123 -19.594  1.00  0.00     0.200 A 
ATOM     94  F   UNL     1     -11.977   2.061 -18.584  1.00  0.00    -0.200 F 
ATOM     95  F   UNL     1     -10.818   3.280 -20.731  1.00  0.00    -0.200 F 
ENDBRANCH  62  85
ENDBRANCH  36  37
ENDBRANCH  29  31
ENDBRANCH  28  29
ENDBRANCH  27  28
ENDBRANCH  26  27
ENDBRANCH  25  26
ENDBRANCH   1  25
TORSDOF 17
