REMARK SMILES CC(=O)N[C@@H](CSCc1ccnc2ccccc12)C(=O)OCCOCCOC(=O)c1ccc(-c2c3nc(c(-c4c(F)c(F)c(F)c(F)c4F)c4ccc([nH]4)c(-c4c(F)c(F)c(F)c(F)c4F)c4nc(c(-c5c(F)c(F)c(F)c(F)c5F)c5ccc2[nH]5)C=C4)C=C3)cc1
REMARK SMILES IDX 23 1 22 2 21 3 19 4 20 5 5 6 4 7 1 8 2 9 3 10 6 12 7 13 8 14
REMARK SMILES IDX 9 15 10 16 18 17 11 18 13 19 17 20 12 21 14 22 16 23 15 24
REMARK SMILES IDX 24 25 25 26 26 27 27 28 28 29 29 30 30 31 31 32 92 33 32 34
REMARK SMILES IDX 91 35 33 36 34 37 35 38 85 39 36 40 90 41 84 42 86 43 37 44
REMARK SMILES IDX 89 45 83 46 82 47 38 49 70 50 50 51 69 52 51 53 54 54 68 55
REMARK SMILES IDX 87 56 52 57 53 58 67 60 88 61 55 62 39 63 40 64 48 65 41 66
REMARK SMILES IDX 42 67 46 68 49 69 43 70 44 71 47 72 45 73 71 74 72 75 80 76
REMARK SMILES IDX 73 77 74 78 78 79 81 80 75 81 76 82 79 83 77 84 56 85 57 86
REMARK SMILES IDX 65 87 58 88 59 89 63 90 66 91 60 92 61 93 64 94 62 95
REMARK H PARENT 4 11 86 48 54 59
REMARK Flexibility Score: inf
ROOT
ATOM      1  C   UNL     1      -1.069   5.856  -0.736  1.00  0.00     0.202 C 
ENDROOT
BRANCH   1   2
ATOM      2  C   UNL     1       0.397   5.825  -1.170  1.00  0.00     0.261 C 
BRANCH   2   3
ATOM      3  O   UNL     1       0.783   4.496  -1.546  1.00  0.00    -0.462 OA
BRANCH   3   4
ATOM      4  C   UNL     1       2.006   4.089  -1.100  1.00  0.00     0.329 C 
ATOM      5  O   UNL     1       2.840   4.813  -0.570  1.00  0.00    -0.250 OA
BRANCH   4   6
ATOM      6  C   UNL     1       2.254   2.606  -1.406  1.00  0.00     0.202 C 
BRANCH   6   7
ATOM      7  N   UNL     1       1.031   1.861  -1.727  1.00  0.00    -0.342 N 
ATOM      8  C   UNL     1       1.321   0.087  -0.031  1.00  0.00     0.114 C 
ATOM      9  C   UNL     1       0.518   0.759  -1.110  1.00  0.00     0.217 C 
ATOM     10  O   UNL     1      -0.609   0.374  -1.415  1.00  0.00    -0.275 OA
ATOM     11  H   UNL     1       0.512   2.202  -2.490  1.00  0.00     0.164 HD
ENDBRANCH   6   7
BRANCH   6  12
ATOM     12  C   UNL     1       3.317   2.491  -2.504  1.00  0.00     0.106 C 
BRANCH  12  13
ATOM     13  S   UNL     1       2.925   3.326  -4.101  1.00  0.00    -0.154 SA
BRANCH  13  14
ATOM     14  C   UNL     1       1.884   2.081  -4.944  1.00  0.00     0.105 C 
BRANCH  14  15
ATOM     15  C   UNL     1       2.473   0.693  -5.040  1.00  0.00    -0.027 A 
ATOM     16  C   UNL     1       3.816   0.549  -5.418  1.00  0.00     0.025 A 
ATOM     17  C   UNL     1       1.704  -0.485  -4.814  1.00  0.00     0.004 A 
ATOM     18  C   UNL     1       4.369  -0.713  -5.467  1.00  0.00     0.112 A 
ATOM     19  C   UNL     1       2.379  -1.727  -4.899  1.00  0.00     0.070 A 
ATOM     20  C   UNL     1       0.317  -0.504  -4.519  1.00  0.00     0.010 A 
ATOM     21  N   UNL     1       3.682  -1.837  -5.199  1.00  0.00    -0.256 NA
ATOM     22  C   UNL     1       1.676  -2.902  -4.670  1.00  0.00     0.029 A 
ATOM     23  C   UNL     1      -0.368  -1.700  -4.298  1.00  0.00     0.001 A 
ATOM     24  C   UNL     1       0.314  -2.903  -4.371  1.00  0.00     0.002 A 
ENDBRANCH  14  15
ENDBRANCH  13  14
ENDBRANCH  12  13
ENDBRANCH   6  12
ENDBRANCH   4   6
ENDBRANCH   3   4
ENDBRANCH   2   3
ENDBRANCH   1   2
BRANCH   1  25
ATOM     25  O   UNL     1      -1.397   5.064   0.405  1.00  0.00    -0.374 OA
BRANCH  25  26
ATOM     26  C   UNL     1      -1.447   3.645   0.237  1.00  0.00     0.202 C 
BRANCH  26  27
ATOM     27  C   UNL     1      -2.631   3.088  -0.563  1.00  0.00     0.261 C 
BRANCH  27  28
ATOM     28  O   UNL     1      -2.604   3.481  -1.949  1.00  0.00    -0.460 OA
BRANCH  28  29
ATOM     29  C   UNL     1      -3.679   4.197  -2.354  1.00  0.00     0.338 C 
ATOM     30  O   UNL     1      -4.662   4.511  -1.694  1.00  0.00    -0.246 OA
BRANCH  29  31
ATOM     31  C   UNL     1      -3.463   4.721  -3.712  1.00  0.00     0.060 A 
ATOM     32  C   UNL     1      -3.448   6.112  -3.881  1.00  0.00     0.016 A 
ATOM     33  C   UNL     1      -3.401   3.869  -4.815  1.00  0.00     0.016 A 
ATOM     34  C   UNL     1      -3.403   6.658  -5.163  1.00  0.00     0.010 A 
ATOM     35  C   UNL     1      -3.367   4.420  -6.101  1.00  0.00     0.010 A 
ATOM     36  C   UNL     1      -3.397   5.815  -6.282  1.00  0.00    -0.014 A 
BRANCH  36  37
ATOM     37  C   UNL     1      -3.535   6.389  -7.642  1.00  0.00     0.031 A 
ATOM     38  C   UNL     1      -4.885   6.404  -8.302  1.00  0.00     0.074 A 
ATOM     39  C   UNL     1      -2.466   6.899  -8.278  1.00  0.00     0.049 A 
ATOM     40  N   UNL     1      -5.214   6.785  -9.510  1.00  0.00    -0.248 NA
ATOM     41  C   UNL     1      -6.015   5.927  -7.491  1.00  0.00     0.031 C 
ATOM     42  C   UNL     1      -1.118   6.987  -7.723  1.00  0.00     0.029 A 
ATOM     43  N   UNL     1      -2.349   7.428  -9.539  1.00  0.00    -0.354 N 
ATOM     44  C   UNL     1      -6.585   6.588  -9.607  1.00  0.00     0.074 A 
ATOM     45  C   UNL     1      -7.024   6.035  -8.344  1.00  0.00     0.031 C 
ATOM     46  C   UNL     1      -0.301   7.520  -8.648  1.00  0.00     0.029 A 
ATOM     47  C   UNL     1      -1.063   7.776  -9.869  1.00  0.00     0.049 A 
ATOM     48  H   UNL     1      -3.113   7.547 -10.148  1.00  0.00     0.167 HD
ATOM     49  C   UNL     1      -7.403   6.850 -10.655  1.00  0.00     0.037 A 
ATOM     50  C   UNL     1      -0.554   8.218 -11.036  1.00  0.00     0.037 A 
ATOM     51  C   UNL     1      -6.964   7.402 -11.910  1.00  0.00     0.049 A 
ATOM     52  C   UNL     1      -1.470   8.416 -12.215  1.00  0.00     0.074 A 
ATOM     53  C   UNL     1      -7.721   7.728 -13.022  1.00  0.00     0.029 A 
ATOM     54  N   UNL     1      -5.646   7.700 -12.222  1.00  0.00    -0.354 N 
ATOM     55  N   UNL     1      -2.767   8.247 -12.294  1.00  0.00    -0.248 NA
ATOM     56  C   UNL     1      -0.848   8.862 -13.471  1.00  0.00     0.031 C 
ATOM     57  C   UNL     1      -6.855   8.178 -14.024  1.00  0.00     0.029 A 
ATOM     58  C   UNL     1      -5.564   8.175 -13.521  1.00  0.00     0.049 A 
ATOM     59  H   UNL     1      -4.882   7.590 -11.611  1.00  0.00     0.167 HD
ATOM     60  C   UNL     1      -3.119   8.583 -13.594  1.00  0.00     0.074 A 
ATOM     61  C   UNL     1      -1.900   8.979 -14.268  1.00  0.00     0.031 C 
ATOM     62  C   UNL     1      -4.343   8.566 -14.178  1.00  0.00     0.037 A 
BRANCH  49  63
ATOM     63  C   UNL     1      -8.857   6.518 -10.500  1.00  0.00     0.064 A 
ATOM     64  C   UNL     1      -9.707   7.290  -9.694  1.00  0.00     0.173 A 
ATOM     65  C   UNL     1      -9.416   5.439 -11.201  1.00  0.00     0.173 A 
ATOM     66  F   UNL     1      -9.217   8.325  -8.995  1.00  0.00    -0.203 F 
ATOM     67  C   UNL     1     -11.059   6.980  -9.579  1.00  0.00     0.198 A 
ATOM     68  C   UNL     1     -10.774   5.147 -11.102  1.00  0.00     0.198 A 
ATOM     69  F   UNL     1      -8.647   4.673 -11.989  1.00  0.00    -0.203 F 
ATOM     70  F   UNL     1     -11.846   7.707  -8.773  1.00  0.00    -0.200 F 
ATOM     71  C   UNL     1     -11.593   5.913 -10.287  1.00  0.00     0.200 A 
ATOM     72  F   UNL     1     -11.289   4.123 -11.796  1.00  0.00    -0.200 F 
ATOM     73  F   UNL     1     -12.896   5.621 -10.181  1.00  0.00    -0.200 F 
ENDBRANCH  49  63
BRANCH  50  74
ATOM     74  C   UNL     1       0.904   8.476 -11.156  1.00  0.00     0.064 A 
ATOM     75  C   UNL     1       1.398   9.779 -11.303  1.00  0.00     0.173 A 
ATOM     76  C   UNL     1       1.830   7.423 -11.138  1.00  0.00     0.173 A 
ATOM     77  F   UNL     1       0.549  10.815 -11.354  1.00  0.00    -0.203 F 
ATOM     78  C   UNL     1       2.764  10.018 -11.441  1.00  0.00     0.198 A 
ATOM     79  C   UNL     1       3.197   7.665 -11.250  1.00  0.00     0.198 A 
ATOM     80  F   UNL     1       1.407   6.158 -11.004  1.00  0.00    -0.203 F 
ATOM     81  F   UNL     1       3.208  11.269 -11.623  1.00  0.00    -0.200 F 
ATOM     82  C   UNL     1       3.663   8.962 -11.408  1.00  0.00     0.200 A 
ATOM     83  F   UNL     1       4.062   6.643 -11.208  1.00  0.00    -0.200 F 
ATOM     84  F   UNL     1       4.976   9.193 -11.538  1.00  0.00    -0.200 F 
ENDBRANCH  50  74
BRANCH  62  85
ATOM     85  C   UNL     1      -4.432   9.008 -15.609  1.00  0.00     0.064 A 
ATOM     86  C   UNL     1      -3.976   8.195 -16.656  1.00  0.00     0.173 A 
ATOM     87  C   UNL     1      -5.030  10.233 -15.939  1.00  0.00     0.173 A 
ATOM     88  F   UNL     1      -3.382   7.022 -16.390  1.00  0.00    -0.203 F 
ATOM     89  C   UNL     1      -4.100   8.601 -17.982  1.00  0.00     0.198 A 
ATOM     90  C   UNL     1      -5.177  10.624 -17.267  1.00  0.00     0.198 A 
ATOM     91  F   UNL     1      -5.488  11.044 -14.973  1.00  0.00    -0.203 F 
ATOM     92  F   UNL     1      -3.624   7.825 -18.966  1.00  0.00    -0.200 F 
ATOM     93  C   UNL     1      -4.708   9.810 -18.287  1.00  0.00     0.200 A 
ATOM     94  F   UNL     1      -5.774  11.788 -17.560  1.00  0.00    -0.200 F 
ATOM     95  F   UNL     1      -4.836  10.194 -19.564  1.00  0.00    -0.200 F 
ENDBRANCH  62  85
ENDBRANCH  36  37
ENDBRANCH  29  31
ENDBRANCH  28  29
ENDBRANCH  27  28
ENDBRANCH  26  27
ENDBRANCH  25  26
ENDBRANCH   1  25
TORSDOF 19
