REMARK SMILES C[C@@H](NC(=O)NCCC(=O)NC1CC1)C(=O)OCCOCCOC(=O)c1ccc(-c2c3nc(c(-c4c(F)c(F)c(F)c(F)c4F)c4ccc([nH]4)c(-c4c(F)c(F)c(F)c(F)c4F)c4nc(c(-c5c(F)c(F)c(F)c(F)c5F)c5ccc2[nH]5)C=C4)C=C3)cc1
REMARK SMILES IDX 18 1 17 2 15 3 16 4 2 5 1 6 3 7 4 8 5 10 6 11 7 13 8 14 9 15
REMARK SMILES IDX 10 16 11 17 12 19 13 20 14 21 19 22 20 23 21 24 22 25 23 26
REMARK SMILES IDX 24 27 25 28 26 29 27 30 88 31 28 32 87 33 29 34 30 35 31 36
REMARK SMILES IDX 81 37 32 38 86 39 80 40 82 41 33 42 85 43 79 44 78 45 34 47
REMARK SMILES IDX 66 48 46 49 65 50 47 51 50 52 64 53 83 54 48 55 49 56 63 58
REMARK SMILES IDX 84 59 51 60 35 61 36 62 44 63 37 64 38 65 42 66 45 67 39 68
REMARK SMILES IDX 40 69 43 70 41 71 67 72 68 73 76 74 69 75 70 76 74 77 77 78
REMARK SMILES IDX 71 79 72 80 75 81 73 82 52 83 53 84 61 85 54 86 55 87 59 88
REMARK SMILES IDX 62 89 56 90 57 91 60 92 58 93
REMARK H PARENT 3 9 6 12 11 18 82 46 50 57
REMARK Flexibility Score: inf
ROOT
ATOM      1  C   UNL     1      -2.516   0.285   0.239  1.00  0.00     0.261 C 
ENDROOT
BRANCH   1   2
ATOM      2  O   UNL     1      -1.175  -0.018  -0.216  1.00  0.00    -0.462 OA
BRANCH   2   3
ATOM      3  C   UNL     1      -0.350  -0.875   0.436  1.00  0.00     0.328 C 
ATOM      4  O   UNL     1      -0.639  -2.020   0.764  1.00  0.00    -0.250 OA
BRANCH   3   5
ATOM      5  C   UNL     1       0.974  -0.209   0.829  1.00  0.00     0.190 C 
ATOM      6  C   UNL     1       1.463   0.806  -0.200  1.00  0.00     0.043 C 
BRANCH   5   7
ATOM      7  N   UNL     1       1.017   0.296   2.207  1.00  0.00    -0.325 N 
ATOM      8  C   UNL     1       0.069   1.127   2.697  1.00  0.00     0.315 C 
ATOM      9  H   UNL     1       1.759   0.022   2.793  1.00  0.00     0.166 HD
ATOM     10  O   UNL     1       0.269   2.332   2.801  1.00  0.00    -0.249 OA
ATOM     11  N   UNL     1      -1.079   0.581   3.160  1.00  0.00    -0.338 N 
ATOM     12  H   UNL     1      -1.790   1.229   3.371  1.00  0.00     0.165 HD
BRANCH  11  13
ATOM     13  C   UNL     1      -1.431  -0.819   3.398  1.00  0.00     0.127 C 
BRANCH  13  14
ATOM     14  C   UNL     1      -2.667  -1.105   4.248  1.00  0.00     0.121 C 
BRANCH  14  15
ATOM     15  C   UNL     1      -3.679   0.002   4.157  1.00  0.00     0.221 C 
ATOM     16  O   UNL     1      -4.548   0.024   3.286  1.00  0.00    -0.275 OA
ATOM     17  N   UNL     1      -3.545   1.057   5.020  1.00  0.00    -0.353 N 
ATOM     18  H   UNL     1      -4.089   1.851   4.812  1.00  0.00     0.163 HD
BRANCH  17  19
ATOM     19  C   UNL     1      -2.721   1.159   6.183  1.00  0.00     0.082 C 
ATOM     20  C   UNL     1      -1.249   0.862   6.290  1.00  0.00     0.027 C 
ATOM     21  C   UNL     1      -1.718   2.281   6.277  1.00  0.00     0.027 C 
ENDBRANCH  17  19
ENDBRANCH  14  15
ENDBRANCH  13  14
ENDBRANCH  11  13
ENDBRANCH   5   7
ENDBRANCH   3   5
ENDBRANCH   2   3
ENDBRANCH   1   2
BRANCH   1  22
ATOM     22  C   UNL     1      -3.639  -0.764   0.206  1.00  0.00     0.202 C 
BRANCH  22  23
ATOM     23  O   UNL     1      -3.916  -1.416  -1.027  1.00  0.00    -0.374 OA
BRANCH  23  24
ATOM     24  C   UNL     1      -2.859  -2.214  -1.538  1.00  0.00     0.202 C 
BRANCH  24  25
ATOM     25  C   UNL     1      -2.133  -1.532  -2.707  1.00  0.00     0.261 C 
BRANCH  25  26
ATOM     26  O   UNL     1      -2.342  -0.107  -2.752  1.00  0.00    -0.460 OA
BRANCH  26  27
ATOM     27  C   UNL     1      -3.556   0.266  -3.213  1.00  0.00     0.338 C 
ATOM     28  O   UNL     1      -4.389  -0.451  -3.770  1.00  0.00    -0.246 OA
BRANCH  27  29
ATOM     29  C   UNL     1      -3.823   1.677  -2.880  1.00  0.00     0.060 A 
ATOM     30  C   UNL     1      -5.032   2.002  -2.250  1.00  0.00     0.016 A 
ATOM     31  C   UNL     1      -2.935   2.686  -3.261  1.00  0.00     0.016 A 
ATOM     32  C   UNL     1      -5.391   3.340  -2.073  1.00  0.00     0.010 A 
ATOM     33  C   UNL     1      -3.302   4.027  -3.094  1.00  0.00     0.010 A 
ATOM     34  C   UNL     1      -4.553   4.360  -2.544  1.00  0.00    -0.014 A 
BRANCH  34  35
ATOM     35  C   UNL     1      -5.068   5.752  -2.640  1.00  0.00     0.031 A 
ATOM     36  C   UNL     1      -5.645   6.218  -3.951  1.00  0.00     0.074 A 
ATOM     37  C   UNL     1      -5.059   6.579  -1.580  1.00  0.00     0.049 A 
ATOM     38  N   UNL     1      -6.128   7.390  -4.282  1.00  0.00    -0.248 NA
ATOM     39  C   UNL     1      -5.685   5.225  -5.037  1.00  0.00     0.031 C 
ATOM     40  C   UNL     1      -4.573   6.237  -0.246  1.00  0.00     0.029 A 
ATOM     41  N   UNL     1      -5.471   7.886  -1.465  1.00  0.00    -0.354 N 
ATOM     42  C   UNL     1      -6.528   7.274  -5.607  1.00  0.00     0.074 A 
ATOM     43  C   UNL     1      -6.207   5.928  -6.031  1.00  0.00     0.031 C 
ATOM     44  C   UNL     1      -4.703   7.312   0.553  1.00  0.00     0.029 A 
ATOM     45  C   UNL     1      -5.251   8.425  -0.221  1.00  0.00     0.049 A 
ATOM     46  H   UNL     1      -5.884   8.387  -2.205  1.00  0.00     0.167 HD
ATOM     47  C   UNL     1      -7.116   8.203  -6.398  1.00  0.00     0.037 A 
ATOM     48  C   UNL     1      -5.448   9.680   0.230  1.00  0.00     0.037 A 
ATOM     49  C   UNL     1      -7.436   9.542  -5.979  1.00  0.00     0.049 A 
ATOM     50  C   UNL     1      -6.031  10.720  -0.697  1.00  0.00     0.074 A 
ATOM     51  C   UNL     1      -8.046  10.551  -6.704  1.00  0.00     0.029 A 
ATOM     52  N   UNL     1      -7.162  10.062  -4.723  1.00  0.00    -0.354 N 
ATOM     53  N   UNL     1      -6.430  10.595  -1.939  1.00  0.00    -0.248 NA
ATOM     54  C   UNL     1      -6.192  12.078  -0.154  1.00  0.00     0.031 C 
ATOM     55  C   UNL     1      -8.091  11.698  -5.905  1.00  0.00     0.029 A 
ATOM     56  C   UNL     1      -7.564  11.387  -4.663  1.00  0.00     0.049 A 
ATOM     57  H   UNL     1      -6.745   9.563  -3.983  1.00  0.00     0.167 HD
ATOM     58  C   UNL     1      -6.915  11.841  -2.315  1.00  0.00     0.074 A 
ATOM     59  C   UNL     1      -6.776  12.707  -1.164  1.00  0.00     0.031 C 
ATOM     60  C   UNL     1      -7.430  12.235  -3.506  1.00  0.00     0.037 A 
BRANCH  47  61
ATOM     61  C   UNL     1      -7.431   7.815  -7.814  1.00  0.00     0.064 A 
ATOM     62  C   UNL     1      -8.473   6.928  -8.123  1.00  0.00     0.173 A 
ATOM     63  C   UNL     1      -6.714   8.382  -8.879  1.00  0.00     0.173 A 
ATOM     64  F   UNL     1      -9.181   6.350  -7.141  1.00  0.00    -0.203 F 
ATOM     65  C   UNL     1      -8.773   6.609  -9.445  1.00  0.00     0.198 A 
ATOM     66  C   UNL     1      -7.036   8.083 -10.200  1.00  0.00     0.198 A 
ATOM     67  F   UNL     1      -5.712   9.241  -8.638  1.00  0.00    -0.203 F 
ATOM     68  F   UNL     1      -9.749   5.731  -9.716  1.00  0.00    -0.200 F 
ATOM     69  C   UNL     1      -8.061   7.193 -10.482  1.00  0.00     0.200 A 
ATOM     70  F   UNL     1      -6.355   8.660 -11.200  1.00  0.00    -0.200 F 
ATOM     71  F   UNL     1      -8.360   6.896 -11.754  1.00  0.00    -0.200 F 
ENDBRANCH  47  61
BRANCH  48  72
ATOM     72  C   UNL     1      -5.069  10.044   1.623  1.00  0.00     0.064 A 
ATOM     73  C   UNL     1      -6.036  10.413   2.569  1.00  0.00     0.173 A 
ATOM     74  C   UNL     1      -3.724  10.077   2.022  1.00  0.00     0.173 A 
ATOM     75  F   UNL     1      -7.333  10.429   2.230  1.00  0.00    -0.203 F 
ATOM     76  C   UNL     1      -5.671  10.824   3.850  1.00  0.00     0.198 A 
ATOM     77  C   UNL     1      -3.363  10.457   3.313  1.00  0.00     0.198 A 
ATOM     78  F   UNL     1      -2.757   9.743   1.154  1.00  0.00    -0.203 F 
ATOM     79  F   UNL     1      -6.611  11.229   4.715  1.00  0.00    -0.200 F 
ATOM     80  C   UNL     1      -4.335  10.840   4.223  1.00  0.00     0.200 A 
ATOM     81  F   UNL     1      -2.071  10.462   3.671  1.00  0.00    -0.200 F 
ATOM     82  F   UNL     1      -3.985  11.238   5.454  1.00  0.00    -0.200 F 
ENDBRANCH  48  72
BRANCH  60  83
ATOM     83  C   UNL     1      -7.920  13.651  -3.618  1.00  0.00     0.064 A 
ATOM     84  C   UNL     1      -7.034  14.739  -3.647  1.00  0.00     0.173 A 
ATOM     85  C   UNL     1      -9.292  13.919  -3.742  1.00  0.00     0.173 A 
ATOM     86  F   UNL     1      -5.714  14.538  -3.519  1.00  0.00    -0.203 F 
ATOM     87  C   UNL     1      -7.506  16.043  -3.768  1.00  0.00     0.198 A 
ATOM     88  C   UNL     1      -9.758  15.222  -3.897  1.00  0.00     0.198 A 
ATOM     89  F   UNL     1     -10.181  12.915  -3.730  1.00  0.00    -0.203 F 
ATOM     90  F   UNL     1      -6.646  17.070  -3.744  1.00  0.00    -0.200 F 
ATOM     91  C   UNL     1      -8.866  16.283  -3.901  1.00  0.00     0.200 A 
ATOM     92  F   UNL     1     -11.071  15.450  -4.041  1.00  0.00    -0.200 F 
ATOM     93  F   UNL     1      -9.317  17.539  -4.026  1.00  0.00    -0.200 F 
ENDBRANCH  60  83
ENDBRANCH  34  35
ENDBRANCH  27  29
ENDBRANCH  26  27
ENDBRANCH  25  26
ENDBRANCH  24  25
ENDBRANCH  23  24
ENDBRANCH  22  23
ENDBRANCH   1  22
TORSDOF 19
