REMARK SMILES CC[C@](C)(C(=O)OCCOCCOC(=O)c1ccc(-c2c3nc(c(-c4c(F)c(F)c(F)c(F)c4F)c4ccc([nH]4)c(-c4c(F)c(F)c(F)c(F)c4F)c4nc(c(-c5c(F)c(F)c(F)c(F)c5F)c5ccc2[nH]5)C=C4)C=C3)cc1)n1nnnc1-c1ccc(C)cc1C
REMARK SMILES IDX 10 1 9 2 8 3 7 4 5 5 6 6 3 7 4 8 2 9 1 10 79 11 80 12 83 13
REMARK SMILES IDX 81 14 82 15 84 16 85 17 90 18 86 19 89 20 91 21 87 22 88 23
REMARK SMILES IDX 11 24 12 25 13 26 14 27 15 28 16 29 17 30 78 31 18 32 77 33
REMARK SMILES IDX 19 34 20 35 21 36 71 37 22 38 76 39 70 40 72 41 23 42 75 43
REMARK SMILES IDX 69 44 68 45 24 47 56 48 36 49 55 50 37 51 40 52 54 53 73 54
REMARK SMILES IDX 38 55 39 56 53 58 74 59 41 60 25 61 26 62 34 63 27 64 28 65
REMARK SMILES IDX 32 66 35 67 29 68 30 69 33 70 31 71 57 72 58 73 66 74 59 75
REMARK SMILES IDX 60 76 64 77 67 78 61 79 62 80 65 81 63 82 42 83 43 84 51 85
REMARK SMILES IDX 44 86 45 87 49 88 52 89 46 90 47 91 50 92 48 93
REMARK H PARENT 72 46 40 57
REMARK Flexibility Score: inf
ROOT
ATOM      1  O   UNL     1       0.811   5.490   2.696  1.00  0.00    -0.374 OA
ENDROOT
BRANCH   1   2
ATOM      2  C   UNL     1      -0.475   5.811   2.185  1.00  0.00     0.202 C 
BRANCH   2   3
ATOM      3  C   UNL     1      -0.736   5.535   0.702  1.00  0.00     0.261 C 
BRANCH   3   4
ATOM      4  O   UNL     1      -0.432   4.190   0.295  1.00  0.00    -0.461 OA
BRANCH   4   5
ATOM      5  C   UNL     1       0.765   4.050  -0.363  1.00  0.00     0.334 C 
ATOM      6  O   UNL     1       1.516   5.000  -0.541  1.00  0.00    -0.249 OA
BRANCH   5   7
ATOM      7  C   UNL     1       0.938   2.627  -0.978  1.00  0.00     0.161 C 
ATOM      8  C   UNL     1       0.104   1.605  -0.173  1.00  0.00     0.050 C 
BRANCH   7   9
ATOM      9  C   UNL     1       0.323   2.827  -2.396  1.00  0.00     0.039 C 
ATOM     10  C   UNL     1       0.374   1.652  -3.349  1.00  0.00     0.007 C 
ENDBRANCH   7   9
BRANCH   7  11
ATOM     11  N   UNL     1       2.369   2.278  -1.012  1.00  0.00    -0.208 N 
ATOM     12  N   UNL     1       3.264   3.211  -1.411  1.00  0.00    -0.044 NA
ATOM     13  C   UNL     1       3.091   1.143  -0.653  1.00  0.00     0.183 A 
ATOM     14  N   UNL     1       4.453   2.763  -1.056  1.00  0.00    -0.023 NA
ATOM     15  N   UNL     1       4.365   1.490  -0.586  1.00  0.00    -0.108 NA
BRANCH  13  16
ATOM     16  C   UNL     1       2.649  -0.237  -0.468  1.00  0.00     0.024 A 
ATOM     17  C   UNL     1       2.608  -0.773   0.830  1.00  0.00     0.012 A 
ATOM     18  C   UNL     1       2.434  -1.102  -1.560  1.00  0.00    -0.040 A 
ATOM     19  C   UNL     1       2.281  -2.117   1.046  1.00  0.00     0.004 A 
ATOM     20  C   UNL     1       2.052  -2.436  -1.325  1.00  0.00     0.007 A 
ATOM     21  C   UNL     1       2.702  -0.723  -2.991  1.00  0.00     0.045 C 
ATOM     22  C   UNL     1       1.965  -2.950  -0.028  1.00  0.00    -0.051 A 
ATOM     23  C   UNL     1       1.655  -4.404   0.179  1.00  0.00     0.044 C 
ENDBRANCH  13  16
ENDBRANCH   7  11
ENDBRANCH   5   7
ENDBRANCH   4   5
ENDBRANCH   3   4
ENDBRANCH   2   3
ENDBRANCH   1   2
BRANCH   1  24
ATOM     24  C   UNL     1       1.120   4.120   2.946  1.00  0.00     0.202 C 
BRANCH  24  25
ATOM     25  C   UNL     1       0.355   3.436   4.084  1.00  0.00     0.261 C 
BRANCH  25  26
ATOM     26  O   UNL     1      -1.034   3.236   3.752  1.00  0.00    -0.460 OA
BRANCH  26  27
ATOM     27  C   UNL     1      -1.906   3.799   4.625  1.00  0.00     0.338 C 
ATOM     28  O   UNL     1      -1.646   4.366   5.672  1.00  0.00    -0.246 OA
BRANCH  27  29
ATOM     29  C   UNL     1      -3.269   3.797   4.063  1.00  0.00     0.060 A 
ATOM     30  C   UNL     1      -3.913   5.034   3.927  1.00  0.00     0.016 A 
ATOM     31  C   UNL     1      -3.952   2.607   3.808  1.00  0.00     0.016 A 
ATOM     32  C   UNL     1      -5.264   5.083   3.592  1.00  0.00     0.010 A 
ATOM     33  C   UNL     1      -5.312   2.658   3.483  1.00  0.00     0.010 A 
ATOM     34  C   UNL     1      -5.983   3.893   3.417  1.00  0.00    -0.014 A 
BRANCH  34  35
ATOM     35  C   UNL     1      -7.463   3.947   3.338  1.00  0.00     0.031 A 
ATOM     36  C   UNL     1      -8.268   3.710   4.588  1.00  0.00     0.074 A 
ATOM     37  C   UNL     1      -8.083   4.247   2.184  1.00  0.00     0.049 A 
ATOM     38  N   UNL     1      -9.566   3.698   4.751  1.00  0.00    -0.248 NA
ATOM     39  C   UNL     1      -7.503   3.454   5.819  1.00  0.00     0.031 C 
ATOM     40  C   UNL     1      -7.415   4.539   0.919  1.00  0.00     0.029 A 
ATOM     41  N   UNL     1      -9.420   4.352   1.894  1.00  0.00    -0.354 N 
ATOM     42  C   UNL     1      -9.774   3.435   6.099  1.00  0.00     0.074 A 
ATOM     43  C   UNL     1      -8.471   3.263   6.704  1.00  0.00     0.031 C 
ATOM     44  C   UNL     1      -8.346   4.780  -0.019  1.00  0.00     0.029 A 
ATOM     45  C   UNL     1      -9.675   4.634   0.575  1.00  0.00     0.049 A 
ATOM     46  H   UNL     1     -10.129   4.236   2.567  1.00  0.00     0.167 HD
ATOM     47  C   UNL     1     -10.945   3.355   6.774  1.00  0.00     0.037 A 
ATOM     48  C   UNL     1     -10.847   4.743  -0.079  1.00  0.00     0.037 A 
ATOM     49  C   UNL     1     -12.242   3.526   6.175  1.00  0.00     0.049 A 
ATOM     50  C   UNL     1     -12.138   4.581   0.680  1.00  0.00     0.074 A 
ATOM     51  C   UNL     1     -13.487   3.475   6.778  1.00  0.00     0.029 A 
ATOM     52  N   UNL     1     -12.460   3.776   4.828  1.00  0.00    -0.354 N 
ATOM     53  N   UNL     1     -12.325   4.351   1.957  1.00  0.00    -0.248 NA
ATOM     54  C   UNL     1     -13.382   4.698  -0.095  1.00  0.00     0.031 C 
ATOM     55  C   UNL     1     -14.460   3.651   5.788  1.00  0.00     0.029 A 
ATOM     56  C   UNL     1     -13.820   3.857   4.577  1.00  0.00     0.049 A 
ATOM     57  H   UNL     1     -11.753   3.880   4.151  1.00  0.00     0.167 HD
ATOM     58  C   UNL     1     -13.701   4.319   2.143  1.00  0.00     0.074 A 
ATOM     59  C   UNL     1     -14.303   4.566   0.850  1.00  0.00     0.031 C 
ATOM     60  C   UNL     1     -14.403   4.107   3.283  1.00  0.00     0.037 A 
BRANCH  47  61
ATOM     61  C   UNL     1     -10.876   3.046   8.240  1.00  0.00     0.064 A 
ATOM     62  C   UNL     1     -10.438   3.997   9.172  1.00  0.00     0.173 A 
ATOM     63  C   UNL     1     -11.281   1.791   8.721  1.00  0.00     0.173 A 
ATOM     64  F   UNL     1     -10.026   5.206   8.760  1.00  0.00    -0.203 F 
ATOM     65  C   UNL     1     -10.384   3.696  10.531  1.00  0.00     0.198 A 
ATOM     66  C   UNL     1     -11.250   1.503  10.083  1.00  0.00     0.198 A 
ATOM     67  F   UNL     1     -11.711   0.848   7.870  1.00  0.00    -0.203 F 
ATOM     68  F   UNL     1      -9.921   4.606  11.400  1.00  0.00    -0.200 F 
ATOM     69  C   UNL     1     -10.796   2.452  10.986  1.00  0.00     0.200 A 
ATOM     70  F   UNL     1     -11.657   0.303  10.521  1.00  0.00    -0.200 F 
ATOM     71  F   UNL     1     -10.748   2.165  12.294  1.00  0.00    -0.200 F 
ENDBRANCH  47  61
BRANCH  48  72
ATOM     72  C   UNL     1     -10.854   5.009  -1.540  1.00  0.00     0.064 A 
ATOM     73  C   UNL     1     -11.291   6.238  -2.051  1.00  0.00     0.173 A 
ATOM     74  C   UNL     1     -10.432   4.033  -2.455  1.00  0.00     0.173 A 
ATOM     75  F   UNL     1     -11.728   7.193  -1.217  1.00  0.00    -0.203 F 
ATOM     76  C   UNL     1     -11.318   6.476  -3.424  1.00  0.00     0.198 A 
ATOM     77  C   UNL     1     -10.436   4.281  -3.825  1.00  0.00     0.198 A 
ATOM     78  F   UNL     1     -10.008   2.839  -2.015  1.00  0.00    -0.203 F 
ATOM     79  F   UNL     1     -11.778   7.646  -3.890  1.00  0.00    -0.200 F 
ATOM     80  C   UNL     1     -10.885   5.500  -4.309  1.00  0.00     0.200 A 
ATOM     81  F   UNL     1     -10.006   3.339  -4.676  1.00  0.00    -0.200 F 
ATOM     82  F   UNL     1     -10.906   5.732  -5.629  1.00  0.00    -0.200 F 
ENDBRANCH  48  72
BRANCH  60  83
ATOM     83  C   UNL     1     -15.900   4.157   3.192  1.00  0.00     0.064 A 
ATOM     84  C   UNL     1     -16.634   3.123   2.594  1.00  0.00     0.173 A 
ATOM     85  C   UNL     1     -16.610   5.232   3.748  1.00  0.00     0.173 A 
ATOM     86  F   UNL     1     -16.000   2.081   2.035  1.00  0.00    -0.203 F 
ATOM     87  C   UNL     1     -18.024   3.173   2.537  1.00  0.00     0.198 A 
ATOM     88  C   UNL     1     -18.001   5.266   3.713  1.00  0.00     0.198 A 
ATOM     89  F   UNL     1     -15.954   6.243   4.337  1.00  0.00    -0.203 F 
ATOM     90  F   UNL     1     -18.704   2.194   1.925  1.00  0.00    -0.200 F 
ATOM     91  C   UNL     1     -18.707   4.240   3.103  1.00  0.00     0.200 A 
ATOM     92  F   UNL     1     -18.659   6.292   4.270  1.00  0.00    -0.200 F 
ATOM     93  F   UNL     1     -20.045   4.283   3.053  1.00  0.00    -0.200 F 
ENDBRANCH  60  83
ENDBRANCH  34  35
ENDBRANCH  27  29
ENDBRANCH  26  27
ENDBRANCH  25  26
ENDBRANCH  24  25
ENDBRANCH   1  24
TORSDOF 17
