REMARK SMILES CCn1ncc(NC(=O)[C@@H]2CCCC[C@@H]2C(=O)OCCOCCOC(=O)c2ccc(-c3c4nc(c(-c5c(F)c(F)c(F)c(F)c5F)c5ccc([nH]5)c(-c5c(F)c(F)c(F)c(F)c5F)c5nc(c(-c6c(F)c(F)c(F)c(F)c6F)c6ccc3[nH]6)C=C5)C=C4)cc2)c1C(=O)Nc1cnn(C)c1C
REMARK SMILES IDX 20 1 19 2 18 3 16 4 17 5 15 6 10 7 11 8 12 9 14 10 13 11
REMARK SMILES IDX 8 12 7 13 9 15 6 16 3 17 4 18 90 19 5 20 2 21 1 22 91 23
REMARK SMILES IDX 92 24 93 25 94 27 95 28 99 29 96 30 97 31 100 32 98 33 21 34
REMARK SMILES IDX 22 35 23 36 24 37 25 38 26 39 27 40 28 41 89 42 29 43 88 44
REMARK SMILES IDX 30 45 31 46 32 47 82 48 33 49 87 50 81 51 83 52 34 53 86 54
REMARK SMILES IDX 80 55 79 56 35 58 67 59 47 60 66 61 48 62 51 63 65 64 84 65
REMARK SMILES IDX 49 66 50 67 64 69 85 70 52 71 36 72 37 73 45 74 38 75 39 76
REMARK SMILES IDX 43 77 46 78 40 79 41 80 44 81 42 82 68 83 69 84 77 85 70 86
REMARK SMILES IDX 71 87 75 88 78 89 72 90 73 91 76 92 74 93 53 94 54 95 62 96
REMARK SMILES IDX 55 97 56 98 60 99 63 100 57 101 58 102 61 103 59 104
REMARK H PARENT 7 14 93 26 83 57 51 68
REMARK Flexibility Score: inf
ROOT
ATOM      1  C   UNL     1      -4.467  -6.253   3.495  1.00  0.00     0.202 C 
ENDROOT
BRANCH   1   2
ATOM      2  C   UNL     1      -4.834  -6.359   2.008  1.00  0.00     0.261 C 
BRANCH   2   3
ATOM      3  O   UNL     1      -3.844  -6.997   1.185  1.00  0.00    -0.463 OA
BRANCH   3   4
ATOM      4  C   UNL     1      -2.997  -6.096   0.630  1.00  0.00     0.309 C 
ATOM      5  O   UNL     1      -3.131  -4.891   0.804  1.00  0.00    -0.252 OA
BRANCH   4   6
ATOM      6  C   UNL     1      -1.924  -6.740  -0.265  1.00  0.00     0.111 C 
ATOM      7  C   UNL     1      -0.577  -5.941  -0.326  1.00  0.00     0.093 C 
ATOM      8  C   UNL     1      -0.922  -4.501  -0.562  1.00  0.00     0.014 C 
ATOM      9  C   UNL     1      -1.770  -4.283  -1.803  1.00  0.00     0.001 C 
ATOM     10  C   UNL     1      -2.514  -6.727  -1.688  1.00  0.00     0.016 C 
ATOM     11  C   UNL     1      -2.848  -5.303  -2.135  1.00  0.00     0.001 C 
BRANCH   7  12
ATOM     12  C   UNL     1       0.455  -6.289   0.755  1.00  0.00     0.228 C 
ATOM     13  N   UNL     1       1.363  -5.460   1.345  1.00  0.00    -0.322 N 
ATOM     14  H   UNL     1       1.963  -5.948   1.954  1.00  0.00     0.170 HD
ATOM     15  O   UNL     1       0.501  -7.468   1.143  1.00  0.00    -0.274 OA
BRANCH  13  16
ATOM     16  C   UNL     1       1.658  -4.101   1.306  1.00  0.00     0.092 A 
ATOM     17  N   UNL     1       1.599  -1.964   1.003  1.00  0.00    -0.258 N 
ATOM     18  N   UNL     1       2.076  -2.076   2.266  1.00  0.00    -0.178 NA
ATOM     19  C   UNL     1       1.779  -3.140   0.287  1.00  0.00     0.150 A 
ATOM     20  C   UNL     1       2.035  -3.389   2.474  1.00  0.00     0.162 A 
BRANCH  17  21
ATOM     21  C   UNL     1       0.561  -0.959   0.821  1.00  0.00     0.142 C 
ATOM     22  C   UNL     1       1.093   0.461   0.870  1.00  0.00     0.029 C 
ENDBRANCH  17  21
BRANCH  19  23
ATOM     23  C   UNL     1       2.012  -3.368  -1.148  1.00  0.00     0.276 C 
ATOM     24  O   UNL     1       2.617  -4.375  -1.525  1.00  0.00    -0.267 OA
ATOM     25  N   UNL     1       1.286  -2.699  -2.127  1.00  0.00    -0.318 N 
ATOM     26  H   UNL     1       0.848  -3.287  -2.784  1.00  0.00     0.170 HD
BRANCH  25  27
ATOM     27  C   UNL     1       1.077  -1.357  -2.331  1.00  0.00     0.082 A 
ATOM     28  C   UNL     1       1.990  -0.301  -2.182  1.00  0.00     0.161 A 
ATOM     29  C   UNL     1      -0.081  -0.766  -2.819  1.00  0.00     0.059 A 
ATOM     30  N   UNL     1       1.435   0.884  -2.439  1.00  0.00    -0.179 NA
ATOM     31  N   UNL     1       0.159   0.586  -2.743  1.00  0.00    -0.271 N 
ATOM     32  C   UNL     1      -1.416  -1.292  -3.202  1.00  0.00     0.068 C 
ATOM     33  C   UNL     1      -0.801   1.666  -2.817  1.00  0.00     0.174 C 
ENDBRANCH  25  27
ENDBRANCH  19  23
ENDBRANCH  13  16
ENDBRANCH   7  12
ENDBRANCH   4   6
ENDBRANCH   3   4
ENDBRANCH   2   3
ENDBRANCH   1   2
BRANCH   1  34
ATOM     34  O   UNL     1      -3.208  -5.751   3.927  1.00  0.00    -0.374 OA
BRANCH  34  35
ATOM     35  C   UNL     1      -1.968  -6.314   3.526  1.00  0.00     0.202 C 
BRANCH  35  36
ATOM     36  C   UNL     1      -1.702  -7.810   3.604  1.00  0.00     0.261 C 
BRANCH  36  37
ATOM     37  O   UNL     1      -2.736  -8.617   3.078  1.00  0.00    -0.460 OA
BRANCH  37  38
ATOM     38  C   UNL     1      -3.465  -9.195   4.053  1.00  0.00     0.338 C 
ATOM     39  O   UNL     1      -3.587  -8.823   5.206  1.00  0.00    -0.246 OA
BRANCH  38  40
ATOM     40  C   UNL     1      -3.941 -10.490   3.582  1.00  0.00     0.060 A 
ATOM     41  C   UNL     1      -4.770 -11.174   4.469  1.00  0.00     0.016 A 
ATOM     42  C   UNL     1      -3.328 -11.113   2.482  1.00  0.00     0.016 A 
ATOM     43  C   UNL     1      -4.833 -12.538   4.363  1.00  0.00     0.010 A 
ATOM     44  C   UNL     1      -3.393 -12.481   2.378  1.00  0.00     0.010 A 
ATOM     45  C   UNL     1      -4.092 -13.177   3.358  1.00  0.00    -0.014 A 
BRANCH  45  46
ATOM     46  C   UNL     1      -4.255 -14.608   3.260  1.00  0.00     0.031 A 
ATOM     47  C   UNL     1      -5.615 -14.949   2.802  1.00  0.00     0.074 A 
ATOM     48  C   UNL     1      -3.282 -15.494   3.531  1.00  0.00     0.049 A 
ATOM     49  N   UNL     1      -6.561 -15.457   3.514  1.00  0.00    -0.248 NA
ATOM     50  C   UNL     1      -6.044 -14.471   1.478  1.00  0.00     0.031 C 
ATOM     51  C   UNL     1      -1.858 -15.215   3.722  1.00  0.00     0.029 A 
ATOM     52  N   UNL     1      -3.350 -16.853   3.600  1.00  0.00    -0.354 N 
ATOM     53  C   UNL     1      -7.635 -15.594   2.646  1.00  0.00     0.074 A 
ATOM     54  C   UNL     1      -7.341 -14.784   1.496  1.00  0.00     0.031 C 
ATOM     55  C   UNL     1      -1.170 -16.378   3.657  1.00  0.00     0.029 A 
ATOM     56  C   UNL     1      -2.113 -17.480   3.558  1.00  0.00     0.049 A 
ATOM     57  H   UNL     1      -4.200 -17.346   3.673  1.00  0.00     0.167 HD
ATOM     58  C   UNL     1      -8.475 -16.650   2.801  1.00  0.00     0.037 A 
ATOM     59  C   UNL     1      -1.893 -18.808   3.397  1.00  0.00     0.037 A 
ATOM     60  C   UNL     1      -8.346 -17.210   4.125  1.00  0.00     0.049 A 
ATOM     61  C   UNL     1      -3.130 -19.526   3.785  1.00  0.00     0.074 A 
ATOM     62  C   UNL     1      -8.729 -16.867   5.402  1.00  0.00     0.029 A 
ATOM     63  N   UNL     1      -7.336 -18.127   4.237  1.00  0.00    -0.354 N 
ATOM     64  N   UNL     1      -3.550 -19.618   5.015  1.00  0.00    -0.248 NA
ATOM     65  C   UNL     1      -4.110 -19.882   2.764  1.00  0.00     0.031 C 
ATOM     66  C   UNL     1      -7.827 -17.534   6.287  1.00  0.00     0.029 A 
ATOM     67  C   UNL     1      -6.936 -18.293   5.533  1.00  0.00     0.049 A 
ATOM     68  H   UNL     1      -6.944 -18.610   3.473  1.00  0.00     0.167 HD
ATOM     69  C   UNL     1      -4.925 -19.596   4.903  1.00  0.00     0.074 A 
ATOM     70  C   UNL     1      -5.206 -19.961   3.522  1.00  0.00     0.031 C 
ATOM     71  C   UNL     1      -5.681 -18.944   5.832  1.00  0.00     0.037 A 
BRANCH  58  72
ATOM     72  C   UNL     1      -8.947 -17.508   1.644  1.00  0.00     0.064 A 
ATOM     73  C   UNL     1      -9.847 -18.558   1.914  1.00  0.00     0.173 A 
ATOM     74  C   UNL     1      -8.313 -17.566   0.381  1.00  0.00     0.173 A 
ATOM     75  F   UNL     1     -10.487 -18.622   3.091  1.00  0.00    -0.203 F 
ATOM     76  C   UNL     1     -10.036 -19.618   1.021  1.00  0.00     0.198 A 
ATOM     77  C   UNL     1      -8.543 -18.597  -0.527  1.00  0.00     0.198 A 
ATOM     78  F   UNL     1      -7.360 -16.705   0.011  1.00  0.00    -0.203 F 
ATOM     79  F   UNL     1     -10.805 -20.656   1.374  1.00  0.00    -0.200 F 
ATOM     80  C   UNL     1      -9.379 -19.638  -0.196  1.00  0.00     0.200 A 
ATOM     81  F   UNL     1      -7.873 -18.610  -1.688  1.00  0.00    -0.200 F 
ATOM     82  F   UNL     1      -9.510 -20.680  -1.026  1.00  0.00    -0.200 F 
ENDBRANCH  58  72
BRANCH  59  83
ATOM     83  C   UNL     1      -0.763 -19.505   2.743  1.00  0.00     0.064 A 
ATOM     84  C   UNL     1      -0.554 -20.880   2.946  1.00  0.00     0.173 A 
ATOM     85  C   UNL     1      -0.052 -18.911   1.685  1.00  0.00     0.173 A 
ATOM     86  F   UNL     1      -1.217 -21.530   3.913  1.00  0.00    -0.203 F 
ATOM     87  C   UNL     1       0.278 -21.626   2.106  1.00  0.00     0.198 A 
ATOM     88  C   UNL     1       0.786 -19.655   0.853  1.00  0.00     0.198 A 
ATOM     89  F   UNL     1      -0.233 -17.620   1.373  1.00  0.00    -0.203 F 
ATOM     90  F   UNL     1       0.389 -22.950   2.282  1.00  0.00    -0.200 F 
ATOM     91  C   UNL     1       0.935 -21.016   1.052  1.00  0.00     0.200 A 
ATOM     92  F   UNL     1       1.391 -19.060  -0.184  1.00  0.00    -0.200 F 
ATOM     93  F   UNL     1       1.673 -21.743   0.202  1.00  0.00    -0.200 F 
ENDBRANCH  59  83
BRANCH  71  94
ATOM     94  C   UNL     1      -5.090 -18.792   7.199  1.00  0.00     0.064 A 
ATOM     95  C   UNL     1      -3.927 -18.061   7.491  1.00  0.00     0.173 A 
ATOM     96  C   UNL     1      -5.753 -19.412   8.266  1.00  0.00     0.173 A 
ATOM     97  F   UNL     1      -3.287 -17.369   6.538  1.00  0.00    -0.203 F 
ATOM     98  C   UNL     1      -3.418 -18.014   8.789  1.00  0.00     0.198 A 
ATOM     99  C   UNL     1      -5.267 -19.327   9.566  1.00  0.00     0.198 A 
ATOM    100  F   UNL     1      -6.891 -20.091   8.049  1.00  0.00    -0.203 F 
ATOM    101  F   UNL     1      -2.282 -17.348   9.041  1.00  0.00    -0.200 F 
ATOM    102  C   UNL     1      -4.090 -18.645   9.824  1.00  0.00     0.200 A 
ATOM    103  F   UNL     1      -5.945 -19.903  10.568  1.00  0.00    -0.200 F 
ATOM    104  F   UNL     1      -3.613 -18.583  11.075  1.00  0.00    -0.200 F 
ENDBRANCH  71  94
ENDBRANCH  45  46
ENDBRANCH  38  40
ENDBRANCH  37  38
ENDBRANCH  36  37
ENDBRANCH  35  36
ENDBRANCH  34  35
ENDBRANCH   1  34
TORSDOF 19
