REMARK SMILES O=C(OCCOCCOC(=O)c1cccc(S(=O)(=O)NC[C@@H]2CCOC2)c1)c1ccc(-c2c3nc(c(-c4c(F)c(F)c(F)c(F)c4F)c4ccc([nH]4)c(-c4c(F)c(F)c(F)c(F)c4F)c4nc(c(-c5c(F)c(F)c(F)c(F)c5F)c5ccc2[nH]5)C=C4)C=C3)cc1
REMARK SMILES IDX 7 1 6 2 5 3 4 4 3 5 2 6 1 7 28 8 29 9 90 10 30 11 89 12
REMARK SMILES IDX 31 13 32 14 33 15 83 16 34 17 88 18 82 19 84 20 35 21 87 22
REMARK SMILES IDX 81 23 80 24 36 26 68 27 48 28 67 29 49 30 52 31 66 32 85 33
REMARK SMILES IDX 50 34 51 35 65 37 86 38 53 39 37 40 38 41 46 42 39 43 40 44
REMARK SMILES IDX 44 45 47 46 41 47 42 48 45 49 43 50 69 51 70 52 78 53 71 54
REMARK SMILES IDX 72 55 76 56 79 57 73 58 74 59 77 60 75 61 54 62 55 63 63 64
REMARK SMILES IDX 56 65 57 66 61 67 64 68 58 69 59 70 62 71 60 72 8 73 9 74
REMARK SMILES IDX 10 75 11 76 12 77 13 78 27 79 14 80 16 81 15 82 17 83 18 84
REMARK SMILES IDX 19 85 20 86 21 88 22 89 23 90 26 91 24 92 25 93
REMARK H PARENT 84 25 52 36 20 87
REMARK Flexibility Score: inf
ROOT
ATOM      1  C   UNL     1       2.563   0.712  -1.870  1.00  0.00     0.202 C 
ENDROOT
BRANCH   1   2
ATOM      2  O   UNL     1       3.818   0.260  -1.349  1.00  0.00    -0.374 OA
BRANCH   2   3
ATOM      3  C   UNL     1       3.958  -1.151  -1.183  1.00  0.00     0.202 C 
BRANCH   3   4
ATOM      4  C   UNL     1       3.696  -1.595   0.255  1.00  0.00     0.261 C 
BRANCH   4   5
ATOM      5  O   UNL     1       2.357  -1.244   0.641  1.00  0.00    -0.460 OA
BRANCH   5   6
ATOM      6  C   UNL     1       1.918  -0.098   1.209  1.00  0.00     0.338 C 
ATOM      7  O   UNL     1       0.704   0.095   1.268  1.00  0.00    -0.246 OA
BRANCH   6   8
ATOM      8  C   UNL     1       2.808   0.929   1.837  1.00  0.00     0.060 A 
ATOM      9  C   UNL     1       4.106   1.250   1.433  1.00  0.00     0.016 A 
ATOM     10  C   UNL     1       2.241   1.687   2.879  1.00  0.00     0.016 A 
ATOM     11  C   UNL     1       4.843   2.240   2.075  1.00  0.00     0.010 A 
ATOM     12  C   UNL     1       2.965   2.699   3.516  1.00  0.00     0.010 A 
ATOM     13  C   UNL     1       4.282   2.956   3.130  1.00  0.00    -0.014 A 
BRANCH  13  14
ATOM     14  C   UNL     1       5.156   3.867   3.890  1.00  0.00     0.031 A 
ATOM     15  C   UNL     1       5.766   3.366   5.163  1.00  0.00     0.074 A 
ATOM     16  C   UNL     1       5.500   5.056   3.368  1.00  0.00     0.049 A 
ATOM     17  N   UNL     1       6.610   3.956   5.966  1.00  0.00    -0.248 NA
ATOM     18  C   UNL     1       5.387   2.005   5.577  1.00  0.00     0.031 C 
ATOM     19  C   UNL     1       5.029   5.579   2.085  1.00  0.00     0.029 A 
ATOM     20  N   UNL     1       6.357   6.019   3.830  1.00  0.00    -0.354 N 
ATOM     21  C   UNL     1       6.852   3.046   6.985  1.00  0.00     0.074 A 
ATOM     22  C   UNL     1       6.064   1.866   6.705  1.00  0.00     0.031 C 
ATOM     23  C   UNL     1       5.632   6.756   1.846  1.00  0.00     0.029 A 
ATOM     24  C   UNL     1       6.498   7.083   2.975  1.00  0.00     0.049 A 
ATOM     25  H   UNL     1       6.827   5.954   4.693  1.00  0.00     0.167 HD
ATOM     26  C   UNL     1       7.659   3.189   8.061  1.00  0.00     0.037 A 
ATOM     27  C   UNL     1       7.247   8.195   3.102  1.00  0.00     0.037 A 
ATOM     28  C   UNL     1       8.427   4.372   8.329  1.00  0.00     0.049 A 
ATOM     29  C   UNL     1       8.092   8.353   4.338  1.00  0.00     0.074 A 
ATOM     30  C   UNL     1       9.213   4.668   9.426  1.00  0.00     0.029 A 
ATOM     31  N   UNL     1       8.503   5.461   7.471  1.00  0.00    -0.354 N 
ATOM     32  N   UNL     1       8.272   7.513   5.329  1.00  0.00    -0.248 NA
ATOM     33  C   UNL     1       8.829   9.615   4.478  1.00  0.00     0.031 C 
ATOM     34  C   UNL     1       9.746   5.950   9.243  1.00  0.00     0.029 A 
ATOM     35  C   UNL     1       9.318   6.436   8.017  1.00  0.00     0.049 A 
ATOM     36  H   UNL     1       8.045   5.529   6.602  1.00  0.00     0.167 HD
ATOM     37  C   UNL     1       9.151   8.135   6.203  1.00  0.00     0.074 A 
ATOM     38  C   UNL     1       9.483   9.418   5.614  1.00  0.00     0.031 C 
ATOM     39  C   UNL     1       9.634   7.695   7.391  1.00  0.00     0.037 A 
BRANCH  26  40
ATOM     40  C   UNL     1       7.683   2.057   9.040  1.00  0.00     0.064 A 
ATOM     41  C   UNL     1       8.366   0.863   8.769  1.00  0.00     0.173 A 
ATOM     42  C   UNL     1       6.970   2.151  10.244  1.00  0.00     0.173 A 
ATOM     43  F   UNL     1       9.034   0.714   7.615  1.00  0.00    -0.203 F 
ATOM     44  C   UNL     1       8.313  -0.207   9.659  1.00  0.00     0.198 A 
ATOM     45  C   UNL     1       6.935   1.086  11.139  1.00  0.00     0.198 A 
ATOM     46  F   UNL     1       6.290   3.268  10.540  1.00  0.00    -0.203 F 
ATOM     47  F   UNL     1       8.927  -1.360   9.356  1.00  0.00    -0.200 F 
ATOM     48  C   UNL     1       7.599  -0.094  10.843  1.00  0.00     0.200 A 
ATOM     49  F   UNL     1       6.241   1.196  12.281  1.00  0.00    -0.200 F 
ATOM     50  F   UNL     1       7.536  -1.131  11.691  1.00  0.00    -0.200 F 
ENDBRANCH  26  40
BRANCH  27  51
ATOM     51  C   UNL     1       7.229   9.233   2.040  1.00  0.00     0.064 A 
ATOM     52  C   UNL     1       8.360   9.479   1.250  1.00  0.00     0.173 A 
ATOM     53  C   UNL     1       6.081  10.001   1.791  1.00  0.00     0.173 A 
ATOM     54  F   UNL     1       9.490   8.789   1.464  1.00  0.00    -0.203 F 
ATOM     55  C   UNL     1       8.348  10.461   0.260  1.00  0.00     0.198 A 
ATOM     56  C   UNL     1       6.062  10.964   0.784  1.00  0.00     0.198 A 
ATOM     57  F   UNL     1       4.973   9.808   2.520  1.00  0.00    -0.203 F 
ATOM     58  F   UNL     1       9.455  10.702  -0.455  1.00  0.00    -0.200 F 
ATOM     59  C   UNL     1       7.197  11.197   0.023  1.00  0.00     0.200 A 
ATOM     60  F   UNL     1       4.944  11.666   0.553  1.00  0.00    -0.200 F 
ATOM     61  F   UNL     1       7.184  12.137  -0.932  1.00  0.00    -0.200 F 
ENDBRANCH  27  51
BRANCH  39  62
ATOM     62  C   UNL     1      10.585   8.599   8.111  1.00  0.00     0.064 A 
ATOM     63  C   UNL     1      10.131   9.727   8.807  1.00  0.00     0.173 A 
ATOM     64  C   UNL     1      11.956   8.306   8.141  1.00  0.00     0.173 A 
ATOM     65  F   UNL     1       8.829  10.051   8.792  1.00  0.00    -0.203 F 
ATOM     66  C   UNL     1      11.021  10.544   9.495  1.00  0.00     0.198 A 
ATOM     67  C   UNL     1      12.841   9.114   8.848  1.00  0.00     0.198 A 
ATOM     68  F   UNL     1      12.433   7.233   7.493  1.00  0.00    -0.203 F 
ATOM     69  F   UNL     1      10.573  11.638  10.127  1.00  0.00    -0.200 F 
ATOM     70  C   UNL     1      12.374  10.234   9.520  1.00  0.00     0.200 A 
ATOM     71  F   UNL     1      14.145   8.810   8.877  1.00  0.00    -0.200 F 
ATOM     72  F   UNL     1      13.229  11.020  10.187  1.00  0.00    -0.200 F 
ENDBRANCH  39  62
ENDBRANCH  13  14
ENDBRANCH   6   8
ENDBRANCH   5   6
ENDBRANCH   4   5
ENDBRANCH   3   4
ENDBRANCH   2   3
ENDBRANCH   1   2
BRANCH   1  73
ATOM     73  C   UNL     1       2.806   1.477  -3.172  1.00  0.00     0.261 C 
BRANCH  73  74
ATOM     74  O   UNL     1       3.370   0.561  -4.120  1.00  0.00    -0.460 OA
BRANCH  74  75
ATOM     75  C   UNL     1       4.715   0.410  -4.013  1.00  0.00     0.338 C 
ATOM     76  O   UNL     1       5.510   1.204  -3.543  1.00  0.00    -0.246 OA
BRANCH  75  77
ATOM     77  C   UNL     1       5.075  -0.959  -4.454  1.00  0.00     0.061 A 
ATOM     78  C   UNL     1       6.326  -1.475  -4.091  1.00  0.00     0.016 A 
ATOM     79  C   UNL     1       4.223  -1.698  -5.278  1.00  0.00     0.037 A 
ATOM     80  C   UNL     1       6.745  -2.708  -4.587  1.00  0.00     0.002 A 
ATOM     81  C   UNL     1       4.728  -2.829  -5.911  1.00  0.00     0.083 A 
ATOM     82  C   UNL     1       5.962  -3.371  -5.531  1.00  0.00     0.022 A 
BRANCH  81  83
ATOM     83  S   UNL     1       3.961  -3.391  -7.413  1.00  0.00     0.240 S 
ATOM     84  O   UNL     1       4.987  -4.056  -8.194  1.00  0.00    -0.207 OA
ATOM     85  O   UNL     1       2.741  -4.061  -7.044  1.00  0.00    -0.207 OA
BRANCH  83  86
ATOM     86  N   UNL     1       3.492  -2.010  -8.279  1.00  0.00    -0.211 NA
ATOM     87  H   UNL     1       2.520  -1.841  -8.021  1.00  0.00     0.141 HD
BRANCH  86  88
ATOM     88  C   UNL     1       4.161  -0.702  -8.182  1.00  0.00     0.105 C 
BRANCH  88  89
ATOM     89  C   UNL     1       5.088  -0.332  -9.335  1.00  0.00     0.032 C 
ATOM     90  C   UNL     1       6.313  -1.213  -9.469  1.00  0.00     0.036 C 
ATOM     91  C   UNL     1       5.771   0.989  -8.972  1.00  0.00     0.165 C 
ATOM     92  C   UNL     1       7.206  -0.736  -8.341  1.00  0.00     0.160 C 
ATOM     93  O   UNL     1       6.873   0.643  -8.115  1.00  0.00    -0.381 OA
ENDBRANCH  88  89
ENDBRANCH  86  88
ENDBRANCH  83  86
ENDBRANCH  81  83
ENDBRANCH  75  77
ENDBRANCH  74  75
ENDBRANCH  73  74
ENDBRANCH   1  73
TORSDOF 18
