REMARK SMILES C[C@@H](C(=O)OCCOCCOC(=O)c1ccc(-c2c3nc(c(-c4c(F)c(F)c(F)c(F)c4F)c4ccc([nH]4)c(-c4c(F)c(F)c(F)c(F)c4F)c4nc(c(-c5c(F)c(F)c(F)c(F)c5F)c5ccc2[nH]5)C=C4)C=C3)cc1)S(=O)(=O)N[C@@]12C[C@@H]3C[C@@](C)(C[C@@](C)(C3)C1)C2
REMARK SMILES IDX 7 1 6 2 5 3 3 4 4 5 2 6 1 7 77 8 78 9 79 10 80 11 81 13
REMARK SMILES IDX 82 14 91 15 92 16 83 17 88 18 85 19 90 20 84 21 87 22 89 23
REMARK SMILES IDX 86 24 8 25 9 26 10 27 11 28 12 29 13 30 14 31 15 32 76 33
REMARK SMILES IDX 16 34 75 35 17 36 18 37 19 38 69 39 20 40 74 41 68 42 70 43
REMARK SMILES IDX 21 44 73 45 67 46 66 47 22 49 54 50 34 51 53 52 35 53 38 54
REMARK SMILES IDX 52 55 71 56 36 57 37 58 51 60 72 61 39 62 23 63 24 64 32 65
REMARK SMILES IDX 25 66 26 67 30 68 33 69 27 70 28 71 31 72 29 73 55 74 56 75
REMARK SMILES IDX 64 76 57 77 58 78 62 79 65 80 59 81 60 82 63 83 61 84 40 85
REMARK SMILES IDX 41 86 49 87 42 88 43 89 47 90 50 91 44 92 45 93 48 94 46 95
REMARK H PARENT 80 12 70 48 38 59
REMARK Flexibility Score: inf
ROOT
ATOM      1  C   UNL     1       2.386   4.149  -2.001  1.00  0.00     0.202 C 
ENDROOT
BRANCH   1   2
ATOM      2  C   UNL     1       2.361   4.107  -0.472  1.00  0.00     0.261 C 
BRANCH   2   3
ATOM      3  O   UNL     1       1.810   2.894   0.080  1.00  0.00    -0.462 OA
BRANCH   3   4
ATOM      4  C   UNL     1       0.525   2.986   0.539  1.00  0.00     0.325 C 
ATOM      5  O   UNL     1      -0.177   3.972   0.358  1.00  0.00    -0.251 OA
BRANCH   4   6
ATOM      6  C   UNL     1       0.131   1.818   1.403  1.00  0.00     0.230 C 
ATOM      7  C   UNL     1       1.167   0.716   1.601  1.00  0.00     0.039 C 
BRANCH   6   8
ATOM      8  S   UNL     1      -1.496   1.218   0.947  1.00  0.00     0.225 S 
ATOM      9  O   UNL     1      -1.777   0.039   1.728  1.00  0.00    -0.212 OA
ATOM     10  O   UNL     1      -2.430   2.327   1.018  1.00  0.00    -0.212 OA
BRANCH   8  11
ATOM     11  N   UNL     1      -1.468   0.827  -0.681  1.00  0.00    -0.208 NA
ATOM     12  H   UNL     1      -0.758   1.439  -1.084  1.00  0.00     0.141 HD
BRANCH  11  13
ATOM     13  C   UNL     1      -1.208  -0.508  -1.288  1.00  0.00     0.034 C 
ATOM     14  C   UNL     1      -1.781  -0.478  -2.734  1.00  0.00     0.027 C 
ATOM     15  C   UNL     1       0.303  -0.753  -1.389  1.00  0.00     0.030 C 
ATOM     16  C   UNL     1      -1.875  -1.688  -0.557  1.00  0.00     0.030 C 
ATOM     17  C   UNL     1      -1.485  -1.795  -3.473  1.00  0.00    -0.008 C 
ATOM     18  C   UNL     1       0.625  -2.074  -2.114  1.00  0.00    -0.030 C 
ATOM     19  C   UNL     1      -1.582  -3.028  -1.276  1.00  0.00    -0.030 C 
ATOM     20  C   UNL     1       0.033  -2.022  -3.537  1.00  0.00     0.010 C 
ATOM     21  C   UNL     1      -2.133  -2.960  -2.714  1.00  0.00     0.010 C 
ATOM     22  C   UNL     1      -0.046  -3.226  -1.332  1.00  0.00     0.013 C 
ATOM     23  C   UNL     1       2.145  -2.264  -2.170  1.00  0.00     0.011 C 
ATOM     24  C   UNL     1      -2.234  -4.185  -0.512  1.00  0.00     0.011 C 
ENDBRANCH  11  13
ENDBRANCH   8  11
ENDBRANCH   6   8
ENDBRANCH   4   6
ENDBRANCH   3   4
ENDBRANCH   2   3
ENDBRANCH   1   2
BRANCH   1  25
ATOM     25  O   UNL     1       1.113   4.089  -2.637  1.00  0.00    -0.374 OA
BRANCH  25  26
ATOM     26  C   UNL     1       0.606   2.776  -2.886  1.00  0.00     0.202 C 
BRANCH  26  27
ATOM     27  C   UNL     1       1.239   2.093  -4.103  1.00  0.00     0.261 C 
BRANCH  27  28
ATOM     28  O   UNL     1       2.568   1.645  -3.772  1.00  0.00    -0.460 OA
BRANCH  28  29
ATOM     29  C   UNL     1       3.485   1.872  -4.739  1.00  0.00     0.338 C 
ATOM     30  O   UNL     1       3.277   2.183  -5.900  1.00  0.00    -0.246 OA
BRANCH  29  31
ATOM     31  C   UNL     1       4.832   1.888  -4.146  1.00  0.00     0.060 A 
ATOM     32  C   UNL     1       5.546   3.090  -4.220  1.00  0.00     0.016 A 
ATOM     33  C   UNL     1       5.427   0.736  -3.628  1.00  0.00     0.016 A 
ATOM     34  C   UNL     1       6.887   3.125  -3.848  1.00  0.00     0.010 A 
ATOM     35  C   UNL     1       6.777   0.773  -3.255  1.00  0.00     0.010 A 
ATOM     36  C   UNL     1       7.525   1.955  -3.412  1.00  0.00    -0.014 A 
BRANCH  36  37
ATOM     37  C   UNL     1       9.006   1.946  -3.310  1.00  0.00     0.031 A 
ATOM     38  C   UNL     1       9.810   1.388  -4.455  1.00  0.00     0.074 A 
ATOM     39  C   UNL     1       9.631   2.499  -2.256  1.00  0.00     0.049 A 
ATOM     40  N   UNL     1      11.109   1.320  -4.606  1.00  0.00    -0.248 NA
ATOM     41  C   UNL     1       9.045   0.836  -5.585  1.00  0.00     0.031 C 
ATOM     42  C   UNL     1       8.966   3.105  -1.105  1.00  0.00     0.029 A 
ATOM     43  N   UNL     1      10.970   2.645  -1.988  1.00  0.00    -0.354 N 
ATOM     44  C   UNL     1      11.314   0.725  -5.844  1.00  0.00     0.074 A 
ATOM     45  C   UNL     1      10.010   0.415  -6.388  1.00  0.00     0.031 C 
ATOM     46  C   UNL     1       9.900   3.559  -0.252  1.00  0.00     0.029 A 
ATOM     47  C   UNL     1      11.227   3.256  -0.786  1.00  0.00     0.049 A 
ATOM     48  H   UNL     1      11.678   2.341  -2.601  1.00  0.00     0.167 HD
ATOM     49  C   UNL     1      12.484   0.472  -6.478  1.00  0.00     0.037 A 
ATOM     50  C   UNL     1      12.401   3.529  -0.183  1.00  0.00     0.037 A 
ATOM     51  C   UNL     1      13.782   0.782  -5.940  1.00  0.00     0.049 A 
ATOM     52  C   UNL     1      13.690   3.185  -0.883  1.00  0.00     0.074 A 
ATOM     53  C   UNL     1      15.026   0.572  -6.509  1.00  0.00     0.029 A 
ATOM     54  N   UNL     1      14.002   1.366  -4.702  1.00  0.00    -0.354 N 
ATOM     55  N   UNL     1      13.873   2.642  -2.062  1.00  0.00    -0.248 NA
ATOM     56  C   UNL     1      14.937   3.499  -0.170  1.00  0.00     0.031 C 
ATOM     57  C   UNL     1      16.000   0.990  -5.596  1.00  0.00     0.029 A 
ATOM     58  C   UNL     1      15.362   1.504  -4.479  1.00  0.00     0.049 A 
ATOM     59  H   UNL     1      13.295   1.642  -4.074  1.00  0.00     0.167 HD
ATOM     60  C   UNL     1      15.248   2.570  -2.242  1.00  0.00     0.074 A 
ATOM     61  C   UNL     1      15.854   3.139  -1.056  1.00  0.00     0.031 C 
ATOM     62  C   UNL     1      15.947   2.076  -3.293  1.00  0.00     0.037 A 
BRANCH  49  63
ATOM     63  C   UNL     1      12.413  -0.189  -7.823  1.00  0.00     0.064 A 
ATOM     64  C   UNL     1      11.972   0.504  -8.961  1.00  0.00     0.173 A 
ATOM     65  C   UNL     1      12.820  -1.522  -7.982  1.00  0.00     0.173 A 
ATOM     66  F   UNL     1      11.557   1.776  -8.858  1.00  0.00    -0.203 F 
ATOM     67  C   UNL     1      11.920  -0.121 -10.204  1.00  0.00     0.198 A 
ATOM     68  C   UNL     1      12.792  -2.135  -9.232  1.00  0.00     0.198 A 
ATOM     69  F   UNL     1      13.253  -2.227  -6.927  1.00  0.00    -0.203 F 
ATOM     70  F   UNL     1      11.454   0.547 -11.269  1.00  0.00    -0.200 F 
ATOM     71  C   UNL     1      12.336  -1.437 -10.340  1.00  0.00     0.200 A 
ATOM     72  F   UNL     1      13.203  -3.404  -9.363  1.00  0.00    -0.200 F 
ATOM     73  F   UNL     1      12.290  -2.036 -11.538  1.00  0.00    -0.200 F 
ENDBRANCH  49  63
BRANCH  50  74
ATOM     74  C   UNL     1      12.411   4.157   1.164  1.00  0.00     0.064 A 
ATOM     75  C   UNL     1      12.862   5.470   1.351  1.00  0.00     0.173 A 
ATOM     76  C   UNL     1      11.978   3.447   2.294  1.00  0.00     0.173 A 
ATOM     77  F   UNL     1      13.310   6.180   0.306  1.00  0.00    -0.203 F 
ATOM     78  C   UNL     1      12.892   6.046   2.620  1.00  0.00     0.198 A 
ATOM     79  C   UNL     1      11.983   4.033   3.558  1.00  0.00     0.198 A 
ATOM     80  F   UNL     1      11.540   2.186   2.168  1.00  0.00    -0.203 F 
ATOM     81  F   UNL     1      13.366   7.289   2.779  1.00  0.00    -0.200 F 
ATOM     82  C   UNL     1      12.446   5.330   3.721  1.00  0.00     0.200 A 
ATOM     83  F   UNL     1      11.541   3.341   4.616  1.00  0.00    -0.200 F 
ATOM     84  F   UNL     1      12.470   5.886   4.940  1.00  0.00    -0.200 F 
ENDBRANCH  50  74
BRANCH  62  85
ATOM     85  C   UNL     1      17.444   2.150  -3.222  1.00  0.00     0.064 A 
ATOM     86  C   UNL     1      18.182   1.306  -2.379  1.00  0.00     0.173 A 
ATOM     87  C   UNL     1      18.151   3.045  -4.040  1.00  0.00     0.173 A 
ATOM     88  F   UNL     1      17.550   0.443  -1.569  1.00  0.00    -0.203 F 
ATOM     89  C   UNL     1      19.572   1.371  -2.341  1.00  0.00     0.198 A 
ATOM     90  C   UNL     1      19.543   3.088  -4.018  1.00  0.00     0.198 A 
ATOM     91  F   UNL     1      17.493   3.868  -4.870  1.00  0.00    -0.203 F 
ATOM     92  F   UNL     1      20.254   0.585  -1.496  1.00  0.00    -0.200 F 
ATOM     93  C   UNL     1      20.251   2.257  -3.164  1.00  0.00     0.200 A 
ATOM     94  F   UNL     1      20.198   3.936  -4.824  1.00  0.00    -0.200 F 
ATOM     95  F   UNL     1      21.590   2.314  -3.130  1.00  0.00    -0.200 F 
ENDBRANCH  62  85
ENDBRANCH  36  37
ENDBRANCH  29  31
ENDBRANCH  28  29
ENDBRANCH  27  28
ENDBRANCH  26  27
ENDBRANCH  25  26
ENDBRANCH   1  25
TORSDOF 17
