REMARK SMILES C[C@@H](C(=O)OCCOCCOC(=O)c1ccc(-c2c3nc(c(-c4c(F)c(F)c(F)c(F)c4F)c4ccc([nH]4)c(-c4c(F)c(F)c(F)c(F)c4F)c4nc(c(-c5c(F)c(F)c(F)c(F)c5F)c5ccc2[nH]5)C=C4)C=C3)cc1)[C@H](C)[N@@H+]1C[C@H]2C[NH2+]C[C@@H]2[C@@H]1C
REMARK SMILES IDX 8 1 7 2 6 3 5 4 3 5 4 6 2 7 1 8 77 9 78 10 79 11 80 12 86 13
REMARK SMILES IDX 81 15 85 16 87 17 82 18 84 19 83 20 9 23 10 24 11 25 12 26
REMARK SMILES IDX 13 27 14 28 15 29 76 30 16 31 75 32 17 33 18 34 19 35 69 36
REMARK SMILES IDX 20 37 74 38 68 39 70 40 21 41 73 42 67 43 66 44 22 46 54 47
REMARK SMILES IDX 34 48 53 49 35 50 38 51 52 52 71 53 36 54 37 55 51 57 72 58
REMARK SMILES IDX 39 59 23 60 24 61 32 62 25 63 26 64 30 65 33 66 27 67 28 68
REMARK SMILES IDX 31 69 29 70 55 71 56 72 64 73 57 74 58 75 62 76 65 77 59 78
REMARK SMILES IDX 60 79 63 80 61 81 40 82 41 83 49 84 42 85 43 86 47 87 50 88
REMARK SMILES IDX 44 89 45 90 48 91 46 92
REMARK H PARENT 79 14 83 21 83 22 70 45 38 56
REMARK Flexibility Score: inf
ROOT
ATOM      1  O   UNL     1      -4.636   1.694   0.602  1.00  0.00    -0.374 OA
ENDROOT
BRANCH   1   2
ATOM      2  C   UNL     1      -4.171   2.657  -0.346  1.00  0.00     0.202 C 
BRANCH   2   3
ATOM      3  C   UNL     1      -2.664   2.675  -0.611  1.00  0.00     0.261 C 
BRANCH   3   4
ATOM      4  O   UNL     1      -2.258   1.460  -1.268  1.00  0.00    -0.463 OA
BRANCH   4   5
ATOM      5  C   UNL     1      -1.101   0.911  -0.816  1.00  0.00     0.314 C 
ATOM      6  O   UNL     1      -0.320   1.483  -0.062  1.00  0.00    -0.252 OA
BRANCH   5   7
ATOM      7  C   UNL     1      -0.864  -0.507  -1.329  1.00  0.00     0.154 C 
ATOM      8  C   UNL     1      -1.943  -1.056  -2.266  1.00  0.00     0.026 C 
BRANCH   7   9
ATOM      9  C   UNL     1      -0.499  -1.420  -0.101  1.00  0.00     0.195 C 
ATOM     10  C   UNL     1       1.017  -1.644  -0.138  1.00  0.00     0.076 C 
BRANCH   9  11
ATOM     11  N   UNL     1      -1.385  -2.582   0.074  1.00  0.00    -0.329 N 
ATOM     12  C   UNL     1      -2.457  -2.389   1.087  1.00  0.00     0.272 C 
ATOM     13  C   UNL     1      -1.012  -4.026   0.011  1.00  0.00     0.190 C 
ATOM     14  H   UNL     1      -1.632  -2.492  -0.911  1.00  0.00     0.348 HD
ATOM     15  C   UNL     1      -2.241  -3.576   1.976  1.00  0.00     0.114 C 
ATOM     16  C   UNL     1      -2.047  -4.658   0.947  1.00  0.00     0.116 C 
ATOM     17  C   UNL     1       0.394  -4.509   0.347  1.00  0.00     0.076 C 
ATOM     18  C   UNL     1      -3.291  -4.191   2.858  1.00  0.00     0.270 C 
ATOM     19  C   UNL     1      -1.872  -5.856   1.853  1.00  0.00     0.271 C 
ATOM     20  N   UNL     1      -2.830  -5.600   2.964  1.00  0.00    -0.345 N 
ATOM     21  H   UNL     1      -3.627  -6.232   2.887  1.00  0.00     0.346 HD
ATOM     22  H   UNL     1      -2.377  -5.757   3.865  1.00  0.00     0.346 HD
ENDBRANCH   9  11
ENDBRANCH   7   9
ENDBRANCH   5   7
ENDBRANCH   4   5
ENDBRANCH   3   4
ENDBRANCH   2   3
ENDBRANCH   1   2
BRANCH   1  23
ATOM     23  C   UNL     1      -4.605   0.324   0.212  1.00  0.00     0.202 C 
BRANCH  23  24
ATOM     24  C   UNL     1      -5.723  -0.160  -0.721  1.00  0.00     0.261 C 
BRANCH  24  25
ATOM     25  O   UNL     1      -5.787   0.577  -1.953  1.00  0.00    -0.460 OA
BRANCH  25  26
ATOM     26  C   UNL     1      -6.851   1.407  -2.053  1.00  0.00     0.338 C 
ATOM     27  O   UNL     1      -7.783   1.521  -1.266  1.00  0.00    -0.246 OA
BRANCH  26  28
ATOM     28  C   UNL     1      -6.679   2.326  -3.191  1.00  0.00     0.060 A 
ATOM     29  C   UNL     1      -6.803   3.698  -2.932  1.00  0.00     0.016 A 
ATOM     30  C   UNL     1      -6.482   1.864  -4.494  1.00  0.00     0.016 A 
ATOM     31  C   UNL     1      -6.785   4.610  -3.983  1.00  0.00     0.010 A 
ATOM     32  C   UNL     1      -6.473   2.782  -5.550  1.00  0.00     0.010 A 
ATOM     33  C   UNL     1      -6.662   4.154  -5.302  1.00  0.00    -0.014 A 
BRANCH  33  34
ATOM     34  C   UNL     1      -6.890   5.102  -6.419  1.00  0.00     0.031 A 
ATOM     35  C   UNL     1      -8.242   5.141  -7.075  1.00  0.00     0.074 A 
ATOM     36  C   UNL     1      -5.922   5.948  -6.812  1.00  0.00     0.049 A 
ATOM     37  N   UNL     1      -8.663   5.881  -8.069  1.00  0.00    -0.248 NA
ATOM     38  C   UNL     1      -9.257   4.223  -6.536  1.00  0.00     0.031 C 
ATOM     39  C   UNL     1      -4.586   6.031  -6.227  1.00  0.00     0.029 A 
ATOM     40  N   UNL     1      -5.918   6.899  -7.801  1.00  0.00    -0.354 N 
ATOM     41  C   UNL     1      -9.988   5.519  -8.273  1.00  0.00     0.074 A 
ATOM     42  C   UNL     1     -10.293   4.470  -7.324  1.00  0.00     0.031 C 
ATOM     43  C   UNL     1      -3.885   6.975  -6.877  1.00  0.00     0.029 A 
ATOM     44  C   UNL     1      -4.714   7.542  -7.939  1.00  0.00     0.049 A 
ATOM     45  H   UNL     1      -6.704   7.099  -8.359  1.00  0.00     0.167 HD
ATOM     46  C   UNL     1     -10.874   6.024  -9.164  1.00  0.00     0.037 A 
ATOM     47  C   UNL     1      -4.323   8.470  -8.835  1.00  0.00     0.037 A 
ATOM     48  C   UNL     1     -10.569   7.066 -10.109  1.00  0.00     0.049 A 
ATOM     49  C   UNL     1      -5.307   8.967  -9.861  1.00  0.00     0.074 A 
ATOM     50  C   UNL     1     -11.401   7.653 -11.046  1.00  0.00     0.029 A 
ATOM     51  N   UNL     1      -9.328   7.672 -10.240  1.00  0.00    -0.354 N 
ATOM     52  N   UNL     1      -6.564   8.636 -10.033  1.00  0.00    -0.248 NA
ATOM     53  C   UNL     1      -4.818   9.973 -10.815  1.00  0.00     0.031 C 
ATOM     54  C   UNL     1     -10.651   8.582 -11.776  1.00  0.00     0.029 A 
ATOM     55  C   UNL     1      -9.365   8.610 -11.259  1.00  0.00     0.049 A 
ATOM     56  H   UNL     1      -8.538   7.466  -9.690  1.00  0.00     0.167 HD
ATOM     57  C   UNL     1      -7.022   9.407 -11.094  1.00  0.00     0.074 A 
ATOM     58  C   UNL     1      -5.912  10.234 -11.518  1.00  0.00     0.031 C 
ATOM     59  C   UNL     1      -8.252   9.428 -11.665  1.00  0.00     0.037 A 
BRANCH  46  60
ATOM     60  C   UNL     1     -12.255   5.438  -9.172  1.00  0.00     0.064 A 
ATOM     61  C   UNL     1     -13.168   5.690  -8.138  1.00  0.00     0.173 A 
ATOM     62  C   UNL     1     -12.680   4.635 -10.242  1.00  0.00     0.173 A 
ATOM     63  F   UNL     1     -12.806   6.439  -7.085  1.00  0.00    -0.203 F 
ATOM     64  C   UNL     1     -14.448   5.140  -8.162  1.00  0.00     0.198 A 
ATOM     65  C   UNL     1     -13.969   4.110 -10.276  1.00  0.00     0.198 A 
ATOM     66  F   UNL     1     -11.846   4.366 -11.258  1.00  0.00    -0.203 F 
ATOM     67  F   UNL     1     -15.288   5.357  -7.141  1.00  0.00    -0.200 F 
ATOM     68  C   UNL     1     -14.849   4.356  -9.233  1.00  0.00     0.200 A 
ATOM     69  F   UNL     1     -14.358   3.361 -11.317  1.00  0.00    -0.200 F 
ATOM     70  F   UNL     1     -16.082   3.832  -9.257  1.00  0.00    -0.200 F 
ENDBRANCH  46  60
BRANCH  47  71
ATOM     71  C   UNL     1      -2.928   8.980  -8.808  1.00  0.00     0.064 A 
ATOM     72  C   UNL     1      -2.645  10.300  -8.433  1.00  0.00     0.173 A 
ATOM     73  C   UNL     1      -1.851   8.158  -9.171  1.00  0.00     0.173 A 
ATOM     74  F   UNL     1      -3.644  11.131  -8.104  1.00  0.00    -0.203 F 
ATOM     75  C   UNL     1      -1.337  10.783  -8.435  1.00  0.00     0.198 A 
ATOM     76  C   UNL     1      -0.542   8.634  -9.146  1.00  0.00     0.198 A 
ATOM     77  F   UNL     1      -2.069   6.888  -9.540  1.00  0.00    -0.203 F 
ATOM     78  F   UNL     1      -1.098  12.062  -8.114  1.00  0.00    -0.200 F 
ATOM     79  C   UNL     1      -0.287   9.948  -8.786  1.00  0.00     0.200 A 
ATOM     80  F   UNL     1       0.471   7.821  -9.476  1.00  0.00    -0.200 F 
ATOM     81  F   UNL     1       0.970  10.412  -8.784  1.00  0.00    -0.200 F 
ENDBRANCH  47  71
BRANCH  59  82
ATOM     82  C   UNL     1      -8.473  10.397 -12.790  1.00  0.00     0.064 A 
ATOM     83  C   UNL     1      -7.915  10.190 -14.060  1.00  0.00     0.173 A 
ATOM     84  C   UNL     1      -9.289  11.524 -12.607  1.00  0.00     0.173 A 
ATOM     85  F   UNL     1      -7.116   9.136 -14.282  1.00  0.00    -0.203 F 
ATOM     86  C   UNL     1      -8.148  11.088 -15.099  1.00  0.00     0.198 A 
ATOM     87  C   UNL     1      -9.543  12.404 -13.655  1.00  0.00     0.198 A 
ATOM     88  F   UNL     1      -9.853  11.763 -11.413  1.00  0.00    -0.203 F 
ATOM     89  F   UNL     1      -7.569  10.894 -16.292  1.00  0.00    -0.200 F 
ATOM     90  C   UNL     1      -8.967  12.189 -14.898  1.00  0.00     0.200 A 
ATOM     91  F   UNL     1     -10.345  13.460 -13.462  1.00  0.00    -0.200 F 
ATOM     92  F   UNL     1      -9.195  13.048 -15.901  1.00  0.00    -0.200 F 
ENDBRANCH  59  82
ENDBRANCH  33  34
ENDBRANCH  26  28
ENDBRANCH  25  26
ENDBRANCH  24  25
ENDBRANCH  23  24
ENDBRANCH   1  23
TORSDOF 16
