REMARK SMILES CC(C)n1ncnc1C[C@@H](C(=O)OCCOCCOC(=O)c1ccc(-c2c3nc(c(-c4c(F)c(F)c(F)c(F)c4F)c4ccc([nH]4)c(-c4c(F)c(F)c(F)c(F)c4F)c4nc(c(-c5c(F)c(F)c(F)c(F)c5F)c5ccc2[nH]5)C=C4)C=C3)cc1)c1cccc(Br)c1
REMARK SMILES IDX 15 1 14 2 13 3 11 4 12 5 10 6 9 7 8 8 4 9 5 10 6 11 7 12
REMARK SMILES IDX 2 13 1 14 3 15 85 16 86 17 91 18 87 19 89 20 88 21 90 22
REMARK SMILES IDX 16 23 17 24 18 25 19 26 20 27 21 28 22 29 23 30 84 31 24 32
REMARK SMILES IDX 83 33 25 34 26 35 27 36 77 37 28 38 82 39 76 40 78 41 29 42
REMARK SMILES IDX 81 43 75 44 74 45 30 47 62 48 42 49 61 50 43 51 46 52 60 53
REMARK SMILES IDX 79 54 44 55 45 56 59 58 80 59 47 60 31 61 32 62 40 63 33 64
REMARK SMILES IDX 34 65 38 66 41 67 35 68 36 69 39 70 37 71 63 72 64 73 72 74
REMARK SMILES IDX 65 75 66 76 70 77 73 78 67 79 68 80 71 81 69 82 48 83 49 84
REMARK SMILES IDX 57 85 50 86 51 87 55 88 58 89 52 90 53 91 56 92 54 93
REMARK H PARENT 78 46 46 57
REMARK Flexibility Score: inf
ROOT
ATOM      1  C   UNL     1      -6.088   1.735  -0.105  1.00  0.00     0.202 C 
ENDROOT
BRANCH   1   2
ATOM      2  C   UNL     1      -5.287   1.357  -1.350  1.00  0.00     0.261 C 
BRANCH   2   3
ATOM      3  O   UNL     1      -3.909   1.243  -0.964  1.00  0.00    -0.463 OA
BRANCH   3   4
ATOM      4  C   UNL     1      -2.961   1.799  -1.745  1.00  0.00     0.313 C 
ATOM      5  O   UNL     1      -3.172   2.250  -2.865  1.00  0.00    -0.252 OA
BRANCH   4   6
ATOM      6  C   UNL     1      -1.602   1.913  -1.024  1.00  0.00     0.137 C 
BRANCH   6   7
ATOM      7  C   UNL     1      -1.494   1.173   0.342  1.00  0.00     0.097 C 
BRANCH   7   8
ATOM      8  C   UNL     1      -1.736  -0.306   0.318  1.00  0.00     0.128 A 
ATOM      9  N   UNL     1      -0.804  -1.319   0.403  1.00  0.00    -0.248 N 
ATOM     10  N   UNL     1      -1.422  -2.524   0.450  1.00  0.00    -0.159 NA
ATOM     11  C   UNL     1      -2.706  -2.186   0.421  1.00  0.00     0.246 A 
ATOM     12  N   UNL     1      -2.937  -0.853   0.359  1.00  0.00    -0.220 NA
BRANCH   9  13
ATOM     13  C   UNL     1       0.642  -1.324   0.576  1.00  0.00     0.103 C 
ATOM     14  C   UNL     1       1.411  -0.223  -0.149  1.00  0.00     0.033 C 
ATOM     15  C   UNL     1       1.008  -1.373   2.061  1.00  0.00     0.033 C 
ENDBRANCH   9  13
ENDBRANCH   7   8
ENDBRANCH   6   7
BRANCH   6  16
ATOM     16  C   UNL     1      -1.159   3.387  -0.838  1.00  0.00    -0.032 A 
ATOM     17  C   UNL     1       0.160   3.664  -0.433  1.00  0.00     0.005 A 
ATOM     18  C   UNL     1      -2.020   4.487  -1.025  1.00  0.00     0.020 A 
ATOM     19  C   UNL     1       0.588   4.972  -0.181  1.00  0.00     0.001 A 
ATOM     20  C   UNL     1      -1.583   5.795  -0.782  1.00  0.00     0.018 A 
ATOM     21  C   UNL     1      -0.285   6.041  -0.351  1.00  0.00     0.016 A 
ATOM     22  Br  UNL     1      -2.771   7.247  -1.032  1.00  0.00    -0.051 Br
ENDBRANCH   6  16
ENDBRANCH   4   6
ENDBRANCH   3   4
ENDBRANCH   2   3
ENDBRANCH   1   2
BRANCH   1  23
ATOM     23  O   UNL     1      -5.886   3.074   0.366  1.00  0.00    -0.374 OA
BRANCH  23  24
ATOM     24  C   UNL     1      -4.653   3.383   1.011  1.00  0.00     0.202 C 
BRANCH  24  25
ATOM     25  C   UNL     1      -4.527   2.998   2.476  1.00  0.00     0.261 C 
BRANCH  25  26
ATOM     26  O   UNL     1      -4.504   1.588   2.642  1.00  0.00    -0.460 OA
BRANCH  26  27
ATOM     27  C   UNL     1      -5.695   1.038   2.979  1.00  0.00     0.338 C 
ATOM     28  O   UNL     1      -6.782   1.573   2.990  1.00  0.00    -0.246 OA
BRANCH  27  29
ATOM     29  C   UNL     1      -5.431  -0.297   3.529  1.00  0.00     0.060 A 
ATOM     30  C   UNL     1      -6.498  -0.906   4.189  1.00  0.00     0.016 A 
ATOM     31  C   UNL     1      -4.113  -0.759   3.657  1.00  0.00     0.016 A 
ATOM     32  C   UNL     1      -6.211  -1.816   5.177  1.00  0.00     0.010 A 
ATOM     33  C   UNL     1      -3.824  -1.654   4.654  1.00  0.00     0.010 A 
ATOM     34  C   UNL     1      -4.869  -2.095   5.459  1.00  0.00    -0.014 A 
BRANCH  34  35
ATOM     35  C   UNL     1      -4.582  -3.011   6.537  1.00  0.00     0.031 A 
ATOM     36  C   UNL     1      -4.896  -4.397   6.141  1.00  0.00     0.074 A 
ATOM     37  C   UNL     1      -4.017  -2.612   7.693  1.00  0.00     0.049 A 
ATOM     38  N   UNL     1      -5.899  -5.105   6.535  1.00  0.00    -0.248 NA
ATOM     39  C   UNL     1      -4.170  -4.968   4.993  1.00  0.00     0.031 C 
ATOM     40  C   UNL     1      -3.473  -1.290   8.013  1.00  0.00     0.029 A 
ATOM     41  N   UNL     1      -3.721  -3.341   8.805  1.00  0.00    -0.354 N 
ATOM     42  C   UNL     1      -5.763  -6.318   5.870  1.00  0.00     0.074 A 
ATOM     43  C   UNL     1      -4.878  -6.075   4.766  1.00  0.00     0.031 C 
ATOM     44  C   UNL     1      -2.716  -1.376   9.131  1.00  0.00     0.029 A 
ATOM     45  C   UNL     1      -2.822  -2.720   9.669  1.00  0.00     0.049 A 
ATOM     46  H   UNL     1      -4.108  -4.229   8.982  1.00  0.00     0.167 HD
ATOM     47  C   UNL     1      -6.058  -7.469   6.531  1.00  0.00     0.037 A 
ATOM     48  C   UNL     1      -2.163  -3.322  10.693  1.00  0.00     0.037 A 
ATOM     49  C   UNL     1      -6.923  -7.188   7.658  1.00  0.00     0.049 A 
ATOM     50  C   UNL     1      -2.912  -4.561  11.021  1.00  0.00     0.074 A 
ATOM     51  C   UNL     1      -8.175  -6.632   7.835  1.00  0.00     0.029 A 
ATOM     52  N   UNL     1      -6.310  -7.142   8.882  1.00  0.00    -0.354 N 
ATOM     53  N   UNL     1      -4.098  -4.569  11.562  1.00  0.00    -0.248 NA
ATOM     54  C   UNL     1      -2.530  -5.787  10.338  1.00  0.00     0.031 C 
ATOM     55  C   UNL     1      -8.112  -5.935   9.081  1.00  0.00     0.029 A 
ATOM     56  C   UNL     1      -6.853  -6.149   9.643  1.00  0.00     0.049 A 
ATOM     57  H   UNL     1      -5.582  -7.740   9.170  1.00  0.00     0.167 HD
ATOM     58  C   UNL     1      -4.772  -5.587  10.906  1.00  0.00     0.074 A 
ATOM     59  C   UNL     1      -3.725  -6.377  10.262  1.00  0.00     0.031 C 
ATOM     60  C   UNL     1      -6.121  -5.494  10.704  1.00  0.00     0.037 A 
BRANCH  47  61
ATOM     61  C   UNL     1      -5.137  -8.684   6.521  1.00  0.00     0.064 A 
ATOM     62  C   UNL     1      -5.514  -9.798   7.299  1.00  0.00     0.173 A 
ATOM     63  C   UNL     1      -3.786  -8.683   6.098  1.00  0.00     0.173 A 
ATOM     64  F   UNL     1      -6.770  -9.915   7.757  1.00  0.00    -0.203 F 
ATOM     65  C   UNL     1      -4.586 -10.750   7.731  1.00  0.00     0.198 A 
ATOM     66  C   UNL     1      -2.874  -9.659   6.495  1.00  0.00     0.198 A 
ATOM     67  F   UNL     1      -3.244  -7.702   5.372  1.00  0.00    -0.203 F 
ATOM     68  F   UNL     1      -4.964 -11.698   8.598  1.00  0.00    -0.200 F 
ATOM     69  C   UNL     1      -3.263 -10.669   7.343  1.00  0.00     0.200 A 
ATOM     70  F   UNL     1      -1.593  -9.551   6.116  1.00  0.00    -0.200 F 
ATOM     71  F   UNL     1      -2.356 -11.531   7.817  1.00  0.00    -0.200 F 
ENDBRANCH  47  61
BRANCH  48  72
ATOM     72  C   UNL     1      -0.777  -3.096  11.178  1.00  0.00     0.064 A 
ATOM     73  C   UNL     1      -0.330  -3.672  12.382  1.00  0.00     0.173 A 
ATOM     74  C   UNL     1       0.221  -2.562  10.339  1.00  0.00     0.173 A 
ATOM     75  F   UNL     1      -1.204  -4.247  13.221  1.00  0.00    -0.203 F 
ATOM     76  C   UNL     1       1.030  -3.739  12.707  1.00  0.00     0.198 A 
ATOM     77  C   UNL     1       1.576  -2.623  10.669  1.00  0.00     0.198 A 
ATOM     78  F   UNL     1      -0.086  -2.060   9.135  1.00  0.00    -0.203 F 
ATOM     79  F   UNL     1       1.420  -4.360  13.830  1.00  0.00    -0.200 F 
ATOM     80  C   UNL     1       1.983  -3.224  11.845  1.00  0.00     0.200 A 
ATOM     81  F   UNL     1       2.490  -2.155   9.806  1.00  0.00    -0.200 F 
ATOM     82  F   UNL     1       3.288  -3.346  12.123  1.00  0.00    -0.200 F 
ENDBRANCH  48  72
BRANCH  60  83
ATOM     83  C   UNL     1      -6.876  -4.499  11.540  1.00  0.00     0.064 A 
ATOM     84  C   UNL     1      -6.682  -3.108  11.502  1.00  0.00     0.173 A 
ATOM     85  C   UNL     1      -7.913  -4.985  12.348  1.00  0.00     0.173 A 
ATOM     86  F   UNL     1      -5.775  -2.558  10.682  1.00  0.00    -0.203 F 
ATOM     87  C   UNL     1      -7.459  -2.252  12.282  1.00  0.00     0.198 A 
ATOM     88  C   UNL     1      -8.714  -4.126  13.092  1.00  0.00     0.198 A 
ATOM     89  F   UNL     1      -8.175  -6.301  12.385  1.00  0.00    -0.203 F 
ATOM     90  F   UNL     1      -7.240  -0.929  12.252  1.00  0.00    -0.200 F 
ATOM     91  C   UNL     1      -8.478  -2.762  13.071  1.00  0.00     0.200 A 
ATOM     92  F   UNL     1      -9.727  -4.622  13.816  1.00  0.00    -0.200 F 
ATOM     93  F   UNL     1      -9.247  -1.937  13.796  1.00  0.00    -0.200 F 
ENDBRANCH  60  83
ENDBRANCH  34  35
ENDBRANCH  27  29
ENDBRANCH  26  27
ENDBRANCH  25  26
ENDBRANCH  24  25
ENDBRANCH  23  24
ENDBRANCH   1  23
TORSDOF 18
