REMARK SMILES COc1ccc(-c2cccc(/C=C\C(=O)OCCOCCOC(=O)c3ccc(-c4c5nc(c(-c6c(F)c(F)c(F)c(F)c6F)c6ccc([nH]6)c(-c6c(F)c(F)c(F)c(F)c6F)c6nc(c(-c7c(F)c(F)c(F)c(F)c7F)c7ccc4[nH]7)C=C6)C=C5)cc3)c2)c(Cl)c1OC
REMARK SMILES IDX 18 1 17 2 16 3 14 4 15 5 13 6 12 7 11 8 7 9 8 10 88 11 9 12
REMARK SMILES IDX 10 13 6 14 3 15 4 16 91 17 5 18 89 19 90 20 2 21 1 22 92 23
REMARK SMILES IDX 93 24 19 25 20 26 21 27 22 28 23 29 24 30 25 31 26 32 87 33
REMARK SMILES IDX 27 34 86 35 28 36 29 37 30 38 80 39 31 40 85 41 79 42 81 43
REMARK SMILES IDX 32 44 84 45 78 46 77 47 33 49 65 50 45 51 64 52 46 53 49 54
REMARK SMILES IDX 63 55 82 56 47 57 48 58 62 60 83 61 50 62 34 63 35 64 43 65
REMARK SMILES IDX 36 66 37 67 41 68 44 69 38 70 39 71 42 72 40 73 66 74 67 75
REMARK SMILES IDX 75 76 68 77 69 78 73 79 76 80 70 81 71 82 74 83 72 84 51 85
REMARK SMILES IDX 52 86 60 87 53 88 54 89 58 90 61 91 55 92 56 93 59 94 57 95
REMARK H PARENT 81 48 49 59
REMARK Flexibility Score: inf
ROOT
ATOM      1  C   UNL     1       4.554 -11.877   3.430  1.00  0.00     0.202 C 
ENDROOT
BRANCH   1   2
ATOM      2  C   UNL     1       5.208 -11.464   2.101  1.00  0.00     0.261 C 
BRANCH   2   3
ATOM      3  O   UNL     1       4.305 -10.639   1.341  1.00  0.00    -0.460 OA
BRANCH   3   4
ATOM      4  C   UNL     1       3.734 -11.177   0.250  1.00  0.00     0.330 C 
ATOM      5  O   UNL     1       4.087 -12.203  -0.313  1.00  0.00    -0.247 OA
BRANCH   4   6
ATOM      6  C   UNL     1       2.482 -10.480  -0.141  1.00  0.00     0.094 C 
ATOM      7  C   UNL     1       1.856  -9.357   0.260  1.00  0.00     0.015 C 
BRANCH   7   8
ATOM      8  C   UNL     1       2.217  -8.312   1.232  1.00  0.00    -0.025 A 
ATOM      9  C   UNL     1       2.159  -5.947   1.859  1.00  0.00    -0.016 A 
ATOM     10  C   UNL     1       2.880  -6.237   3.022  1.00  0.00     0.009 A 
ATOM     11  C   UNL     1       1.871  -6.984   0.952  1.00  0.00     0.017 A 
ATOM     12  C   UNL     1       3.194  -7.551   3.327  1.00  0.00     0.001 A 
ATOM     13  C   UNL     1       2.796  -8.574   2.471  1.00  0.00     0.008 A 
BRANCH   9  14
ATOM     14  C   UNL     1       1.651  -4.585   1.651  1.00  0.00     0.004 A 
ATOM     15  C   UNL     1       0.820  -1.935   1.357  1.00  0.00     0.162 A 
ATOM     16  C   UNL     1       2.146  -2.284   1.088  1.00  0.00     0.051 A 
ATOM     17  C   UNL     1      -0.123  -2.892   1.803  1.00  0.00     0.180 A 
ATOM     18  C   UNL     1       2.554  -3.603   1.222  1.00  0.00     0.014 A 
ATOM     19  C   UNL     1       0.305  -4.225   1.952  1.00  0.00     0.094 A 
ATOM     20  Cl  UNL     1      -0.727  -5.492   2.566  1.00  0.00    -0.079 Cl
BRANCH  15  21
ATOM     21  O   UNL     1       0.401  -0.624   1.277  1.00  0.00    -0.493 OA
ATOM     22  C   UNL     1       0.843   0.058   0.108  1.00  0.00     0.278 C 
ENDBRANCH  15  21
BRANCH  17  23
ATOM     23  O   UNL     1      -1.354  -2.338   2.042  1.00  0.00    -0.491 OA
ATOM     24  C   UNL     1      -2.490  -3.120   2.356  1.00  0.00     0.278 C 
ENDBRANCH  17  23
ENDBRANCH   9  14
ENDBRANCH   7   8
ENDBRANCH   4   6
ENDBRANCH   3   4
ENDBRANCH   2   3
ENDBRANCH   1   2
BRANCH   1  25
ATOM     25  O   UNL     1       3.599 -12.934   3.311  1.00  0.00    -0.374 OA
BRANCH  25  26
ATOM     26  C   UNL     1       2.267 -12.559   2.959  1.00  0.00     0.202 C 
BRANCH  26  27
ATOM     27  C   UNL     1       1.344 -12.287   4.151  1.00  0.00     0.261 C 
BRANCH  27  28
ATOM     28  O   UNL     1       1.679 -11.044   4.797  1.00  0.00    -0.460 OA
BRANCH  28  29
ATOM     29  C   UNL     1       2.352 -11.165   5.965  1.00  0.00     0.338 C 
ATOM     30  O   UNL     1       2.658 -12.193   6.542  1.00  0.00    -0.246 OA
BRANCH  29  31
ATOM     31  C   UNL     1       2.830  -9.838   6.399  1.00  0.00     0.060 A 
ATOM     32  C   UNL     1       4.177  -9.727   6.766  1.00  0.00     0.016 A 
ATOM     33  C   UNL     1       1.982  -8.731   6.484  1.00  0.00     0.016 A 
ATOM     34  C   UNL     1       4.675  -8.515   7.244  1.00  0.00     0.010 A 
ATOM     35  C   UNL     1       2.483  -7.515   6.964  1.00  0.00     0.010 A 
ATOM     36  C   UNL     1       3.827  -7.406   7.367  1.00  0.00    -0.014 A 
BRANCH  36  37
ATOM     37  C   UNL     1       4.324  -6.162   8.007  1.00  0.00     0.031 A 
ATOM     38  C   UNL     1       3.937  -5.861   9.428  1.00  0.00     0.074 A 
ATOM     39  C   UNL     1       5.123  -5.314   7.335  1.00  0.00     0.049 A 
ATOM     40  N   UNL     1       4.227  -4.820  10.166  1.00  0.00    -0.248 NA
ATOM     41  C   UNL     1       3.115  -6.873  10.110  1.00  0.00     0.031 C 
ATOM     42  C   UNL     1       5.605  -5.509   5.969  1.00  0.00     0.029 A 
ATOM     43  N   UNL     1       5.664  -4.109   7.712  1.00  0.00    -0.354 N 
ATOM     44  C   UNL     1       3.623  -5.049  11.395  1.00  0.00     0.074 A 
ATOM     45  C   UNL     1       2.922  -6.311  11.294  1.00  0.00     0.031 C 
ATOM     46  C   UNL     1       6.352  -4.451   5.613  1.00  0.00     0.029 A 
ATOM     47  C   UNL     1       6.381  -3.492   6.716  1.00  0.00     0.049 A 
ATOM     48  H   UNL     1       5.549  -3.724   8.611  1.00  0.00     0.167 HD
ATOM     49  C   UNL     1       3.661  -4.281  12.510  1.00  0.00     0.037 A 
ATOM     50  C   UNL     1       6.975  -2.283   6.691  1.00  0.00     0.037 A 
ATOM     51  C   UNL     1       4.358  -3.026  12.611  1.00  0.00     0.049 A 
ATOM     52  C   UNL     1       6.932  -1.410   7.918  1.00  0.00     0.074 A 
ATOM     53  C   UNL     1       4.481  -2.193  13.709  1.00  0.00     0.029 A 
ATOM     54  N   UNL     1       5.040  -2.415  11.569  1.00  0.00    -0.354 N 
ATOM     55  N   UNL     1       6.396  -1.653   9.089  1.00  0.00    -0.248 NA
ATOM     56  C   UNL     1       7.581  -0.094   7.820  1.00  0.00     0.031 C 
ATOM     57  C   UNL     1       5.187  -1.051  13.316  1.00  0.00     0.029 A 
ATOM     58  C   UNL     1       5.555  -1.199  11.989  1.00  0.00     0.049 A 
ATOM     59  H   UNL     1       5.143  -2.790  10.664  1.00  0.00     0.167 HD
ATOM     60  C   UNL     1       6.665  -0.538   9.873  1.00  0.00     0.074 A 
ATOM     61  C   UNL     1       7.426   0.377   9.050  1.00  0.00     0.031 C 
ATOM     62  C   UNL     1       6.313  -0.296  11.160  1.00  0.00     0.037 A 
BRANCH  49  63
ATOM     63  C   UNL     1       2.905  -4.767  13.713  1.00  0.00     0.064 A 
ATOM     64  C   UNL     1       3.340  -5.871  14.461  1.00  0.00     0.173 A 
ATOM     65  C   UNL     1       1.754  -4.092  14.147  1.00  0.00     0.173 A 
ATOM     66  F   UNL     1       4.428  -6.558  14.081  1.00  0.00    -0.203 F 
ATOM     67  C   UNL     1       2.636  -6.296  15.585  1.00  0.00     0.198 A 
ATOM     68  C   UNL     1       1.070  -4.502  15.288  1.00  0.00     0.198 A 
ATOM     69  F   UNL     1       1.299  -3.026  13.471  1.00  0.00    -0.203 F 
ATOM     70  F   UNL     1       3.045  -7.380  16.259  1.00  0.00    -0.200 F 
ATOM     71  C   UNL     1       1.507  -5.607  16.002  1.00  0.00     0.200 A 
ATOM     72  F   UNL     1      -0.013  -3.826  15.697  1.00  0.00    -0.200 F 
ATOM     73  F   UNL     1       0.836  -6.012  17.089  1.00  0.00    -0.200 F 
ENDBRANCH  49  63
BRANCH  50  74
ATOM     74  C   UNL     1       7.655  -1.817   5.453  1.00  0.00     0.064 A 
ATOM     75  C   UNL     1       9.046  -1.651   5.409  1.00  0.00     0.173 A 
ATOM     76  C   UNL     1       6.925  -1.510   4.295  1.00  0.00     0.173 A 
ATOM     77  F   UNL     1       9.786  -1.908   6.498  1.00  0.00    -0.203 F 
ATOM     78  C   UNL     1       9.679  -1.177   4.261  1.00  0.00     0.198 A 
ATOM     79  C   UNL     1       7.561  -1.065   3.139  1.00  0.00     0.198 A 
ATOM     80  F   UNL     1       5.591  -1.653   4.283  1.00  0.00    -0.203 F 
ATOM     81  F   UNL     1      11.005  -0.983   4.262  1.00  0.00    -0.200 F 
ATOM     82  C   UNL     1       8.937  -0.890   3.126  1.00  0.00     0.200 A 
ATOM     83  F   UNL     1       6.841  -0.803   2.039  1.00  0.00    -0.200 F 
ATOM     84  F   UNL     1       9.546  -0.438   2.021  1.00  0.00    -0.200 F 
ENDBRANCH  50  74
BRANCH  62  85
ATOM     85  C   UNL     1       6.769   0.999  11.771  1.00  0.00     0.064 A 
ATOM     86  C   UNL     1       6.210   2.229  11.394  1.00  0.00     0.173 A 
ATOM     87  C   UNL     1       7.746   1.005  12.779  1.00  0.00     0.173 A 
ATOM     88  F   UNL     1       5.284   2.280  10.424  1.00  0.00    -0.203 F 
ATOM     89  C   UNL     1       6.628   3.418  11.986  1.00  0.00     0.198 A 
ATOM     90  C   UNL     1       8.139   2.192  13.392  1.00  0.00     0.198 A 
ATOM     91  F   UNL     1       8.309  -0.144  13.182  1.00  0.00    -0.203 F 
ATOM     92  F   UNL     1       6.112   4.585  11.577  1.00  0.00    -0.200 F 
ATOM     93  C   UNL     1       7.585   3.398  12.990  1.00  0.00     0.200 A 
ATOM     94  F   UNL     1       9.053   2.169  14.371  1.00  0.00    -0.200 F 
ATOM     95  F   UNL     1       7.979   4.542  13.566  1.00  0.00    -0.200 F 
ENDBRANCH  62  85
ENDBRANCH  36  37
ENDBRANCH  29  31
ENDBRANCH  28  29
ENDBRANCH  27  28
ENDBRANCH  26  27
ENDBRANCH  25  26
ENDBRANCH   1  25
TORSDOF 18
