REMARK SMILES Cc1nn(C)c(C)c1C(=O)N1CC[C@H](C(=O)OCCOCCOC(=O)c2ccc(-c3c4nc(c(-c5c(F)c(F)c(F)c(F)c5F)c5ccc([nH]5)c(-c5c(F)c(F)c(F)c(F)c5F)c5nc(c(-c6c(F)c(F)c(F)c(F)c6F)c6ccc3[nH]6)C=C5)C=C4)cc2)[C@@H]1C
REMARK SMILES IDX 20 1 19 2 18 3 17 4 15 5 16 6 14 7 11 8 12 9 89 10 13 11
REMARK SMILES IDX 90 12 9 13 10 14 8 15 1 16 2 17 3 18 4 19 6 20 5 21 7 22
REMARK SMILES IDX 21 23 22 24 23 25 24 26 25 27 26 28 27 29 88 30 28 31 87 32
REMARK SMILES IDX 29 33 30 34 31 35 81 36 32 37 86 38 80 39 82 40 33 41 85 42
REMARK SMILES IDX 79 43 78 44 34 46 66 47 46 48 65 49 47 50 50 51 64 52 83 53
REMARK SMILES IDX 48 54 49 55 63 57 84 58 51 59 35 60 36 61 44 62 37 63 38 64
REMARK SMILES IDX 42 65 45 66 39 67 40 68 43 69 41 70 67 71 68 72 76 73 69 74
REMARK SMILES IDX 70 75 74 76 77 77 71 78 72 79 75 80 73 81 52 82 53 83 61 84
REMARK SMILES IDX 54 85 55 86 59 87 62 88 56 89 57 90 60 91 58 92
REMARK H PARENT 82 45 50 56
REMARK Flexibility Score: inf
ROOT
ATOM      1  O   UNL     1      -4.870   6.348   4.243  1.00  0.00    -0.374 OA
ENDROOT
BRANCH   1   2
ATOM      2  C   UNL     1      -6.146   6.192   3.639  1.00  0.00     0.202 C 
BRANCH   2   3
ATOM      3  C   UNL     1      -6.234   5.931   2.138  1.00  0.00     0.261 C 
BRANCH   3   4
ATOM      4  O   UNL     1      -5.658   4.670   1.754  1.00  0.00    -0.463 OA
BRANCH   4   5
ATOM      5  C   UNL     1      -4.585   4.751   0.917  1.00  0.00     0.311 C 
ATOM      6  O   UNL     1      -4.018   5.789   0.607  1.00  0.00    -0.252 OA
BRANCH   5   7
ATOM      7  C   UNL     1      -4.243   3.392   0.348  1.00  0.00     0.123 C 
ATOM      8  N   UNL     1      -2.098   2.920  -0.570  1.00  0.00    -0.335 N 
ATOM      9  C   UNL     1      -2.757   3.830  -1.475  1.00  0.00     0.121 C 
ATOM     10  C   UNL     1      -2.851   2.793   0.678  1.00  0.00     0.096 C 
ATOM     11  C   UNL     1      -4.223   3.550  -1.185  1.00  0.00     0.039 C 
ATOM     12  C   UNL     1      -2.051   3.396   1.825  1.00  0.00     0.032 C 
BRANCH   8  13
ATOM     13  C   UNL     1      -0.853   2.407  -0.876  1.00  0.00     0.257 C 
ATOM     14  O   UNL     1      -0.086   3.023  -1.614  1.00  0.00    -0.269 OA
BRANCH  13  15
ATOM     15  C   UNL     1      -0.507   1.077  -0.379  1.00  0.00     0.083 A 
ATOM     16  C   UNL     1      -2.743  -0.330  -0.550  1.00  0.00     0.069 C 
ATOM     17  C   UNL     1      -1.303  -0.104  -0.265  1.00  0.00     0.072 A 
ATOM     18  N   UNL     1      -0.571  -1.165   0.093  1.00  0.00    -0.178 NA
ATOM     19  N   UNL     1       0.692  -0.712   0.092  1.00  0.00    -0.272 N 
ATOM     20  C   UNL     1       0.783   0.643  -0.082  1.00  0.00     0.048 A 
ATOM     21  C   UNL     1       1.758  -1.685   0.146  1.00  0.00     0.174 C 
ATOM     22  C   UNL     1       2.073   1.382  -0.040  1.00  0.00     0.067 C 
ENDBRANCH  13  15
ENDBRANCH   8  13
ENDBRANCH   5   7
ENDBRANCH   4   5
ENDBRANCH   3   4
ENDBRANCH   2   3
ENDBRANCH   1   2
BRANCH   1  23
ATOM     23  C   UNL     1      -3.913   5.305   4.141  1.00  0.00     0.202 C 
BRANCH  23  24
ATOM     24  C   UNL     1      -4.224   3.912   4.715  1.00  0.00     0.261 C 
BRANCH  24  25
ATOM     25  O   UNL     1      -5.540   3.725   5.200  1.00  0.00    -0.460 OA
BRANCH  25  26
ATOM     26  C   UNL     1      -5.780   4.250   6.420  1.00  0.00     0.338 C 
ATOM     27  O   UNL     1      -5.009   4.804   7.178  1.00  0.00    -0.246 OA
BRANCH  26  28
ATOM     28  C   UNL     1      -7.230   4.135   6.584  1.00  0.00     0.060 A 
ATOM     29  C   UNL     1      -7.988   5.307   6.641  1.00  0.00     0.016 A 
ATOM     30  C   UNL     1      -7.828   2.871   6.556  1.00  0.00     0.016 A 
ATOM     31  C   UNL     1      -9.373   5.215   6.687  1.00  0.00     0.010 A 
ATOM     32  C   UNL     1      -9.211   2.780   6.607  1.00  0.00     0.010 A 
ATOM     33  C   UNL     1      -9.981   3.951   6.693  1.00  0.00    -0.014 A 
BRANCH  33  34
ATOM     34  C   UNL     1     -11.428   3.831   6.938  1.00  0.00     0.031 A 
ATOM     35  C   UNL     1     -11.881   3.511   8.327  1.00  0.00     0.074 A 
ATOM     36  C   UNL     1     -12.296   3.978   5.926  1.00  0.00     0.049 A 
ATOM     37  N   UNL     1     -13.086   3.287   8.776  1.00  0.00    -0.248 NA
ATOM     38  C   UNL     1     -10.826   3.419   9.350  1.00  0.00     0.031 C 
ATOM     39  C   UNL     1     -11.938   4.316   4.550  1.00  0.00     0.029 A 
ATOM     40  N   UNL     1     -13.659   3.848   5.901  1.00  0.00    -0.354 N 
ATOM     41  C   UNL     1     -12.934   3.018  10.129  1.00  0.00     0.074 A 
ATOM     42  C   UNL     1     -11.519   3.073  10.422  1.00  0.00     0.031 C 
ATOM     43  C   UNL     1     -13.059   4.368   3.810  1.00  0.00     0.029 A 
ATOM     44  C   UNL     1     -14.201   4.027   4.654  1.00  0.00     0.049 A 
ATOM     45  H   UNL     1     -14.197   3.647   6.701  1.00  0.00     0.167 HD
ATOM     46  C   UNL     1     -13.898   2.756  11.040  1.00  0.00     0.037 A 
ATOM     47  C   UNL     1     -15.479   3.903   4.250  1.00  0.00     0.037 A 
ATOM     48  C   UNL     1     -15.298   2.698  10.716  1.00  0.00     0.049 A 
ATOM     49  C   UNL     1     -16.522   3.519   5.265  1.00  0.00     0.074 A 
ATOM     50  C   UNL     1     -16.373   2.489  11.559  1.00  0.00     0.029 A 
ATOM     51  N   UNL     1     -15.812   2.831   9.432  1.00  0.00    -0.354 N 
ATOM     52  N   UNL     1     -16.388   3.322   6.556  1.00  0.00    -0.248 NA
ATOM     53  C   UNL     1     -17.890   3.330   4.768  1.00  0.00     0.031 C 
ATOM     54  C   UNL     1     -17.530   2.426  10.775  1.00  0.00     0.029 A 
ATOM     55  C   UNL     1     -17.185   2.655   9.451  1.00  0.00     0.049 A 
ATOM     56  H   UNL     1     -15.278   3.021   8.627  1.00  0.00     0.167 HD
ATOM     57  C   UNL     1     -17.652   3.003   7.029  1.00  0.00     0.074 A 
ATOM     58  C   UNL     1     -18.545   3.050   5.887  1.00  0.00     0.031 C 
ATOM     59  C   UNL     1     -18.044   2.697   8.292  1.00  0.00     0.037 A 
BRANCH  46  60
ATOM     60  C   UNL     1     -13.457   2.466  12.445  1.00  0.00     0.064 A 
ATOM     61  C   UNL     1     -12.879   3.450  13.262  1.00  0.00     0.173 A 
ATOM     62  C   UNL     1     -13.598   1.175  12.976  1.00  0.00     0.173 A 
ATOM     63  F   UNL     1     -12.703   4.696  12.797  1.00  0.00    -0.203 F 
ATOM     64  C   UNL     1     -12.423   3.142  14.542  1.00  0.00     0.198 A 
ATOM     65  C   UNL     1     -13.172   0.879  14.268  1.00  0.00     0.198 A 
ATOM     66  F   UNL     1     -14.142   0.195  12.239  1.00  0.00    -0.203 F 
ATOM     67  F   UNL     1     -11.813   4.082  15.278  1.00  0.00    -0.200 F 
ATOM     68  C   UNL     1     -12.574   1.859  15.045  1.00  0.00     0.200 A 
ATOM     69  F   UNL     1     -13.328  -0.359  14.756  1.00  0.00    -0.200 F 
ATOM     70  F   UNL     1     -12.130   1.563  16.275  1.00  0.00    -0.200 F 
ENDBRANCH  46  60
BRANCH  47  71
ATOM     71  C   UNL     1     -15.831   4.148   2.828  1.00  0.00     0.064 A 
ATOM     72  C   UNL     1     -16.592   5.266   2.462  1.00  0.00     0.173 A 
ATOM     73  C   UNL     1     -15.397   3.291   1.805  1.00  0.00     0.173 A 
ATOM     74  F   UNL     1     -17.047   6.104   3.405  1.00  0.00    -0.203 F 
ATOM     75  C   UNL     1     -16.908   5.517   1.128  1.00  0.00     0.198 A 
ATOM     76  C   UNL     1     -15.691   3.557   0.469  1.00  0.00     0.198 A 
ATOM     77  F   UNL     1     -14.665   2.207   2.102  1.00  0.00    -0.203 F 
ATOM     78  F   UNL     1     -17.660   6.579   0.808  1.00  0.00    -0.200 F 
ATOM     79  C   UNL     1     -16.450   4.667   0.132  1.00  0.00     0.200 A 
ATOM     80  F   UNL     1     -15.233   2.741  -0.490  1.00  0.00    -0.200 F 
ATOM     81  F   UNL     1     -16.742   4.917  -1.151  1.00  0.00    -0.200 F 
ENDBRANCH  47  71
BRANCH  59  82
ATOM     82  C   UNL     1     -19.498   2.394   8.504  1.00  0.00     0.064 A 
ATOM     83  C   UNL     1     -20.067   1.194   8.055  1.00  0.00     0.173 A 
ATOM     84  C   UNL     1     -20.314   3.284   9.219  1.00  0.00     0.173 A 
ATOM     85  F   UNL     1     -19.332   0.319   7.352  1.00  0.00    -0.203 F 
ATOM     86  C   UNL     1     -21.406   0.902   8.300  1.00  0.00     0.198 A 
ATOM     87  C   UNL     1     -21.643   2.974   9.491  1.00  0.00     0.198 A 
ATOM     88  F   UNL     1     -19.815   4.442   9.675  1.00  0.00    -0.203 F 
ATOM     89  F   UNL     1     -21.940  -0.232   7.827  1.00  0.00    -0.200 F 
ATOM     90  C   UNL     1     -22.189   1.787   9.027  1.00  0.00     0.200 A 
ATOM     91  F   UNL     1     -22.394   3.822  10.207  1.00  0.00    -0.200 F 
ATOM     92  F   UNL     1     -23.473   1.497   9.277  1.00  0.00    -0.200 F 
ENDBRANCH  59  82
ENDBRANCH  33  34
ENDBRANCH  26  28
ENDBRANCH  25  26
ENDBRANCH  24  25
ENDBRANCH  23  24
ENDBRANCH   1  23
TORSDOF 16
