REMARK SMILES CCCc1cc2c(cc1Cl)C=C(C(=O)OCCOCCOC(=O)c1ccc(-c3c4nc(c(-c5c(F)c(F)c(F)c(F)c5F)c5ccc([nH]5)c(-c5c(F)c(F)c(F)c(F)c5F)c5nc(c(-c6c(F)c(F)c(F)c(F)c6F)c6ccc3[nH]6)C=C5)C=C4)cc1)[C@@H](C(F)(F)F)O2
REMARK SMILES IDX 18 1 17 2 16 3 15 4 13 5 14 6 12 7 4 8 5 9 9 10 6 11 8 12
REMARK SMILES IDX 10 13 7 14 92 15 11 16 87 17 3 18 2 19 1 20 88 21 89 22
REMARK SMILES IDX 90 23 91 24 19 25 20 26 21 27 22 28 23 29 24 30 25 31 86 32
REMARK SMILES IDX 26 33 85 34 27 35 28 36 29 37 79 38 30 39 84 40 78 41 80 42
REMARK SMILES IDX 31 43 83 44 77 45 76 46 32 48 64 49 44 50 63 51 45 52 48 53
REMARK SMILES IDX 62 54 81 55 46 56 47 57 61 59 82 60 49 61 33 62 34 63 42 64
REMARK SMILES IDX 35 65 36 66 40 67 43 68 37 69 38 70 41 71 39 72 65 73 66 74
REMARK SMILES IDX 74 75 67 76 68 77 72 78 75 79 69 80 70 81 73 82 71 83 50 84
REMARK SMILES IDX 51 85 59 86 52 87 53 88 57 89 60 90 54 91 55 92 58 93 56 94
REMARK H PARENT 80 47 48 58
REMARK Flexibility Score: inf
ROOT
ATOM      1  O   UNL     1      -2.639  -9.172  -2.397  1.00  0.00    -0.374 OA
ENDROOT
BRANCH   1   2
ATOM      2  C   UNL     1      -1.548 -10.035  -2.698  1.00  0.00     0.202 C 
BRANCH   2   3
ATOM      3  C   UNL     1      -0.501  -9.548  -3.705  1.00  0.00     0.261 C 
BRANCH   3   4
ATOM      4  O   UNL     1       0.056  -8.277  -3.341  1.00  0.00    -0.460 OA
BRANCH   4   5
ATOM      5  C   UNL     1      -0.321  -7.258  -4.150  1.00  0.00     0.338 C 
ATOM      6  O   UNL     1      -0.975  -7.342  -5.177  1.00  0.00    -0.246 OA
BRANCH   5   7
ATOM      7  C   UNL     1       0.071  -5.970  -3.550  1.00  0.00     0.087 C 
ATOM      8  C   UNL     1       0.413  -1.051  -2.653  1.00  0.00    -0.026 A 
ATOM      9  C   UNL     1       1.242  -2.159  -2.395  1.00  0.00     0.052 A 
ATOM     10  C   UNL     1      -0.879  -1.283  -3.151  1.00  0.00     0.045 A 
ATOM     11  C   UNL     1       0.815  -3.457  -2.680  1.00  0.00     0.128 A 
ATOM     12  C   UNL     1      -1.308  -2.583  -3.428  1.00  0.00     0.032 A 
ATOM     13  Cl  UNL     1      -1.982   0.004  -3.485  1.00  0.00    -0.084 Cl
ATOM     14  C   UNL     1      -0.450  -3.666  -3.222  1.00  0.00     0.019 A 
ATOM     15  O   UNL     1       1.696  -4.463  -2.402  1.00  0.00    -0.475 OA
ATOM     16  C   UNL     1      -0.841  -4.994  -3.647  1.00  0.00     0.027 C 
ATOM     17  C   UNL     1       1.426  -5.796  -2.923  1.00  0.00     0.316 C 
BRANCH   8  18
ATOM     18  C   UNL     1       0.952   0.337  -2.392  1.00  0.00     0.037 C 
BRANCH  18  19
ATOM     19  C   UNL     1       0.482   0.952  -1.072  1.00  0.00     0.001 C 
ATOM     20  C   UNL     1       0.982   0.200   0.152  1.00  0.00     0.004 C 
ENDBRANCH  18  19
ENDBRANCH   8  18
BRANCH  17  21
ATOM     21  C   UNL     1       2.572  -6.186  -3.869  1.00  0.00     0.430 C 
ATOM     22  F   UNL     1       3.779  -5.967  -3.293  1.00  0.00    -0.167 F 
ATOM     23  F   UNL     1       2.533  -7.500  -4.190  1.00  0.00    -0.167 F 
ATOM     24  F   UNL     1       2.538  -5.484  -5.024  1.00  0.00    -0.167 F 
ENDBRANCH  17  21
ENDBRANCH   5   7
ENDBRANCH   4   5
ENDBRANCH   3   4
ENDBRANCH   2   3
ENDBRANCH   1   2
BRANCH   1  25
ATOM     25  C   UNL     1      -2.406  -8.034  -1.569  1.00  0.00     0.202 C 
BRANCH  25  26
ATOM     26  C   UNL     1      -2.098  -8.257  -0.082  1.00  0.00     0.261 C 
BRANCH  26  27
ATOM     27  O   UNL     1      -0.870  -8.971   0.138  1.00  0.00    -0.460 OA
BRANCH  27  28
ATOM     28  C   UNL     1      -1.022 -10.230   0.617  1.00  0.00     0.338 C 
ATOM     29  O   UNL     1      -2.066 -10.797   0.901  1.00  0.00    -0.246 OA
BRANCH  28  30
ATOM     30  C   UNL     1       0.275 -10.928   0.567  1.00  0.00     0.060 A 
ATOM     31  C   UNL     1       1.389 -10.427   1.240  1.00  0.00     0.016 A 
ATOM     32  C   UNL     1       0.350 -12.136  -0.139  1.00  0.00     0.016 A 
ATOM     33  C   UNL     1       2.580 -11.158   1.223  1.00  0.00     0.010 A 
ATOM     34  C   UNL     1       1.539 -12.862  -0.156  1.00  0.00     0.010 A 
ATOM     35  C   UNL     1       2.658 -12.387   0.542  1.00  0.00    -0.014 A 
BRANCH  35  36
ATOM     36  C   UNL     1       3.871 -13.232   0.667  1.00  0.00     0.031 A 
ATOM     37  C   UNL     1       4.836 -13.393  -0.467  1.00  0.00     0.074 A 
ATOM     38  C   UNL     1       4.085 -13.873   1.831  1.00  0.00     0.049 A 
ATOM     39  N   UNL     1       5.978 -14.033  -0.490  1.00  0.00    -0.248 NA
ATOM     40  C   UNL     1       4.471 -12.763  -1.743  1.00  0.00     0.031 C 
ATOM     41  C   UNL     1       3.191 -13.826   2.988  1.00  0.00     0.029 A 
ATOM     42  N   UNL     1       5.119 -14.678   2.239  1.00  0.00    -0.354 N 
ATOM     43  C   UNL     1       6.482 -13.863  -1.771  1.00  0.00     0.074 A 
ATOM     44  C   UNL     1       5.492 -13.111  -2.515  1.00  0.00     0.031 C 
ATOM     45  C   UNL     1       3.734 -14.533   3.990  1.00  0.00     0.029 A 
ATOM     46  C   UNL     1       4.996 -15.111   3.536  1.00  0.00     0.049 A 
ATOM     47  H   UNL     1       5.875 -14.921   1.658  1.00  0.00     0.167 HD
ATOM     48  C   UNL     1       7.673 -14.276  -2.268  1.00  0.00     0.037 A 
ATOM     49  C   UNL     1       5.813 -15.880   4.281  1.00  0.00     0.037 A 
ATOM     50  C   UNL     1       8.642 -15.045  -1.526  1.00  0.00     0.049 A 
ATOM     51  C   UNL     1       7.103 -16.373   3.687  1.00  0.00     0.074 A 
ATOM     52  C   UNL     1       9.890 -15.483  -1.934  1.00  0.00     0.029 A 
ATOM     53  N   UNL     1       8.465 -15.505  -0.228  1.00  0.00    -0.354 N 
ATOM     54  N   UNL     1       7.609 -16.139   2.501  1.00  0.00    -0.248 NA
ATOM     55  C   UNL     1       7.937 -17.234   4.537  1.00  0.00     0.031 C 
ATOM     56  C   UNL     1      10.441 -16.257  -0.909  1.00  0.00     0.029 A 
ATOM     57  C   UNL     1       9.567 -16.250   0.166  1.00  0.00     0.049 A 
ATOM     58  H   UNL     1       7.674 -15.328   0.331  1.00  0.00     0.167 HD
ATOM     59  C   UNL     1       8.827 -16.803   2.467  1.00  0.00     0.074 A 
ATOM     60  C   UNL     1       8.993 -17.435   3.760  1.00  0.00     0.031 C 
ATOM     61  C   UNL     1       9.724 -16.881   1.454  1.00  0.00     0.037 A 
BRANCH  48  62
ATOM     62  C   UNL     1       8.007 -13.900  -3.684  1.00  0.00     0.064 A 
ATOM     63  C   UNL     1       8.278 -12.570  -4.041  1.00  0.00     0.173 A 
ATOM     64  C   UNL     1       8.126 -14.881  -4.680  1.00  0.00     0.173 A 
ATOM     65  F   UNL     1       8.175 -11.592  -3.128  1.00  0.00    -0.203 F 
ATOM     66  C   UNL     1       8.631 -12.233  -5.345  1.00  0.00     0.198 A 
ATOM     67  C   UNL     1       8.510 -14.545  -5.976  1.00  0.00     0.198 A 
ATOM     68  F   UNL     1       7.889 -16.170  -4.393  1.00  0.00    -0.203 F 
ATOM     69  F   UNL     1       8.845 -10.951  -5.670  1.00  0.00    -0.200 F 
ATOM     70  C   UNL     1       8.755 -13.222  -6.309  1.00  0.00     0.200 A 
ATOM     71  F   UNL     1       8.647 -15.504  -6.902  1.00  0.00    -0.200 F 
ATOM     72  F   UNL     1       9.110 -12.899  -7.561  1.00  0.00    -0.200 F 
ENDBRANCH  48  62
BRANCH  49  73
ATOM     73  C   UNL     1       5.446 -16.180   5.688  1.00  0.00     0.064 A 
ATOM     74  C   UNL     1       6.159 -15.612   6.752  1.00  0.00     0.173 A 
ATOM     75  C   UNL     1       4.349 -16.998   6.000  1.00  0.00     0.173 A 
ATOM     76  F   UNL     1       7.226 -14.837   6.504  1.00  0.00    -0.203 F 
ATOM     77  C   UNL     1       5.792 -15.852   8.074  1.00  0.00     0.198 A 
ATOM     78  C   UNL     1       3.966 -17.214   7.321  1.00  0.00     0.198 A 
ATOM     79  F   UNL     1       3.631 -17.561   5.017  1.00  0.00    -0.203 F 
ATOM     80  F   UNL     1       6.507 -15.317   9.073  1.00  0.00    -0.200 F 
ATOM     81  C   UNL     1       4.689 -16.643   8.357  1.00  0.00     0.200 A 
ATOM     82  F   UNL     1       2.888 -17.964   7.590  1.00  0.00    -0.200 F 
ATOM     83  F   UNL     1       4.324 -16.857   9.629  1.00  0.00    -0.200 F 
ENDBRANCH  49  73
BRANCH  61  84
ATOM     84  C   UNL     1      10.979 -17.673   1.692  1.00  0.00     0.064 A 
ATOM     85  C   UNL     1      10.959 -19.073   1.783  1.00  0.00     0.173 A 
ATOM     86  C   UNL     1      12.226 -17.031   1.756  1.00  0.00     0.173 A 
ATOM     87  F   UNL     1       9.793 -19.735   1.742  1.00  0.00    -0.203 F 
ATOM     88  C   UNL     1      12.137 -19.798   1.942  1.00  0.00     0.198 A 
ATOM     89  C   UNL     1      13.405 -17.761   1.882  1.00  0.00     0.198 A 
ATOM     90  F   UNL     1      12.304 -15.694   1.669  1.00  0.00    -0.203 F 
ATOM     91  F   UNL     1      12.089 -21.132   2.063  1.00  0.00    -0.200 F 
ATOM     92  C   UNL     1      13.359 -19.143   1.979  1.00  0.00     0.200 A 
ATOM     93  F   UNL     1      14.586 -17.128   1.900  1.00  0.00    -0.200 F 
ATOM     94  F   UNL     1      14.493 -19.845   2.111  1.00  0.00    -0.200 F 
ENDBRANCH  61  84
ENDBRANCH  35  36
ENDBRANCH  28  30
ENDBRANCH  27  28
ENDBRANCH  26  27
ENDBRANCH  25  26
ENDBRANCH   1  25
TORSDOF 17
