REMARK SMILES Cc1ccc([C@H](C)Nc2ccc(C(=O)OCCOCCOC(=O)c3ccc(-c4c5nc(c(-c6c(F)c(F)c(F)c(F)c6F)c6ccc([nH]6)c(-c6c(F)c(F)c(F)c(F)c6F)c6nc(c(-c7c(F)c(F)c(F)c(F)c7F)c7ccc4[nH]7)C=C6)C=C5)cc3)cc2Cl)cc1F
REMARK SMILES IDX 17 1 16 2 15 3 13 4 14 5 12 6 9 7 10 8 88 9 11 10 87 11
REMARK SMILES IDX 89 12 8 13 6 15 7 16 5 17 1 18 2 19 3 20 91 21 4 22 90 23
REMARK SMILES IDX 92 24 18 25 19 26 20 27 21 28 22 29 23 30 24 31 25 32 86 33
REMARK SMILES IDX 26 34 85 35 27 36 28 37 29 38 79 39 30 40 84 41 78 42 80 43
REMARK SMILES IDX 31 44 83 45 77 46 76 47 32 49 64 50 44 51 63 52 45 53 48 54
REMARK SMILES IDX 62 55 81 56 46 57 47 58 61 60 82 61 49 62 33 63 34 64 42 65
REMARK SMILES IDX 35 66 36 67 40 68 43 69 37 70 38 71 41 72 39 73 65 74 66 75
REMARK SMILES IDX 74 76 67 77 68 78 72 79 75 80 69 81 70 82 73 83 71 84 50 85
REMARK SMILES IDX 51 86 59 87 52 88 53 89 57 90 60 91 54 92 55 93 58 94 56 95
REMARK H PARENT 8 14 80 48 48 59
REMARK Flexibility Score: inf
ROOT
ATOM      1  C   UNL     1      -8.738  -1.551   7.494  1.00  0.00     0.202 C 
ENDROOT
BRANCH   1   2
ATOM      2  C   UNL     1      -8.893  -0.769   6.174  1.00  0.00     0.261 C 
BRANCH   2   3
ATOM      3  O   UNL     1      -8.070  -1.180   5.078  1.00  0.00    -0.460 OA
BRANCH   3   4
ATOM      4  C   UNL     1      -6.825  -0.664   5.081  1.00  0.00     0.338 C 
ATOM      5  O   UNL     1      -6.363   0.135   5.892  1.00  0.00    -0.246 OA
BRANCH   4   6
ATOM      6  C   UNL     1      -6.000  -1.309   4.042  1.00  0.00     0.061 A 
ATOM      7  C   UNL     1      -4.278  -2.344   2.057  1.00  0.00     0.053 A 
ATOM      8  C   UNL     1      -3.840  -2.173   3.380  1.00  0.00     0.028 A 
ATOM      9  C   UNL     1      -5.630  -2.038   1.773  1.00  0.00     0.065 A 
ATOM     10  C   UNL     1      -4.680  -1.642   4.356  1.00  0.00     0.018 A 
ATOM     11  C   UNL     1      -6.492  -1.554   2.764  1.00  0.00     0.038 A 
ATOM     12  Cl  UNL     1      -6.352  -2.279   0.219  1.00  0.00    -0.082 Cl
BRANCH   7  13
ATOM     13  N   UNL     1      -3.318  -2.728   1.130  1.00  0.00    -0.377 N 
ATOM     14  H   UNL     1      -2.817  -3.560   1.288  1.00  0.00     0.161 HD
BRANCH  13  15
ATOM     15  C   UNL     1      -3.017  -1.947  -0.075  1.00  0.00     0.106 C 
ATOM     16  C   UNL     1      -1.857  -0.992   0.259  1.00  0.00     0.036 C 
BRANCH  15  17
ATOM     17  C   UNL     1      -2.821  -2.918  -1.236  1.00  0.00    -0.023 A 
ATOM     18  C   UNL     1      -2.837  -5.496  -4.726  1.00  0.00     0.047 C 
ATOM     19  C   UNL     1      -2.787  -4.624  -3.512  1.00  0.00    -0.015 A 
ATOM     20  C   UNL     1      -1.838  -3.608  -3.365  1.00  0.00     0.007 A 
ATOM     21  C   UNL     1      -3.733  -4.793  -2.508  1.00  0.00     0.126 A 
ATOM     22  C   UNL     1      -1.858  -2.763  -2.244  1.00  0.00     0.006 A 
ATOM     23  C   UNL     1      -3.744  -3.971  -1.390  1.00  0.00     0.045 A 
ATOM     24  F   UNL     1      -4.670  -5.746  -2.620  1.00  0.00    -0.207 F 
ENDBRANCH  15  17
ENDBRANCH  13  15
ENDBRANCH   7  13
ENDBRANCH   4   6
ENDBRANCH   3   4
ENDBRANCH   2   3
ENDBRANCH   1   2
BRANCH   1  25
ATOM     25  O   UNL     1      -7.515  -2.167   7.853  1.00  0.00    -0.374 OA
BRANCH  25  26
ATOM     26  C   UNL     1      -6.886  -3.138   7.033  1.00  0.00     0.202 C 
BRANCH  26  27
ATOM     27  C   UNL     1      -7.684  -4.198   6.298  1.00  0.00     0.261 C 
BRANCH  27  28
ATOM     28  O   UNL     1      -8.504  -3.753   5.206  1.00  0.00    -0.460 OA
BRANCH  28  29
ATOM     29  C   UNL     1      -9.834  -3.775   5.462  1.00  0.00     0.338 C 
ATOM     30  O   UNL     1     -10.346  -3.773   6.572  1.00  0.00    -0.246 OA
BRANCH  29  31
ATOM     31  C   UNL     1     -10.644  -4.137   4.281  1.00  0.00     0.060 A 
ATOM     32  C   UNL     1     -11.982  -4.423   4.599  1.00  0.00     0.016 A 
ATOM     33  C   UNL     1      -9.993  -4.781   3.228  1.00  0.00     0.016 A 
ATOM     34  C   UNL     1     -12.513  -5.619   4.159  1.00  0.00     0.010 A 
ATOM     35  C   UNL     1     -10.536  -5.964   2.773  1.00  0.00     0.010 A 
ATOM     36  C   UNL     1     -11.723  -6.429   3.343  1.00  0.00    -0.014 A 
BRANCH  36  37
ATOM     37  C   UNL     1     -12.145  -7.774   3.009  1.00  0.00     0.031 A 
ATOM     38  C   UNL     1     -13.326  -7.868   2.141  1.00  0.00     0.074 A 
ATOM     39  C   UNL     1     -11.535  -8.861   3.536  1.00  0.00     0.049 A 
ATOM     40  N   UNL     1     -14.252  -8.749   2.268  1.00  0.00    -0.248 NA
ATOM     41  C   UNL     1     -13.614  -6.865   1.116  1.00  0.00     0.031 C 
ATOM     42  C   UNL     1     -11.740 -10.252   3.159  1.00  0.00     0.029 A 
ATOM     43  N   UNL     1     -10.649  -8.934   4.626  1.00  0.00    -0.354 N 
ATOM     44  C   UNL     1     -15.055  -8.643   1.156  1.00  0.00     0.074 A 
ATOM     45  C   UNL     1     -14.716  -7.374   0.557  1.00  0.00     0.031 C 
ATOM     46  C   UNL     1     -11.225 -11.050   4.110  1.00  0.00     0.029 A 
ATOM     47  C   UNL     1     -10.777 -10.216   5.213  1.00  0.00     0.049 A 
ATOM     48  H   UNL     1     -10.045  -8.218   4.929  1.00  0.00     0.167 HD
ATOM     49  C   UNL     1     -15.764  -9.737   0.759  1.00  0.00     0.037 A 
ATOM     50  C   UNL     1     -11.135 -10.416   6.525  1.00  0.00     0.037 A 
ATOM     51  C   UNL     1     -15.548 -10.840   1.696  1.00  0.00     0.049 A 
ATOM     52  C   UNL     1     -12.526 -10.978   6.645  1.00  0.00     0.074 A 
ATOM     53  C   UNL     1     -14.629 -11.878   1.687  1.00  0.00     0.029 A 
ATOM     54  N   UNL     1     -16.000 -10.730   3.009  1.00  0.00    -0.354 N 
ATOM     55  N   UNL     1     -13.371 -11.019   5.657  1.00  0.00    -0.248 NA
ATOM     56  C   UNL     1     -13.081 -11.484   7.893  1.00  0.00     0.031 C 
ATOM     57  C   UNL     1     -14.480 -12.346   3.015  1.00  0.00     0.029 A 
ATOM     58  C   UNL     1     -15.326 -11.617   3.832  1.00  0.00     0.049 A 
ATOM     59  H   UNL     1     -16.702 -10.109   3.310  1.00  0.00     0.167 HD
ATOM     60  C   UNL     1     -14.550 -11.547   6.093  1.00  0.00     0.074 A 
ATOM     61  C   UNL     1     -14.314 -11.839   7.497  1.00  0.00     0.031 C 
ATOM     62  C   UNL     1     -15.617 -11.701   5.258  1.00  0.00     0.037 A 
BRANCH  49  63
ATOM     63  C   UNL     1     -16.302  -9.897  -0.643  1.00  0.00     0.064 A 
ATOM     64  C   UNL     1     -16.276 -11.154  -1.287  1.00  0.00     0.173 A 
ATOM     65  C   UNL     1     -16.808  -8.842  -1.426  1.00  0.00     0.173 A 
ATOM     66  F   UNL     1     -15.892 -12.263  -0.644  1.00  0.00    -0.203 F 
ATOM     67  C   UNL     1     -16.637 -11.321  -2.626  1.00  0.00     0.198 A 
ATOM     68  C   UNL     1     -17.125  -9.000  -2.781  1.00  0.00     0.198 A 
ATOM     69  F   UNL     1     -17.046  -7.636  -0.892  1.00  0.00    -0.203 F 
ATOM     70  F   UNL     1     -16.582 -12.541  -3.180  1.00  0.00    -0.200 F 
ATOM     71  C   UNL     1     -17.033 -10.240  -3.382  1.00  0.00     0.200 A 
ATOM     72  F   UNL     1     -17.520  -7.940  -3.502  1.00  0.00    -0.200 F 
ATOM     73  F   UNL     1     -17.348 -10.395  -4.676  1.00  0.00    -0.200 F 
ENDBRANCH  49  63
BRANCH  50  74
ATOM     74  C   UNL     1     -10.584  -9.447   7.537  1.00  0.00     0.064 A 
ATOM     75  C   UNL     1      -9.181  -9.383   7.535  1.00  0.00     0.173 A 
ATOM     76  C   UNL     1     -11.291  -8.249   7.631  1.00  0.00     0.173 A 
ATOM     77  F   UNL     1      -8.453 -10.500   7.679  1.00  0.00    -0.203 F 
ATOM     78  C   UNL     1      -8.577  -8.246   7.038  1.00  0.00     0.198 A 
ATOM     79  C   UNL     1     -10.699  -7.110   7.130  1.00  0.00     0.198 A 
ATOM     80  F   UNL     1     -12.604  -8.248   7.899  1.00  0.00    -0.203 F 
ATOM     81  F   UNL     1      -7.289  -8.267   6.665  1.00  0.00    -0.200 F 
ATOM     82  C   UNL     1      -9.380  -7.174   6.699  1.00  0.00     0.200 A 
ATOM     83  F   UNL     1     -11.466  -6.046   6.887  1.00  0.00    -0.200 F 
ATOM     84  F   UNL     1      -8.940  -6.349   5.747  1.00  0.00    -0.200 F 
ENDBRANCH  50  74
BRANCH  62  85
ATOM     85  C   UNL     1     -16.995 -12.099   5.703  1.00  0.00     0.064 A 
ATOM     86  C   UNL     1     -17.515 -11.827   6.977  1.00  0.00     0.173 A 
ATOM     87  C   UNL     1     -17.890 -12.702   4.790  1.00  0.00     0.173 A 
ATOM     88  F   UNL     1     -16.827 -11.110   7.877  1.00  0.00    -0.203 F 
ATOM     89  C   UNL     1     -18.792 -12.242   7.351  1.00  0.00     0.198 A 
ATOM     90  C   UNL     1     -19.193 -13.035   5.140  1.00  0.00     0.198 A 
ATOM     91  F   UNL     1     -17.536 -12.970   3.524  1.00  0.00    -0.203 F 
ATOM     92  F   UNL     1     -19.210 -12.042   8.608  1.00  0.00    -0.200 F 
ATOM     93  C   UNL     1     -19.633 -12.838   6.431  1.00  0.00     0.200 A 
ATOM     94  F   UNL     1     -20.020 -13.540   4.213  1.00  0.00    -0.200 F 
ATOM     95  F   UNL     1     -20.873 -13.200   6.782  1.00  0.00    -0.200 F 
ENDBRANCH  62  85
ENDBRANCH  36  37
ENDBRANCH  29  31
ENDBRANCH  28  29
ENDBRANCH  27  28
ENDBRANCH  26  27
ENDBRANCH  25  26
ENDBRANCH   1  25
TORSDOF 17
