REMARK SMILES CCN(C(=O)N(CCOC)CC(=O)OCCOCCOC(=O)c1ccc(-c2c3nc(c(-c4c(F)c(F)c(F)c(F)c4F)c4ccc([nH]4)c(-c4c(F)c(F)c(F)c(F)c4F)c4nc(c(-c5c(F)c(F)c(F)c(F)c5F)c5ccc2[nH]5)C=C4)C=C3)cc1)C1CCCC1
REMARK SMILES IDX 16 1 15 2 14 3 12 4 13 5 11 6 6 7 4 8 5 9 3 10 2 11 1 12
REMARK SMILES IDX 86 13 87 14 90 15 88 16 89 17 7 18 8 19 9 20 10 21 17 22
REMARK SMILES IDX 18 23 19 24 20 25 21 26 22 27 23 28 24 29 85 30 25 31 84 32
REMARK SMILES IDX 26 33 27 34 28 35 78 36 29 37 83 38 77 39 79 40 30 41 82 42
REMARK SMILES IDX 76 43 75 44 31 46 63 47 43 48 62 49 44 50 47 51 61 52 80 53
REMARK SMILES IDX 45 54 46 55 60 57 81 58 48 59 32 60 33 61 41 62 34 63 35 64
REMARK SMILES IDX 39 65 42 66 36 67 37 68 40 69 38 70 64 71 65 72 73 73 66 74
REMARK SMILES IDX 67 75 71 76 74 77 68 78 69 79 72 80 70 81 49 82 50 83 58 84
REMARK SMILES IDX 51 85 52 86 56 87 59 88 53 89 54 90 57 91 55 92
REMARK H PARENT 79 45 47 56
REMARK Flexibility Score: inf
ROOT
ATOM      1  C   UNL     1      -1.339  -0.895  -7.924  1.00  0.00     0.202 C 
ENDROOT
BRANCH   1   2
ATOM      2  C   UNL     1      -2.501  -1.067  -6.937  1.00  0.00     0.261 C 
BRANCH   2   3
ATOM      3  O   UNL     1      -2.109  -1.142  -5.547  1.00  0.00    -0.462 OA
BRANCH   3   4
ATOM      4  C   UNL     1      -2.582  -2.236  -4.882  1.00  0.00     0.325 C 
ATOM      5  O   UNL     1      -3.290  -3.100  -5.399  1.00  0.00    -0.250 OA
BRANCH   4   6
ATOM      6  C   UNL     1      -2.244  -2.303  -3.390  1.00  0.00     0.244 C 
BRANCH   6   7
ATOM      7  N   UNL     1      -1.405  -1.292  -2.702  1.00  0.00    -0.311 N 
BRANCH   7   8
ATOM      8  C   UNL     1      -0.035  -1.451  -2.876  1.00  0.00     0.320 C 
ATOM      9  O   UNL     1       0.320  -2.385  -3.603  1.00  0.00    -0.248 OA
BRANCH   8  10
ATOM     10  N   UNL     1       0.920  -0.637  -2.278  1.00  0.00    -0.322 N 
BRANCH  10  11
ATOM     11  C   UNL     1       0.681   0.557  -1.459  1.00  0.00     0.118 C 
ATOM     12  C   UNL     1       0.769   0.267   0.036  1.00  0.00     0.027 C 
ENDBRANCH  10  11
BRANCH  10  13
ATOM     13  C   UNL     1       2.383  -0.894  -2.465  1.00  0.00     0.087 C 
ATOM     14  C   UNL     1       2.938  -2.215  -3.020  1.00  0.00     0.025 C 
ATOM     15  C   UNL     1       3.072   0.186  -3.322  1.00  0.00     0.025 C 
ATOM     16  C   UNL     1       4.381  -1.868  -3.372  1.00  0.00     0.002 C 
ATOM     17  C   UNL     1       4.312  -0.456  -3.936  1.00  0.00     0.002 C 
ENDBRANCH  10  13
ENDBRANCH   8  10
ENDBRANCH   7   8
BRANCH   7  18
ATOM     18  C   UNL     1      -2.168  -0.424  -1.791  1.00  0.00     0.150 C 
BRANCH  18  19
ATOM     19  C   UNL     1      -2.702   0.851  -2.458  1.00  0.00     0.181 C 
BRANCH  19  20
ATOM     20  O   UNL     1      -4.123   0.772  -2.596  1.00  0.00    -0.383 OA
ATOM     21  C   UNL     1      -4.559   0.770  -3.945  1.00  0.00     0.194 C 
ENDBRANCH  19  20
ENDBRANCH  18  19
ENDBRANCH   7  18
ENDBRANCH   6   7
ENDBRANCH   4   6
ENDBRANCH   3   4
ENDBRANCH   2   3
ENDBRANCH   1   2
BRANCH   1  22
ATOM     22  O   UNL     1      -0.372  -1.940  -7.987  1.00  0.00    -0.374 OA
BRANCH  22  23
ATOM     23  C   UNL     1       0.389  -2.186  -6.809  1.00  0.00     0.202 C 
BRANCH  23  24
ATOM     24  C   UNL     1       1.411  -1.114  -6.427  1.00  0.00     0.261 C 
BRANCH  24  25
ATOM     25  O   UNL     1       0.884   0.220  -6.377  1.00  0.00    -0.460 OA
BRANCH  25  26
ATOM     26  C   UNL     1       1.580   1.120  -7.099  1.00  0.00     0.338 C 
ATOM     27  O   UNL     1       2.631   0.949  -7.715  1.00  0.00    -0.246 OA
BRANCH  26  28
ATOM     28  C   UNL     1       0.864   2.396  -7.150  1.00  0.00     0.060 A 
ATOM     29  C   UNL     1       0.333   2.803  -8.379  1.00  0.00     0.016 A 
ATOM     30  C   UNL     1       0.856   3.249  -6.044  1.00  0.00     0.016 A 
ATOM     31  C   UNL     1      -0.165   4.096  -8.519  1.00  0.00     0.010 A 
ATOM     32  C   UNL     1       0.356   4.546  -6.188  1.00  0.00     0.010 A 
ATOM     33  C   UNL     1      -0.120   4.986  -7.436  1.00  0.00    -0.014 A 
BRANCH  33  34
ATOM     34  C   UNL     1      -0.463   6.412  -7.651  1.00  0.00     0.031 A 
ATOM     35  C   UNL     1       0.639   7.414  -7.854  1.00  0.00     0.074 A 
ATOM     36  C   UNL     1      -1.750   6.798  -7.696  1.00  0.00     0.049 A 
ATOM     37  N   UNL     1       0.559   8.704  -8.064  1.00  0.00    -0.248 NA
ATOM     38  C   UNL     1       2.015   6.894  -7.815  1.00  0.00     0.031 C 
ATOM     39  C   UNL     1      -2.899   5.910  -7.536  1.00  0.00     0.029 A 
ATOM     40  N   UNL     1      -2.303   8.037  -7.889  1.00  0.00    -0.354 N 
ATOM     41  C   UNL     1       1.870   9.148  -8.184  1.00  0.00     0.074 A 
ATOM     42  C   UNL     1       2.727   7.998  -7.990  1.00  0.00     0.031 C 
ATOM     43  C   UNL     1      -4.026   6.635  -7.633  1.00  0.00     0.029 A 
ATOM     44  C   UNL     1      -3.674   8.039  -7.838  1.00  0.00     0.049 A 
ATOM     45  H   UNL     1      -1.768   8.848  -8.048  1.00  0.00     0.167 HD
ATOM     46  C   UNL     1       2.315  10.401  -8.444  1.00  0.00     0.037 A 
ATOM     47  C   UNL     1      -4.545   9.062  -7.934  1.00  0.00     0.037 A 
ATOM     48  C   UNL     1       1.458  11.541  -8.638  1.00  0.00     0.049 A 
ATOM     49  C   UNL     1      -4.021  10.454  -8.169  1.00  0.00     0.074 A 
ATOM     50  C   UNL     1       1.810  12.847  -8.932  1.00  0.00     0.029 A 
ATOM     51  N   UNL     1       0.074  11.510  -8.549  1.00  0.00    -0.354 N 
ATOM     52  N   UNL     1      -2.783  10.858  -8.316  1.00  0.00    -0.248 NA
ATOM     53  C   UNL     1      -5.018  11.530  -8.255  1.00  0.00     0.031 C 
ATOM     54  C   UNL     1       0.641  13.615  -8.977  1.00  0.00     0.029 A 
ATOM     55  C   UNL     1      -0.442  12.779  -8.755  1.00  0.00     0.049 A 
ATOM     56  H   UNL     1      -0.462  10.705  -8.365  1.00  0.00     0.167 HD
ATOM     57  C   UNL     1      -2.851  12.228  -8.532  1.00  0.00     0.074 A 
ATOM     58  C   UNL     1      -4.255  12.584  -8.513  1.00  0.00     0.031 C 
ATOM     59  C   UNL     1      -1.843  13.113  -8.730  1.00  0.00     0.037 A 
BRANCH  46  60
ATOM     60  C   UNL     1       3.799  10.608  -8.519  1.00  0.00     0.064 A 
ATOM     61  C   UNL     1       4.553  10.143  -9.607  1.00  0.00     0.173 A 
ATOM     62  C   UNL     1       4.470  11.311  -7.507  1.00  0.00     0.173 A 
ATOM     63  F   UNL     1       3.960   9.454 -10.594  1.00  0.00    -0.203 F 
ATOM     64  C   UNL     1       5.928  10.357  -9.669  1.00  0.00     0.198 A 
ATOM     65  C   UNL     1       5.841  11.544  -7.584  1.00  0.00     0.198 A 
ATOM     66  F   UNL     1       3.795  11.779  -6.447  1.00  0.00    -0.203 F 
ATOM     67  F   UNL     1       6.635   9.871 -10.698  1.00  0.00    -0.200 F 
ATOM     68  C   UNL     1       6.569  11.062  -8.661  1.00  0.00     0.200 A 
ATOM     69  F   UNL     1       6.457  12.235  -6.615  1.00  0.00    -0.200 F 
ATOM     70  F   UNL     1       7.891  11.273  -8.725  1.00  0.00    -0.200 F 
ENDBRANCH  46  60
BRANCH  47  71
ATOM     71  C   UNL     1      -6.002   8.805  -7.806  1.00  0.00     0.064 A 
ATOM     72  C   UNL     1      -6.858   8.925  -8.909  1.00  0.00     0.173 A 
ATOM     73  C   UNL     1      -6.566   8.434  -6.577  1.00  0.00     0.173 A 
ATOM     74  F   UNL     1      -6.367   9.299 -10.100  1.00  0.00    -0.203 F 
ATOM     75  C   UNL     1      -8.226   8.695  -8.784  1.00  0.00     0.198 A 
ATOM     76  C   UNL     1      -7.930   8.180  -6.459  1.00  0.00     0.198 A 
ATOM     77  F   UNL     1      -5.788   8.306  -5.492  1.00  0.00    -0.203 F 
ATOM     78  F   UNL     1      -9.029   8.852  -9.845  1.00  0.00    -0.200 F 
ATOM     79  C   UNL     1      -8.761   8.317  -7.561  1.00  0.00     0.200 A 
ATOM     80  F   UNL     1      -8.440   7.803  -5.279  1.00  0.00    -0.200 F 
ATOM     81  F   UNL     1     -10.076   8.089  -7.444  1.00  0.00    -0.200 F 
ENDBRANCH  47  71
BRANCH  59  82
ATOM     82  C   UNL     1      -2.224  14.546  -8.958  1.00  0.00     0.064 A 
ATOM     83  C   UNL     1      -2.685  15.357  -7.911  1.00  0.00     0.173 A 
ATOM     84  C   UNL     1      -2.090  15.123 -10.230  1.00  0.00     0.173 A 
ATOM     85  F   UNL     1      -2.844  14.845  -6.681  1.00  0.00    -0.203 F 
ATOM     86  C   UNL     1      -3.021  16.689  -8.135  1.00  0.00     0.198 A 
ATOM     87  C   UNL     1      -2.402  16.463 -10.444  1.00  0.00     0.198 A 
ATOM     88  F   UNL     1      -1.648  14.390 -11.262  1.00  0.00    -0.203 F 
ATOM     89  F   UNL     1      -3.501  17.435  -7.130  1.00  0.00    -0.200 F 
ATOM     90  C   UNL     1      -2.873  17.243  -9.398  1.00  0.00     0.200 A 
ATOM     91  F   UNL     1      -2.248  16.999 -11.662  1.00  0.00    -0.200 F 
ATOM     92  F   UNL     1      -3.192  18.527  -9.610  1.00  0.00    -0.200 F 
ENDBRANCH  59  82
ENDBRANCH  33  34
ENDBRANCH  26  28
ENDBRANCH  25  26
ENDBRANCH  24  25
ENDBRANCH  23  24
ENDBRANCH  22  23
ENDBRANCH   1  22
TORSDOF 22
