REMARK SMILES Cc1ccc([C@@H](C)Nc2ccc(N)cc2C(=O)OCCOCCOC(=O)c2ccc(-c3c4nc(c(-c5c(F)c(F)c(F)c(F)c5F)c5ccc([nH]5)c(-c5c(F)c(F)c(F)c(F)c5F)c5nc(c(-c6c(F)c(F)c(F)c(F)c6F)c6ccc3[nH]6)C=C5)C=C4)cc2)cc1F
REMARK SMILES IDX 20 1 19 2 18 3 16 4 17 5 15 6 9 7 10 8 11 9 14 10 12 11 8 12
REMARK SMILES IDX 6 14 7 15 5 16 1 17 2 18 3 19 91 20 4 21 90 22 92 23 13 24
REMARK SMILES IDX 21 27 22 28 23 29 24 30 25 31 26 32 27 33 28 34 89 35 29 36
REMARK SMILES IDX 88 37 30 38 31 39 32 40 82 41 33 42 87 43 81 44 83 45 34 46
REMARK SMILES IDX 86 47 80 48 79 49 35 51 67 52 47 53 66 54 48 55 51 56 65 57
REMARK SMILES IDX 84 58 49 59 50 60 64 62 85 63 52 64 36 65 37 66 45 67 38 68
REMARK SMILES IDX 39 69 43 70 46 71 40 72 41 73 44 74 42 75 68 76 69 77 77 78
REMARK SMILES IDX 70 79 71 80 75 81 78 82 72 83 73 84 76 85 74 86 53 87 54 88
REMARK SMILES IDX 62 89 55 90 56 91 60 92 63 93 57 94 58 95 61 96 59 97
REMARK H PARENT 8 13 13 25 13 26 83 50 51 61
REMARK Flexibility Score: inf
ROOT
ATOM      1  C   UNL     1      -2.484  -2.946  -4.143  1.00  0.00     0.202 C 
ENDROOT
BRANCH   1   2
ATOM      2  C   UNL     1      -3.662  -3.155  -3.195  1.00  0.00     0.261 C 
BRANCH   2   3
ATOM      3  O   UNL     1      -3.209  -3.527  -1.880  1.00  0.00    -0.460 OA
BRANCH   3   4
ATOM      4  C   UNL     1      -4.209  -3.985  -1.085  1.00  0.00     0.340 C 
ATOM      5  O   UNL     1      -5.401  -4.005  -1.357  1.00  0.00    -0.246 OA
BRANCH   4   6
ATOM      6  C   UNL     1      -3.640  -4.677   0.075  1.00  0.00     0.085 A 
ATOM      7  C   UNL     1      -3.525  -4.142   1.363  1.00  0.00     0.049 A 
ATOM      8  C   UNL     1      -3.088  -5.059   2.352  1.00  0.00     0.029 A 
ATOM      9  C   UNL     1      -2.850  -6.416   2.100  1.00  0.00     0.027 A 
ATOM     10  C   UNL     1      -3.407  -6.054  -0.179  1.00  0.00     0.043 A 
ATOM     11  C   UNL     1      -3.060  -6.939   0.836  1.00  0.00     0.032 A 
BRANCH   7  12
ATOM     12  N   UNL     1      -3.769  -2.872   1.833  1.00  0.00    -0.378 N 
ATOM     13  H   UNL     1      -4.029  -2.892   2.782  1.00  0.00     0.161 HD
BRANCH  12  14
ATOM     14  C   UNL     1      -3.752  -1.500   1.325  1.00  0.00     0.106 C 
ATOM     15  C   UNL     1      -4.509  -1.223   0.043  1.00  0.00     0.036 C 
BRANCH  14  16
ATOM     16  C   UNL     1      -2.387  -0.833   1.458  1.00  0.00    -0.023 A 
ATOM     17  C   UNL     1       1.239   1.198   2.691  1.00  0.00     0.047 C 
ATOM     18  C   UNL     1      -0.000   0.515   2.194  1.00  0.00    -0.015 A 
ATOM     19  C   UNL     1      -1.130   1.240   1.810  1.00  0.00     0.007 A 
ATOM     20  C   UNL     1      -0.051  -0.878   2.117  1.00  0.00     0.126 A 
ATOM     21  C   UNL     1      -2.306   0.574   1.444  1.00  0.00     0.006 A 
ATOM     22  C   UNL     1      -1.216  -1.548   1.743  1.00  0.00     0.045 A 
ATOM     23  F   UNL     1       1.043  -1.597   2.405  1.00  0.00    -0.207 F 
ENDBRANCH  14  16
ENDBRANCH  12  14
ENDBRANCH   7  12
BRANCH  11  24
ATOM     24  N   UNL     1      -2.816  -8.276   0.571  1.00  0.00    -0.399 N 
ATOM     25  H   UNL     1      -2.572  -8.886   1.304  1.00  0.00     0.156 HD
ATOM     26  H   UNL     1      -2.887  -8.616  -0.350  1.00  0.00     0.156 HD
ENDBRANCH  11  24
ENDBRANCH   4   6
ENDBRANCH   3   4
ENDBRANCH   2   3
ENDBRANCH   1   2
BRANCH   1  27
ATOM     27  O   UNL     1      -1.766  -4.116  -4.545  1.00  0.00    -0.374 OA
BRANCH  27  28
ATOM     28  C   UNL     1      -1.293  -5.001  -3.534  1.00  0.00     0.202 C 
BRANCH  28  29
ATOM     29  C   UNL     1      -0.068  -4.560  -2.729  1.00  0.00     0.261 C 
BRANCH  29  30
ATOM     30  O   UNL     1      -0.069  -3.173  -2.404  1.00  0.00    -0.460 OA
BRANCH  30  31
ATOM     31  C   UNL     1       0.549  -2.377  -3.308  1.00  0.00     0.338 C 
ATOM     32  O   UNL     1       1.084  -2.705  -4.357  1.00  0.00    -0.246 OA
BRANCH  31  33
ATOM     33  C   UNL     1       0.554  -0.990  -2.811  1.00  0.00     0.060 A 
ATOM     34  C   UNL     1       0.731   0.067  -3.715  1.00  0.00     0.016 A 
ATOM     35  C   UNL     1       0.664  -0.785  -1.440  1.00  0.00     0.016 A 
ATOM     36  C   UNL     1       1.260   1.277  -3.262  1.00  0.00     0.010 A 
ATOM     37  C   UNL     1       1.173   0.415  -0.997  1.00  0.00     0.010 A 
ATOM     38  C   UNL     1       1.608   1.380  -1.914  1.00  0.00    -0.014 A 
BRANCH  38  39
ATOM     39  C   UNL     1       2.854   2.017  -1.468  1.00  0.00     0.031 A 
ATOM     40  C   UNL     1       2.940   3.170  -0.557  1.00  0.00     0.074 A 
ATOM     41  C   UNL     1       3.950   1.237  -1.637  1.00  0.00     0.049 A 
ATOM     42  N   UNL     1       4.059   3.734  -0.243  1.00  0.00    -0.248 NA
ATOM     43  C   UNL     1       1.792   3.815   0.057  1.00  0.00     0.031 C 
ATOM     44  C   UNL     1       5.212   1.266  -0.909  1.00  0.00     0.029 A 
ATOM     45  N   UNL     1       4.157   0.271  -2.637  1.00  0.00    -0.354 N 
ATOM     46  C   UNL     1       3.841   4.579   0.817  1.00  0.00     0.074 A 
ATOM     47  C   UNL     1       2.400   4.695   0.867  1.00  0.00     0.031 C 
ATOM     48  C   UNL     1       6.138   0.615  -1.628  1.00  0.00     0.029 A 
ATOM     49  C   UNL     1       5.539   0.285  -2.909  1.00  0.00     0.049 A 
ATOM     50  H   UNL     1       3.475  -0.300  -3.060  1.00  0.00     0.167 HD
ATOM     51  C   UNL     1       4.922   4.974   1.563  1.00  0.00     0.037 A 
ATOM     52  C   UNL     1       5.966   0.755  -4.118  1.00  0.00     0.037 A 
ATOM     53  C   UNL     1       6.187   4.590   0.910  1.00  0.00     0.049 A 
ATOM     54  C   UNL     1       6.739   2.058  -4.052  1.00  0.00     0.074 A 
ATOM     55  C   UNL     1       7.223   3.705   1.165  1.00  0.00     0.029 A 
ATOM     56  N   UNL     1       6.422   5.072  -0.365  1.00  0.00    -0.354 N 
ATOM     57  N   UNL     1       7.106   2.662  -2.955  1.00  0.00    -0.248 NA
ATOM     58  C   UNL     1       7.061   2.840  -5.248  1.00  0.00     0.031 C 
ATOM     59  C   UNL     1       8.066   3.658   0.009  1.00  0.00     0.029 A 
ATOM     60  C   UNL     1       7.544   4.516  -0.941  1.00  0.00     0.049 A 
ATOM     61  H   UNL     1       5.852   5.739  -0.812  1.00  0.00     0.167 HD
ATOM     62  C   UNL     1       7.563   3.915  -3.264  1.00  0.00     0.074 A 
ATOM     63  C   UNL     1       7.551   3.969  -4.713  1.00  0.00     0.031 C 
ATOM     64  C   UNL     1       7.843   4.861  -2.321  1.00  0.00     0.037 A 
BRANCH  51  65
ATOM     65  C   UNL     1       4.903   5.633   2.940  1.00  0.00     0.064 A 
ATOM     66  C   UNL     1       6.113   5.860   3.644  1.00  0.00     0.173 A 
ATOM     67  C   UNL     1       3.752   6.016   3.656  1.00  0.00     0.173 A 
ATOM     68  F   UNL     1       7.306   5.571   3.108  1.00  0.00    -0.203 F 
ATOM     69  C   UNL     1       6.156   6.389   4.941  1.00  0.00     0.198 A 
ATOM     70  C   UNL     1       3.796   6.570   4.941  1.00  0.00     0.198 A 
ATOM     71  F   UNL     1       2.522   5.865   3.169  1.00  0.00    -0.203 F 
ATOM     72  F   UNL     1       7.336   6.541   5.560  1.00  0.00    -0.200 F 
ATOM     73  C   UNL     1       4.996   6.748   5.590  1.00  0.00     0.200 A 
ATOM     74  F   UNL     1       2.651   6.918   5.548  1.00  0.00    -0.200 F 
ATOM     75  F   UNL     1       5.031   7.257   6.828  1.00  0.00    -0.200 F 
ENDBRANCH  51  65
BRANCH  52  76
ATOM     76  C   UNL     1       5.061   0.362  -5.233  1.00  0.00     0.064 A 
ATOM     77  C   UNL     1       4.977  -0.998  -5.588  1.00  0.00     0.173 A 
ATOM     78  C   UNL     1       4.060   1.217  -5.713  1.00  0.00     0.173 A 
ATOM     79  F   UNL     1       5.901  -1.863  -5.139  1.00  0.00    -0.203 F 
ATOM     80  C   UNL     1       3.908  -1.491  -6.334  1.00  0.00     0.198 A 
ATOM     81  C   UNL     1       2.995   0.721  -6.464  1.00  0.00     0.198 A 
ATOM     82  F   UNL     1       4.054   2.515  -5.373  1.00  0.00    -0.203 F 
ATOM     83  F   UNL     1       3.830  -2.801  -6.605  1.00  0.00    -0.200 F 
ATOM     84  C   UNL     1       2.907  -0.632  -6.756  1.00  0.00     0.200 A 
ATOM     85  F   UNL     1       2.006   1.547  -6.838  1.00  0.00    -0.200 F 
ATOM     86  F   UNL     1       1.841  -1.106  -7.417  1.00  0.00    -0.200 F 
ENDBRANCH  52  76
BRANCH  64  87
ATOM     87  C   UNL     1       8.355   6.229  -2.676  1.00  0.00     0.064 A 
ATOM     88  C   UNL     1       9.413   6.411  -3.583  1.00  0.00     0.173 A 
ATOM     89  C   UNL     1       7.871   7.395  -2.048  1.00  0.00     0.173 A 
ATOM     90  F   UNL     1       9.977   5.359  -4.196  1.00  0.00    -0.203 F 
ATOM     91  C   UNL     1       9.919   7.679  -3.875  1.00  0.00     0.198 A 
ATOM     92  C   UNL     1       8.414   8.653  -2.301  1.00  0.00     0.198 A 
ATOM     93  F   UNL     1       6.835   7.356  -1.198  1.00  0.00    -0.203 F 
ATOM     94  F   UNL     1      10.888   7.813  -4.792  1.00  0.00    -0.200 F 
ATOM     95  C   UNL     1       9.429   8.798  -3.225  1.00  0.00     0.200 A 
ATOM     96  F   UNL     1       7.938   9.725  -1.651  1.00  0.00    -0.200 F 
ATOM     97  F   UNL     1       9.929  10.011  -3.492  1.00  0.00    -0.200 F 
ENDBRANCH  64  87
ENDBRANCH  38  39
ENDBRANCH  31  33
ENDBRANCH  30  31
ENDBRANCH  29  30
ENDBRANCH  28  29
ENDBRANCH  27  28
ENDBRANCH   1  27
TORSDOF 18
