REMARK SMILES O=C(OCCOCCOC(=O)c1ccc(COc2cccc(C(F)(F)F)c2)nc1)c1ccc(-c2c3nc(c(-c4c(F)c(F)c(F)c(F)c4F)c4ccc([nH]4)c(-c4c(F)c(F)c(F)c(F)c4F)c4nc(c(-c5c(F)c(F)c(F)c(F)c5F)c5ccc2[nH]5)C=C4)C=C3)cc1
REMARK SMILES IDX 7 1 6 2 5 3 4 4 3 5 2 6 1 7 30 8 31 9 92 10 32 11 91 12
REMARK SMILES IDX 33 13 34 14 35 15 85 16 36 17 90 18 84 19 86 20 37 21 89 22
REMARK SMILES IDX 83 23 82 24 38 26 70 27 50 28 69 29 51 30 54 31 68 32 87 33
REMARK SMILES IDX 52 34 53 35 67 37 88 38 55 39 39 40 40 41 48 42 41 43 42 44
REMARK SMILES IDX 46 45 49 46 43 47 44 48 47 49 45 50 71 51 72 52 80 53 73 54
REMARK SMILES IDX 74 55 78 56 81 57 75 58 76 59 79 60 77 61 56 62 57 63 65 64
REMARK SMILES IDX 58 65 59 66 63 67 66 68 60 69 61 70 64 71 62 72 8 73 9 74
REMARK SMILES IDX 10 75 11 76 12 77 13 78 29 79 14 80 28 81 15 82 16 83 17 84
REMARK SMILES IDX 18 85 19 86 27 87 20 88 22 89 21 90 23 91 24 92 25 93 26 94
REMARK H PARENT 86 25 54 36
REMARK Flexibility Score: inf
ROOT
ATOM      1  C   UNL     1       2.533   1.806   1.058  1.00  0.00     0.202 C 
ENDROOT
BRANCH   1   2
ATOM      2  O   UNL     1       3.868   1.500   0.641  1.00  0.00    -0.374 OA
BRANCH   2   3
ATOM      3  C   UNL     1       4.104   1.446  -0.768  1.00  0.00     0.202 C 
BRANCH   3   4
ATOM      4  C   UNL     1       3.777   0.121  -1.459  1.00  0.00     0.261 C 
BRANCH   4   5
ATOM      5  O   UNL     1       2.413  -0.250  -1.215  1.00  0.00    -0.460 OA
BRANCH   5   6
ATOM      6  C   UNL     1       1.953  -1.153  -0.318  1.00  0.00     0.338 C 
ATOM      7  O   UNL     1       0.745  -1.367  -0.254  1.00  0.00    -0.246 OA
BRANCH   6   8
ATOM      8  C   UNL     1       2.849  -1.916   0.600  1.00  0.00     0.060 A 
ATOM      9  C   UNL     1       4.070  -1.443   1.074  1.00  0.00     0.016 A 
ATOM     10  C   UNL     1       2.393  -3.154   1.081  1.00  0.00     0.016 A 
ATOM     11  C   UNL     1       4.858  -2.183   1.926  1.00  0.00     0.010 A 
ATOM     12  C   UNL     1       3.153  -3.885   2.001  1.00  0.00     0.010 A 
ATOM     13  C   UNL     1       4.394  -3.394   2.418  1.00  0.00    -0.014 A 
BRANCH  13  14
ATOM     14  C   UNL     1       5.317  -4.118   3.302  1.00  0.00     0.031 A 
ATOM     15  C   UNL     1       6.066  -5.282   2.744  1.00  0.00     0.074 A 
ATOM     16  C   UNL     1       5.631  -3.564   4.489  1.00  0.00     0.049 A 
ATOM     17  N   UNL     1       6.967  -6.034   3.314  1.00  0.00    -0.248 NA
ATOM     18  C   UNL     1       5.783  -5.634   1.341  1.00  0.00     0.031 C 
ATOM     19  C   UNL     1       5.045  -2.327   5.021  1.00  0.00     0.029 A 
ATOM     20  N   UNL     1       6.557  -3.920   5.429  1.00  0.00    -0.354 N 
ATOM     21  C   UNL     1       7.345  -6.955   2.350  1.00  0.00     0.074 A 
ATOM     22  C   UNL     1       6.571  -6.682   1.160  1.00  0.00     0.031 C 
ATOM     23  C   UNL     1       5.655  -2.010   6.172  1.00  0.00     0.029 A 
ATOM     24  C   UNL     1       6.606  -3.063   6.501  1.00  0.00     0.049 A 
ATOM     25  H   UNL     1       7.134  -4.714   5.345  1.00  0.00     0.167 HD
ATOM     26  C   UNL     1       8.262  -7.941   2.464  1.00  0.00     0.037 A 
ATOM     27  C   UNL     1       7.315  -3.154   7.640  1.00  0.00     0.037 A 
ATOM     28  C   UNL     1       9.007  -8.180   3.670  1.00  0.00     0.049 A 
ATOM     29  C   UNL     1       8.237  -4.335   7.784  1.00  0.00     0.074 A 
ATOM     30  C   UNL     1       9.885  -9.206   3.961  1.00  0.00     0.029 A 
ATOM     31  N   UNL     1       8.957  -7.361   4.793  1.00  0.00    -0.354 N 
ATOM     32  N   UNL     1       8.518  -5.275   6.911  1.00  0.00    -0.248 NA
ATOM     33  C   UNL     1       8.927  -4.481   9.069  1.00  0.00     0.031 C 
ATOM     34  C   UNL     1      10.331  -9.031   5.276  1.00  0.00     0.029 A 
ATOM     35  C   UNL     1       9.778  -7.865   5.785  1.00  0.00     0.049 A 
ATOM     36  H   UNL     1       8.415  -6.542   4.870  1.00  0.00     0.167 HD
ATOM     37  C   UNL     1       9.424  -6.118   7.534  1.00  0.00     0.074 A 
ATOM     38  C   UNL     1       9.673  -5.553   8.847  1.00  0.00     0.031 C 
ATOM     39  C   UNL     1       9.992  -7.262   7.078  1.00  0.00     0.037 A 
BRANCH  26  40
ATOM     40  C   UNL     1       8.434  -8.854   1.288  1.00  0.00     0.064 A 
ATOM     41  C   UNL     1       9.055  -8.432   0.103  1.00  0.00     0.173 A 
ATOM     42  C   UNL     1       7.936 -10.165   1.336  1.00  0.00     0.173 A 
ATOM     43  F   UNL     1       9.517  -7.177  -0.008  1.00  0.00    -0.203 F 
ATOM     44  C   UNL     1       9.147  -9.280  -0.999  1.00  0.00     0.198 A 
ATOM     45  C   UNL     1       8.054 -11.018   0.243  1.00  0.00     0.198 A 
ATOM     46  F   UNL     1       7.321 -10.614   2.440  1.00  0.00    -0.203 F 
ATOM     47  F   UNL     1       9.691  -8.836  -2.141  1.00  0.00    -0.200 F 
ATOM     48  C   UNL     1       8.652 -10.573  -0.926  1.00  0.00     0.200 A 
ATOM     49  F   UNL     1       7.574 -12.268   0.316  1.00  0.00    -0.200 F 
ATOM     50  F   UNL     1       8.736 -11.386  -1.988  1.00  0.00    -0.200 F 
ENDBRANCH  26  40
BRANCH  27  51
ATOM     51  C   UNL     1       7.116  -2.173   8.742  1.00  0.00     0.064 A 
ATOM     52  C   UNL     1       8.165  -1.376   9.221  1.00  0.00     0.173 A 
ATOM     53  C   UNL     1       5.869  -2.046   9.377  1.00  0.00     0.173 A 
ATOM     54  F   UNL     1       9.384  -1.469   8.668  1.00  0.00    -0.203 F 
ATOM     55  C   UNL     1       7.984  -0.520  10.308  1.00  0.00     0.198 A 
ATOM     56  C   UNL     1       5.678  -1.162  10.436  1.00  0.00     0.198 A 
ATOM     57  F   UNL     1       4.826  -2.784   8.967  1.00  0.00    -0.203 F 
ATOM     58  F   UNL     1       9.023   0.177  10.789  1.00  0.00    -0.200 F 
ATOM     59  C   UNL     1       6.740  -0.411  10.912  1.00  0.00     0.200 A 
ATOM     60  F   UNL     1       4.470  -1.051  11.004  1.00  0.00    -0.200 F 
ATOM     61  F   UNL     1       6.569   0.405  11.961  1.00  0.00    -0.200 F 
ENDBRANCH  27  51
BRANCH  39  62
ATOM     62  C   UNL     1      10.951  -7.945   8.005  1.00  0.00     0.064 A 
ATOM     63  C   UNL     1      10.512  -8.597   9.166  1.00  0.00     0.173 A 
ATOM     64  C   UNL     1      12.323  -7.964   7.713  1.00  0.00     0.173 A 
ATOM     65  F   UNL     1       9.211  -8.590   9.494  1.00  0.00    -0.203 F 
ATOM     66  C   UNL     1      11.419  -9.211  10.024  1.00  0.00     0.198 A 
ATOM     67  C   UNL     1      13.221  -8.612   8.553  1.00  0.00     0.198 A 
ATOM     68  F   UNL     1      12.789  -7.362   6.609  1.00  0.00    -0.203 F 
ATOM     69  F   UNL     1      10.986  -9.772  11.161  1.00  0.00    -0.200 F 
ATOM     70  C   UNL     1      12.770  -9.225   9.713  1.00  0.00     0.200 A 
ATOM     71  F   UNL     1      14.525  -8.640   8.243  1.00  0.00    -0.200 F 
ATOM     72  F   UNL     1      13.642  -9.821  10.537  1.00  0.00    -0.200 F 
ENDBRANCH  39  62
ENDBRANCH  13  14
ENDBRANCH   6   8
ENDBRANCH   5   6
ENDBRANCH   4   5
ENDBRANCH   3   4
ENDBRANCH   2   3
ENDBRANCH   1   2
BRANCH   1  73
ATOM     73  C   UNL     1       2.549   2.986   2.038  1.00  0.00     0.261 C 
BRANCH  73  74
ATOM     74  O   UNL     1       2.954   4.159   1.318  1.00  0.00    -0.460 OA
BRANCH  74  75
ATOM     75  C   UNL     1       4.296   4.268   1.172  1.00  0.00     0.339 C 
ATOM     76  O   UNL     1       5.166   3.770   1.867  1.00  0.00    -0.246 OA
BRANCH  75  77
ATOM     77  C   UNL     1       4.543   4.879  -0.136  1.00  0.00     0.078 A 
ATOM     78  C   UNL     1       3.829   5.972  -0.617  1.00  0.00     0.019 A 
ATOM     79  C   UNL     1       5.539   4.333  -0.929  1.00  0.00     0.127 A 
ATOM     80  C   UNL     1       4.234   6.559  -1.813  1.00  0.00     0.028 A 
ATOM     81  N   UNL     1       5.894   4.833  -2.134  1.00  0.00    -0.257 NA
ATOM     82  C   UNL     1       5.320   6.010  -2.500  1.00  0.00     0.078 A 
BRANCH  82  83
ATOM     83  C   UNL     1       6.064   6.853  -3.519  1.00  0.00     0.285 C 
BRANCH  83  84
ATOM     84  O   UNL     1       7.499   6.933  -3.354  1.00  0.00    -0.487 OA
BRANCH  84  85
ATOM     85  C   UNL     1       8.011   7.505  -2.220  1.00  0.00     0.120 A 
ATOM     86  C   UNL     1       9.026   8.441  -2.378  1.00  0.00     0.046 A 
ATOM     87  C   UNL     1       7.733   7.064  -0.928  1.00  0.00     0.059 A 
ATOM     88  C   UNL     1       9.716   8.936  -1.262  1.00  0.00     0.004 A 
ATOM     89  C   UNL     1       8.404   7.540   0.207  1.00  0.00     0.059 A 
ATOM     90  C   UNL     1       9.408   8.488   0.026  1.00  0.00     0.013 A 
BRANCH  89  91
ATOM     91  C   UNL     1       8.076   6.968   1.565  1.00  0.00     0.416 C 
ATOM     92  F   UNL     1       9.059   6.158   2.045  1.00  0.00    -0.166 F 
ATOM     93  F   UNL     1       7.885   7.930   2.509  1.00  0.00    -0.166 F 
ATOM     94  F   UNL     1       6.937   6.219   1.575  1.00  0.00    -0.166 F 
ENDBRANCH  89  91
ENDBRANCH  84  85
ENDBRANCH  83  84
ENDBRANCH  82  83
ENDBRANCH  75  77
ENDBRANCH  74  75
ENDBRANCH  73  74
ENDBRANCH   1  73
TORSDOF 18
