REMARK SMILES CC(C)Oc1ccc([C@@H]2CC(=O)Nc3c(C(=O)OCCOCCOC(=O)c4ccc(-c5c6nc(c(-c7c(F)c(F)c(F)c(F)c7F)c7ccc([nH]7)c(-c7c(F)c(F)c(F)c(F)c7F)c7nc(c(-c8c(F)c(F)c(F)c(F)c8F)c8ccc5[nH]8)C=C7)C=C6)cc4)nsc32)cc1
REMARK SMILES IDX 20 1 19 2 18 3 16 4 17 5 15 6 9 7 10 8 92 9 11 10 14 11
REMARK SMILES IDX 91 12 12 13 13 14 90 15 8 17 5 18 6 19 94 20 7 21 93 22 4 23
REMARK SMILES IDX 2 24 1 25 3 26 21 27 22 28 23 29 24 30 25 31 26 32 27 33
REMARK SMILES IDX 28 34 89 35 29 36 88 37 30 38 31 39 32 40 82 41 33 42 87 43
REMARK SMILES IDX 81 44 83 45 34 46 86 47 80 48 79 49 35 51 67 52 47 53 66 54
REMARK SMILES IDX 48 55 51 56 65 57 84 58 49 59 50 60 64 62 85 63 52 64 36 65
REMARK SMILES IDX 37 66 45 67 38 68 39 69 43 70 46 71 40 72 41 73 44 74 42 75
REMARK SMILES IDX 68 76 69 77 77 78 70 79 71 80 75 81 78 82 72 83 73 84 76 85
REMARK SMILES IDX 74 86 53 87 54 88 62 89 55 90 56 91 60 92 63 93 57 94 58 95
REMARK SMILES IDX 61 96 59 97
REMARK H PARENT 13 16 83 50 51 61
REMARK Flexibility Score: inf
ROOT
ATOM      1  C   UNL     1      -1.833  -1.972  11.209  1.00  0.00     0.202 C 
ENDROOT
BRANCH   1   2
ATOM      2  C   UNL     1      -1.312  -0.925  10.226  1.00  0.00     0.261 C 
BRANCH   2   3
ATOM      3  O   UNL     1      -1.809  -1.156   8.898  1.00  0.00    -0.458 OA
BRANCH   3   4
ATOM      4  C   UNL     1      -0.883  -1.671   8.027  1.00  0.00     0.360 C 
ATOM      5  O   UNL     1       0.306  -1.792   8.287  1.00  0.00    -0.244 OA
BRANCH   4   6
ATOM      6  C   UNL     1      -1.497  -2.153   6.783  1.00  0.00     0.185 A 
ATOM      7  C   UNL     1      -3.850  -1.794   3.893  1.00  0.00     0.073 C 
ATOM      8  C   UNL     1      -4.605  -0.547   4.399  1.00  0.00     0.114 C 
ATOM      9  C   UNL     1      -2.858  -2.233   4.923  1.00  0.00     0.058 A 
ATOM     10  C   UNL     1      -4.770  -0.458   5.912  1.00  0.00     0.225 C 
ATOM     11  C   UNL     1      -2.732  -1.717   6.189  1.00  0.00     0.091 A 
ATOM     12  S   UNL     1      -1.674  -3.430   4.692  1.00  0.00    -0.038 S 
ATOM     13  O   UNL     1      -5.744   0.087   6.429  1.00  0.00    -0.275 OA
ATOM     14  N   UNL     1      -3.712  -0.878   6.682  1.00  0.00    -0.323 N 
ATOM     15  N   UNL     1      -0.858  -3.110   6.090  1.00  0.00    -0.183 NA
ATOM     16  H   UNL     1      -3.651  -0.570   7.615  1.00  0.00     0.170 HD
BRANCH   7  17
ATOM     17  C   UNL     1      -3.132  -1.481   2.581  1.00  0.00    -0.039 A 
ATOM     18  C   UNL     1      -1.573  -1.063   0.272  1.00  0.00     0.119 A 
ATOM     19  C   UNL     1      -2.659  -1.942   0.247  1.00  0.00     0.047 A 
ATOM     20  C   UNL     1      -1.312  -0.340   1.426  1.00  0.00     0.047 A 
ATOM     21  C   UNL     1      -3.433  -2.160   1.395  1.00  0.00     0.008 A 
ATOM     22  C   UNL     1      -2.072  -0.555   2.571  1.00  0.00     0.008 A 
BRANCH  18  23
ATOM     23  O   UNL     1      -0.891  -0.875  -0.895  1.00  0.00    -0.491 OA
BRANCH  23  24
ATOM     24  C   UNL     1       0.537  -1.060  -0.907  1.00  0.00     0.167 C 
ATOM     25  C   UNL     1       1.334   0.057  -0.235  1.00  0.00     0.052 C 
ATOM     26  C   UNL     1       0.978  -2.447  -0.444  1.00  0.00     0.052 C 
ENDBRANCH  23  24
ENDBRANCH  18  23
ENDBRANCH   7  17
ENDBRANCH   4   6
ENDBRANCH   3   4
ENDBRANCH   2   3
ENDBRANCH   1   2
BRANCH   1  27
ATOM     27  O   UNL     1      -1.371  -3.313  11.055  1.00  0.00    -0.374 OA
BRANCH  27  28
ATOM     28  C   UNL     1      -1.830  -4.118   9.975  1.00  0.00     0.202 C 
BRANCH  28  29
ATOM     29  C   UNL     1      -3.271  -4.601   9.996  1.00  0.00     0.261 C 
BRANCH  29  30
ATOM     30  O   UNL     1      -4.200  -3.527  10.021  1.00  0.00    -0.460 OA
BRANCH  30  31
ATOM     31  C   UNL     1      -4.731  -3.315  11.249  1.00  0.00     0.338 C 
ATOM     32  O   UNL     1      -4.278  -3.664  12.321  1.00  0.00    -0.246 OA
BRANCH  31  33
ATOM     33  C   UNL     1      -6.072  -2.751  11.082  1.00  0.00     0.060 A 
ATOM     34  C   UNL     1      -6.807  -2.570  12.255  1.00  0.00     0.016 A 
ATOM     35  C   UNL     1      -6.667  -2.736   9.812  1.00  0.00     0.016 A 
ATOM     36  C   UNL     1      -8.178  -2.600  12.170  1.00  0.00     0.010 A 
ATOM     37  C   UNL     1      -8.034  -2.791   9.731  1.00  0.00     0.010 A 
ATOM     38  C   UNL     1      -8.764  -2.804  10.916  1.00  0.00    -0.014 A 
BRANCH  38  39
ATOM     39  C   UNL     1     -10.203  -2.880  10.851  1.00  0.00     0.031 A 
ATOM     40  C   UNL     1     -10.831  -1.555  11.038  1.00  0.00     0.074 A 
ATOM     41  C   UNL     1     -10.851  -4.020  10.553  1.00  0.00     0.049 A 
ATOM     42  N   UNL     1     -11.565  -1.178  12.029  1.00  0.00    -0.248 NA
ATOM     43  C   UNL     1     -10.431  -0.464  10.133  1.00  0.00     0.031 C 
ATOM     44  C   UNL     1     -10.288  -5.301  10.124  1.00  0.00     0.029 A 
ATOM     45  N   UNL     1     -12.191  -4.238  10.483  1.00  0.00    -0.354 N 
ATOM     46  C   UNL     1     -11.892   0.145  11.762  1.00  0.00     0.074 A 
ATOM     47  C   UNL     1     -11.009   0.584  10.717  1.00  0.00     0.031 C 
ATOM     48  C   UNL     1     -11.278  -6.075   9.621  1.00  0.00     0.029 A 
ATOM     49  C   UNL     1     -12.548  -5.393   9.797  1.00  0.00     0.049 A 
ATOM     50  H   UNL     1     -12.852  -3.629  10.884  1.00  0.00     0.167 HD
ATOM     51  C   UNL     1     -13.060   0.666  12.223  1.00  0.00     0.037 A 
ATOM     52  C   UNL     1     -13.793  -5.686   9.340  1.00  0.00     0.037 A 
ATOM     53  C   UNL     1     -13.570  -0.113  13.324  1.00  0.00     0.049 A 
ATOM     54  C   UNL     1     -14.752  -4.832  10.096  1.00  0.00     0.074 A 
ATOM     55  C   UNL     1     -13.074  -0.461  14.567  1.00  0.00     0.029 A 
ATOM     56  N   UNL     1     -14.595  -0.992  13.072  1.00  0.00    -0.354 N 
ATOM     57  N   UNL     1     -15.011  -4.995  11.365  1.00  0.00    -0.248 NA
ATOM     58  C   UNL     1     -15.033  -3.503   9.569  1.00  0.00     0.031 C 
ATOM     59  C   UNL     1     -13.495  -1.807  14.771  1.00  0.00     0.029 A 
ATOM     60  C   UNL     1     -14.287  -2.179  13.685  1.00  0.00     0.049 A 
ATOM     61  H   UNL     1     -15.405  -0.803  12.545  1.00  0.00     0.167 HD
ATOM     62  C   UNL     1     -15.050  -3.709  11.882  1.00  0.00     0.074 A 
ATOM     63  C   UNL     1     -15.128  -2.828  10.719  1.00  0.00     0.031 C 
ATOM     64  C   UNL     1     -14.706  -3.463  13.181  1.00  0.00     0.037 A 
BRANCH  51  65
ATOM     65  C   UNL     1     -13.932   1.592  11.409  1.00  0.00     0.064 A 
ATOM     66  C   UNL     1     -15.093   2.117  12.008  1.00  0.00     0.173 A 
ATOM     67  C   UNL     1     -13.858   1.728  10.004  1.00  0.00     0.173 A 
ATOM     68  F   UNL     1     -15.273   2.036  13.335  1.00  0.00    -0.203 F 
ATOM     69  C   UNL     1     -16.142   2.638  11.248  1.00  0.00     0.198 A 
ATOM     70  C   UNL     1     -14.883   2.299   9.255  1.00  0.00     0.198 A 
ATOM     71  F   UNL     1     -12.859   1.217   9.278  1.00  0.00    -0.203 F 
ATOM     72  F   UNL     1     -17.284   2.991  11.851  1.00  0.00    -0.200 F 
ATOM     73  C   UNL     1     -16.040   2.719   9.872  1.00  0.00     0.200 A 
ATOM     74  F   UNL     1     -14.770   2.352   7.921  1.00  0.00    -0.200 F 
ATOM     75  F   UNL     1     -17.072   3.152   9.136  1.00  0.00    -0.200 F 
ENDBRANCH  51  65
BRANCH  52  76
ATOM     76  C   UNL     1     -14.175  -6.405   8.099  1.00  0.00     0.064 A 
ATOM     77  C   UNL     1     -15.497  -6.833   7.884  1.00  0.00     0.173 A 
ATOM     78  C   UNL     1     -13.319  -6.455   6.980  1.00  0.00     0.173 A 
ATOM     79  F   UNL     1     -16.396  -6.776   8.877  1.00  0.00    -0.203 F 
ATOM     80  C   UNL     1     -15.938  -7.262   6.625  1.00  0.00     0.198 A 
ATOM     81  C   UNL     1     -13.757  -6.891   5.729  1.00  0.00     0.198 A 
ATOM     82  F   UNL     1     -12.064  -5.992   7.050  1.00  0.00    -0.203 F 
ATOM     83  F   UNL     1     -17.222  -7.604   6.446  1.00  0.00    -0.200 F 
ATOM     84  C   UNL     1     -15.069  -7.282   5.547  1.00  0.00     0.200 A 
ATOM     85  F   UNL     1     -12.913  -6.870   4.687  1.00  0.00    -0.200 F 
ATOM     86  F   UNL     1     -15.503  -7.637   4.330  1.00  0.00    -0.200 F 
ENDBRANCH  52  76
BRANCH  64  87
ATOM     87  C   UNL     1     -14.530  -4.641  14.098  1.00  0.00     0.064 A 
ATOM     88  C   UNL     1     -13.567  -5.648  13.915  1.00  0.00     0.173 A 
ATOM     89  C   UNL     1     -15.267  -4.664  15.290  1.00  0.00     0.173 A 
ATOM     90  F   UNL     1     -12.748  -5.636  12.855  1.00  0.00    -0.203 F 
ATOM     91  C   UNL     1     -13.387  -6.657  14.860  1.00  0.00     0.198 A 
ATOM     92  C   UNL     1     -15.057  -5.649  16.251  1.00  0.00     0.198 A 
ATOM     93  F   UNL     1     -16.159  -3.695  15.547  1.00  0.00    -0.203 F 
ATOM     94  F   UNL     1     -12.471  -7.616  14.654  1.00  0.00    -0.200 F 
ATOM     95  C   UNL     1     -14.127  -6.652  16.030  1.00  0.00     0.200 A 
ATOM     96  F   UNL     1     -15.737  -5.607  17.405  1.00  0.00    -0.200 F 
ATOM     97  F   UNL     1     -13.925  -7.596  16.959  1.00  0.00    -0.200 F 
ENDBRANCH  64  87
ENDBRANCH  38  39
ENDBRANCH  31  33
ENDBRANCH  30  31
ENDBRANCH  29  30
ENDBRANCH  28  29
ENDBRANCH  27  28
ENDBRANCH   1  27
TORSDOF 17
