REMARK SMILES C[C@@H](C(=O)NCC(=O)OCCOCCOC(=O)c1ccc(-c2c3nc(c(-c4c(F)c(F)c(F)c(F)c4F)c4ccc([nH]4)c(-c4c(F)c(F)c(F)c(F)c4F)c4nc(c(-c5c(F)c(F)c(F)c(F)c5F)c5ccc2[nH]5)C=C4)C=C3)cc1)N1C(=O)/C(=C/c2cccc([N+](=O)[O-])c2)SC1=S
REMARK SMILES IDX 10 1 9 2 7 3 8 4 6 5 5 6 3 7 4 8 2 10 1 11 81 12 82 13 96 14
REMARK SMILES IDX 83 15 84 16 95 17 97 18 85 19 86 20 87 21 94 22 88 23 90 24
REMARK SMILES IDX 89 25 91 26 92 27 93 28 11 29 12 30 13 31 14 32 15 33 16 34
REMARK SMILES IDX 17 35 18 36 19 37 80 38 20 39 79 40 21 41 22 42 23 43 73 44
REMARK SMILES IDX 24 45 78 46 72 47 74 48 25 49 77 50 71 51 70 52 26 54 58 55
REMARK SMILES IDX 38 56 57 57 39 58 42 59 56 60 75 61 40 62 41 63 55 65 76 66
REMARK SMILES IDX 43 67 27 68 28 69 36 70 29 71 30 72 34 73 37 74 31 75 32 76
REMARK SMILES IDX 35 77 33 78 59 79 60 80 68 81 61 82 62 83 66 84 69 85 63 86
REMARK SMILES IDX 64 87 67 88 65 89 44 90 45 91 53 92 46 93 47 94 51 95 54 96
REMARK SMILES IDX 48 97 49 98 52 99 50 100
REMARK H PARENT 5 9 74 53 42 64
REMARK Flexibility Score: inf
ROOT
ATOM      1  C   UNL     1       4.952   1.174   1.262  1.00  0.00     0.261 C 
ENDROOT
BRANCH   1   2
ATOM      2  O   UNL     1       3.933   0.173   1.102  1.00  0.00    -0.462 OA
BRANCH   2   3
ATOM      3  C   UNL     1       4.105  -0.709   0.080  1.00  0.00     0.325 C 
ATOM      4  O   UNL     1       4.922  -0.595  -0.823  1.00  0.00    -0.250 OA
BRANCH   3   5
ATOM      5  C   UNL     1       3.198  -1.934   0.232  1.00  0.00     0.238 C 
BRANCH   5   6
ATOM      6  N   UNL     1       2.245  -1.869   1.336  1.00  0.00    -0.343 N 
ATOM      7  C   UNL     1       0.938  -1.483   1.334  1.00  0.00     0.243 C 
ATOM      8  O   UNL     1       0.347  -1.460   2.415  1.00  0.00    -0.273 OA
ATOM      9  H   UNL     1       2.599  -2.144   2.212  1.00  0.00     0.164 HD
BRANCH   7  10
ATOM     10  C   UNL     1       0.254  -1.109   0.007  1.00  0.00     0.178 C 
ATOM     11  C   UNL     1       0.803   0.172  -0.616  1.00  0.00     0.042 C 
BRANCH  10  12
ATOM     12  N   UNL     1      -1.208  -1.143   0.212  1.00  0.00    -0.281 N 
ATOM     13  C   UNL     1      -1.826  -2.373   0.032  1.00  0.00     0.266 C 
ATOM     14  C   UNL     1      -2.010  -0.135   0.713  1.00  0.00     0.149 C 
ATOM     15  O   UNL     1      -1.269  -3.422  -0.266  1.00  0.00    -0.268 OA
ATOM     16  C   UNL     1      -3.291  -2.256   0.227  1.00  0.00     0.081 C 
ATOM     17  S   UNL     1      -3.693  -0.660   0.707  1.00  0.00    -0.054 SA
ATOM     18  S   UNL     1      -1.606   1.392   1.252  1.00  0.00    -0.052 S 
ATOM     19  C   UNL     1      -4.126  -3.277  -0.009  1.00  0.00     0.029 C 
BRANCH  19  20
ATOM     20  C   UNL     1      -5.585  -3.153  -0.016  1.00  0.00    -0.018 A 
ATOM     21  C   UNL     1      -6.363  -3.656   1.031  1.00  0.00     0.008 A 
ATOM     22  C   UNL     1      -6.202  -2.495  -1.087  1.00  0.00     0.093 A 
ATOM     23  C   UNL     1      -7.752  -3.491   1.017  1.00  0.00     0.008 A 
ATOM     24  C   UNL     1      -7.591  -2.325  -1.091  1.00  0.00     0.270 A 
ATOM     25  C   UNL     1      -8.371  -2.822  -0.041  1.00  0.00     0.085 A 
BRANCH  24  26
ATOM     26  N   UNL     1      -8.224  -1.609  -2.204  1.00  0.00     0.062 N 
ATOM     27  O   UNL     1      -9.456  -1.484  -2.183  1.00  0.00    -0.258 OA
ATOM     28  O   UNL     1      -7.489  -1.174  -3.102  1.00  0.00    -0.258 OA
ENDBRANCH  24  26
ENDBRANCH  19  20
ENDBRANCH  10  12
ENDBRANCH   7  10
ENDBRANCH   5   6
ENDBRANCH   3   5
ENDBRANCH   2   3
ENDBRANCH   1   2
BRANCH   1  29
ATOM     29  C   UNL     1       5.482   1.158   2.699  1.00  0.00     0.202 C 
BRANCH  29  30
ATOM     30  O   UNL     1       6.212  -0.013   3.073  1.00  0.00    -0.374 OA
BRANCH  30  31
ATOM     31  C   UNL     1       5.466  -1.198   3.346  1.00  0.00     0.202 C 
BRANCH  31  32
ATOM     32  C   UNL     1       4.771  -1.273   4.710  1.00  0.00     0.261 C 
BRANCH  32  33
ATOM     33  O   UNL     1       3.779  -0.245   4.877  1.00  0.00    -0.460 OA
BRANCH  33  34
ATOM     34  C   UNL     1       4.073   0.666   5.835  1.00  0.00     0.338 C 
ATOM     35  O   UNL     1       5.029   0.653   6.598  1.00  0.00    -0.246 OA
BRANCH  34  36
ATOM     36  C   UNL     1       3.160   1.820   5.760  1.00  0.00     0.060 A 
ATOM     37  C   UNL     1       3.744   3.092   5.699  1.00  0.00     0.016 A 
ATOM     38  C   UNL     1       1.772   1.681   5.845  1.00  0.00     0.016 A 
ATOM     39  C   UNL     1       2.946   4.231   5.778  1.00  0.00     0.010 A 
ATOM     40  C   UNL     1       0.973   2.829   5.931  1.00  0.00     0.010 A 
ATOM     41  C   UNL     1       1.559   4.107   5.934  1.00  0.00    -0.014 A 
BRANCH  41  42
ATOM     42  C   UNL     1       0.754   5.321   6.216  1.00  0.00     0.031 A 
ATOM     43  C   UNL     1       0.391   5.656   7.636  1.00  0.00     0.074 A 
ATOM     44  C   UNL     1       0.397   6.149   5.219  1.00  0.00     0.049 A 
ATOM     45  N   UNL     1      -0.268   6.686   8.106  1.00  0.00    -0.248 NA
ATOM     46  C   UNL     1       0.833   4.704   8.667  1.00  0.00     0.031 C 
ATOM     47  C   UNL     1       0.713   5.950   3.806  1.00  0.00     0.029 A 
ATOM     48  N   UNL     1      -0.308   7.327   5.246  1.00  0.00    -0.354 N 
ATOM     49  C   UNL     1      -0.320   6.506   9.481  1.00  0.00     0.074 A 
ATOM     50  C   UNL     1       0.348   5.255   9.770  1.00  0.00     0.031 C 
ATOM     51  C   UNL     1       0.203   6.973   3.099  1.00  0.00     0.029 A 
ATOM     52  C   UNL     1      -0.495   7.883   4.006  1.00  0.00     0.049 A 
ATOM     53  H   UNL     1      -0.646   7.733   6.076  1.00  0.00     0.167 HD
ATOM     54  C   UNL     1      -0.868   7.316  10.419  1.00  0.00     0.037 A 
ATOM     55  C   UNL     1      -1.164   8.994   3.644  1.00  0.00     0.037 A 
ATOM     56  C   UNL     1      -1.532   8.561  10.134  1.00  0.00     0.049 A 
ATOM     57  C   UNL     1      -1.820   9.843   4.700  1.00  0.00     0.074 A 
ATOM     58  C   UNL     1      -2.085   9.469  11.021  1.00  0.00     0.029 A 
ATOM     59  N   UNL     1      -1.744   9.068   8.861  1.00  0.00    -0.354 N 
ATOM     60  N   UNL     1      -1.825   9.690   6.002  1.00  0.00    -0.248 NA
ATOM     61  C   UNL     1      -2.562  11.024   4.234  1.00  0.00     0.031 C 
ATOM     62  C   UNL     1      -2.675  10.500  10.282  1.00  0.00     0.029 A 
ATOM     63  C   UNL     1      -2.448  10.260   8.936  1.00  0.00     0.049 A 
ATOM     64  H   UNL     1      -1.439   8.644   8.026  1.00  0.00     0.167 HD
ATOM     65  C   UNL     1      -2.547  10.762   6.511  1.00  0.00     0.074 A 
ATOM     66  C   UNL     1      -2.952  11.568   5.378  1.00  0.00     0.031 C 
ATOM     67  C   UNL     1      -2.847  11.052   7.801  1.00  0.00     0.037 A 
BRANCH  54  68
ATOM     68  C   UNL     1      -0.792   6.868  11.849  1.00  0.00     0.064 A 
ATOM     69  C   UNL     1       0.414   6.893  12.566  1.00  0.00     0.173 A 
ATOM     70  C   UNL     1      -1.947   6.440  12.521  1.00  0.00     0.173 A 
ATOM     71  F   UNL     1       1.548   7.282  11.966  1.00  0.00    -0.203 F 
ATOM     72  C   UNL     1       0.464   6.483  13.896  1.00  0.00     0.198 A 
ATOM     73  C   UNL     1      -1.898   6.056  13.858  1.00  0.00     0.198 A 
ATOM     74  F   UNL     1      -3.126   6.403  11.882  1.00  0.00    -0.203 F 
ATOM     75  F   UNL     1       1.634   6.475  14.550  1.00  0.00    -0.200 F 
ATOM     76  C   UNL     1      -0.692   6.071  14.542  1.00  0.00     0.200 A 
ATOM     77  F   UNL     1      -3.018   5.668  14.484  1.00  0.00    -0.200 F 
ATOM     78  F   UNL     1      -0.643   5.681  15.824  1.00  0.00    -0.200 F 
ENDBRANCH  54  68
BRANCH  55  79
ATOM     79  C   UNL     1      -1.249   9.371   2.210  1.00  0.00     0.064 A 
ATOM     80  C   UNL     1      -0.575  10.496   1.718  1.00  0.00     0.173 A 
ATOM     81  C   UNL     1      -2.015   8.619   1.306  1.00  0.00     0.173 A 
ATOM     82  F   UNL     1       0.146  11.262   2.550  1.00  0.00    -0.203 F 
ATOM     83  C   UNL     1      -0.674  10.864   0.377  1.00  0.00     0.198 A 
ATOM     84  C   UNL     1      -2.091   8.972  -0.039  1.00  0.00     0.198 A 
ATOM     85  F   UNL     1      -2.683   7.537   1.730  1.00  0.00    -0.203 F 
ATOM     86  F   UNL     1      -0.053  11.968  -0.060  1.00  0.00    -0.200 F 
ATOM     87  C   UNL     1      -1.426  10.098  -0.501  1.00  0.00     0.200 A 
ATOM     88  F   UNL     1      -2.811   8.225  -0.886  1.00  0.00    -0.200 F 
ATOM     89  F   UNL     1      -1.516  10.449  -1.791  1.00  0.00    -0.200 F 
ENDBRANCH  55  79
BRANCH  67  90
ATOM     90  C   UNL     1      -3.632  12.305   8.060  1.00  0.00     0.064 A 
ATOM     91  C   UNL     1      -4.996  12.396   7.743  1.00  0.00     0.173 A 
ATOM     92  C   UNL     1      -3.022  13.417   8.660  1.00  0.00     0.173 A 
ATOM     93  F   UNL     1      -5.622  11.366   7.153  1.00  0.00    -0.203 F 
ATOM     94  C   UNL     1      -5.713  13.563   7.995  1.00  0.00     0.198 A 
ATOM     95  C   UNL     1      -3.748  14.572   8.936  1.00  0.00     0.198 A 
ATOM     96  F   UNL     1      -1.722  13.380   8.989  1.00  0.00    -0.203 F 
ATOM     97  F   UNL     1      -7.003  13.644   7.641  1.00  0.00    -0.200 F 
ATOM     98  C   UNL     1      -5.091  14.647   8.597  1.00  0.00     0.200 A 
ATOM     99  F   UNL     1      -3.149  15.614   9.529  1.00  0.00    -0.200 F 
ATOM    100  F   UNL     1      -5.784  15.768   8.842  1.00  0.00    -0.200 F 
ENDBRANCH  67  90
ENDBRANCH  41  42
ENDBRANCH  34  36
ENDBRANCH  33  34
ENDBRANCH  32  33
ENDBRANCH  31  32
ENDBRANCH  30  31
ENDBRANCH  29  30
ENDBRANCH   1  29
TORSDOF 19
