REMARK SMILES C[N@@H+]1CCN(C(=O)c2ccc3[nH]c4c(c3c2)CSCC4)C[C@H]1C(=O)OCCOCCOC(=O)c1ccc(-c2c3nc(c(-c4c(F)c(F)c(F)c(F)c4F)c4ccc([nH]4)c(-c4c(F)c(F)c(F)c(F)c4F)c4nc(c(-c5c(F)c(F)c(F)c(F)c5F)c5ccc2[nH]5)C=C4)C=C3)cc1
REMARK SMILES IDX 28 1 27 2 26 3 25 4 23 5 24 6 22 7 1 8 2 9 3 10 4 12 21 13
REMARK SMILES IDX 5 14 6 15 7 16 8 17 9 18 16 19 10 20 15 21 11 22 14 23 12 24
REMARK SMILES IDX 13 25 17 26 20 28 18 29 19 30 29 31 30 32 31 33 32 34 33 35
REMARK SMILES IDX 34 36 35 37 96 38 36 39 95 40 37 41 38 42 39 43 89 44 40 45
REMARK SMILES IDX 94 46 88 47 90 48 41 49 93 50 87 51 86 52 42 54 74 55 54 56
REMARK SMILES IDX 73 57 55 58 58 59 72 60 91 61 56 62 57 63 71 65 92 66 59 67
REMARK SMILES IDX 43 68 44 69 52 70 45 71 46 72 50 73 53 74 47 75 48 76 51 77
REMARK SMILES IDX 49 78 75 79 76 80 84 81 77 82 78 83 82 84 85 85 79 86 80 87
REMARK SMILES IDX 83 88 81 89 60 90 61 91 69 92 62 93 63 94 67 95 70 96 64 97
REMARK SMILES IDX 65 98 68 99 66 100
REMARK H PARENT 2 11 12 27 90 53 58 64
REMARK Flexibility Score: inf
ROOT
ATOM      1  O   UNL     1       3.321  -4.134   0.424  1.00  0.00    -0.374 OA
ENDROOT
BRANCH   1   2
ATOM      2  C   UNL     1       2.669  -4.640  -0.733  1.00  0.00     0.202 C 
BRANCH   2   3
ATOM      3  C   UNL     1       1.254  -4.158  -1.089  1.00  0.00     0.261 C 
BRANCH   3   4
ATOM      4  O   UNL     1       1.013  -2.744  -0.991  1.00  0.00    -0.459 OA
BRANCH   4   5
ATOM      5  C   UNL     1       0.422  -2.390   0.178  1.00  0.00     0.366 C 
ATOM      6  O   UNL     1       0.246  -3.168   1.117  1.00  0.00    -0.245 OA
BRANCH   5   7
ATOM      7  C   UNL     1      -0.140  -0.986   0.245  1.00  0.00     0.314 C 
ATOM      8  C   UNL     1       1.966   0.262  -0.149  1.00  0.00     0.333 C 
ATOM      9  N   UNL     1       0.544   0.160  -0.439  1.00  0.00    -0.323 N 
ATOM     10  C   UNL     1      -0.144   1.403   0.030  1.00  0.00     0.284 C 
ATOM     11  H   UNL     1       0.479   0.017  -1.447  1.00  0.00     0.348 HD
ATOM     12  C   UNL     1      -1.673   1.401  -0.220  1.00  0.00     0.181 C 
ATOM     13  C   UNL     1      -1.577  -1.053  -0.291  1.00  0.00     0.197 C 
ATOM     14  N   UNL     1      -2.294   0.136   0.179  1.00  0.00    -0.326 N 
BRANCH  14  15
ATOM     15  C   UNL     1      -3.432   0.128   0.970  1.00  0.00     0.254 C 
ATOM     16  O   UNL     1      -3.991   1.139   1.383  1.00  0.00    -0.269 OA
BRANCH  15  17
ATOM     17  C   UNL     1      -4.039  -1.181   1.284  1.00  0.00     0.040 A 
ATOM     18  C   UNL     1      -3.426  -2.067   2.174  1.00  0.00     0.016 A 
ATOM     19  C   UNL     1      -5.223  -1.514   0.617  1.00  0.00     0.024 A 
ATOM     20  C   UNL     1      -3.965  -3.340   2.387  1.00  0.00     0.027 A 
ATOM     21  C   UNL     1      -5.788  -2.782   0.834  1.00  0.00     0.004 A 
ATOM     22  C   UNL     1      -5.146  -3.666   1.706  1.00  0.00     0.046 A 
ATOM     23  C   UNL     1      -6.962  -3.432   0.348  1.00  0.00    -0.009 A 
ATOM     24  N   UNL     1      -5.896  -4.822   1.734  1.00  0.00    -0.358 N 
ATOM     25  C   UNL     1      -7.015  -4.669   0.962  1.00  0.00     0.021 A 
ATOM     26  C   UNL     1      -7.980  -2.862  -0.586  1.00  0.00     0.107 C 
ATOM     27  H   UNL     1      -5.660  -5.636   2.234  1.00  0.00     0.166 HD
ATOM     28  C   UNL     1      -8.092  -5.690   0.838  1.00  0.00     0.065 C 
ATOM     29  S   UNL     1      -9.261  -4.061  -1.104  1.00  0.00    -0.157 SA
ATOM     30  C   UNL     1      -9.415  -5.021   0.448  1.00  0.00     0.076 C 
ENDBRANCH  15  17
ENDBRANCH  14  15
ENDBRANCH   5   7
ENDBRANCH   4   5
ENDBRANCH   3   4
ENDBRANCH   2   3
ENDBRANCH   1   2
BRANCH   1  31
ATOM     31  C   UNL     1       3.769  -2.778   0.405  1.00  0.00     0.202 C 
BRANCH  31  32
ATOM     32  C   UNL     1       4.740  -2.347  -0.707  1.00  0.00     0.261 C 
BRANCH  32  33
ATOM     33  O   UNL     1       4.096  -2.376  -1.988  1.00  0.00    -0.460 OA
BRANCH  33  34
ATOM     34  C   UNL     1       4.944  -2.677  -3.014  1.00  0.00     0.338 C 
ATOM     35  O   UNL     1       6.122  -2.439  -3.089  1.00  0.00    -0.246 OA
BRANCH  34  36
ATOM     36  C   UNL     1       4.240  -3.720  -3.791  1.00  0.00     0.060 A 
ATOM     37  C   UNL     1       2.953  -3.510  -4.284  1.00  0.00     0.016 A 
ATOM     38  C   UNL     1       4.807  -5.004  -3.760  1.00  0.00     0.016 A 
ATOM     39  C   UNL     1       2.216  -4.610  -4.710  1.00  0.00     0.010 A 
ATOM     40  C   UNL     1       4.055  -6.104  -4.165  1.00  0.00     0.010 A 
ATOM     41  C   UNL     1       2.752  -5.911  -4.624  1.00  0.00    -0.014 A 
BRANCH  41  42
ATOM     42  C   UNL     1       1.976  -6.999  -5.228  1.00  0.00     0.031 A 
ATOM     43  C   UNL     1       1.761  -6.837  -6.694  1.00  0.00     0.074 A 
ATOM     44  C   UNL     1       1.593  -8.160  -4.659  1.00  0.00     0.049 A 
ATOM     45  N   UNL     1       0.641  -6.761  -7.337  1.00  0.00    -0.248 NA
ATOM     46  C   UNL     1       2.957  -6.670  -7.533  1.00  0.00     0.031 C 
ATOM     47  C   UNL     1       1.972  -8.707  -3.357  1.00  0.00     0.029 A 
ATOM     48  N   UNL     1       0.826  -9.156  -5.208  1.00  0.00    -0.354 N 
ATOM     49  C   UNL     1       0.983  -6.665  -8.683  1.00  0.00     0.074 A 
ATOM     50  C   UNL     1       2.415  -6.518  -8.740  1.00  0.00     0.031 C 
ATOM     51  C   UNL     1       1.601 -10.009  -3.300  1.00  0.00     0.029 A 
ATOM     52  C   UNL     1       0.846 -10.346  -4.498  1.00  0.00     0.049 A 
ATOM     53  H   UNL     1       0.306  -9.035  -6.035  1.00  0.00     0.167 HD
ATOM     54  C   UNL     1       0.081  -6.879  -9.676  1.00  0.00     0.037 A 
ATOM     55  C   UNL     1       0.323 -11.532  -4.893  1.00  0.00     0.037 A 
ATOM     56  C   UNL     1      -1.272  -6.817  -9.204  1.00  0.00     0.049 A 
ATOM     57  C   UNL     1      -0.708 -11.271  -5.924  1.00  0.00     0.074 A 
ATOM     58  C   UNL     1      -2.097  -5.836  -8.696  1.00  0.00     0.029 A 
ATOM     59  N   UNL     1      -1.900  -8.010  -8.967  1.00  0.00    -0.354 N 
ATOM     60  N   UNL     1      -1.861 -10.709  -5.694  1.00  0.00    -0.248 NA
ATOM     61  C   UNL     1      -0.367 -11.439  -7.331  1.00  0.00     0.031 C 
ATOM     62  C   UNL     1      -3.014  -6.510  -7.837  1.00  0.00     0.029 A 
ATOM     63  C   UNL     1      -2.694  -7.868  -7.860  1.00  0.00     0.049 A 
ATOM     64  H   UNL     1      -1.798  -8.831  -9.501  1.00  0.00     0.167 HD
ATOM     65  C   UNL     1      -2.188 -10.089  -6.885  1.00  0.00     0.074 A 
ATOM     66  C   UNL     1      -1.344 -10.720  -7.886  1.00  0.00     0.031 C 
ATOM     67  C   UNL     1      -2.888  -8.920  -6.889  1.00  0.00     0.037 A 
BRANCH  54  68
ATOM     68  C   UNL     1       0.424  -7.472 -11.018  1.00  0.00     0.064 A 
ATOM     69  C   UNL     1      -0.523  -7.430 -12.060  1.00  0.00     0.173 A 
ATOM     70  C   UNL     1       1.521  -8.336 -11.220  1.00  0.00     0.173 A 
ATOM     71  F   UNL     1      -1.623  -6.670 -11.952  1.00  0.00    -0.203 F 
ATOM     72  C   UNL     1      -0.404  -8.235 -13.196  1.00  0.00     0.198 A 
ATOM     73  C   UNL     1       1.665  -9.096 -12.379  1.00  0.00     0.198 A 
ATOM     74  F   UNL     1       2.429  -8.559 -10.261  1.00  0.00    -0.203 F 
ATOM     75  F   UNL     1      -1.386  -8.249 -14.107  1.00  0.00    -0.200 F 
ATOM     76  C   UNL     1       0.689  -9.067 -13.354  1.00  0.00     0.200 A 
ATOM     77  F   UNL     1       2.718  -9.915 -12.505  1.00  0.00    -0.200 F 
ATOM     78  F   UNL     1       0.778  -9.877 -14.417  1.00  0.00    -0.200 F 
ENDBRANCH  54  68
BRANCH  55  79
ATOM     79  C   UNL     1       0.773 -12.914  -4.595  1.00  0.00     0.064 A 
ATOM     80  C   UNL     1      -0.072 -14.015  -4.827  1.00  0.00     0.173 A 
ATOM     81  C   UNL     1       2.129 -13.205  -4.363  1.00  0.00     0.173 A 
ATOM     82  F   UNL     1      -1.373 -13.827  -5.093  1.00  0.00    -0.203 F 
ATOM     83  C   UNL     1       0.421 -15.323  -4.871  1.00  0.00     0.198 A 
ATOM     84  C   UNL     1       2.618 -14.512  -4.394  1.00  0.00     0.198 A 
ATOM     85  F   UNL     1       3.024 -12.220  -4.199  1.00  0.00    -0.203 F 
ATOM     86  F   UNL     1      -0.402 -16.337  -5.173  1.00  0.00    -0.200 F 
ATOM     87  C   UNL     1       1.768 -15.569  -4.667  1.00  0.00     0.200 A 
ATOM     88  F   UNL     1       3.929 -14.735  -4.227  1.00  0.00    -0.200 F 
ATOM     89  F   UNL     1       2.253 -16.813  -4.777  1.00  0.00    -0.200 F 
ENDBRANCH  55  79
BRANCH  67  90
ATOM     90  C   UNL     1      -3.696  -8.593  -5.669  1.00  0.00     0.064 A 
ATOM     91  C   UNL     1      -3.146  -8.356  -4.398  1.00  0.00     0.173 A 
ATOM     92  C   UNL     1      -5.078  -8.412  -5.822  1.00  0.00     0.173 A 
ATOM     93  F   UNL     1      -1.823  -8.414  -4.196  1.00  0.00    -0.203 F 
ATOM     94  C   UNL     1      -3.957  -8.006  -3.320  1.00  0.00     0.198 A 
ATOM     95  C   UNL     1      -5.878  -8.023  -4.753  1.00  0.00     0.198 A 
ATOM     96  F   UNL     1      -5.647  -8.576  -7.027  1.00  0.00    -0.203 F 
ATOM     97  F   UNL     1      -3.414  -7.810  -2.108  1.00  0.00    -0.200 F 
ATOM     98  C   UNL     1      -5.320  -7.833  -3.499  1.00  0.00     0.200 A 
ATOM     99  F   UNL     1      -7.188  -7.814  -4.943  1.00  0.00    -0.200 F 
ATOM    100  F   UNL     1      -6.093  -7.465  -2.467  1.00  0.00    -0.200 F 
ENDBRANCH  67  90
ENDBRANCH  41  42
ENDBRANCH  34  36
ENDBRANCH  33  34
ENDBRANCH  32  33
ENDBRANCH  31  32
ENDBRANCH   1  31
TORSDOF 16
