REMARK SMILES C[C@]1(C(=O)OCCOCCOC(=O)c2ccc(-c3c4nc(c(-c5c(F)c(F)c(F)c(F)c5F)c5ccc([nH]5)c(-c5c(F)c(F)c(F)c(F)c5F)c5nc(c(-c6c(F)c(F)c(F)c(F)c6F)c6ccc3[nH]6)C=C5)C=C4)cc2)[NH2+]C2(C(=O)c3ccccc3C2=O)[C@@H]2C(=O)N(c3ccccc3)C(=O)[C@H]21
REMARK SMILES IDX 9 1 8 2 7 3 6 4 5 5 3 6 4 7 2 8 1 9 77 10 101 11 78 12 89 15
REMARK SMILES IDX 99 16 79 17 87 18 90 19 92 20 100 21 80 22 81 23 86 24 88 25
REMARK SMILES IDX 91 26 82 27 85 28 83 29 84 30 93 31 94 32 98 33 95 34 97 35
REMARK SMILES IDX 96 36 10 37 11 38 12 39 13 40 14 41 15 42 76 43 16 44 75 45
REMARK SMILES IDX 17 46 18 47 19 48 69 49 20 50 74 51 68 52 70 53 21 54 73 55
REMARK SMILES IDX 67 56 66 57 22 59 54 60 34 61 53 62 35 63 38 64 52 65 71 66
REMARK SMILES IDX 36 67 37 68 51 70 72 71 39 72 23 73 24 74 32 75 25 76 26 77
REMARK SMILES IDX 30 78 33 79 27 80 28 81 31 82 29 83 55 84 56 85 64 86 57 87
REMARK SMILES IDX 58 88 62 89 65 90 59 91 60 92 63 93 61 94 40 95 41 96 49 97
REMARK SMILES IDX 42 98 43 99 47 100 50 101 44 102 45 103 48 104 46 105
REMARK H PARENT 77 13 77 14 70 58 38 69
REMARK Flexibility Score: inf
ROOT
ATOM      1  C   UNL     1      -1.238  -0.137   2.998  1.00  0.00     0.202 C 
ENDROOT
BRANCH   1   2
ATOM      2  O   UNL     1      -0.549   0.145   4.213  1.00  0.00    -0.374 OA
BRANCH   2   3
ATOM      3  C   UNL     1      -0.276   1.500   4.551  1.00  0.00     0.202 C 
BRANCH   3   4
ATOM      4  C   UNL     1       0.776   2.258   3.740  1.00  0.00     0.261 C 
BRANCH   4   5
ATOM      5  O   UNL     1       0.491   2.295   2.336  1.00  0.00    -0.459 OA
BRANCH   5   6
ATOM      6  C   UNL     1       1.213   1.428   1.569  1.00  0.00     0.368 C 
ATOM      7  O   UNL     1       2.016   0.620   2.020  1.00  0.00    -0.245 OA
BRANCH   6   8
ATOM      8  C   UNL     1       0.928   1.610   0.052  1.00  0.00     0.205 C 
ATOM      9  C   UNL     1       1.629   0.465  -0.684  1.00  0.00     0.093 C 
ATOM     10  N   UNL     1      -0.556   1.594  -0.328  1.00  0.00    -0.313 N 
ATOM     11  C   UNL     1       1.365   2.982  -0.390  1.00  0.00     0.172 C 
ATOM     12  C   UNL     1      -0.902   2.964  -0.904  1.00  0.00     0.237 C 
ATOM     13  H   UNL     1      -1.124   1.411   0.499  1.00  0.00     0.348 HD
ATOM     14  H   UNL     1      -0.741   0.861  -1.013  1.00  0.00     0.348 HD
ATOM     15  C   UNL     1       0.097   3.795  -0.180  1.00  0.00     0.177 C 
ATOM     16  C   UNL     1       2.353   3.832   0.328  1.00  0.00     0.244 C 
ATOM     17  C   UNL     1      -0.833   2.988  -2.433  1.00  0.00     0.232 C 
ATOM     18  C   UNL     1      -2.362   3.320  -0.629  1.00  0.00     0.232 C 
ATOM     19  C   UNL     1       0.619   5.168  -0.398  1.00  0.00     0.245 C 
ATOM     20  N   UNL     1       1.886   5.136   0.190  1.00  0.00    -0.250 N 
ATOM     21  O   UNL     1       3.353   3.403   0.877  1.00  0.00    -0.273 OA
ATOM     22  O   UNL     1       0.115   2.696  -3.141  1.00  0.00    -0.286 OA
ATOM     23  C   UNL     1      -2.147   3.353  -2.957  1.00  0.00     0.036 A 
ATOM     24  C   UNL     1      -3.045   3.516  -1.912  1.00  0.00     0.036 A 
ATOM     25  O   UNL     1      -2.922   3.448   0.446  1.00  0.00    -0.286 OA
ATOM     26  O   UNL     1      -0.026   6.089  -0.864  1.00  0.00    -0.273 OA
ATOM     27  C   UNL     1      -2.529   3.500  -4.279  1.00  0.00     0.013 A 
ATOM     28  C   UNL     1      -4.376   3.814  -2.147  1.00  0.00     0.013 A 
ATOM     29  C   UNL     1      -3.867   3.813  -4.534  1.00  0.00     0.001 A 
ATOM     30  C   UNL     1      -4.785   3.961  -3.477  1.00  0.00     0.001 A 
BRANCH  20  31
ATOM     31  C   UNL     1       2.554   6.237   0.768  1.00  0.00     0.052 A 
ATOM     32  C   UNL     1       3.954   6.257   0.854  1.00  0.00     0.027 A 
ATOM     33  C   UNL     1       1.827   7.258   1.392  1.00  0.00     0.027 A 
ATOM     34  C   UNL     1       4.614   7.259   1.564  1.00  0.00     0.002 A 
ATOM     35  C   UNL     1       2.490   8.241   2.133  1.00  0.00     0.002 A 
ATOM     36  C   UNL     1       3.881   8.242   2.220  1.00  0.00     0.000 A 
ENDBRANCH  20  31
ENDBRANCH   6   8
ENDBRANCH   5   6
ENDBRANCH   4   5
ENDBRANCH   3   4
ENDBRANCH   2   3
ENDBRANCH   1   2
BRANCH   1  37
ATOM     37  C   UNL     1      -2.708   0.276   2.870  1.00  0.00     0.261 C 
BRANCH  37  38
ATOM     38  O   UNL     1      -2.916   1.689   3.000  1.00  0.00    -0.460 OA
BRANCH  38  39
ATOM     39  C   UNL     1      -3.564   2.075   4.125  1.00  0.00     0.338 C 
ATOM     40  O   UNL     1      -3.987   1.364   5.020  1.00  0.00    -0.246 OA
BRANCH  39  41
ATOM     41  C   UNL     1      -3.539   3.546   4.226  1.00  0.00     0.060 A 
ATOM     42  C   UNL     1      -4.116   4.345   3.241  1.00  0.00     0.016 A 
ATOM     43  C   UNL     1      -2.990   4.121   5.379  1.00  0.00     0.016 A 
ATOM     44  C   UNL     1      -4.170   5.728   3.426  1.00  0.00     0.010 A 
ATOM     45  C   UNL     1      -3.050   5.501   5.567  1.00  0.00     0.010 A 
ATOM     46  C   UNL     1      -3.666   6.312   4.604  1.00  0.00    -0.014 A 
BRANCH  46  47
ATOM     47  C   UNL     1      -3.928   7.743   4.892  1.00  0.00     0.031 A 
ATOM     48  C   UNL     1      -2.841   8.771   4.834  1.00  0.00     0.074 A 
ATOM     49  C   UNL     1      -5.178   8.101   5.239  1.00  0.00     0.049 A 
ATOM     50  N   UNL     1      -2.931  10.069   4.984  1.00  0.00    -0.248 NA
ATOM     51  C   UNL     1      -1.476   8.286   4.590  1.00  0.00     0.031 C 
ATOM     52  C   UNL     1      -6.303   7.176   5.384  1.00  0.00     0.029 A 
ATOM     53  N   UNL     1      -5.718   9.330   5.527  1.00  0.00    -0.354 N 
ATOM     54  C   UNL     1      -1.644  10.560   4.827  1.00  0.00     0.074 A 
ATOM     55  C   UNL     1      -0.778   9.415   4.636  1.00  0.00     0.031 C 
ATOM     56  C   UNL     1      -7.407   7.872   5.692  1.00  0.00     0.029 A 
ATOM     57  C   UNL     1      -7.063   9.287   5.799  1.00  0.00     0.049 A 
ATOM     58  H   UNL     1      -5.191  10.161   5.537  1.00  0.00     0.167 HD
ATOM     59  C   UNL     1      -1.232  11.851   4.818  1.00  0.00     0.037 A 
ATOM     60  C   UNL     1      -7.927  10.277   6.093  1.00  0.00     0.037 A 
ATOM     61  C   UNL     1      -2.098  12.982   5.038  1.00  0.00     0.049 A 
ATOM     62  C   UNL     1      -7.432  11.696   6.129  1.00  0.00     0.074 A 
ATOM     63  C   UNL     1      -1.778  14.329   5.013  1.00  0.00     0.029 A 
ATOM     64  N   UNL     1      -3.450  12.901   5.343  1.00  0.00    -0.354 N 
ATOM     65  N   UNL     1      -6.231  12.159   5.878  1.00  0.00    -0.248 NA
ATOM     66  C   UNL     1      -8.413  12.733   6.480  1.00  0.00     0.031 C 
ATOM     67  C   UNL     1      -2.918  15.058   5.363  1.00  0.00     0.029 A 
ATOM     68  C   UNL     1      -3.968  14.172   5.541  1.00  0.00     0.049 A 
ATOM     69  H   UNL     1      -3.965  12.065   5.408  1.00  0.00     0.167 HD
ATOM     70  C   UNL     1      -6.317  13.537   6.016  1.00  0.00     0.074 A 
ATOM     71  C   UNL     1      -7.692  13.839   6.356  1.00  0.00     0.031 C 
ATOM     72  C   UNL     1      -5.340  14.466   5.874  1.00  0.00     0.037 A 
BRANCH  59  73
ATOM     73  C   UNL     1       0.218  12.126   4.542  1.00  0.00     0.064 A 
ATOM     74  C   UNL     1       0.766  11.924   3.266  1.00  0.00     0.173 A 
ATOM     75  C   UNL     1       1.045  12.687   5.527  1.00  0.00     0.173 A 
ATOM     76  F   UNL     1       0.024  11.378   2.291  1.00  0.00    -0.203 F 
ATOM     77  C   UNL     1       2.089  12.259   2.991  1.00  0.00     0.198 A 
ATOM     78  C   UNL     1       2.360  13.048   5.240  1.00  0.00     0.198 A 
ATOM     79  F   UNL     1       0.571  12.911   6.762  1.00  0.00    -0.203 F 
ATOM     80  F   UNL     1       2.599  12.022   1.775  1.00  0.00    -0.200 F 
ATOM     81  C   UNL     1       2.881  12.831   3.974  1.00  0.00     0.200 A 
ATOM     82  F   UNL     1       3.119  13.616   6.188  1.00  0.00    -0.200 F 
ATOM     83  F   UNL     1       4.150  13.167   3.703  1.00  0.00    -0.200 F 
ENDBRANCH  59  73
BRANCH  60  84
ATOM     84  C   UNL     1      -9.358   9.955   6.328  1.00  0.00     0.064 A 
ATOM     85  C   UNL     1     -10.342  10.347   5.410  1.00  0.00     0.173 A 
ATOM     86  C   UNL     1      -9.769   9.224   7.452  1.00  0.00     0.173 A 
ATOM     87  F   UNL     1     -10.000  11.062   4.327  1.00  0.00    -0.203 F 
ATOM     88  C   UNL     1     -11.683  10.029   5.612  1.00  0.00     0.198 A 
ATOM     89  C   UNL     1     -11.106   8.880   7.638  1.00  0.00     0.198 A 
ATOM     90  F   UNL     1      -8.866   8.820   8.358  1.00  0.00    -0.203 F 
ATOM     91  F   UNL     1     -12.607  10.447   4.736  1.00  0.00    -0.200 F 
ATOM     92  C   UNL     1     -12.063   9.288   6.721  1.00  0.00     0.200 A 
ATOM     93  F   UNL     1     -11.466   8.149   8.701  1.00  0.00    -0.200 F 
ATOM     94  F   UNL     1     -13.351   8.971   6.907  1.00  0.00    -0.200 F 
ENDBRANCH  60  84
BRANCH  72  95
ATOM     95  C   UNL     1      -5.713  15.909   6.065  1.00  0.00     0.064 A 
ATOM     96  C   UNL     1      -6.012  16.429   7.332  1.00  0.00     0.173 A 
ATOM     97  C   UNL     1      -5.687  16.799   4.980  1.00  0.00     0.173 A 
ATOM     98  F   UNL     1      -6.063  15.619   8.400  1.00  0.00    -0.203 F 
ATOM     99  C   UNL     1      -6.284  17.784   7.505  1.00  0.00     0.198 A 
ATOM    100  C   UNL     1      -5.927  18.159   5.161  1.00  0.00     0.198 A 
ATOM    101  F   UNL     1      -5.399  16.356   3.747  1.00  0.00    -0.203 F 
ATOM    102  F   UNL     1      -6.601  18.253   8.719  1.00  0.00    -0.200 F 
ATOM    103  C   UNL     1      -6.228  18.649   6.422  1.00  0.00     0.200 A 
ATOM    104  F   UNL     1      -5.854  18.996   4.117  1.00  0.00    -0.200 F 
ATOM    105  F   UNL     1      -6.467  19.957   6.594  1.00  0.00    -0.200 F 
ENDBRANCH  72  95
ENDBRANCH  46  47
ENDBRANCH  39  41
ENDBRANCH  38  39
ENDBRANCH  37  38
ENDBRANCH   1  37
TORSDOF 15
