REMARK SMILES CC1(C)[C@@H](CCc2ccccc2)CC[C@]1(C)C(=O)OCCOCCOC(=O)c1ccc(-c2c3nc(c(-c4c(F)c(F)c(F)c(F)c4F)c4ccc([nH]4)c(-c4c(F)c(F)c(F)c(F)c4F)c4nc(c(-c5c(F)c(F)c(F)c(F)c5F)c5ccc2[nH]5)C=C4)C=C3)cc1
REMARK SMILES IDX 21 1 20 2 19 3 17 4 18 5 15 6 1 7 2 8 3 9 4 10 13 11 14 12
REMARK SMILES IDX 16 13 5 14 6 15 7 16 8 17 12 18 9 19 11 20 10 21 22 22 23 23
REMARK SMILES IDX 24 24 25 25 26 26 27 27 28 28 29 29 90 30 30 31 89 32 31 33
REMARK SMILES IDX 32 34 33 35 83 36 34 37 88 38 82 39 84 40 35 41 87 42 81 43
REMARK SMILES IDX 80 44 36 46 68 47 48 48 67 49 49 50 52 51 66 52 85 53 50 54
REMARK SMILES IDX 51 55 65 57 86 58 53 59 37 60 38 61 46 62 39 63 40 64 44 65
REMARK SMILES IDX 47 66 41 67 42 68 45 69 43 70 69 71 70 72 78 73 71 74 72 75
REMARK SMILES IDX 76 76 79 77 73 78 74 79 77 80 75 81 54 82 55 83 63 84 56 85
REMARK SMILES IDX 57 86 61 87 64 88 58 89 59 90 62 91 60 92
REMARK H PARENT 84 45 52 56
REMARK Flexibility Score: inf
ROOT
ATOM      1  C   UNL     1       1.433   4.212  -3.851  1.00  0.00     0.202 C 
ENDROOT
BRANCH   1   2
ATOM      2  C   UNL     1       0.390   4.237  -2.729  1.00  0.00     0.261 C 
BRANCH   2   3
ATOM      3  O   UNL     1       0.229   2.960  -2.082  1.00  0.00    -0.463 OA
BRANCH   3   4
ATOM      4  C   UNL     1      -0.903   2.276  -2.384  1.00  0.00     0.312 C 
ATOM      5  O   UNL     1      -1.766   2.692  -3.150  1.00  0.00    -0.252 OA
BRANCH   4   6
ATOM      6  C   UNL     1      -1.052   0.955  -1.607  1.00  0.00     0.071 C 
ATOM      7  C   UNL     1       0.738   0.792   0.225  1.00  0.00     0.012 C 
ATOM      8  C   UNL     1       0.250   0.212  -1.108  1.00  0.00    -0.017 C 
ATOM      9  C   UNL     1       1.467   0.299  -2.061  1.00  0.00     0.012 C 
ATOM     10  C   UNL     1      -0.140  -1.313  -1.124  1.00  0.00    -0.004 C 
ATOM     11  C   UNL     1      -1.066  -1.419  -2.349  1.00  0.00     0.005 C 
ATOM     12  C   UNL     1      -1.746  -0.071  -2.536  1.00  0.00     0.019 C 
ATOM     13  C   UNL     1      -2.028   1.318  -0.461  1.00  0.00     0.024 C 
BRANCH  10  14
ATOM     14  C   UNL     1      -0.760  -1.949   0.139  1.00  0.00     0.009 C 
BRANCH  14  15
ATOM     15  C   UNL     1       0.211  -2.884   0.897  1.00  0.00     0.036 C 
BRANCH  15  16
ATOM     16  C   UNL     1       1.413  -2.187   1.484  1.00  0.00    -0.048 A 
ATOM     17  C   UNL     1       2.653  -2.225   0.829  1.00  0.00     0.004 A 
ATOM     18  C   UNL     1       1.286  -1.421   2.652  1.00  0.00     0.004 A 
ATOM     19  C   UNL     1       3.727  -1.466   1.299  1.00  0.00     0.000 A 
ATOM     20  C   UNL     1       2.360  -0.660   3.118  1.00  0.00     0.000 A 
ATOM     21  C   UNL     1       3.576  -0.672   2.434  1.00  0.00     0.000 A 
ENDBRANCH  15  16
ENDBRANCH  14  15
ENDBRANCH  10  14
ENDBRANCH   4   6
ENDBRANCH   3   4
ENDBRANCH   2   3
ENDBRANCH   1   2
BRANCH   1  22
ATOM     22  O   UNL     1       1.095   3.502  -5.041  1.00  0.00    -0.374 OA
BRANCH  22  23
ATOM     23  C   UNL     1       1.241   2.084  -5.017  1.00  0.00     0.202 C 
BRANCH  23  24
ATOM     24  C   UNL     1       2.679   1.549  -5.116  1.00  0.00     0.261 C 
BRANCH  24  25
ATOM     25  O   UNL     1       3.474   1.907  -3.966  1.00  0.00    -0.460 OA
BRANCH  25  26
ATOM     26  C   UNL     1       4.538   2.700  -4.232  1.00  0.00     0.338 C 
ATOM     27  O   UNL     1       4.969   3.008  -5.330  1.00  0.00    -0.246 OA
BRANCH  26  28
ATOM     28  C   UNL     1       5.045   3.335  -2.997  1.00  0.00     0.060 A 
ATOM     29  C   UNL     1       5.162   4.730  -3.016  1.00  0.00     0.016 A 
ATOM     30  C   UNL     1       5.513   2.604  -1.902  1.00  0.00     0.016 A 
ATOM     31  C   UNL     1       5.836   5.391  -1.993  1.00  0.00     0.010 A 
ATOM     32  C   UNL     1       6.192   3.273  -0.870  1.00  0.00     0.010 A 
ATOM     33  C   UNL     1       6.411   4.663  -0.943  1.00  0.00    -0.014 A 
BRANCH  33  34
ATOM     34  C   UNL     1       7.404   5.349  -0.071  1.00  0.00     0.031 A 
ATOM     35  C   UNL     1       8.875   5.137  -0.333  1.00  0.00     0.074 A 
ATOM     36  C   UNL     1       7.019   6.245   0.858  1.00  0.00     0.049 A 
ATOM     37  N   UNL     1       9.914   5.688   0.245  1.00  0.00    -0.248 NA
ATOM     38  C   UNL     1       9.220   4.181  -1.397  1.00  0.00     0.031 C 
ATOM     39  C   UNL     1       5.636   6.591   1.175  1.00  0.00     0.029 A 
ATOM     40  N   UNL     1       7.766   7.041   1.693  1.00  0.00    -0.354 N 
ATOM     41  C   UNL     1      11.029   5.151  -0.388  1.00  0.00     0.074 A 
ATOM     42  C   UNL     1      10.544   4.197  -1.361  1.00  0.00     0.031 C 
ATOM     43  C   UNL     1       5.632   7.538   2.130  1.00  0.00     0.029 A 
ATOM     44  C   UNL     1       7.011   7.846   2.510  1.00  0.00     0.049 A 
ATOM     45  H   UNL     1       8.751   7.036   1.704  1.00  0.00     0.167 HD
ATOM     46  C   UNL     1      12.339   5.438  -0.193  1.00  0.00     0.037 A 
ATOM     47  C   UNL     1       7.388   8.724   3.461  1.00  0.00     0.037 A 
ATOM     48  C   UNL     1      12.832   6.390   0.768  1.00  0.00     0.049 A 
ATOM     49  C   UNL     1       8.856   8.962   3.717  1.00  0.00     0.074 A 
ATOM     50  C   UNL     1      14.143   6.742   1.039  1.00  0.00     0.029 A 
ATOM     51  N   UNL     1      12.034   7.141   1.616  1.00  0.00    -0.354 N 
ATOM     52  N   UNL     1       9.899   8.459   3.103  1.00  0.00    -0.248 NA
ATOM     53  C   UNL     1       9.196   9.900   4.798  1.00  0.00     0.031 C 
ATOM     54  C   UNL     1      14.141   7.669   2.086  1.00  0.00     0.029 A 
ATOM     55  C   UNL     1      12.826   7.940   2.425  1.00  0.00     0.049 A 
ATOM     56  H   UNL     1      11.050   7.112   1.640  1.00  0.00     0.167 HD
ATOM     57  C   UNL     1      11.012   9.050   3.692  1.00  0.00     0.074 A 
ATOM     58  C   UNL     1      10.517   9.957   4.704  1.00  0.00     0.031 C 
ATOM     59  C   UNL     1      12.325   8.859   3.415  1.00  0.00     0.037 A 
BRANCH  46  60
ATOM     60  C   UNL     1      13.343   4.698  -1.029  1.00  0.00     0.064 A 
ATOM     61  C   UNL     1      13.496   4.958  -2.399  1.00  0.00     0.173 A 
ATOM     62  C   UNL     1      14.196   3.751  -0.442  1.00  0.00     0.173 A 
ATOM     63  F   UNL     1      12.697   5.845  -3.012  1.00  0.00    -0.203 F 
ATOM     64  C   UNL     1      14.450   4.280  -3.155  1.00  0.00     0.198 A 
ATOM     65  C   UNL     1      15.168   3.098  -1.194  1.00  0.00     0.198 A 
ATOM     66  F   UNL     1      14.095   3.469   0.866  1.00  0.00    -0.203 F 
ATOM     67  F   UNL     1      14.549   4.513  -4.471  1.00  0.00    -0.200 F 
ATOM     68  C   UNL     1      15.290   3.358  -2.550  1.00  0.00     0.200 A 
ATOM     69  F   UNL     1      15.989   2.217  -0.605  1.00  0.00    -0.200 F 
ATOM     70  F   UNL     1      16.215   2.715  -3.276  1.00  0.00    -0.200 F 
ENDBRANCH  46  60
BRANCH  47  71
ATOM     71  C   UNL     1       6.363   9.451   4.259  1.00  0.00     0.064 A 
ATOM     72  C   UNL     1       6.221  10.843   4.167  1.00  0.00     0.173 A 
ATOM     73  C   UNL     1       5.542   8.773   5.172  1.00  0.00     0.173 A 
ATOM     74  F   UNL     1       7.003  11.542   3.330  1.00  0.00    -0.203 F 
ATOM     75  C   UNL     1       5.319  11.531   4.977  1.00  0.00     0.198 A 
ATOM     76  C   UNL     1       4.618   9.457   5.958  1.00  0.00     0.198 A 
ATOM     77  F   UNL     1       5.640   7.442   5.304  1.00  0.00    -0.203 F 
ATOM     78  F   UNL     1       5.250  12.868   4.914  1.00  0.00    -0.200 F 
ATOM     79  C   UNL     1       4.515  10.837   5.869  1.00  0.00     0.200 A 
ATOM     80  F   UNL     1       3.836   8.781   6.810  1.00  0.00    -0.200 F 
ATOM     81  F   UNL     1       3.653  11.499   6.652  1.00  0.00    -0.200 F 
ENDBRANCH  47  71
BRANCH  59  82
ATOM     82  C   UNL     1      13.325   9.688   4.172  1.00  0.00     0.064 A 
ATOM     83  C   UNL     1      13.576   9.486   5.537  1.00  0.00     0.173 A 
ATOM     84  C   UNL     1      14.068  10.679   3.510  1.00  0.00     0.173 A 
ATOM     85  F   UNL     1      12.886   8.561   6.221  1.00  0.00    -0.203 F 
ATOM     86  C   UNL     1      14.510  10.266   6.217  1.00  0.00     0.198 A 
ATOM     87  C   UNL     1      15.024  11.433   4.185  1.00  0.00     0.198 A 
ATOM     88  F   UNL     1      13.876  10.908   2.202  1.00  0.00    -0.203 F 
ATOM     89  F   UNL     1      14.693  10.092   7.534  1.00  0.00    -0.200 F 
ATOM     90  C   UNL     1      15.237  11.233   5.540  1.00  0.00     0.200 A 
ATOM     91  F   UNL     1      15.737  12.355   3.524  1.00  0.00    -0.200 F 
ATOM     92  F   UNL     1      16.138  11.978   6.195  1.00  0.00    -0.200 F 
ENDBRANCH  59  82
ENDBRANCH  33  34
ENDBRANCH  26  28
ENDBRANCH  25  26
ENDBRANCH  24  25
ENDBRANCH  23  24
ENDBRANCH  22  23
ENDBRANCH   1  22
TORSDOF 17
