REMARK SMILES O=C(NCc1ccc(C(=O)OCCOCCOC(=O)c2ccc(-c3c4nc(c(-c5c(F)c(F)c(F)c(F)c5F)c5ccc([nH]5)c(-c5c(F)c(F)c(F)c(F)c5F)c5nc(c(-c6c(F)c(F)c(F)c(F)c6F)c6ccc3[nH]6)C=C5)C=C4)cc2)cc1)Nc1ccccc1Br
REMARK SMILES IDX 13 1 12 2 11 3 9 4 10 5 8 6 5 7 6 8 84 9 7 10 83 11 4 12
REMARK SMILES IDX 3 13 1 14 2 15 85 16 86 19 87 20 91 21 88 22 90 23 92 24
REMARK SMILES IDX 89 25 14 26 15 27 16 28 17 29 18 30 19 31 20 32 21 33 82 34
REMARK SMILES IDX 22 35 81 36 23 37 24 38 25 39 75 40 26 41 80 42 74 43 76 44
REMARK SMILES IDX 27 45 79 46 73 47 72 48 28 50 60 51 40 52 59 53 41 54 44 55
REMARK SMILES IDX 58 56 77 57 42 58 43 59 57 61 78 62 45 63 29 64 30 65 38 66
REMARK SMILES IDX 31 67 32 68 36 69 39 70 33 71 34 72 37 73 35 74 61 75 62 76
REMARK SMILES IDX 70 77 63 78 64 79 68 80 71 81 65 82 66 83 69 84 67 85 46 86
REMARK SMILES IDX 47 87 55 88 48 89 49 90 53 91 56 92 50 93 51 94 54 95 52 96
REMARK H PARENT 3 17 85 18 76 49 44 60
REMARK Flexibility Score: inf
ROOT
ATOM      1  C   UNL     1       5.846  -7.670   4.343  1.00  0.00     0.202 C 
ENDROOT
BRANCH   1   2
ATOM      2  C   UNL     1       7.084  -7.016   3.723  1.00  0.00     0.261 C 
BRANCH   2   3
ATOM      3  O   UNL     1       6.762  -5.729   3.167  1.00  0.00    -0.460 OA
BRANCH   3   4
ATOM      4  C   UNL     1       6.840  -5.657   1.817  1.00  0.00     0.338 C 
ATOM      5  O   UNL     1       7.299  -6.506   1.066  1.00  0.00    -0.246 OA
BRANCH   4   6
ATOM      6  C   UNL     1       6.159  -4.440   1.317  1.00  0.00     0.060 A 
ATOM      7  C   UNL     1       4.965  -2.170   0.177  1.00  0.00    -0.029 A 
ATOM      8  C   UNL     1       4.962  -3.390  -0.511  1.00  0.00     0.006 A 
ATOM      9  C   UNL     1       5.504  -2.117   1.474  1.00  0.00     0.006 A 
ATOM     10  C   UNL     1       5.562  -4.514   0.053  1.00  0.00     0.016 A 
ATOM     11  C   UNL     1       6.102  -3.247   2.044  1.00  0.00     0.016 A 
BRANCH   7  12
ATOM     12  C   UNL     1       4.442  -0.925  -0.490  1.00  0.00     0.153 C 
BRANCH  12  13
ATOM     13  N   UNL     1       3.000  -0.856  -0.473  1.00  0.00    -0.334 N 
ATOM     14  O   UNL     1       0.963  -0.036  -0.147  1.00  0.00    -0.248 OA
ATOM     15  C   UNL     1       2.172   0.120  -0.012  1.00  0.00     0.319 C 
ATOM     16  N   UNL     1       2.780   1.223   0.516  1.00  0.00    -0.307 N 
ATOM     17  H   UNL     1       2.544  -1.639  -0.856  1.00  0.00     0.165 HD
ATOM     18  H   UNL     1       3.744   1.320   0.344  1.00  0.00     0.171 HD
BRANCH  16  19
ATOM     19  C   UNL     1       2.169   2.240   1.285  1.00  0.00     0.057 A 
ATOM     20  C   UNL     1       2.720   3.524   1.121  1.00  0.00     0.027 A 
ATOM     21  C   UNL     1       1.117   2.078   2.203  1.00  0.00     0.041 A 
ATOM     22  C   UNL     1       2.191   4.631   1.788  1.00  0.00     0.002 A 
ATOM     23  C   UNL     1       0.579   3.198   2.857  1.00  0.00     0.018 A 
ATOM     24  Br  UNL     1       0.489   0.394   2.834  1.00  0.00    -0.049 Br
ATOM     25  C   UNL     1       1.107   4.470   2.642  1.00  0.00     0.001 A 
ENDBRANCH  16  19
ENDBRANCH  12  13
ENDBRANCH   7  12
ENDBRANCH   4   6
ENDBRANCH   3   4
ENDBRANCH   2   3
ENDBRANCH   1   2
BRANCH   1  26
ATOM     26  O   UNL     1       4.791  -7.986   3.434  1.00  0.00    -0.374 OA
BRANCH  26  27
ATOM     27  C   UNL     1       3.899  -6.925   3.084  1.00  0.00     0.202 C 
BRANCH  27  28
ATOM     28  C   UNL     1       2.795  -6.620   4.102  1.00  0.00     0.261 C 
BRANCH  28  29
ATOM     29  O   UNL     1       3.333  -6.065   5.317  1.00  0.00    -0.460 OA
BRANCH  29  30
ATOM     30  C   UNL     1       3.256  -6.877   6.395  1.00  0.00     0.338 C 
ATOM     31  O   UNL     1       2.699  -7.964   6.468  1.00  0.00    -0.246 OA
BRANCH  30  32
ATOM     32  C   UNL     1       4.103  -6.358   7.485  1.00  0.00     0.060 A 
ATOM     33  C   UNL     1       4.979  -7.261   8.101  1.00  0.00     0.016 A 
ATOM     34  C   UNL     1       3.994  -5.045   7.953  1.00  0.00     0.016 A 
ATOM     35  C   UNL     1       5.699  -6.877   9.229  1.00  0.00     0.010 A 
ATOM     36  C   UNL     1       4.715  -4.662   9.090  1.00  0.00     0.010 A 
ATOM     37  C   UNL     1       5.535  -5.590   9.758  1.00  0.00    -0.014 A 
BRANCH  37  38
ATOM     38  C   UNL     1       6.095  -5.286  11.098  1.00  0.00     0.031 A 
ATOM     39  C   UNL     1       5.191  -5.365  12.298  1.00  0.00     0.074 A 
ATOM     40  C   UNL     1       7.399  -5.002  11.253  1.00  0.00     0.049 A 
ATOM     41  N   UNL     1       5.467  -5.167  13.562  1.00  0.00    -0.248 NA
ATOM     42  C   UNL     1       3.786  -5.715  12.037  1.00  0.00     0.031 C 
ATOM     43  C   UNL     1       8.381  -4.929  10.173  1.00  0.00     0.029 A 
ATOM     44  N   UNL     1       8.121  -4.724  12.386  1.00  0.00    -0.354 N 
ATOM     45  C   UNL     1       4.274  -5.367  14.244  1.00  0.00     0.074 A 
ATOM     46  C   UNL     1       3.263  -5.667  13.253  1.00  0.00     0.031 C 
ATOM     47  C   UNL     1       9.581  -4.622  10.697  1.00  0.00     0.029 A 
ATOM     48  C   UNL     1       9.445  -4.455  12.143  1.00  0.00     0.049 A 
ATOM     49  H   UNL     1       7.727  -4.718  13.289  1.00  0.00     0.167 HD
ATOM     50  C   UNL     1       4.044  -5.318  15.578  1.00  0.00     0.037 A 
ATOM     51  C   UNL     1      10.430  -4.105  12.992  1.00  0.00     0.037 A 
ATOM     52  C   UNL     1       5.049  -5.024  16.565  1.00  0.00     0.049 A 
ATOM     53  C   UNL     1      10.136  -4.003  14.466  1.00  0.00     0.074 A 
ATOM     54  C   UNL     1       4.919  -4.971  17.942  1.00  0.00     0.029 A 
ATOM     55  N   UNL     1       6.373  -4.728  16.277  1.00  0.00    -0.354 N 
ATOM     56  N   UNL     1       9.014  -4.226  15.105  1.00  0.00    -0.248 NA
ATOM     57  C   UNL     1      11.252  -3.608  15.338  1.00  0.00     0.031 C 
ATOM     58  C   UNL     1       6.153  -4.596  18.484  1.00  0.00     0.029 A 
ATOM     59  C   UNL     1       7.065  -4.466  17.448  1.00  0.00     0.049 A 
ATOM     60  H   UNL     1       6.763  -4.706  15.373  1.00  0.00     0.167 HD
ATOM     61  C   UNL     1       9.293  -4.028  16.452  1.00  0.00     0.074 A 
ATOM     62  C   UNL     1      10.695  -3.679  16.539  1.00  0.00     0.031 C 
ATOM     63  C   UNL     1       8.463  -4.128  17.520  1.00  0.00     0.037 A 
BRANCH  50  64
ATOM     64  C   UNL     1       2.641  -5.569  16.047  1.00  0.00     0.064 A 
ATOM     65  C   UNL     1       2.070  -6.850  16.008  1.00  0.00     0.173 A 
ATOM     66  C   UNL     1       1.868  -4.521  16.568  1.00  0.00     0.173 A 
ATOM     67  F   UNL     1       2.762  -7.883  15.505  1.00  0.00    -0.203 F 
ATOM     68  C   UNL     1       0.767  -7.067  16.451  1.00  0.00     0.198 A 
ATOM     69  C   UNL     1       0.577  -4.747  17.036  1.00  0.00     0.198 A 
ATOM     70  F   UNL     1       2.369  -3.278  16.630  1.00  0.00    -0.203 F 
ATOM     71  F   UNL     1       0.226  -8.290  16.364  1.00  0.00    -0.200 F 
ATOM     72  C   UNL     1       0.025  -6.017  16.971  1.00  0.00     0.200 A 
ATOM     73  F   UNL     1      -0.136  -3.733  17.547  1.00  0.00    -0.200 F 
ATOM     74  F   UNL     1      -1.226  -6.228  17.403  1.00  0.00    -0.200 F 
ENDBRANCH  50  64
BRANCH  51  75
ATOM     75  C   UNL     1      11.793  -3.823  12.470  1.00  0.00     0.064 A 
ATOM     76  C   UNL     1      12.867  -4.679  12.750  1.00  0.00     0.173 A 
ATOM     77  C   UNL     1      12.051  -2.683  11.696  1.00  0.00     0.173 A 
ATOM     78  F   UNL     1      12.675  -5.768  13.508  1.00  0.00    -0.203 F 
ATOM     79  C   UNL     1      14.151  -4.395  12.290  1.00  0.00     0.198 A 
ATOM     80  C   UNL     1      13.330  -2.414  11.214  1.00  0.00     0.198 A 
ATOM     81  F   UNL     1      11.057  -1.831  11.402  1.00  0.00    -0.203 F 
ATOM     82  F   UNL     1      15.169  -5.205  12.610  1.00  0.00    -0.200 F 
ATOM     83  C   UNL     1      14.380  -3.266  11.518  1.00  0.00     0.200 A 
ATOM     84  F   UNL     1      13.544  -1.328  10.459  1.00  0.00    -0.200 F 
ATOM     85  F   UNL     1      15.615  -2.995  11.073  1.00  0.00    -0.200 F 
ENDBRANCH  51  75
BRANCH  63  86
ATOM     86  C   UNL     1       9.057  -3.892  18.878  1.00  0.00     0.064 A 
ATOM     87  C   UNL     1       9.427  -2.609  19.308  1.00  0.00     0.173 A 
ATOM     88  C   UNL     1       9.222  -4.958  19.775  1.00  0.00     0.173 A 
ATOM     89  F   UNL     1       9.302  -1.558  18.483  1.00  0.00    -0.203 F 
ATOM     90  C   UNL     1       9.966  -2.407  20.576  1.00  0.00     0.198 A 
ATOM     91  C   UNL     1       9.735  -4.748  21.053  1.00  0.00     0.198 A 
ATOM     92  F   UNL     1       8.877  -6.204  19.416  1.00  0.00    -0.203 F 
ATOM     93  F   UNL     1      10.358  -1.180  20.948  1.00  0.00    -0.200 F 
ATOM     94  C   UNL     1      10.113  -3.475  21.449  1.00  0.00     0.200 A 
ATOM     95  F   UNL     1       9.864  -5.779  21.899  1.00  0.00    -0.200 F 
ATOM     96  F   UNL     1      10.628  -3.278  22.671  1.00  0.00    -0.200 F 
ENDBRANCH  63  86
ENDBRANCH  37  38
ENDBRANCH  30  32
ENDBRANCH  29  30
ENDBRANCH  28  29
ENDBRANCH  27  28
ENDBRANCH  26  27
ENDBRANCH   1  26
TORSDOF 17
