REMARK SMILES C[C@H](Nc1cccc(F)c1C(=O)OCCOCCOC(=O)c1ccc(-c2c3nc(c(-c4c(F)c(F)c(F)c(F)c4F)c4ccc([nH]4)c(-c4c(F)c(F)c(F)c(F)c4F)c4nc(c(-c5c(F)c(F)c(F)c(F)c5F)c5ccc2[nH]5)C=C4)C=C3)cc1)c1nccs1
REMARK SMILES IDX 15 1 14 2 13 3 11 4 12 5 10 6 4 7 5 8 6 9 8 10 7 11 9 12
REMARK SMILES IDX 3 13 2 15 1 16 85 17 86 18 89 19 87 20 88 21 16 22 17 23
REMARK SMILES IDX 18 24 19 25 20 26 21 27 22 28 23 29 84 30 24 31 83 32 25 33
REMARK SMILES IDX 26 34 27 35 77 36 28 37 82 38 76 39 78 40 29 41 81 42 75 43
REMARK SMILES IDX 74 44 30 46 62 47 42 48 61 49 43 50 46 51 60 52 79 53 44 54
REMARK SMILES IDX 45 55 59 57 80 58 47 59 31 60 32 61 40 62 33 63 34 64 38 65
REMARK SMILES IDX 41 66 35 67 36 68 39 69 37 70 63 71 64 72 72 73 65 74 66 75
REMARK SMILES IDX 70 76 73 77 67 78 68 79 71 80 69 81 48 82 49 83 57 84 50 85
REMARK SMILES IDX 51 86 55 87 58 88 52 89 53 90 56 91 54 92
REMARK H PARENT 3 14 78 45 46 56
REMARK Flexibility Score: inf
ROOT
ATOM      1  C   UNL     1      -1.657   2.382   3.314  1.00  0.00     0.202 C 
ENDROOT
BRANCH   1   2
ATOM      2  C   UNL     1      -1.840   0.869   3.458  1.00  0.00     0.261 C 
BRANCH   2   3
ATOM      3  O   UNL     1      -0.563   0.212   3.465  1.00  0.00    -0.460 OA
BRANCH   3   4
ATOM      4  C   UNL     1      -0.425  -0.789   2.564  1.00  0.00     0.343 C 
ATOM      5  O   UNL     1      -1.311  -1.283   1.884  1.00  0.00    -0.246 OA
BRANCH   4   6
ATOM      6  C   UNL     1       1.004  -1.078   2.375  1.00  0.00     0.118 A 
ATOM      7  C   UNL     1       1.607  -0.916   1.108  1.00  0.00     0.052 A 
ATOM      8  C   UNL     1       2.955  -1.278   0.978  1.00  0.00     0.027 A 
ATOM      9  C   UNL     1       3.695  -1.735   2.074  1.00  0.00     0.005 A 
ATOM     10  C   UNL     1       1.748  -1.518   3.469  1.00  0.00     0.139 A 
ATOM     11  C   UNL     1       3.093  -1.841   3.325  1.00  0.00     0.040 A 
ATOM     12  F   UNL     1       1.185  -1.640   4.680  1.00  0.00    -0.206 F 
BRANCH   7  13
ATOM     13  N   UNL     1       0.930  -0.387   0.018  1.00  0.00    -0.375 N 
ATOM     14  H   UNL     1       0.728   0.577   0.042  1.00  0.00     0.161 HD
BRANCH  13  15
ATOM     15  C   UNL     1       0.482  -1.140  -1.180  1.00  0.00     0.135 C 
ATOM     16  C   UNL     1       0.934  -2.601  -1.217  1.00  0.00     0.039 C 
BRANCH  15  17
ATOM     17  C   UNL     1      -1.032  -1.044  -1.386  1.00  0.00     0.115 A 
ATOM     18  N   UNL     1      -1.872  -2.058  -1.456  1.00  0.00    -0.247 NA
ATOM     19  S   UNL     1      -1.770   0.520  -1.474  1.00  0.00    -0.125 S 
ATOM     20  C   UNL     1      -3.171  -1.589  -1.467  1.00  0.00     0.123 A 
ATOM     21  C   UNL     1      -3.312  -0.220  -1.479  1.00  0.00     0.087 A 
ENDBRANCH  15  17
ENDBRANCH  13  15
ENDBRANCH   7  13
ENDBRANCH   4   6
ENDBRANCH   3   4
ENDBRANCH   2   3
ENDBRANCH   1   2
BRANCH   1  22
ATOM     22  O   UNL     1      -1.080   2.822   2.083  1.00  0.00    -0.374 OA
BRANCH  22  23
ATOM     23  C   UNL     1       0.336   2.689   1.942  1.00  0.00     0.202 C 
BRANCH  23  24
ATOM     24  C   UNL     1       1.199   3.748   2.635  1.00  0.00     0.261 C 
BRANCH  24  25
ATOM     25  O   UNL     1       1.093   3.681   4.068  1.00  0.00    -0.460 OA
BRANCH  25  26
ATOM     26  C   UNL     1       0.436   4.719   4.636  1.00  0.00     0.338 C 
ATOM     27  O   UNL     1       0.012   5.721   4.083  1.00  0.00    -0.246 OA
BRANCH  26  28
ATOM     28  C   UNL     1       0.129   4.410   6.045  1.00  0.00     0.060 A 
ATOM     29  C   UNL     1      -1.198   4.566   6.463  1.00  0.00     0.016 A 
ATOM     30  C   UNL     1       1.123   4.047   6.957  1.00  0.00     0.016 A 
ATOM     31  C   UNL     1      -1.529   4.409   7.806  1.00  0.00     0.010 A 
ATOM     32  C   UNL     1       0.790   3.899   8.308  1.00  0.00     0.010 A 
ATOM     33  C   UNL     1      -0.530   4.113   8.743  1.00  0.00    -0.014 A 
BRANCH  33  34
ATOM     34  C   UNL     1      -0.850   4.170  10.190  1.00  0.00     0.031 A 
ATOM     35  C   UNL     1      -0.510   5.414  10.963  1.00  0.00     0.074 A 
ATOM     36  C   UNL     1      -1.484   3.150  10.793  1.00  0.00     0.049 A 
ATOM     37  N   UNL     1      -0.689   5.677  12.232  1.00  0.00    -0.248 NA
ATOM     38  C   UNL     1       0.110   6.512  10.204  1.00  0.00     0.031 C 
ATOM     39  C   UNL     1      -1.913   1.918  10.135  1.00  0.00     0.029 A 
ATOM     40  N   UNL     1      -1.884   2.994  12.097  1.00  0.00    -0.354 N 
ATOM     41  C   UNL     1      -0.212   6.967  12.421  1.00  0.00     0.074 A 
ATOM     42  C   UNL     1       0.297   7.424  11.147  1.00  0.00     0.031 C 
ATOM     43  C   UNL     1      -2.522   1.131  11.039  1.00  0.00     0.029 A 
ATOM     44  C   UNL     1      -2.496   1.790  12.344  1.00  0.00     0.049 A 
ATOM     45  H   UNL     1      -1.745   3.680  12.789  1.00  0.00     0.167 HD
ATOM     46  C   UNL     1      -0.213   7.708  13.554  1.00  0.00     0.037 A 
ATOM     47  C   UNL     1      -2.969   1.275  13.496  1.00  0.00     0.037 A 
ATOM     48  C   UNL     1      -0.722   7.253  14.820  1.00  0.00     0.049 A 
ATOM     49  C   UNL     1      -2.874   2.087  14.762  1.00  0.00     0.074 A 
ATOM     50  C   UNL     1      -0.760   7.930  16.026  1.00  0.00     0.029 A 
ATOM     51  N   UNL     1      -1.282   6.004  15.043  1.00  0.00    -0.354 N 
ATOM     52  N   UNL     1      -2.420   3.304  14.933  1.00  0.00    -0.248 NA
ATOM     53  C   UNL     1      -3.355   1.450  15.998  1.00  0.00     0.031 C 
ATOM     54  C   UNL     1      -1.303   7.076  16.990  1.00  0.00     0.029 A 
ATOM     55  C   UNL     1      -1.650   5.884  16.373  1.00  0.00     0.049 A 
ATOM     56  H   UNL     1      -1.399   5.306  14.359  1.00  0.00     0.167 HD
ATOM     57  C   UNL     1      -2.586   3.591  16.281  1.00  0.00     0.074 A 
ATOM     58  C   UNL     1      -3.191   2.422  16.886  1.00  0.00     0.031 C 
ATOM     59  C   UNL     1      -2.266   4.721  16.957  1.00  0.00     0.037 A 
BRANCH  46  60
ATOM     60  C   UNL     1       0.355   9.093  13.487  1.00  0.00     0.064 A 
ATOM     61  C   UNL     1       1.568   9.397  14.123  1.00  0.00     0.173 A 
ATOM     62  C   UNL     1      -0.342  10.139  12.864  1.00  0.00     0.173 A 
ATOM     63  F   UNL     1       2.270   8.432  14.736  1.00  0.00    -0.203 F 
ATOM     64  C   UNL     1       2.053  10.701  14.155  1.00  0.00     0.198 A 
ATOM     65  C   UNL     1       0.158  11.438  12.877  1.00  0.00     0.198 A 
ATOM     66  F   UNL     1      -1.500   9.896  12.232  1.00  0.00    -0.203 F 
ATOM     67  F   UNL     1       3.196  10.975  14.799  1.00  0.00    -0.200 F 
ATOM     68  C   UNL     1       1.349  11.720  13.531  1.00  0.00     0.200 A 
ATOM     69  F   UNL     1      -0.512  12.419  12.257  1.00  0.00    -0.200 F 
ATOM     70  F   UNL     1       1.817  12.976  13.561  1.00  0.00    -0.200 F 
ENDBRANCH  46  60
BRANCH  47  71
ATOM     71  C   UNL     1      -3.580  -0.079  13.506  1.00  0.00     0.064 A 
ATOM     72  C   UNL     1      -2.807  -1.230  13.292  1.00  0.00     0.173 A 
ATOM     73  C   UNL     1      -4.952  -0.249  13.735  1.00  0.00     0.173 A 
ATOM     74  F   UNL     1      -1.488  -1.122  13.075  1.00  0.00    -0.203 F 
ATOM     75  C   UNL     1      -3.386  -2.497  13.290  1.00  0.00     0.198 A 
ATOM     76  C   UNL     1      -5.526  -1.519  13.759  1.00  0.00     0.198 A 
ATOM     77  F   UNL     1      -5.728   0.819  13.972  1.00  0.00    -0.203 F 
ATOM     78  F   UNL     1      -2.628  -3.578  13.058  1.00  0.00    -0.200 F 
ATOM     79  C   UNL     1      -4.744  -2.641  13.529  1.00  0.00     0.200 A 
ATOM     80  F   UNL     1      -6.833  -1.656  14.019  1.00  0.00    -0.200 F 
ATOM     81  F   UNL     1      -5.298  -3.861  13.545  1.00  0.00    -0.200 F 
ENDBRANCH  47  71
BRANCH  59  82
ATOM     82  C   UNL     1      -2.588   4.777  18.422  1.00  0.00     0.064 A 
ATOM     83  C   UNL     1      -3.604   5.622  18.893  1.00  0.00     0.173 A 
ATOM     84  C   UNL     1      -1.834   4.065  19.365  1.00  0.00     0.173 A 
ATOM     85  F   UNL     1      -4.347   6.332  18.030  1.00  0.00    -0.203 F 
ATOM     86  C   UNL     1      -3.842   5.766  20.256  1.00  0.00     0.198 A 
ATOM     87  C   UNL     1      -2.092   4.191  20.728  1.00  0.00     0.198 A 
ATOM     88  F   UNL     1      -0.859   3.236  18.964  1.00  0.00    -0.203 F 
ATOM     89  F   UNL     1      -4.792   6.609  20.685  1.00  0.00    -0.200 F 
ATOM     90  C   UNL     1      -3.088   5.049  21.172  1.00  0.00     0.200 A 
ATOM     91  F   UNL     1      -1.378   3.481  21.612  1.00  0.00    -0.200 F 
ATOM     92  F   UNL     1      -3.321   5.184  22.485  1.00  0.00    -0.200 F 
ENDBRANCH  59  82
ENDBRANCH  33  34
ENDBRANCH  26  28
ENDBRANCH  25  26
ENDBRANCH  24  25
ENDBRANCH  23  24
ENDBRANCH  22  23
ENDBRANCH   1  22
TORSDOF 17
