REMARK SMILES O=C(OCCOCCOC(=O)c1ccc(-n2cc(CSc3nc4ccccc4c(=O)n3-c3ccc(Br)cc3)nn2)cc1)c1ccc(-c2c3nc(c(-c4c(F)c(F)c(F)c(F)c4F)c4ccc([nH]4)c(-c4c(F)c(F)c(F)c(F)c4F)c4nc(c(-c5c(F)c(F)c(F)c(F)c5F)c5ccc2[nH]5)C=C4)C=C3)cc1
REMARK SMILES IDX 7 1 6 2 5 3 4 4 3 5 2 6 1 7 43 8 44 9 105 10 45 11 104 12
REMARK SMILES IDX 46 13 47 14 48 15 98 16 49 17 103 18 97 19 99 20 50 21
REMARK SMILES IDX 102 22 96 23 95 24 51 26 83 27 63 28 82 29 64 30 67 31 81 32
REMARK SMILES IDX 100 33 65 34 66 35 80 37 101 38 68 39 52 40 53 41 61 42
REMARK SMILES IDX 54 43 55 44 59 45 62 46 56 47 57 48 60 49 58 50 84 51 85 52
REMARK SMILES IDX 93 53 86 54 87 55 91 56 94 57 88 58 89 59 92 60 90 61 69 62
REMARK SMILES IDX 70 63 78 64 71 65 72 66 76 67 79 68 73 69 74 70 77 71 75 72
REMARK SMILES IDX 8 73 9 74 10 75 11 76 12 77 13 78 42 79 14 80 41 81 15 82
REMARK SMILES IDX 16 83 17 84 40 85 18 86 39 87 19 88 20 89 21 90 22 91 31 92
REMARK SMILES IDX 23 93 29 94 24 95 28 96 30 97 25 98 27 99 26 100 32 101
REMARK SMILES IDX 33 102 38 103 34 104 37 105 35 106 36 107
REMARK H PARENT 99 25 67 36
REMARK Flexibility Score: inf
ROOT
ATOM      1  C   UNL     1       3.070  -1.849   0.894  1.00  0.00     0.202 C 
ENDROOT
BRANCH   1   2
ATOM      2  O   UNL     1       4.232  -1.311   0.241  1.00  0.00    -0.374 OA
BRANCH   2   3
ATOM      3  C   UNL     1       4.816  -0.162   0.847  1.00  0.00     0.202 C 
BRANCH   3   4
ATOM      4  C   UNL     1       4.552   1.197   0.199  1.00  0.00     0.261 C 
BRANCH   4   5
ATOM      5  O   UNL     1       3.167   1.582   0.240  1.00  0.00    -0.460 OA
BRANCH   5   6
ATOM      6  C   UNL     1       2.151   0.891  -0.324  1.00  0.00     0.338 C 
ATOM      7  O   UNL     1       1.083   0.760   0.270  1.00  0.00    -0.246 OA
BRANCH   6   8
ATOM      8  C   UNL     1       2.225   0.544  -1.763  1.00  0.00     0.060 A 
ATOM      9  C   UNL     1       3.401   0.350  -2.486  1.00  0.00     0.016 A 
ATOM     10  C   UNL     1       0.994   0.520  -2.436  1.00  0.00     0.016 A 
ATOM     11  C   UNL     1       3.380   0.433  -3.863  1.00  0.00     0.010 A 
ATOM     12  C   UNL     1       0.958   0.513  -3.816  1.00  0.00     0.010 A 
ATOM     13  C   UNL     1       2.158   0.580  -4.514  1.00  0.00    -0.014 A 
BRANCH  13  14
ATOM     14  C   UNL     1       2.184   0.688  -5.961  1.00  0.00     0.031 A 
ATOM     15  C   UNL     1       2.792  -0.486  -6.643  1.00  0.00     0.074 A 
ATOM     16  C   UNL     1       1.612   1.726  -6.600  1.00  0.00     0.049 A 
ATOM     17  N   UNL     1       3.794  -0.511  -7.460  1.00  0.00    -0.248 NA
ATOM     18  C   UNL     1       2.302  -1.821  -6.253  1.00  0.00     0.031 C 
ATOM     19  C   UNL     1       0.782   2.795  -6.037  1.00  0.00     0.029 A 
ATOM     20  N   UNL     1       1.571   1.985  -7.933  1.00  0.00    -0.354 N 
ATOM     21  C   UNL     1       3.950  -1.846  -7.825  1.00  0.00     0.074 A 
ATOM     22  C   UNL     1       3.109  -2.619  -6.951  1.00  0.00     0.031 C 
ATOM     23  C   UNL     1       0.128   3.425  -7.037  1.00  0.00     0.029 A 
ATOM     24  C   UNL     1       0.596   2.898  -8.306  1.00  0.00     0.049 A 
ATOM     25  H   UNL     1       2.181   1.560  -8.579  1.00  0.00     0.167 HD
ATOM     26  C   UNL     1       4.583  -2.197  -8.976  1.00  0.00     0.037 A 
ATOM     27  C   UNL     1       0.156   3.122  -9.569  1.00  0.00     0.037 A 
ATOM     28  C   UNL     1       5.477  -1.165  -9.424  1.00  0.00     0.049 A 
ATOM     29  C   UNL     1       1.185   2.589 -10.499  1.00  0.00     0.074 A 
ATOM     30  C   UNL     1       6.598  -0.566  -8.882  1.00  0.00     0.029 A 
ATOM     31  N   UNL     1       5.062  -0.328 -10.429  1.00  0.00    -0.354 N 
ATOM     32  N   UNL     1       2.374   3.108 -10.637  1.00  0.00    -0.248 NA
ATOM     33  C   UNL     1       1.056   1.202 -10.921  1.00  0.00     0.031 C 
ATOM     34  C   UNL     1       6.490   0.810  -9.239  1.00  0.00     0.029 A 
ATOM     35  C   UNL     1       5.351   0.954 -10.031  1.00  0.00     0.049 A 
ATOM     36  H   UNL     1       4.638  -0.596 -11.276  1.00  0.00     0.167 HD
ATOM     37  C   UNL     1       3.224   2.018 -10.752  1.00  0.00     0.074 A 
ATOM     38  C   UNL     1       2.349   0.874 -10.995  1.00  0.00     0.031 C 
ATOM     39  C   UNL     1       4.528   2.094 -10.355  1.00  0.00     0.037 A 
BRANCH  26  40
ATOM     40  C   UNL     1       4.109  -3.319  -9.863  1.00  0.00     0.064 A 
ATOM     41  C   UNL     1       4.902  -3.733 -10.949  1.00  0.00     0.173 A 
ATOM     42  C   UNL     1       2.778  -3.796  -9.862  1.00  0.00     0.173 A 
ATOM     43  F   UNL     1       6.170  -3.312 -11.067  1.00  0.00    -0.203 F 
ATOM     44  C   UNL     1       4.381  -4.515 -11.984  1.00  0.00     0.198 A 
ATOM     45  C   UNL     1       2.279  -4.619 -10.867  1.00  0.00     0.198 A 
ATOM     46  F   UNL     1       1.878  -3.396  -8.956  1.00  0.00    -0.203 F 
ATOM     47  F   UNL     1       5.137  -4.786 -13.057  1.00  0.00    -0.200 F 
ATOM     48  C   UNL     1       3.070  -4.955 -11.944  1.00  0.00     0.200 A 
ATOM     49  F   UNL     1       0.998  -5.013 -10.820  1.00  0.00    -0.200 F 
ATOM     50  F   UNL     1       2.553  -5.654 -12.962  1.00  0.00    -0.200 F 
ENDBRANCH  26  40
BRANCH  27  51
ATOM     51  C   UNL     1      -1.232   3.418  -9.998  1.00  0.00     0.064 A 
ATOM     52  C   UNL     1      -1.502   3.921 -11.280  1.00  0.00     0.173 A 
ATOM     53  C   UNL     1      -2.342   2.960  -9.260  1.00  0.00     0.173 A 
ATOM     54  F   UNL     1      -0.498   4.330 -12.069  1.00  0.00    -0.203 F 
ATOM     55  C   UNL     1      -2.802   3.947 -11.799  1.00  0.00     0.198 A 
ATOM     56  C   UNL     1      -3.639   2.994  -9.775  1.00  0.00     0.198 A 
ATOM     57  F   UNL     1      -2.182   2.380  -8.062  1.00  0.00    -0.203 F 
ATOM     58  F   UNL     1      -3.014   4.379 -13.050  1.00  0.00    -0.200 F 
ATOM     59  C   UNL     1      -3.867   3.476 -11.049  1.00  0.00     0.200 A 
ATOM     60  F   UNL     1      -4.653   2.499  -9.052  1.00  0.00    -0.200 F 
ATOM     61  F   UNL     1      -5.103   3.446 -11.567  1.00  0.00    -0.200 F 
ENDBRANCH  27  51
BRANCH  39  62
ATOM     62  C   UNL     1       5.072   3.450  -9.999  1.00  0.00     0.064 A 
ATOM     63  C   UNL     1       4.593   4.235  -8.935  1.00  0.00     0.173 A 
ATOM     64  C   UNL     1       6.214   3.908 -10.669  1.00  0.00     0.173 A 
ATOM     65  F   UNL     1       3.574   3.817  -8.175  1.00  0.00    -0.203 F 
ATOM     66  C   UNL     1       5.198   5.443  -8.593  1.00  0.00     0.198 A 
ATOM     67  C   UNL     1       6.841   5.096 -10.301  1.00  0.00     0.198 A 
ATOM     68  F   UNL     1       6.756   3.173 -11.653  1.00  0.00    -0.203 F 
ATOM     69  F   UNL     1       4.712   6.178  -7.581  1.00  0.00    -0.200 F 
ATOM     70  C   UNL     1       6.327   5.869  -9.273  1.00  0.00     0.200 A 
ATOM     71  F   UNL     1       7.963   5.477 -10.926  1.00  0.00    -0.200 F 
ATOM     72  F   UNL     1       6.936   7.009  -8.918  1.00  0.00    -0.200 F 
ENDBRANCH  39  62
ENDBRANCH  13  14
ENDBRANCH   6   8
ENDBRANCH   5   6
ENDBRANCH   4   5
ENDBRANCH   3   4
ENDBRANCH   2   3
ENDBRANCH   1   2
BRANCH   1  73
ATOM     73  C   UNL     1       3.239  -2.549   2.253  1.00  0.00     0.261 C 
BRANCH  73  74
ATOM     74  O   UNL     1       3.579  -1.619   3.298  1.00  0.00    -0.460 OA
BRANCH  74  75
ATOM     75  C   UNL     1       4.886  -1.637   3.672  1.00  0.00     0.338 C 
ATOM     76  O   UNL     1       5.733  -2.429   3.338  1.00  0.00    -0.246 OA
BRANCH  75  77
ATOM     77  C   UNL     1       5.195  -0.365   4.366  1.00  0.00     0.060 A 
ATOM     78  C   UNL     1       6.270   0.395   3.871  1.00  0.00     0.018 A 
ATOM     79  C   UNL     1       4.476   0.057   5.482  1.00  0.00     0.018 A 
ATOM     80  C   UNL     1       6.656   1.572   4.502  1.00  0.00     0.029 A 
ATOM     81  C   UNL     1       4.920   1.183   6.174  1.00  0.00     0.029 A 
ATOM     82  C   UNL     1       6.028   1.912   5.698  1.00  0.00     0.066 A 
BRANCH  82  83
ATOM     83  N   UNL     1       6.713   2.782   6.566  1.00  0.00    -0.220 N 
ATOM     84  C   UNL     1       7.016   2.460   7.859  1.00  0.00     0.141 A 
ATOM     85  N   UNL     1       7.420   3.869   6.192  1.00  0.00    -0.062 NA
ATOM     86  C   UNL     1       7.960   3.372   8.259  1.00  0.00     0.093 A 
ATOM     87  N   UNL     1       8.128   4.280   7.245  1.00  0.00    -0.134 NA
BRANCH  86  88
ATOM     88  C   UNL     1       8.533   3.542   9.610  1.00  0.00     0.138 C 
BRANCH  88  89
ATOM     89  S   UNL     1      10.125   2.900  10.105  1.00  0.00    -0.081 SA
BRANCH  89  90
ATOM     90  C   UNL     1      10.714   1.545   9.178  1.00  0.00     0.176 A 
ATOM     91  N   UNL     1      12.016   1.544   9.115  1.00  0.00    -0.223 NA
ATOM     92  N   UNL     1       9.964   0.553   8.566  1.00  0.00    -0.255 N 
ATOM     93  C   UNL     1      12.651   0.586   8.319  1.00  0.00     0.079 A 
ATOM     94  C   UNL     1      10.489   0.114   7.341  1.00  0.00     0.266 A 
ATOM     95  C   UNL     1      14.012   0.317   8.461  1.00  0.00     0.029 A 
ATOM     96  C   UNL     1      11.951  -0.038   7.298  1.00  0.00     0.066 A 
ATOM     97  O   UNL     1       9.845  -0.145   6.326  1.00  0.00    -0.268 OA
ATOM     98  C   UNL     1      14.665  -0.520   7.547  1.00  0.00     0.002 A 
ATOM     99  C   UNL     1      12.596  -0.832   6.344  1.00  0.00     0.016 A 
ATOM    100  C   UNL     1      13.964  -1.065   6.468  1.00  0.00     0.001 A 
BRANCH  92 101
ATOM    101  C   UNL     1       8.746  -0.062   9.053  1.00  0.00     0.051 A 
ATOM    102  C   UNL     1       8.177  -1.157   8.366  1.00  0.00     0.028 A 
ATOM    103  C   UNL     1       8.078   0.331  10.219  1.00  0.00     0.028 A 
ATOM    104  C   UNL     1       6.904  -1.651   8.666  1.00  0.00     0.018 A 
ATOM    105  C   UNL     1       6.773  -0.112  10.497  1.00  0.00     0.018 A 
ATOM    106  C   UNL     1       6.174  -1.068   9.687  1.00  0.00     0.018 A 
ATOM    107  Br  UNL     1       4.367  -1.541   9.941  1.00  0.00    -0.051 Br
ENDBRANCH  92 101
ENDBRANCH  89  90
ENDBRANCH  88  89
ENDBRANCH  86  88
ENDBRANCH  82  83
ENDBRANCH  75  77
ENDBRANCH  74  75
ENDBRANCH  73  74
ENDBRANCH   1  73
TORSDOF 19
