REMARK SMILES O=C(OCCOCCOC(=O)c1ccc2c(c1)[C@@H]1C=CC[C@@H]1[C@H](c1ccncc1)N2)c1ccc(-c2c3nc(c(-c4c(F)c(F)c(F)c(F)c4F)c4ccc([nH]4)c(-c4c(F)c(F)c(F)c(F)c4F)c4nc(c(-c5c(F)c(F)c(F)c(F)c5F)c5ccc2[nH]5)C=C4)C=C3)cc1
REMARK SMILES IDX 5 1 4 2 3 3 2 4 1 5 31 6 32 7 93 8 33 9 92 10 34 11 35 12
REMARK SMILES IDX 36 13 86 14 37 15 91 16 85 17 87 18 38 19 90 20 84 21 83 22
REMARK SMILES IDX 39 24 71 25 51 26 70 27 52 28 55 29 69 30 88 31 53 32 54 33
REMARK SMILES IDX 68 35 89 36 56 37 40 38 41 39 49 40 42 41 43 42 47 43 50 44
REMARK SMILES IDX 44 45 45 46 48 47 46 48 72 49 73 50 81 51 74 52 75 53 79 54
REMARK SMILES IDX 82 55 76 56 77 57 80 58 78 59 57 60 58 61 66 62 59 63 60 64
REMARK SMILES IDX 64 65 67 66 61 67 62 68 65 69 63 70 6 71 7 72 8 73 9 74
REMARK SMILES IDX 10 75 11 76 12 77 13 78 17 79 14 80 16 81 15 82 18 83 30 84
REMARK SMILES IDX 19 85 22 86 23 87 20 89 21 90 24 91 25 92 29 93 26 94 28 95
REMARK SMILES IDX 27 96
REMARK H PARENT 87 23 55 34 30 88
REMARK Flexibility Score: inf
ROOT
ATOM      1  C   UNL     1       4.265   0.219  -1.739  1.00  0.00     0.202 C 
ENDROOT
BRANCH   1   2
ATOM      2  C   UNL     1       3.936  -1.052  -0.953  1.00  0.00     0.261 C 
BRANCH   2   3
ATOM      3  O   UNL     1       2.568  -1.026  -0.513  1.00  0.00    -0.460 OA
BRANCH   3   4
ATOM      4  C   UNL     1       2.085  -0.785   0.727  1.00  0.00     0.338 C 
ATOM      5  O   UNL     1       0.873  -0.880   0.913  1.00  0.00    -0.246 OA
BRANCH   4   6
ATOM      6  C   UNL     1       2.937  -0.409   1.897  1.00  0.00     0.060 A 
ATOM      7  C   UNL     1       4.161   0.256   1.819  1.00  0.00     0.016 A 
ATOM      8  C   UNL     1       2.409  -0.662   3.176  1.00  0.00     0.016 A 
ATOM      9  C   UNL     1       4.871   0.611   2.957  1.00  0.00     0.010 A 
ATOM     10  C   UNL     1       3.096  -0.272   4.330  1.00  0.00     0.010 A 
ATOM     11  C   UNL     1       4.340   0.355   4.217  1.00  0.00    -0.014 A 
BRANCH  11  12
ATOM     12  C   UNL     1       5.166   0.688   5.389  1.00  0.00     0.031 A 
ATOM     13  C   UNL     1       5.897  -0.416   6.084  1.00  0.00     0.074 A 
ATOM     14  C   UNL     1       5.360   1.979   5.712  1.00  0.00     0.049 A 
ATOM     15  N   UNL     1       6.679  -0.364   7.127  1.00  0.00    -0.248 NA
ATOM     16  C   UNL     1       5.739  -1.764   5.512  1.00  0.00     0.031 C 
ATOM     17  C   UNL     1       4.778   3.119   5.000  1.00  0.00     0.029 A 
ATOM     18  N   UNL     1       6.127   2.552   6.690  1.00  0.00    -0.354 N 
ATOM     19  C   UNL     1       7.088  -1.671   7.350  1.00  0.00     0.074 A 
ATOM     20  C   UNL     1       6.469  -2.496   6.338  1.00  0.00     0.031 C 
ATOM     21  C   UNL     1       5.233   4.257   5.550  1.00  0.00     0.029 A 
ATOM     22  C   UNL     1       6.081   3.925   6.688  1.00  0.00     0.049 A 
ATOM     23  H   UNL     1       6.660   2.030   7.333  1.00  0.00     0.167 HD
ATOM     24  C   UNL     1       7.905  -2.131   8.325  1.00  0.00     0.037 A 
ATOM     25  C   UNL     1       6.645   4.804   7.537  1.00  0.00     0.037 A 
ATOM     26  C   UNL     1       8.500  -1.282   9.321  1.00  0.00     0.049 A 
ATOM     27  C   UNL     1       7.476   4.256   8.667  1.00  0.00     0.074 A 
ATOM     28  C   UNL     1       9.281  -1.630  10.407  1.00  0.00     0.029 A 
ATOM     29  N   UNL     1       8.373   0.103   9.343  1.00  0.00    -0.354 N 
ATOM     30  N   UNL     1       7.802   3.011   8.924  1.00  0.00    -0.248 NA
ATOM     31  C   UNL     1       8.001   5.228   9.633  1.00  0.00     0.031 C 
ATOM     32  C   UNL     1       9.593  -0.459  11.108  1.00  0.00     0.029 A 
ATOM     33  C   UNL     1       9.048   0.624  10.432  1.00  0.00     0.049 A 
ATOM     34  H   UNL     1       7.876   0.634   8.680  1.00  0.00     0.167 HD
ATOM     35  C   UNL     1       8.580   3.048  10.071  1.00  0.00     0.074 A 
ATOM     36  C   UNL     1       8.695   4.444  10.446  1.00  0.00     0.031 C 
ATOM     37  C   UNL     1       9.141   2.024  10.762  1.00  0.00     0.037 A 
BRANCH  24  38
ATOM     38  C   UNL     1       8.120  -3.613   8.389  1.00  0.00     0.064 A 
ATOM     39  C   UNL     1       8.900  -4.293   7.442  1.00  0.00     0.173 A 
ATOM     40  C   UNL     1       7.495  -4.371   9.391  1.00  0.00     0.173 A 
ATOM     41  F   UNL     1       9.493  -3.619   6.446  1.00  0.00    -0.203 F 
ATOM     42  C   UNL     1       9.020  -5.681   7.478  1.00  0.00     0.198 A 
ATOM     43  C   UNL     1       7.638  -5.755   9.439  1.00  0.00     0.198 A 
ATOM     44  F   UNL     1       6.731  -3.770  10.315  1.00  0.00    -0.203 F 
ATOM     45  F   UNL     1       9.719  -6.316   6.527  1.00  0.00    -0.200 F 
ATOM     46  C   UNL     1       8.392  -6.410   8.477  1.00  0.00     0.200 A 
ATOM     47  F   UNL     1       7.030  -6.457  10.405  1.00  0.00    -0.200 F 
ATOM     48  F   UNL     1       8.498  -7.746   8.502  1.00  0.00    -0.200 F 
ENDBRANCH  24  38
BRANCH  25  49
ATOM     49  C   UNL     1       6.404   6.263   7.379  1.00  0.00     0.064 A 
ATOM     50  C   UNL     1       7.448   7.148   7.078  1.00  0.00     0.173 A 
ATOM     51  C   UNL     1       5.119   6.808   7.537  1.00  0.00     0.173 A 
ATOM     52  F   UNL     1       8.700   6.686   6.941  1.00  0.00    -0.203 F 
ATOM     53  C   UNL     1       7.220   8.519   6.955  1.00  0.00     0.198 A 
ATOM     54  C   UNL     1       4.887   8.173   7.383  1.00  0.00     0.198 A 
ATOM     55  F   UNL     1       4.082   6.010   7.831  1.00  0.00    -0.203 F 
ATOM     56  F   UNL     1       8.245   9.348   6.714  1.00  0.00    -0.200 F 
ATOM     57  C   UNL     1       5.939   9.029   7.101  1.00  0.00     0.200 A 
ATOM     58  F   UNL     1       3.644   8.658   7.512  1.00  0.00    -0.200 F 
ATOM     59  F   UNL     1       5.721  10.346   6.980  1.00  0.00    -0.200 F 
ENDBRANCH  25  49
BRANCH  37  60
ATOM     60  C   UNL     1       9.947   2.389  11.970  1.00  0.00     0.064 A 
ATOM     61  C   UNL     1       9.335   2.810  13.159  1.00  0.00     0.173 A 
ATOM     62  C   UNL     1      11.345   2.270  11.950  1.00  0.00     0.173 A 
ATOM     63  F   UNL     1       8.002   2.954  13.218  1.00  0.00    -0.203 F 
ATOM     64  C   UNL     1      10.097   3.121  14.281  1.00  0.00     0.198 A 
ATOM     65  C   UNL     1      12.101   2.554  13.082  1.00  0.00     0.198 A 
ATOM     66  F   UNL     1      11.973   1.864  10.836  1.00  0.00    -0.203 F 
ATOM     67  F   UNL     1       9.497   3.563  15.394  1.00  0.00    -0.200 F 
ATOM     68  C   UNL     1      11.477   2.985  14.244  1.00  0.00     0.200 A 
ATOM     69  F   UNL     1      13.432   2.410  13.050  1.00  0.00    -0.200 F 
ATOM     70  F   UNL     1      12.209   3.276  15.328  1.00  0.00    -0.200 F 
ENDBRANCH  37  60
ENDBRANCH  11  12
ENDBRANCH   4   6
ENDBRANCH   3   4
ENDBRANCH   2   3
ENDBRANCH   1   2
BRANCH   1  71
ATOM     71  O   UNL     1       4.077   1.423  -0.996  1.00  0.00    -0.374 OA
BRANCH  71  72
ATOM     72  C   UNL     1       2.768   2.001  -1.064  1.00  0.00     0.202 C 
BRANCH  72  73
ATOM     73  C   UNL     1       2.897   3.507  -1.315  1.00  0.00     0.261 C 
BRANCH  73  74
ATOM     74  O   UNL     1       3.499   3.697  -2.604  1.00  0.00    -0.460 OA
BRANCH  74  75
ATOM     75  C   UNL     1       4.856   3.646  -2.611  1.00  0.00     0.338 C 
ATOM     76  O   UNL     1       5.613   3.876  -1.682  1.00  0.00    -0.246 OA
BRANCH  75  77
ATOM     77  C   UNL     1       5.269   3.030  -3.889  1.00  0.00     0.060 A 
ATOM     78  C   UNL     1       6.330   2.122  -3.888  1.00  0.00     0.018 A 
ATOM     79  C   UNL     1       4.558   3.269  -5.066  1.00  0.00     0.022 A 
ATOM     80  C   UNL     1       6.670   1.449  -5.062  1.00  0.00     0.027 A 
ATOM     81  C   UNL     1       4.906   2.607  -6.252  1.00  0.00    -0.017 A 
ATOM     82  C   UNL     1       5.996   1.717  -6.260  1.00  0.00     0.038 A 
ATOM     83  C   UNL     1       4.128   2.904  -7.512  1.00  0.00     0.049 C 
ATOM     84  N   UNL     1       6.401   1.084  -7.435  1.00  0.00    -0.378 N 
ATOM     85  C   UNL     1       2.680   2.500  -7.433  1.00  0.00    -0.023 C 
ATOM     86  C   UNL     1       4.597   2.120  -8.750  1.00  0.00     0.031 C 
ATOM     87  C   UNL     1       6.088   1.782  -8.676  1.00  0.00     0.114 C 
ATOM     88  H   UNL     1       6.870   0.219  -7.427  1.00  0.00     0.161 HD
ATOM     89  C   UNL     1       2.412   1.428  -8.188  1.00  0.00    -0.030 C 
ATOM     90  C   UNL     1       3.639   0.925  -8.879  1.00  0.00     0.034 C 
BRANCH  87  91
ATOM     91  C   UNL     1       6.586   1.061  -9.916  1.00  0.00    -0.022 A 
ATOM     92  C   UNL     1       6.633   1.770 -11.126  1.00  0.00     0.026 A 
ATOM     93  C   UNL     1       7.009  -0.272  -9.929  1.00  0.00     0.026 A 
ATOM     94  C   UNL     1       7.096   1.137 -12.267  1.00  0.00     0.111 A 
ATOM     95  C   UNL     1       7.472  -0.814 -11.121  1.00  0.00     0.111 A 
ATOM     96  N   UNL     1       7.524  -0.140 -12.289  1.00  0.00    -0.265 NA
ENDBRANCH  87  91
ENDBRANCH  75  77
ENDBRANCH  74  75
ENDBRANCH  73  74
ENDBRANCH  72  73
ENDBRANCH  71  72
ENDBRANCH   1  71
TORSDOF 15
