REMARK SMILES CC(C)(C)OC(=O)N1CC[N@H+](Cc2ccc(Cl)nc2)[C@H](C(=O)OCCOCCOC(=O)c2ccc(-c3c4nc(c(-c5c(F)c(F)c(F)c(F)c5F)c5ccc([nH]5)c(-c5c(F)c(F)c(F)c(F)c5F)c5nc(c(-c6c(F)c(F)c(F)c(F)c6F)c6ccc3[nH]6)C=C5)C=C4)cc2)C1
REMARK SMILES IDX 25 1 24 2 23 3 21 4 22 5 20 6 8 7 9 8 95 9 10 10 11 11 6 13
REMARK SMILES IDX 7 14 5 15 2 16 1 17 3 18 4 19 12 20 13 21 14 22 19 23 15 24
REMARK SMILES IDX 18 25 16 26 17 27 26 28 27 29 28 30 29 31 30 32 31 33 32 34
REMARK SMILES IDX 33 35 94 36 34 37 93 38 35 39 36 40 37 41 87 42 38 43 92 44
REMARK SMILES IDX 86 45 88 46 39 47 91 48 85 49 84 50 40 52 72 53 52 54 71 55
REMARK SMILES IDX 53 56 56 57 70 58 89 59 54 60 55 61 69 63 90 64 57 65 41 66
REMARK SMILES IDX 42 67 50 68 43 69 44 70 48 71 51 72 45 73 46 74 49 75 47 76
REMARK SMILES IDX 73 77 74 78 82 79 75 80 76 81 80 82 83 83 77 84 78 85 81 86
REMARK SMILES IDX 79 87 58 88 59 89 67 90 60 91 61 92 65 93 68 94 62 95 63 96
REMARK SMILES IDX 66 97 64 98
REMARK H PARENT 11 12 88 51 56 62
REMARK Flexibility Score: inf
ROOT
ATOM      1  C   UNL     1       6.671  -6.615   2.616  1.00  0.00     0.202 C 
ENDROOT
BRANCH   1   2
ATOM      2  C   UNL     1       6.334  -5.343   3.391  1.00  0.00     0.261 C 
BRANCH   2   3
ATOM      3  O   UNL     1       4.931  -5.303   3.696  1.00  0.00    -0.459 OA
BRANCH   3   4
ATOM      4  C   UNL     1       4.260  -4.226   3.213  1.00  0.00     0.366 C 
ATOM      5  O   UNL     1       4.816  -3.249   2.721  1.00  0.00    -0.245 OA
BRANCH   4   6
ATOM      6  C   UNL     1       2.737  -4.377   3.234  1.00  0.00     0.315 C 
ATOM      7  N   UNL     1       0.677  -2.954   3.293  1.00  0.00    -0.296 N 
ATOM      8  C   UNL     1      -0.021  -3.963   4.072  1.00  0.00     0.184 C 
ATOM      9  C   UNL     1       2.134  -2.967   3.337  1.00  0.00     0.200 C 
ATOM     10  C   UNL     1       0.650  -5.353   4.007  1.00  0.00     0.285 C 
ATOM     11  N   UNL     1       2.123  -5.397   4.138  1.00  0.00    -0.316 N 
ATOM     12  H   UNL     1       2.498  -6.276   3.780  1.00  0.00     0.349 HD
BRANCH   7  13
ATOM     13  C   UNL     1      -0.009  -1.834   2.864  1.00  0.00     0.410 C 
ATOM     14  O   UNL     1      -1.158  -1.574   3.211  1.00  0.00    -0.224 OA
BRANCH  13  15
ATOM     15  O   UNL     1       0.735  -1.104   2.005  1.00  0.00    -0.444 OA
BRANCH  15  16
ATOM     16  C   UNL     1       0.323   0.160   1.427  1.00  0.00     0.106 C 
ATOM     17  C   UNL     1       1.079   0.236   0.092  1.00  0.00     0.056 C 
ATOM     18  C   UNL     1       0.807   1.276   2.354  1.00  0.00     0.056 C 
ATOM     19  C   UNL     1      -1.177   0.280   1.143  1.00  0.00     0.056 C 
ENDBRANCH  15  16
ENDBRANCH  13  15
ENDBRANCH   7  13
BRANCH  11  20
ATOM     20  C   UNL     1       2.604  -5.557   5.515  1.00  0.00     0.301 C 
BRANCH  20  21
ATOM     21  C   UNL     1       2.666  -4.330   6.379  1.00  0.00     0.025 A 
ATOM     22  C   UNL     1       1.553  -3.865   7.085  1.00  0.00     0.014 A 
ATOM     23  C   UNL     1       3.844  -3.597   6.497  1.00  0.00     0.122 A 
ATOM     24  C   UNL     1       1.623  -2.654   7.766  1.00  0.00     0.041 A 
ATOM     25  N   UNL     1       3.949  -2.429   7.163  1.00  0.00    -0.244 NA
ATOM     26  C   UNL     1       2.828  -1.976   7.757  1.00  0.00     0.129 A 
ATOM     27  Cl  UNL     1       2.987  -0.447   8.514  1.00  0.00    -0.062 Cl
ENDBRANCH  20  21
ENDBRANCH  11  20
ENDBRANCH   4   6
ENDBRANCH   3   4
ENDBRANCH   2   3
ENDBRANCH   1   2
BRANCH   1  28
ATOM     28  O   UNL     1       5.976  -6.786   1.383  1.00  0.00    -0.374 OA
BRANCH  28  29
ATOM     29  C   UNL     1       4.628  -7.262   1.442  1.00  0.00     0.202 C 
BRANCH  29  30
ATOM     30  C   UNL     1       4.447  -8.745   1.781  1.00  0.00     0.261 C 
BRANCH  30  31
ATOM     31  O   UNL     1       4.733  -9.015   3.167  1.00  0.00    -0.460 OA
BRANCH  31  32
ATOM     32  C   UNL     1       5.790  -9.833   3.384  1.00  0.00     0.338 C 
ATOM     33  O   UNL     1       6.465 -10.412   2.550  1.00  0.00    -0.246 OA
BRANCH  32  34
ATOM     34  C   UNL     1       6.164  -9.802   4.810  1.00  0.00     0.060 A 
ATOM     35  C   UNL     1       7.491  -9.482   5.125  1.00  0.00     0.016 A 
ATOM     36  C   UNL     1       5.264 -10.166   5.813  1.00  0.00     0.016 A 
ATOM     37  C   UNL     1       7.939  -9.577   6.441  1.00  0.00     0.010 A 
ATOM     38  C   UNL     1       5.718 -10.274   7.132  1.00  0.00     0.010 A 
ATOM     39  C   UNL     1       7.066 -10.017   7.444  1.00  0.00    -0.014 A 
BRANCH  39  40
ATOM     40  C   UNL     1       7.607 -10.358   8.781  1.00  0.00     0.031 A 
ATOM     41  C   UNL     1       7.941 -11.793   9.084  1.00  0.00     0.074 A 
ATOM     42  C   UNL     1       7.819  -9.403   9.703  1.00  0.00     0.049 A 
ATOM     43  N   UNL     1       8.398 -12.324  10.190  1.00  0.00    -0.248 NA
ATOM     44  C   UNL     1       7.730 -12.761   7.995  1.00  0.00     0.031 C 
ATOM     45  C   UNL     1       7.564  -7.977   9.515  1.00  0.00     0.029 A 
ATOM     46  N   UNL     1       8.291  -9.496  10.988  1.00  0.00    -0.354 N 
ATOM     47  C   UNL     1       8.517 -13.684   9.934  1.00  0.00     0.074 A 
ATOM     48  C   UNL     1       8.068 -13.903   8.576  1.00  0.00     0.031 C 
ATOM     49  C   UNL     1       7.866  -7.328  10.653  1.00  0.00     0.029 A 
ATOM     50  C   UNL     1       8.312  -8.296  11.653  1.00  0.00     0.049 A 
ATOM     51  H   UNL     1       8.586 -10.343  11.394  1.00  0.00     0.167 HD
ATOM     52  C   UNL     1       8.966 -14.660  10.757  1.00  0.00     0.037 A 
ATOM     53  C   UNL     1       8.634  -8.018  12.932  1.00  0.00     0.037 A 
ATOM     54  C   UNL     1       9.431 -14.440  12.100  1.00  0.00     0.049 A 
ATOM     55  C   UNL     1       9.088  -9.133  13.840  1.00  0.00     0.074 A 
ATOM     56  C   UNL     1       9.953 -15.358  12.994  1.00  0.00     0.029 A 
ATOM     57  N   UNL     1       9.421 -13.213  12.745  1.00  0.00    -0.354 N 
ATOM     58  N   UNL     1       9.243 -10.407  13.574  1.00  0.00    -0.248 NA
ATOM     59  C   UNL     1       9.414  -8.768  15.226  1.00  0.00     0.031 C 
ATOM     60  C   UNL     1      10.217 -14.695  14.197  1.00  0.00     0.029 A 
ATOM     61  C   UNL     1       9.901 -13.356  14.037  1.00  0.00     0.049 A 
ATOM     62  H   UNL     1       9.119 -12.366  12.345  1.00  0.00     0.167 HD
ATOM     63  C   UNL     1       9.710 -10.988  14.746  1.00  0.00     0.074 A 
ATOM     64  C   UNL     1       9.824  -9.926  15.723  1.00  0.00     0.031 C 
ATOM     65  C   UNL     1      10.018 -12.285  14.992  1.00  0.00     0.037 A 
BRANCH  52  66
ATOM     66  C   UNL     1       8.957 -16.067  10.239  1.00  0.00     0.064 A 
ATOM     67  C   UNL     1       9.897 -16.513   9.299  1.00  0.00     0.173 A 
ATOM     68  C   UNL     1       8.029 -16.995  10.734  1.00  0.00     0.173 A 
ATOM     69  F   UNL     1      10.796 -15.659   8.787  1.00  0.00    -0.203 F 
ATOM     70  C   UNL     1       9.899 -17.835   8.862  1.00  0.00     0.198 A 
ATOM     71  C   UNL     1       8.048 -18.321  10.312  1.00  0.00     0.198 A 
ATOM     72  F   UNL     1       7.111 -16.617  11.637  1.00  0.00    -0.203 F 
ATOM     73  F   UNL     1      10.785 -18.233   7.940  1.00  0.00    -0.200 F 
ATOM     74  C   UNL     1       8.980 -18.739   9.375  1.00  0.00     0.200 A 
ATOM     75  F   UNL     1       7.165 -19.195  10.815  1.00  0.00    -0.200 F 
ATOM     76  F   UNL     1       8.990 -20.014   8.961  1.00  0.00    -0.200 F 
ENDBRANCH  52  66
BRANCH  53  77
ATOM     77  C   UNL     1       8.522  -6.628  13.443  1.00  0.00     0.064 A 
ATOM     78  C   UNL     1       9.661  -5.888  13.789  1.00  0.00     0.173 A 
ATOM     79  C   UNL     1       7.270  -6.024  13.629  1.00  0.00     0.173 A 
ATOM     80  F   UNL     1      10.879  -6.434  13.655  1.00  0.00    -0.203 F 
ATOM     81  C   UNL     1       9.551  -4.607  14.325  1.00  0.00     0.198 A 
ATOM     82  C   UNL     1       7.162  -4.732  14.139  1.00  0.00     0.198 A 
ATOM     83  F   UNL     1       6.149  -6.692  13.317  1.00  0.00    -0.203 F 
ATOM     84  F   UNL     1      10.653  -3.942  14.698  1.00  0.00    -0.200 F 
ATOM     85  C   UNL     1       8.302  -4.028  14.495  1.00  0.00     0.200 A 
ATOM     86  F   UNL     1       5.954  -4.176  14.297  1.00  0.00    -0.200 F 
ATOM     87  F   UNL     1       8.197  -2.798  15.016  1.00  0.00    -0.200 F 
ENDBRANCH  53  77
BRANCH  65  88
ATOM     88  C   UNL     1      10.540 -12.624  16.357  1.00  0.00     0.064 A 
ATOM     89  C   UNL     1       9.698 -12.655  17.478  1.00  0.00     0.173 A 
ATOM     90  C   UNL     1      11.889 -12.967  16.536  1.00  0.00     0.173 A 
ATOM     91  F   UNL     1       8.404 -12.321  17.360  1.00  0.00    -0.203 F 
ATOM     92  C   UNL     1      10.194 -12.996  18.734  1.00  0.00     0.198 A 
ATOM     93  C   UNL     1      12.374 -13.333  17.788  1.00  0.00     0.198 A 
ATOM     94  F   UNL     1      12.733 -12.960  15.493  1.00  0.00    -0.203 F 
ATOM     95  F   UNL     1       9.381 -12.979  19.799  1.00  0.00    -0.200 F 
ATOM     96  C   UNL     1      11.528 -13.342  18.886  1.00  0.00     0.200 A 
ATOM     97  F   UNL     1      13.661 -13.680  17.931  1.00  0.00    -0.200 F 
ATOM     98  F   UNL     1      12.001 -13.677  20.095  1.00  0.00    -0.200 F 
ENDBRANCH  65  88
ENDBRANCH  39  40
ENDBRANCH  32  34
ENDBRANCH  31  32
ENDBRANCH  30  31
ENDBRANCH  29  30
ENDBRANCH  28  29
ENDBRANCH   1  28
TORSDOF 19
