REMARK SMILES C[C@]12c3ccccc3[C@](C)(c3ccccc31)[C@@H]1C(=O)N(c3ccc(C(=O)OCCOCCOC(=O)c4ccc(-c5c6nc(c(-c7c(F)c(F)c(F)c(F)c7F)c7ccc([nH]7)c(-c7c(F)c(F)c(F)c(F)c7F)c7nc(c(-c8c(F)c(F)c(F)c(F)c8F)c8ccc5[nH]8)C=C7)C=C6)cc4)cc3)C(=O)[C@H]12
REMARK SMILES IDX 31 1 30 2 29 3 28 4 27 5 25 6 26 7 24 8 21 9 22 10 100 11
REMARK SMILES IDX 23 12 99 13 20 14 1 15 2 16 16 17 3 18 103 19 15 20 11 21
REMARK SMILES IDX 8 22 4 23 17 24 101 25 14 26 12 27 9 28 7 29 5 30 18 31
REMARK SMILES IDX 102 32 13 33 10 34 6 35 19 36 32 37 33 38 34 39 35 40 36 41
REMARK SMILES IDX 37 42 98 43 38 44 97 45 39 46 40 47 41 48 91 49 42 50 96 51
REMARK SMILES IDX 90 52 92 53 43 54 95 55 89 56 88 57 44 59 76 60 56 61 75 62
REMARK SMILES IDX 57 63 60 64 74 65 93 66 58 67 59 68 73 70 94 71 61 72 45 73
REMARK SMILES IDX 46 74 54 75 47 76 48 77 52 78 55 79 49 80 50 81 53 82 51 83
REMARK SMILES IDX 77 84 78 85 86 86 79 87 80 88 84 89 87 90 81 91 82 92 85 93
REMARK SMILES IDX 83 94 62 95 63 96 71 97 64 98 65 99 69 100 72 101 66 102
REMARK SMILES IDX 67 103 70 104 68 105
REMARK H PARENT 92 58 60 69
REMARK Flexibility Score: inf
ROOT
ATOM      1  C   UNL     1       5.501   1.355  -8.528  1.00  0.00     0.202 C 
ENDROOT
BRANCH   1   2
ATOM      2  O   UNL     1       6.179   1.113  -9.761  1.00  0.00    -0.374 OA
BRANCH   2   3
ATOM      3  C   UNL     1       5.390   0.947 -10.935  1.00  0.00     0.202 C 
BRANCH   3   4
ATOM      4  C   UNL     1       4.686  -0.401 -11.137  1.00  0.00     0.261 C 
BRANCH   4   5
ATOM      5  O   UNL     1       3.776  -0.702 -10.069  1.00  0.00    -0.460 OA
BRANCH   5   6
ATOM      6  C   UNL     1       4.178  -1.711  -9.255  1.00  0.00     0.338 C 
ATOM      7  O   UNL     1       5.137  -2.447  -9.415  1.00  0.00    -0.246 OA
BRANCH   6   8
ATOM      8  C   UNL     1       3.391  -1.690  -8.003  1.00  0.00     0.060 A 
ATOM      9  C   UNL     1       2.018  -1.724  -5.567  1.00  0.00     0.052 A 
ATOM     10  C   UNL     1       3.412  -1.826  -5.582  1.00  0.00     0.028 A 
ATOM     11  C   UNL     1       1.319  -1.566  -6.774  1.00  0.00     0.028 A 
ATOM     12  C   UNL     1       4.091  -1.850  -6.800  1.00  0.00     0.018 A 
ATOM     13  C   UNL     1       2.006  -1.509  -7.991  1.00  0.00     0.018 A 
BRANCH   9  14
ATOM     14  N   UNL     1       1.320  -1.827  -4.353  1.00  0.00    -0.250 N 
ATOM     15  C   UNL     1       1.391  -0.293  -0.097  1.00  0.00     0.022 C 
ATOM     16  C   UNL     1       0.381  -1.245  -0.734  1.00  0.00     0.030 C 
ATOM     17  C   UNL     1      -1.077  -0.711  -0.804  1.00  0.00    -0.033 A 
ATOM     18  C   UNL     1       0.234  -2.618  -0.005  1.00  0.00    -0.033 A 
ATOM     19  C   UNL     1       0.855  -1.765  -2.116  1.00  0.00     0.108 C 
ATOM     20  C   UNL     1      -1.524   0.524  -0.344  1.00  0.00     0.005 A 
ATOM     21  C   UNL     1      -2.026  -1.648  -1.348  1.00  0.00    -0.033 A 
ATOM     22  C   UNL     1      -0.624  -3.541  -0.698  1.00  0.00    -0.033 A 
ATOM     23  C   UNL     1       0.860  -2.987   1.183  1.00  0.00     0.005 A 
ATOM     24  C   UNL     1      -0.373  -2.240  -2.897  1.00  0.00     0.108 C 
ATOM     25  C   UNL     1       1.609  -1.073  -3.211  1.00  0.00     0.238 C 
ATOM     26  C   UNL     1      -2.888   0.824  -0.413  1.00  0.00     0.000 A 
ATOM     27  C   UNL     1      -3.383  -1.342  -1.396  1.00  0.00     0.005 A 
ATOM     28  C   UNL     1      -1.356  -2.935  -1.924  1.00  0.00     0.030 C 
ATOM     29  C   UNL     1      -0.812  -4.820  -0.182  1.00  0.00     0.005 A 
ATOM     30  C   UNL     1       0.651  -4.271   1.686  1.00  0.00     0.000 A 
ATOM     31  C   UNL     1       0.269  -2.727  -4.152  1.00  0.00     0.238 C 
ATOM     32  O   UNL     1       2.382  -0.141  -3.079  1.00  0.00    -0.274 OA
ATOM     33  C   UNL     1      -3.808  -0.102  -0.924  1.00  0.00     0.000 A 
ATOM     34  C   UNL     1      -2.302  -3.887  -2.651  1.00  0.00     0.022 C 
ATOM     35  C   UNL     1      -0.170  -5.180   1.007  1.00  0.00     0.000 A 
ATOM     36  O   UNL     1      -0.130  -3.624  -4.871  1.00  0.00    -0.274 OA
ENDBRANCH   9  14
ENDBRANCH   6   8
ENDBRANCH   5   6
ENDBRANCH   4   5
ENDBRANCH   3   4
ENDBRANCH   2   3
ENDBRANCH   1   2
BRANCH   1  37
ATOM     37  C   UNL     1       4.896   2.748  -8.306  1.00  0.00     0.261 C 
BRANCH  37  38
ATOM     38  O   UNL     1       3.811   3.028  -9.208  1.00  0.00    -0.460 OA
BRANCH  38  39
ATOM     39  C   UNL     1       4.076   3.951 -10.164  1.00  0.00     0.338 C 
ATOM     40  O   UNL     1       5.100   4.599 -10.311  1.00  0.00    -0.246 OA
BRANCH  39  41
ATOM     41  C   UNL     1       2.993   3.921 -11.166  1.00  0.00     0.060 A 
ATOM     42  C   UNL     1       1.661   4.101 -10.795  1.00  0.00     0.016 A 
ATOM     43  C   UNL     1       3.338   3.721 -12.509  1.00  0.00     0.016 A 
ATOM     44  C   UNL     1       0.671   4.093 -11.780  1.00  0.00     0.010 A 
ATOM     45  C   UNL     1       2.348   3.712 -13.491  1.00  0.00     0.010 A 
ATOM     46  C   UNL     1       1.007   3.912 -13.136  1.00  0.00    -0.014 A 
BRANCH  46  47
ATOM     47  C   UNL     1      -0.037   4.042 -14.183  1.00  0.00     0.031 A 
ATOM     48  C   UNL     1      -0.566   2.846 -14.915  1.00  0.00     0.074 A 
ATOM     49  C   UNL     1      -0.506   5.271 -14.471  1.00  0.00     0.049 A 
ATOM     50  N   UNL     1      -1.529   2.784 -15.800  1.00  0.00    -0.248 NA
ATOM     51  C   UNL     1       0.069   1.553 -14.625  1.00  0.00     0.031 C 
ATOM     52  C   UNL     1      -0.039   6.510 -13.850  1.00  0.00     0.029 A 
ATOM     53  N   UNL     1      -1.480   5.680 -15.345  1.00  0.00    -0.354 N 
ATOM     54  C   UNL     1      -1.634   1.446 -16.155  1.00  0.00     0.074 A 
ATOM     55  C   UNL     1      -0.598   0.738 -15.431  1.00  0.00     0.031 C 
ATOM     56  C   UNL     1      -0.753   7.537 -14.333  1.00  0.00     0.029 A 
ATOM     57  C   UNL     1      -1.704   7.035 -15.321  1.00  0.00     0.049 A 
ATOM     58  H   UNL     1      -1.973   5.062 -15.933  1.00  0.00     0.167 HD
ATOM     59  C   UNL     1      -2.530   0.865 -16.989  1.00  0.00     0.037 A 
ATOM     60  C   UNL     1      -2.579   7.788 -16.014  1.00  0.00     0.037 A 
ATOM     61  C   UNL     1      -3.548   1.581 -17.718  1.00  0.00     0.049 A 
ATOM     62  C   UNL     1      -3.524   7.122 -16.975  1.00  0.00     0.074 A 
ATOM     63  C   UNL     1      -4.522   1.071 -18.561  1.00  0.00     0.029 A 
ATOM     64  N   UNL     1      -3.717   2.958 -17.704  1.00  0.00    -0.354 N 
ATOM     65  N   UNL     1      -3.669   5.848 -17.242  1.00  0.00    -0.248 NA
ATOM     66  C   UNL     1      -4.432   7.999 -17.728  1.00  0.00     0.031 C 
ATOM     67  C   UNL     1      -5.239   2.142 -19.102  1.00  0.00     0.029 A 
ATOM     68  C   UNL     1      -4.756   3.317 -18.549  1.00  0.00     0.049 A 
ATOM     69  H   UNL     1      -3.178   3.587 -17.172  1.00  0.00     0.167 HD
ATOM     70  C   UNL     1      -4.695   5.766 -18.174  1.00  0.00     0.074 A 
ATOM     71  C   UNL     1      -5.152   7.120 -18.410  1.00  0.00     0.031 C 
ATOM     72  C   UNL     1      -5.207   4.667 -18.780  1.00  0.00     0.037 A 
BRANCH  59  73
ATOM     73  C   UNL     1      -2.470  -0.627 -17.157  1.00  0.00     0.064 A 
ATOM     74  C   UNL     1      -2.853  -1.492 -16.121  1.00  0.00     0.173 A 
ATOM     75  C   UNL     1      -2.117  -1.197 -18.390  1.00  0.00     0.173 A 
ATOM     76  F   UNL     1      -3.196  -1.000 -14.921  1.00  0.00    -0.203 F 
ATOM     77  C   UNL     1      -2.871  -2.872 -16.308  1.00  0.00     0.198 A 
ATOM     78  C   UNL     1      -2.165  -2.576 -18.583  1.00  0.00     0.198 A 
ATOM     79  F   UNL     1      -1.754  -0.415 -19.418  1.00  0.00    -0.203 F 
ATOM     80  F   UNL     1      -3.212  -3.680 -15.294  1.00  0.00    -0.200 F 
ATOM     81  C   UNL     1      -2.538  -3.412 -17.542  1.00  0.00     0.200 A 
ATOM     82  F   UNL     1      -1.861  -3.094 -19.781  1.00  0.00    -0.200 F 
ATOM     83  F   UNL     1      -2.576  -4.739 -17.726  1.00  0.00    -0.200 F 
ENDBRANCH  59  73
BRANCH  60  84
ATOM     84  C   UNL     1      -2.622   9.257 -15.788  1.00  0.00     0.064 A 
ATOM     85  C   UNL     1      -3.723   9.856 -15.162  1.00  0.00     0.173 A 
ATOM     86  C   UNL     1      -1.556  10.086 -16.168  1.00  0.00     0.173 A 
ATOM     87  F   UNL     1      -4.775   9.108 -14.798  1.00  0.00    -0.203 F 
ATOM     88  C   UNL     1      -3.762  11.230 -14.935  1.00  0.00     0.198 A 
ATOM     89  C   UNL     1      -1.582  11.454 -15.912  1.00  0.00     0.198 A 
ATOM     90  F   UNL     1      -0.476   9.561 -16.766  1.00  0.00    -0.203 F 
ATOM     91  F   UNL     1      -4.843  11.782 -14.368  1.00  0.00    -0.200 F 
ATOM     92  C   UNL     1      -2.688  12.027 -15.301  1.00  0.00     0.200 A 
ATOM     93  F   UNL     1      -0.534  12.218 -16.251  1.00  0.00    -0.200 F 
ATOM     94  F   UNL     1      -2.719  13.346 -15.069  1.00  0.00    -0.200 F 
ENDBRANCH  60  84
BRANCH  72  95
ATOM     95  C   UNL     1      -6.334   4.868 -19.754  1.00  0.00     0.064 A 
ATOM     96  C   UNL     1      -6.125   5.465 -21.006  1.00  0.00     0.173 A 
ATOM     97  C   UNL     1      -7.623   4.393 -19.462  1.00  0.00     0.173 A 
ATOM     98  F   UNL     1      -4.916   5.948 -21.330  1.00  0.00    -0.203 F 
ATOM     99  C   UNL     1      -7.166   5.592 -21.923  1.00  0.00     0.198 A 
ATOM    100  C   UNL     1      -8.653   4.491 -20.394  1.00  0.00     0.198 A 
ATOM    101  F   UNL     1      -7.877   3.808 -18.282  1.00  0.00    -0.203 F 
ATOM    102  F   UNL     1      -6.951   6.200 -23.097  1.00  0.00    -0.200 F 
ATOM    103  C   UNL     1      -8.425   5.095 -21.621  1.00  0.00     0.200 A 
ATOM    104  F   UNL     1      -9.864   3.994 -20.107  1.00  0.00    -0.200 F 
ATOM    105  F   UNL     1      -9.420   5.200 -22.513  1.00  0.00    -0.200 F 
ENDBRANCH  72  95
ENDBRANCH  46  47
ENDBRANCH  39  41
ENDBRANCH  38  39
ENDBRANCH  37  38
ENDBRANCH   1  37
TORSDOF 15
