REMARK SMILES C/C(=C\C(=O)c1c(O)n(C)c2ccccc2c1=O)Nc1ccc(C(=O)OCCOCCOC(=O)c2ccc(-c3c4nc(c(-c5c(F)c(F)c(F)c(F)c5F)c5ccc([nH]5)c(-c5c(F)c(F)c(F)c(F)c5F)c5nc(c(-c6c(F)c(F)c(F)c(F)c6F)c6ccc3[nH]6)C=C5)C=C4)cc2)cc1
REMARK SMILES IDX 27 1 26 2 24 3 25 4 23 5 20 6 21 7 99 8 22 9 98 10 19 11
REMARK SMILES IDX 2 13 1 14 3 15 4 16 5 17 6 18 7 19 17 20 9 21 16 22 18 23
REMARK SMILES IDX 10 24 11 25 15 26 12 27 14 28 13 29 8 30 28 32 29 33 30 34
REMARK SMILES IDX 31 35 32 36 33 37 34 38 35 39 36 40 97 41 37 42 96 43 38 44
REMARK SMILES IDX 39 45 40 46 90 47 41 48 95 49 89 50 91 51 42 52 94 53 88 54
REMARK SMILES IDX 87 55 43 57 75 58 55 59 74 60 56 61 59 62 73 63 92 64 57 65
REMARK SMILES IDX 58 66 72 68 93 69 60 70 44 71 45 72 53 73 46 74 47 75 51 76
REMARK SMILES IDX 54 77 48 78 49 79 52 80 50 81 76 82 77 83 85 84 78 85 79 86
REMARK SMILES IDX 83 87 86 88 80 89 81 90 84 91 82 92 61 93 62 94 70 95 63 96
REMARK SMILES IDX 64 97 68 98 71 99 65 100 66 101 69 102 67 103
REMARK H PARENT 19 12 8 31 91 56 59 67
REMARK Flexibility Score: inf
ROOT
ATOM      1  C   UNL     1       4.356  -7.451  -1.644  1.00  0.00     0.261 C 
ENDROOT
BRANCH   1   2
ATOM      2  O   UNL     1       3.606  -6.636  -0.730  1.00  0.00    -0.460 OA
BRANCH   2   3
ATOM      3  C   UNL     1       4.345  -5.696  -0.088  1.00  0.00     0.338 C 
ATOM      4  O   UNL     1       5.561  -5.588  -0.117  1.00  0.00    -0.246 OA
BRANCH   3   5
ATOM      5  C   UNL     1       3.477  -4.676   0.550  1.00  0.00     0.060 A 
ATOM      6  C   UNL     1       1.932  -2.562   1.619  1.00  0.00     0.038 A 
ATOM      7  C   UNL     1       3.264  -2.369   1.249  1.00  0.00     0.027 A 
ATOM      8  C   UNL     1       1.401  -3.858   1.499  1.00  0.00     0.027 A 
ATOM      9  C   UNL     1       4.023  -3.400   0.699  1.00  0.00     0.018 A 
ATOM     10  C   UNL     1       2.164  -4.913   0.970  1.00  0.00     0.018 A 
BRANCH   6  11
ATOM     11  N   UNL     1       1.096  -1.496   2.009  1.00  0.00    -0.359 N 
ATOM     12  H   UNL     1       0.607  -1.625   2.853  1.00  0.00     0.166 HD
BRANCH  11  13
ATOM     13  C   UNL     1       0.867  -0.275   1.355  1.00  0.00     0.016 C 
ATOM     14  C   UNL     1       1.710   0.038   0.136  1.00  0.00     0.064 C 
ATOM     15  C   UNL     1      -0.133   0.532   1.787  1.00  0.00     0.074 C 
BRANCH  15  16
ATOM     16  C   UNL     1      -0.776   1.766   1.204  1.00  0.00     0.196 C 
ATOM     17  O   UNL     1      -1.607   2.378   1.871  1.00  0.00    -0.289 OA
BRANCH  16  18
ATOM     18  C   UNL     1      -0.537   2.104  -0.214  1.00  0.00     0.130 A 
ATOM     19  C   UNL     1      -0.855   1.218  -1.180  1.00  0.00     0.206 A 
ATOM     20  C   UNL     1       0.247   3.308  -0.572  1.00  0.00     0.204 A 
ATOM     21  N   UNL     1      -0.333   1.277  -2.470  1.00  0.00    -0.315 N 
ATOM     22  C   UNL     1       0.702   3.436  -1.975  1.00  0.00     0.047 A 
ATOM     23  O   UNL     1       0.566   4.144   0.267  1.00  0.00    -0.288 OA
ATOM     24  C   UNL     1      -0.318   0.098  -3.345  1.00  0.00     0.153 C 
ATOM     25  C   UNL     1       0.438   2.393  -2.883  1.00  0.00     0.055 A 
ATOM     26  C   UNL     1       1.456   4.562  -2.344  1.00  0.00     0.014 A 
ATOM     27  C   UNL     1       0.977   2.522  -4.176  1.00  0.00     0.027 A 
ATOM     28  C   UNL     1       1.973   4.660  -3.632  1.00  0.00     0.001 A 
ATOM     29  C   UNL     1       1.739   3.638  -4.544  1.00  0.00     0.002 A 
BRANCH  19  30
ATOM     30  O   UNL     1      -1.650   0.115  -0.918  1.00  0.00    -0.494 OA
ATOM     31  H   UNL     1      -2.037   0.006  -0.072  1.00  0.00     0.295 HD
ENDBRANCH  19  30
ENDBRANCH  16  18
ENDBRANCH  15  16
ENDBRANCH  11  13
ENDBRANCH   6  11
ENDBRANCH   3   5
ENDBRANCH   2   3
ENDBRANCH   1   2
BRANCH   1  32
ATOM     32  C   UNL     1       3.930  -7.229  -3.098  1.00  0.00     0.202 C 
BRANCH  32  33
ATOM     33  O   UNL     1       4.026  -5.905  -3.616  1.00  0.00    -0.374 OA
BRANCH  33  34
ATOM     34  C   UNL     1       3.018  -4.966  -3.239  1.00  0.00     0.202 C 
BRANCH  34  35
ATOM     35  C   UNL     1       1.629  -5.128  -3.874  1.00  0.00     0.261 C 
BRANCH  35  36
ATOM     36  O   UNL     1       0.957  -6.325  -3.444  1.00  0.00    -0.460 OA
BRANCH  36  37
ATOM     37  C   UNL     1       0.830  -7.293  -4.387  1.00  0.00     0.338 C 
ATOM     38  O   UNL     1       1.171  -7.239  -5.557  1.00  0.00    -0.246 OA
BRANCH  37  39
ATOM     39  C   UNL     1       0.390  -8.540  -3.731  1.00  0.00     0.060 A 
ATOM     40  C   UNL     1      -0.748  -8.569  -2.925  1.00  0.00     0.016 A 
ATOM     41  C   UNL     1       1.143  -9.704  -3.938  1.00  0.00     0.016 A 
ATOM     42  C   UNL     1      -1.132  -9.771  -2.327  1.00  0.00     0.010 A 
ATOM     43  C   UNL     1       0.755 -10.905  -3.341  1.00  0.00     0.010 A 
ATOM     44  C   UNL     1      -0.390 -10.949  -2.535  1.00  0.00    -0.014 A 
BRANCH  44  45
ATOM     45  C   UNL     1      -0.870 -12.232  -1.960  1.00  0.00     0.031 A 
ATOM     46  C   UNL     1      -0.179 -12.870  -0.792  1.00  0.00     0.074 A 
ATOM     47  C   UNL     1      -1.962 -12.811  -2.494  1.00  0.00     0.049 A 
ATOM     48  N   UNL     1      -0.540 -13.919  -0.096  1.00  0.00    -0.248 NA
ATOM     49  C   UNL     1       1.083 -12.260  -0.349  1.00  0.00     0.031 C 
ATOM     50  C   UNL     1      -2.692 -12.306  -3.657  1.00  0.00     0.029 A 
ATOM     51  N   UNL     1      -2.659 -13.933  -2.122  1.00  0.00    -0.354 N 
ATOM     52  C   UNL     1       0.431 -14.079   0.882  1.00  0.00     0.074 A 
ATOM     53  C   UNL     1       1.432 -13.059   0.652  1.00  0.00     0.031 C 
ATOM     54  C   UNL     1      -3.760 -13.089  -3.877  1.00  0.00     0.029 A 
ATOM     55  C   UNL     1      -3.775 -14.166  -2.889  1.00  0.00     0.049 A 
ATOM     56  H   UNL     1      -2.386 -14.516  -1.377  1.00  0.00     0.167 HD
ATOM     57  C   UNL     1       0.466 -14.979   1.894  1.00  0.00     0.037 A 
ATOM     58  C   UNL     1      -4.710 -15.131  -2.802  1.00  0.00     0.037 A 
ATOM     59  C   UNL     1      -0.530 -15.997   2.113  1.00  0.00     0.049 A 
ATOM     60  C   UNL     1      -4.615 -16.153  -1.702  1.00  0.00     0.074 A 
ATOM     61  C   UNL     1      -0.606 -16.919   3.142  1.00  0.00     0.029 A 
ATOM     62  N   UNL     1      -1.614 -16.237   1.282  1.00  0.00    -0.354 N 
ATOM     63  N   UNL     1      -3.750 -16.231  -0.720  1.00  0.00    -0.248 NA
ATOM     64  C   UNL     1      -5.625 -17.221  -1.695  1.00  0.00     0.031 C 
ATOM     65  C   UNL     1      -1.699 -17.755   2.902  1.00  0.00     0.029 A 
ATOM     66  C   UNL     1      -2.338 -17.322   1.752  1.00  0.00     0.049 A 
ATOM     67  H   UNL     1      -1.837 -15.715   0.477  1.00  0.00     0.167 HD
ATOM     68  C   UNL     1      -4.114 -17.345   0.023  1.00  0.00     0.074 A 
ATOM     69  C   UNL     1      -5.298 -17.897  -0.602  1.00  0.00     0.031 C 
ATOM     70  C   UNL     1      -3.513 -17.868   1.120  1.00  0.00     0.037 A 
BRANCH  57  71
ATOM     71  C   UNL     1       1.606 -14.898   2.868  1.00  0.00     0.064 A 
ATOM     72  C   UNL     1       1.702 -13.843   3.789  1.00  0.00     0.173 A 
ATOM     73  C   UNL     1       2.557 -15.927   2.948  1.00  0.00     0.173 A 
ATOM     74  F   UNL     1       0.820 -12.833   3.753  1.00  0.00    -0.203 F 
ATOM     75  C   UNL     1       2.718 -13.813   4.741  1.00  0.00     0.198 A 
ATOM     76  C   UNL     1       3.554 -15.907   3.920  1.00  0.00     0.198 A 
ATOM     77  F   UNL     1       2.504 -16.965   2.100  1.00  0.00    -0.203 F 
ATOM     78  F   UNL     1       2.807 -12.779   5.589  1.00  0.00    -0.200 F 
ATOM     79  C   UNL     1       3.636 -14.849   4.813  1.00  0.00     0.200 A 
ATOM     80  F   UNL     1       4.430 -16.919   4.000  1.00  0.00    -0.200 F 
ATOM     81  F   UNL     1       4.601 -14.828   5.743  1.00  0.00    -0.200 F 
ENDBRANCH  57  71
BRANCH  58  82
ATOM     82  C   UNL     1      -5.838 -15.152  -3.770  1.00  0.00     0.064 A 
ATOM     83  C   UNL     1      -7.148 -14.876  -3.356  1.00  0.00     0.173 A 
ATOM     84  C   UNL     1      -5.628 -15.429  -5.130  1.00  0.00     0.173 A 
ATOM     85  F   UNL     1      -7.402 -14.625  -2.063  1.00  0.00    -0.203 F 
ATOM     86  C   UNL     1      -8.206 -14.886  -4.262  1.00  0.00     0.198 A 
ATOM     87  C   UNL     1      -6.683 -15.409  -6.040  1.00  0.00     0.198 A 
ATOM     88  F   UNL     1      -4.393 -15.697  -5.578  1.00  0.00    -0.203 F 
ATOM     89  F   UNL     1      -9.454 -14.655  -3.833  1.00  0.00    -0.200 F 
ATOM     90  C   UNL     1      -7.972 -15.143  -5.604  1.00  0.00     0.200 A 
ATOM     91  F   UNL     1      -6.448 -15.642  -7.338  1.00  0.00    -0.200 F 
ATOM     92  F   UNL     1      -8.988 -15.140  -6.477  1.00  0.00    -0.200 F 
ENDBRANCH  58  82
BRANCH  70  93
ATOM     93  C   UNL     1      -4.103 -19.113   1.717  1.00  0.00     0.064 A 
ATOM     94  C   UNL     1      -3.969 -20.356   1.080  1.00  0.00     0.173 A 
ATOM     95  C   UNL     1      -4.711 -19.085   2.981  1.00  0.00     0.173 A 
ATOM     96  F   UNL     1      -3.408 -20.434  -0.136  1.00  0.00    -0.203 F 
ATOM     97  C   UNL     1      -4.423 -21.524   1.686  1.00  0.00     0.198 A 
ATOM     98  C   UNL     1      -5.137 -20.259   3.597  1.00  0.00     0.198 A 
ATOM     99  F   UNL     1      -4.858 -17.924   3.636  1.00  0.00    -0.203 F 
ATOM    100  F   UNL     1      -4.304 -22.697   1.049  1.00  0.00    -0.200 F 
ATOM    101  C   UNL     1      -4.993 -21.477   2.950  1.00  0.00     0.200 A 
ATOM    102  F   UNL     1      -5.671 -20.214   4.826  1.00  0.00    -0.200 F 
ATOM    103  F   UNL     1      -5.403 -22.606   3.544  1.00  0.00    -0.200 F 
ENDBRANCH  70  93
ENDBRANCH  44  45
ENDBRANCH  37  39
ENDBRANCH  36  37
ENDBRANCH  35  36
ENDBRANCH  34  35
ENDBRANCH  33  34
ENDBRANCH  32  33
ENDBRANCH   1  32
TORSDOF 19
