REMARK SMILES COc1ccc(CC(=O)Nc2ccc(N3CC[NH+](C)CC3)cc2C(=O)OCCOCCOC(=O)c2ccc(-c3c4nc(c(-c5c(F)c(F)c(F)c(F)c5F)c5ccc([nH]5)c(-c5c(F)c(F)c(F)c(F)c5F)c5nc(c(-c6c(F)c(F)c(F)c(F)c6F)c6ccc3[nH]6)C=C5)C=C4)cc2)cc1
REMARK SMILES IDX 28 1 27 2 26 3 24 4 25 5 23 6 11 7 12 8 13 9 22 10 14 11
REMARK SMILES IDX 10 12 8 13 9 14 7 16 6 17 3 18 4 19 99 20 5 21 98 22 2 23
REMARK SMILES IDX 1 24 15 25 16 26 21 27 17 28 20 29 18 30 19 31 29 33 30 34
REMARK SMILES IDX 31 35 32 36 33 37 34 38 35 39 36 40 97 41 37 42 96 43 38 44
REMARK SMILES IDX 39 45 40 46 90 47 41 48 95 49 89 50 91 51 42 52 94 53 88 54
REMARK SMILES IDX 87 55 43 57 75 58 55 59 74 60 56 61 59 62 73 63 92 64 57 65
REMARK SMILES IDX 58 66 72 68 93 69 60 70 44 71 45 72 53 73 46 74 47 75 51 76
REMARK SMILES IDX 54 77 48 78 49 79 52 80 50 81 76 82 77 83 85 84 78 85 79 86
REMARK SMILES IDX 83 87 86 88 80 89 81 90 84 91 82 92 61 93 62 94 70 95 63 96
REMARK SMILES IDX 64 97 68 98 71 99 65 100 66 101 69 102 67 103
REMARK H PARENT 10 15 18 32 91 56 59 67
REMARK Flexibility Score: inf
ROOT
ATOM      1  C   UNL     1      -1.056  -0.689   4.556  1.00  0.00     0.202 C 
ENDROOT
BRANCH   1   2
ATOM      2  C   UNL     1      -0.096  -0.818   5.751  1.00  0.00     0.261 C 
BRANCH   2   3
ATOM      3  O   UNL     1       1.187  -0.157   5.784  1.00  0.00    -0.460 OA
BRANCH   3   4
ATOM      4  C   UNL     1       1.962  -0.114   4.688  1.00  0.00     0.340 C 
ATOM      5  O   UNL     1       1.577  -0.101   3.529  1.00  0.00    -0.246 OA
BRANCH   4   6
ATOM      6  C   UNL     1       3.398  -0.003   5.014  1.00  0.00     0.085 A 
ATOM      7  C   UNL     1       3.992  -0.550   6.154  1.00  0.00     0.055 A 
ATOM      8  C   UNL     1       5.285  -0.148   6.483  1.00  0.00     0.029 A 
ATOM      9  C   UNL     1       6.057   0.543   5.538  1.00  0.00     0.028 A 
ATOM     10  C   UNL     1       4.189   0.680   4.075  1.00  0.00     0.043 A 
ATOM     11  C   UNL     1       5.553   0.880   4.274  1.00  0.00     0.038 A 
BRANCH   7  12
ATOM     12  N   UNL     1       3.372  -1.496   6.987  1.00  0.00    -0.325 N 
ATOM     13  C   UNL     1       2.683  -2.632   6.621  1.00  0.00     0.228 C 
ATOM     14  O   UNL     1       1.848  -3.086   7.411  1.00  0.00    -0.274 OA
ATOM     15  H   UNL     1       3.439  -1.326   7.954  1.00  0.00     0.169 HD
BRANCH  13  16
ATOM     16  C   UNL     1       3.119  -3.447   5.395  1.00  0.00     0.135 C 
BRANCH  16  17
ATOM     17  C   UNL     1       2.579  -3.105   4.025  1.00  0.00    -0.038 A 
ATOM     18  C   UNL     1       1.574  -2.225   1.521  1.00  0.00     0.118 A 
ATOM     19  C   UNL     1       0.753  -2.898   2.431  1.00  0.00     0.047 A 
ATOM     20  C   UNL     1       2.932  -2.120   1.807  1.00  0.00     0.047 A 
ATOM     21  C   UNL     1       1.243  -3.327   3.676  1.00  0.00     0.008 A 
ATOM     22  C   UNL     1       3.430  -2.568   3.043  1.00  0.00     0.008 A 
BRANCH  18  23
ATOM     23  O   UNL     1       0.929  -1.716   0.430  1.00  0.00    -0.497 OA
ATOM     24  C   UNL     1       1.530  -0.651  -0.302  1.00  0.00     0.278 C 
ENDBRANCH  18  23
ENDBRANCH  16  17
ENDBRANCH  13  16
ENDBRANCH   7  12
BRANCH  11  25
ATOM     25  N   UNL     1       6.372   1.328   3.263  1.00  0.00    -0.360 N 
ATOM     26  C   UNL     1       5.957   2.305   2.243  1.00  0.00     0.178 C 
ATOM     27  C   UNL     1       7.699   0.722   3.054  1.00  0.00     0.178 C 
ATOM     28  C   UNL     1       6.180   1.758   0.813  1.00  0.00     0.283 C 
ATOM     29  C   UNL     1       7.865   0.234   1.592  1.00  0.00     0.283 C 
ATOM     30  N   UNL     1       7.569   1.293   0.605  1.00  0.00    -0.334 N 
ATOM     31  C   UNL     1       7.768   0.815  -0.759  1.00  0.00     0.332 C 
ATOM     32  H   UNL     1       8.212   2.074   0.740  1.00  0.00     0.347 HD
ENDBRANCH  11  25
ENDBRANCH   4   6
ENDBRANCH   3   4
ENDBRANCH   2   3
ENDBRANCH   1   2
BRANCH   1  33
ATOM     33  O   UNL     1      -1.710   0.551   4.327  1.00  0.00    -0.374 OA
BRANCH  33  34
ATOM     34  C   UNL     1      -0.892   1.650   3.949  1.00  0.00     0.202 C 
BRANCH  34  35
ATOM     35  C   UNL     1      -0.755   2.682   5.072  1.00  0.00     0.261 C 
BRANCH  35  36
ATOM     36  O   UNL     1      -1.041   2.118   6.358  1.00  0.00    -0.460 OA
BRANCH  36  37
ATOM     37  C   UNL     1      -2.367   1.914   6.561  1.00  0.00     0.338 C 
ATOM     38  O   UNL     1      -3.302   2.341   5.903  1.00  0.00    -0.246 OA
BRANCH  37  39
ATOM     39  C   UNL     1      -2.540   0.980   7.681  1.00  0.00     0.060 A 
ATOM     40  C   UNL     1      -3.373  -0.132   7.503  1.00  0.00     0.016 A 
ATOM     41  C   UNL     1      -1.950   1.254   8.917  1.00  0.00     0.016 A 
ATOM     42  C   UNL     1      -3.713  -0.914   8.600  1.00  0.00     0.010 A 
ATOM     43  C   UNL     1      -2.303   0.482  10.018  1.00  0.00     0.010 A 
ATOM     44  C   UNL     1      -3.242  -0.554   9.869  1.00  0.00    -0.014 A 
BRANCH  44  45
ATOM     45  C   UNL     1      -3.956  -1.059  11.059  1.00  0.00     0.031 A 
ATOM     46  C   UNL     1      -5.051  -0.199  11.631  1.00  0.00     0.074 A 
ATOM     47  C   UNL     1      -3.668  -2.260  11.581  1.00  0.00     0.049 A 
ATOM     48  N   UNL     1      -5.802  -0.394  12.683  1.00  0.00    -0.248 NA
ATOM     49  C   UNL     1      -5.338   1.056  10.914  1.00  0.00     0.031 C 
ATOM     50  C   UNL     1      -2.663  -3.184  11.062  1.00  0.00     0.029 A 
ATOM     51  N   UNL     1      -4.197  -2.904  12.667  1.00  0.00    -0.354 N 
ATOM     52  C   UNL     1      -6.640   0.713  12.755  1.00  0.00     0.074 A 
ATOM     53  C   UNL     1      -6.287   1.592  11.664  1.00  0.00     0.031 C 
ATOM     54  C   UNL     1      -2.642  -4.280  11.839  1.00  0.00     0.029 A 
ATOM     55  C   UNL     1      -3.604  -4.112  12.927  1.00  0.00     0.049 A 
ATOM     56  H   UNL     1      -4.933  -2.535  13.208  1.00  0.00     0.167 HD
ATOM     57  C   UNL     1      -7.622   0.966  13.651  1.00  0.00     0.037 A 
ATOM     58  C   UNL     1      -3.806  -4.966  13.948  1.00  0.00     0.037 A 
ATOM     59  C   UNL     1      -7.954   0.079  14.733  1.00  0.00     0.049 A 
ATOM     60  C   UNL     1      -4.856  -4.627  14.976  1.00  0.00     0.074 A 
ATOM     61  C   UNL     1      -8.928   0.225  15.704  1.00  0.00     0.029 A 
ATOM     62  N   UNL     1      -7.308  -1.124  14.988  1.00  0.00    -0.354 N 
ATOM     63  N   UNL     1      -5.651  -3.586  15.039  1.00  0.00    -0.248 NA
ATOM     64  C   UNL     1      -5.040  -5.587  16.071  1.00  0.00     0.031 C 
ATOM     65  C   UNL     1      -8.829  -0.858  16.583  1.00  0.00     0.029 A 
ATOM     66  C   UNL     1      -7.844  -1.717  16.118  1.00  0.00     0.049 A 
ATOM     67  H   UNL     1      -6.577  -1.498  14.445  1.00  0.00     0.167 HD
ATOM     68  C   UNL     1      -6.451  -3.779  16.158  1.00  0.00     0.074 A 
ATOM     69  C   UNL     1      -6.053  -5.048  16.734  1.00  0.00     0.031 C 
ATOM     70  C   UNL     1      -7.429  -2.986  16.665  1.00  0.00     0.037 A 
BRANCH  57  71
ATOM     71  C   UNL     1      -8.365   2.265  13.522  1.00  0.00     0.064 A 
ATOM     72  C   UNL     1      -9.239   2.521  12.453  1.00  0.00     0.173 A 
ATOM     73  C   UNL     1      -8.211   3.266  14.492  1.00  0.00     0.173 A 
ATOM     74  F   UNL     1      -9.411   1.606  11.487  1.00  0.00    -0.203 F 
ATOM     75  C   UNL     1      -9.906   3.740  12.347  1.00  0.00     0.198 A 
ATOM     76  C   UNL     1      -8.905   4.470  14.401  1.00  0.00     0.198 A 
ATOM     77  F   UNL     1      -7.388   3.077  15.535  1.00  0.00    -0.203 F 
ATOM     78  F   UNL     1     -10.693   3.982  11.289  1.00  0.00    -0.200 F 
ATOM     79  C   UNL     1      -9.745   4.709  13.325  1.00  0.00     0.200 A 
ATOM     80  F   UNL     1      -8.757   5.401  15.354  1.00  0.00    -0.200 F 
ATOM     81  F   UNL     1     -10.393   5.878  13.226  1.00  0.00    -0.200 F 
ENDBRANCH  57  71
BRANCH  58  82
ATOM     82  C   UNL     1      -2.993  -6.206  14.052  1.00  0.00     0.064 A 
ATOM     83  C   UNL     1      -3.576  -7.473  13.912  1.00  0.00     0.173 A 
ATOM     84  C   UNL     1      -1.614  -6.149  14.304  1.00  0.00     0.173 A 
ATOM     85  F   UNL     1      -4.894  -7.583  13.693  1.00  0.00    -0.203 F 
ATOM     86  C   UNL     1      -2.815  -8.634  14.042  1.00  0.00     0.198 A 
ATOM     87  C   UNL     1      -0.849  -7.309  14.401  1.00  0.00     0.198 A 
ATOM     88  F   UNL     1      -1.005  -4.962  14.448  1.00  0.00    -0.203 F 
ATOM     89  F   UNL     1      -3.408  -9.833  13.956  1.00  0.00    -0.200 F 
ATOM     90  C   UNL     1      -1.452  -8.551  14.279  1.00  0.00     0.200 A 
ATOM     91  F   UNL     1       0.471  -7.223  14.617  1.00  0.00    -0.200 F 
ATOM     92  F   UNL     1      -0.721  -9.667  14.401  1.00  0.00    -0.200 F 
ENDBRANCH  58  82
BRANCH  70  93
ATOM     93  C   UNL     1      -8.164  -3.491  17.873  1.00  0.00     0.064 A 
ATOM     94  C   UNL     1      -7.551  -3.580  19.131  1.00  0.00     0.173 A 
ATOM     95  C   UNL     1      -9.514  -3.862  17.773  1.00  0.00     0.173 A 
ATOM     96  F   UNL     1      -6.259  -3.248  19.279  1.00  0.00    -0.203 F 
ATOM     97  C   UNL     1      -8.251  -4.058  20.235  1.00  0.00     0.198 A 
ATOM     98  C   UNL     1     -10.222  -4.303  18.887  1.00  0.00     0.198 A 
ATOM     99  F   UNL     1     -10.152  -3.785  16.595  1.00  0.00    -0.203 F 
ATOM    100  F   UNL     1      -7.627  -4.195  21.414  1.00  0.00    -0.200 F 
ATOM    101  C   UNL     1      -9.587  -4.412  20.114  1.00  0.00     0.200 A 
ATOM    102  F   UNL     1     -11.518  -4.624  18.771  1.00  0.00    -0.200 F 
ATOM    103  F   UNL     1     -10.260  -4.867  21.180  1.00  0.00    -0.200 F 
ENDBRANCH  70  93
ENDBRANCH  44  45
ENDBRANCH  37  39
ENDBRANCH  36  37
ENDBRANCH  35  36
ENDBRANCH  34  35
ENDBRANCH  33  34
ENDBRANCH   1  33
TORSDOF 19
