REMARK SMILES Cc1ccc(C(=O)CCCC(=O)OCCOCCOC(=O)c2ccc(-c3c4nc(c(-c5c(F)c(F)c(F)c(F)c5F)c5ccc([nH]5)c(-c5c(F)c(F)c(F)c(F)c5F)c5nc(c(-c6c(F)c(F)c(F)c(F)c6F)c6ccc3[nH]6)C=C5)C=C4)cc2)s1
REMARK SMILES IDX 15 1 14 2 13 3 11 4 12 5 10 6 9 7 8 8 6 9 7 10 5 11 1 12
REMARK SMILES IDX 2 13 3 14 85 15 4 16 16 17 17 18 18 19 19 20 20 21 21 22
REMARK SMILES IDX 22 23 23 24 84 25 24 26 83 27 25 28 26 29 27 30 77 31 28 32
REMARK SMILES IDX 82 33 76 34 78 35 29 36 81 37 75 38 74 39 30 41 62 42 42 43
REMARK SMILES IDX 61 44 43 45 46 46 60 47 79 48 44 49 45 50 59 52 80 53 47 54
REMARK SMILES IDX 31 55 32 56 40 57 33 58 34 59 38 60 41 61 35 62 36 63 39 64
REMARK SMILES IDX 37 65 63 66 64 67 72 68 65 69 66 70 70 71 73 72 67 73 68 74
REMARK SMILES IDX 71 75 69 76 48 77 49 78 57 79 50 80 51 81 55 82 58 83 52 84
REMARK SMILES IDX 53 85 56 86 54 87
REMARK H PARENT 78 40 46 51
REMARK Flexibility Score: inf
ROOT
ATOM      1  C   UNL     1      -3.636  -4.574   2.128  1.00  0.00     0.202 C 
ENDROOT
BRANCH   1   2
ATOM      2  C   UNL     1      -2.409  -3.886   1.528  1.00  0.00     0.261 C 
BRANCH   2   3
ATOM      3  O   UNL     1      -2.793  -2.830   0.628  1.00  0.00    -0.463 OA
BRANCH   3   4
ATOM      4  C   UNL     1      -2.155  -2.811  -0.570  1.00  0.00     0.305 C 
ATOM      5  O   UNL     1      -1.247  -3.570  -0.889  1.00  0.00    -0.252 OA
BRANCH   4   6
ATOM      6  C   UNL     1      -2.688  -1.754  -1.515  1.00  0.00     0.123 C 
BRANCH   6   7
ATOM      7  C   UNL     1      -3.846  -0.862  -1.052  1.00  0.00     0.020 C 
BRANCH   7   8
ATOM      8  C   UNL     1      -3.585   0.080   0.127  1.00  0.00     0.082 C 
BRANCH   8   9
ATOM      9  C   UNL     1      -2.463   1.075  -0.138  1.00  0.00     0.172 C 
ATOM     10  O   UNL     1      -2.738   2.158  -0.657  1.00  0.00    -0.293 OA
BRANCH   9  11
ATOM     11  C   UNL     1      -1.106   0.641   0.176  1.00  0.00     0.070 A 
ATOM     12  C   UNL     1       2.774   0.325  -0.342  1.00  0.00     0.056 C 
ATOM     13  C   UNL     1       1.335   0.268   0.038  1.00  0.00     0.002 A 
ATOM     14  C   UNL     1       0.727  -0.595   0.923  1.00  0.00     0.016 A 
ATOM     15  S   UNL     1       0.216   1.371  -0.635  1.00  0.00    -0.138 S 
ATOM     16  C   UNL     1      -0.670  -0.346   1.040  1.00  0.00     0.024 A 
ENDBRANCH   9  11
ENDBRANCH   8   9
ENDBRANCH   7   8
ENDBRANCH   6   7
ENDBRANCH   4   6
ENDBRANCH   3   4
ENDBRANCH   2   3
ENDBRANCH   1   2
BRANCH   1  17
ATOM     17  O   UNL     1      -4.461  -5.294   1.214  1.00  0.00    -0.374 OA
BRANCH  17  18
ATOM     18  C   UNL     1      -5.202  -4.550   0.251  1.00  0.00     0.202 C 
BRANCH  18  19
ATOM     19  C   UNL     1      -6.428  -3.781   0.764  1.00  0.00     0.261 C 
BRANCH  19  20
ATOM     20  O   UNL     1      -6.116  -2.781   1.753  1.00  0.00    -0.460 OA
BRANCH  20  21
ATOM     21  C   UNL     1      -6.590  -3.061   2.993  1.00  0.00     0.338 C 
ATOM     22  O   UNL     1      -7.234  -4.037   3.337  1.00  0.00    -0.246 OA
BRANCH  21  23
ATOM     23  C   UNL     1      -6.122  -2.066   3.978  1.00  0.00     0.060 A 
ATOM     24  C   UNL     1      -5.451  -2.545   5.109  1.00  0.00     0.016 A 
ATOM     25  C   UNL     1      -6.477  -0.719   3.880  1.00  0.00     0.016 A 
ATOM     26  C   UNL     1      -5.185  -1.690   6.178  1.00  0.00     0.010 A 
ATOM     27  C   UNL     1      -6.213   0.137   4.957  1.00  0.00     0.010 A 
ATOM     28  C   UNL     1      -5.605  -0.354   6.127  1.00  0.00    -0.014 A 
BRANCH  28  29
ATOM     29  C   UNL     1      -5.540   0.477   7.356  1.00  0.00     0.031 A 
ATOM     30  C   UNL     1      -6.778   0.654   8.193  1.00  0.00     0.074 A 
ATOM     31  C   UNL     1      -4.380   1.034   7.749  1.00  0.00     0.049 A 
ATOM     32  N   UNL     1      -6.946   1.340   9.297  1.00  0.00    -0.248 NA
ATOM     33  C   UNL     1      -7.990  -0.036   7.725  1.00  0.00     0.031 C 
ATOM     34  C   UNL     1      -3.105   0.906   7.048  1.00  0.00     0.029 A 
ATOM     35  N   UNL     1      -4.093   1.822   8.835  1.00  0.00    -0.354 N 
ATOM     36  C   UNL     1      -8.278   1.167   9.651  1.00  0.00     0.074 A 
ATOM     37  C   UNL     1      -8.882   0.336   8.631  1.00  0.00     0.031 C 
ATOM     38  C   UNL     1      -2.169   1.600   7.719  1.00  0.00     0.029 A 
ATOM     39  C   UNL     1      -2.786   2.242   8.879  1.00  0.00     0.049 A 
ATOM     40  H   UNL     1      -4.759   2.063   9.518  1.00  0.00     0.167 HD
ATOM     41  C   UNL     1      -8.935   1.649  10.733  1.00  0.00     0.037 A 
ATOM     42  C   UNL     1      -2.165   3.065   9.746  1.00  0.00     0.037 A 
ATOM     43  C   UNL     1      -8.336   2.471  11.751  1.00  0.00     0.049 A 
ATOM     44  C   UNL     1      -2.935   3.640  10.906  1.00  0.00     0.074 A 
ATOM     45  C   UNL     1      -8.917   2.989  12.896  1.00  0.00     0.029 A 
ATOM     46  N   UNL     1      -7.018   2.902  11.742  1.00  0.00    -0.354 N 
ATOM     47  N   UNL     1      -4.186   3.448  11.248  1.00  0.00    -0.248 NA
ATOM     48  C   UNL     1      -2.203   4.546  11.804  1.00  0.00     0.031 C 
ATOM     49  C   UNL     1      -7.963   3.771  13.556  1.00  0.00     0.029 A 
ATOM     50  C   UNL     1      -6.774   3.700  12.848  1.00  0.00     0.049 A 
ATOM     51  H   UNL     1      -6.354   2.675  11.051  1.00  0.00     0.167 HD
ATOM     52  C   UNL     1      -4.382   4.182  12.410  1.00  0.00     0.074 A 
ATOM     53  C   UNL     1      -3.119   4.816  12.723  1.00  0.00     0.031 C 
ATOM     54  C   UNL     1      -5.509   4.318  13.153  1.00  0.00     0.037 A 
BRANCH  41  55
ATOM     55  C   UNL     1     -10.393   1.315  10.864  1.00  0.00     0.064 A 
ATOM     56  C   UNL     1     -10.825   0.026  11.209  1.00  0.00     0.173 A 
ATOM     57  C   UNL     1     -11.367   2.308  10.682  1.00  0.00     0.173 A 
ATOM     58  F   UNL     1      -9.933  -0.961  11.382  1.00  0.00    -0.203 F 
ATOM     59  C   UNL     1     -12.181  -0.263  11.344  1.00  0.00     0.198 A 
ATOM     60  C   UNL     1     -12.720   2.022  10.844  1.00  0.00     0.198 A 
ATOM     61  F   UNL     1     -11.006   3.558  10.357  1.00  0.00    -0.203 F 
ATOM     62  F   UNL     1     -12.573  -1.511  11.634  1.00  0.00    -0.200 F 
ATOM     63  C   UNL     1     -13.126   0.737  11.168  1.00  0.00     0.200 A 
ATOM     64  F   UNL     1     -13.632   2.992  10.685  1.00  0.00    -0.200 F 
ATOM     65  F   UNL     1     -14.430   0.459  11.306  1.00  0.00    -0.200 F 
ENDBRANCH  41  55
BRANCH  42  66
ATOM     66  C   UNL     1      -0.732   3.403   9.547  1.00  0.00     0.064 A 
ATOM     67  C   UNL     1       0.251   2.937  10.430  1.00  0.00     0.173 A 
ATOM     68  C   UNL     1      -0.320   4.212   8.478  1.00  0.00     0.173 A 
ATOM     69  F   UNL     1      -0.098   2.181  11.482  1.00  0.00    -0.203 F 
ATOM     70  C   UNL     1       1.591   3.279  10.260  1.00  0.00     0.198 A 
ATOM     71  C   UNL     1       1.023   4.532   8.294  1.00  0.00     0.198 A 
ATOM     72  F   UNL     1      -1.224   4.686   7.607  1.00  0.00    -0.203 F 
ATOM     73  F   UNL     1       2.505   2.856  11.143  1.00  0.00    -0.200 F 
ATOM     74  C   UNL     1       1.976   4.072   9.189  1.00  0.00     0.200 A 
ATOM     75  F   UNL     1       1.392   5.290   7.252  1.00  0.00    -0.200 F 
ATOM     76  F   UNL     1       3.265   4.398   9.024  1.00  0.00    -0.200 F 
ENDBRANCH  42  66
BRANCH  54  77
ATOM     77  C   UNL     1      -5.421   5.154  14.396  1.00  0.00     0.064 A 
ATOM     78  C   UNL     1      -5.328   6.552  14.339  1.00  0.00     0.173 A 
ATOM     79  C   UNL     1      -5.473   4.550  15.662  1.00  0.00     0.173 A 
ATOM     80  F   UNL     1      -5.260   7.175  13.153  1.00  0.00    -0.203 F 
ATOM     81  C   UNL     1      -5.268   7.314  15.503  1.00  0.00     0.198 A 
ATOM     82  C   UNL     1      -5.441   5.317  16.824  1.00  0.00     0.198 A 
ATOM     83  F   UNL     1      -5.569   3.217  15.772  1.00  0.00    -0.203 F 
ATOM     84  F   UNL     1      -5.136   8.645  15.425  1.00  0.00    -0.200 F 
ATOM     85  C   UNL     1      -5.332   6.697  16.744  1.00  0.00     0.200 A 
ATOM     86  F   UNL     1      -5.515   4.720  18.022  1.00  0.00    -0.200 F 
ATOM     87  F   UNL     1      -5.281   7.432  17.863  1.00  0.00    -0.200 F 
ENDBRANCH  54  77
ENDBRANCH  28  29
ENDBRANCH  21  23
ENDBRANCH  20  21
ENDBRANCH  19  20
ENDBRANCH  18  19
ENDBRANCH  17  18
ENDBRANCH   1  17
TORSDOF 18
