REMARK SMILES CC[C@@](O)(C(=O)OCCOCCOC(=O)c1ccc(-c2c3nc(c(-c4c(F)c(F)c(F)c(F)c4F)c4ccc([nH]4)c(-c4c(F)c(F)c(F)c(F)c4F)c4nc(c(-c5c(F)c(F)c(F)c(F)c5F)c5ccc2[nH]5)C=C4)C=C3)cc1)[C@H](C)c1cc(F)c(C)cc1F
REMARK SMILES IDX 10 1 9 2 8 3 7 4 5 5 6 6 3 7 2 8 1 9 4 10 79 12 80 13 81 14
REMARK SMILES IDX 82 15 88 16 83 17 87 18 89 19 84 20 85 21 86 22 11 23 12 24
REMARK SMILES IDX 13 25 14 26 15 27 16 28 17 29 78 30 18 31 77 32 19 33 20 34
REMARK SMILES IDX 21 35 71 36 22 37 76 38 70 39 72 40 23 41 75 42 69 43 68 44
REMARK SMILES IDX 24 46 56 47 36 48 55 49 37 50 40 51 54 52 73 53 38 54 39 55
REMARK SMILES IDX 53 57 74 58 41 59 25 60 26 61 34 62 27 63 28 64 32 65 35 66
REMARK SMILES IDX 29 67 30 68 33 69 31 70 57 71 58 72 66 73 59 74 60 75 64 76
REMARK SMILES IDX 67 77 61 78 62 79 65 80 63 81 42 82 43 83 51 84 44 85 45 86
REMARK SMILES IDX 49 87 52 88 46 89 47 90 50 91 48 92
REMARK H PARENT 4 11 72 45 40 56
REMARK Flexibility Score: inf
ROOT
ATOM      1  O   UNL     1       7.275  -1.572   0.889  1.00  0.00    -0.374 OA
ENDROOT
BRANCH   1   2
ATOM      2  C   UNL     1       7.082  -2.942   1.248  1.00  0.00     0.202 C 
BRANCH   2   3
ATOM      3  C   UNL     1       6.147  -3.206   2.433  1.00  0.00     0.261 C 
BRANCH   3   4
ATOM      4  O   UNL     1       4.755  -3.079   2.066  1.00  0.00    -0.461 OA
BRANCH   4   5
ATOM      5  C   UNL     1       4.058  -2.069   2.671  1.00  0.00     0.338 C 
ATOM      6  O   UNL     1       4.564  -1.281   3.462  1.00  0.00    -0.249 OA
BRANCH   5   7
ATOM      7  C   UNL     1       2.551  -2.058   2.265  1.00  0.00     0.168 C 
BRANCH   7   8
ATOM      8  C   UNL     1       2.311  -2.809   0.926  1.00  0.00     0.044 C 
ATOM      9  C   UNL     1       0.912  -2.703   0.338  1.00  0.00     0.007 C 
ENDBRANCH   7   8
BRANCH   7  10
ATOM     10  O   UNL     1       1.908  -2.841   3.311  1.00  0.00    -0.378 OA
ATOM     11  H   UNL     1       2.215  -3.760   3.262  1.00  0.00     0.212 HD
ENDBRANCH   7  10
BRANCH   7  12
ATOM     12  C   UNL     1       1.996  -0.581   2.417  1.00  0.00     0.062 C 
ATOM     13  C   UNL     1       0.462  -0.528   2.603  1.00  0.00     0.016 C 
BRANCH  12  14
ATOM     14  C   UNL     1       2.435   0.547   1.475  1.00  0.00    -0.003 A 
ATOM     15  C   UNL     1       2.989   0.366   0.207  1.00  0.00     0.046 A 
ATOM     16  C   UNL     1       2.252   1.884   1.883  1.00  0.00     0.127 A 
ATOM     17  C   UNL     1       3.373   1.457  -0.583  1.00  0.00     0.126 A 
ATOM     18  C   UNL     1       2.616   2.977   1.087  1.00  0.00     0.046 A 
ATOM     19  F   UNL     1       1.702   2.145   3.078  1.00  0.00    -0.207 F 
ATOM     20  F   UNL     1       3.939   1.217  -1.775  1.00  0.00    -0.207 F 
ATOM     21  C   UNL     1       3.191   2.770  -0.165  1.00  0.00    -0.012 A 
ATOM     22  C   UNL     1       3.661   3.905  -1.020  1.00  0.00     0.047 C 
ENDBRANCH  12  14
ENDBRANCH   7  12
ENDBRANCH   5   7
ENDBRANCH   4   5
ENDBRANCH   3   4
ENDBRANCH   2   3
ENDBRANCH   1   2
BRANCH   1  23
ATOM     23  C   UNL     1       6.192  -0.927   0.226  1.00  0.00     0.202 C 
BRANCH  23  24
ATOM     24  C   UNL     1       6.137  -1.105  -1.295  1.00  0.00     0.261 C 
BRANCH  24  25
ATOM     25  O   UNL     1       6.171  -2.486  -1.670  1.00  0.00    -0.460 OA
BRANCH  25  26
ATOM     26  C   UNL     1       7.356  -2.878  -2.182  1.00  0.00     0.338 C 
ATOM     27  O   UNL     1       8.318  -2.179  -2.478  1.00  0.00    -0.246 OA
BRANCH  26  28
ATOM     28  C   UNL     1       7.415  -4.343  -2.198  1.00  0.00     0.060 A 
ATOM     29  C   UNL     1       8.553  -4.935  -1.640  1.00  0.00     0.016 A 
ATOM     30  C   UNL     1       6.415  -5.115  -2.795  1.00  0.00     0.016 A 
ATOM     31  C   UNL     1       8.735  -6.306  -1.747  1.00  0.00     0.010 A 
ATOM     32  C   UNL     1       6.598  -6.494  -2.901  1.00  0.00     0.010 A 
ATOM     33  C   UNL     1       7.782  -7.081  -2.421  1.00  0.00    -0.014 A 
BRANCH  33  34
ATOM     34  C   UNL     1       8.127  -8.472  -2.776  1.00  0.00     0.031 A 
ATOM     35  C   UNL     1       8.637  -8.751  -4.161  1.00  0.00     0.074 A 
ATOM     36  C   UNL     1       8.048  -9.444  -1.853  1.00  0.00     0.049 A 
ATOM     37  N   UNL     1       9.025  -9.881  -4.692  1.00  0.00    -0.248 NA
ATOM     38  C   UNL     1       8.721  -7.598  -5.074  1.00  0.00     0.031 C 
ATOM     39  C   UNL     1       7.604  -9.260  -0.473  1.00  0.00     0.029 A 
ATOM     40  N   UNL     1       8.346 -10.778  -1.939  1.00  0.00    -0.354 N 
ATOM     41  C   UNL     1       9.393  -9.576  -5.996  1.00  0.00     0.074 A 
ATOM     42  C   UNL     1       9.151  -8.165  -6.191  1.00  0.00     0.031 C 
ATOM     43  C   UNL     1       7.661 -10.441   0.164  1.00  0.00     0.029 A 
ATOM     44  C   UNL     1       8.117 -11.466  -0.773  1.00  0.00     0.049 A 
ATOM     45  H   UNL     1       8.691 -11.203  -2.757  1.00  0.00     0.167 HD
ATOM     46  C   UNL     1       9.898 -10.405  -6.940  1.00  0.00     0.037 A 
ATOM     47  C   UNL     1       8.251 -12.778  -0.507  1.00  0.00     0.037 A 
ATOM     48  C   UNL     1      10.139 -11.806  -6.725  1.00  0.00     0.049 A 
ATOM     49  C   UNL     1       8.761 -13.688  -1.595  1.00  0.00     0.074 A 
ATOM     50  C   UNL     1      10.666 -12.738  -7.600  1.00  0.00     0.029 A 
ATOM     51  N   UNL     1       9.859 -12.478  -5.543  1.00  0.00    -0.354 N 
ATOM     52  N   UNL     1       9.133 -13.390  -2.817  1.00  0.00    -0.248 NA
ATOM     53  C   UNL     1       8.873 -15.114  -1.264  1.00  0.00     0.031 C 
ATOM     54  C   UNL     1      10.655 -13.984  -6.966  1.00  0.00     0.029 A 
ATOM     55  C   UNL     1      10.175 -13.820  -5.675  1.00  0.00     0.049 A 
ATOM     56  H   UNL     1       9.490 -12.063  -4.730  1.00  0.00     0.167 HD
ATOM     57  C   UNL     1       9.550 -14.582  -3.392  1.00  0.00     0.074 A 
ATOM     58  C   UNL     1       9.397 -15.606  -2.378  1.00  0.00     0.031 C 
ATOM     59  C   UNL     1      10.017 -14.814  -4.644  1.00  0.00     0.037 A 
BRANCH  46  60
ATOM     60  C   UNL     1      10.192  -9.823  -8.292  1.00  0.00     0.064 A 
ATOM     61  C   UNL     1      11.256  -8.932  -8.501  1.00  0.00     0.173 A 
ATOM     62  C   UNL     1       9.410 -10.180  -9.401  1.00  0.00     0.173 A 
ATOM     63  F   UNL     1      12.024  -8.544  -7.472  1.00  0.00    -0.203 F 
ATOM     64  C   UNL     1      11.511  -8.403  -9.765  1.00  0.00     0.198 A 
ATOM     65  C   UNL     1       9.685  -9.672 -10.668  1.00  0.00     0.198 A 
ATOM     66  F   UNL     1       8.379 -11.027  -9.257  1.00  0.00    -0.203 F 
ATOM     67  F   UNL     1      12.503  -7.518  -9.932  1.00  0.00    -0.200 F 
ATOM     68  C   UNL     1      10.730  -8.779 -10.848  1.00  0.00     0.200 A 
ATOM     69  F   UNL     1       8.935 -10.044 -11.714  1.00  0.00    -0.200 F 
ATOM     70  F   UNL     1      10.980  -8.274 -12.064  1.00  0.00    -0.200 F 
ENDBRANCH  46  60
BRANCH  47  71
ATOM     71  C   UNL     1       7.899 -13.304   0.837  1.00  0.00     0.064 A 
ATOM     72  C   UNL     1       8.882 -13.811   1.698  1.00  0.00     0.173 A 
ATOM     73  C   UNL     1       6.570 -13.314   1.287  1.00  0.00     0.173 A 
ATOM     74  F   UNL     1      10.164 -13.842   1.306  1.00  0.00    -0.203 F 
ATOM     75  C   UNL     1       8.547 -14.324   2.950  1.00  0.00     0.198 A 
ATOM     76  C   UNL     1       6.240 -13.800   2.550  1.00  0.00     0.198 A 
ATOM     77  F   UNL     1       5.591 -12.839   0.503  1.00  0.00    -0.203 F 
ATOM     78  F   UNL     1       9.500 -14.842   3.736  1.00  0.00    -0.200 F 
ATOM     79  C   UNL     1       7.228 -14.312   3.378  1.00  0.00     0.200 A 
ATOM     80  F   UNL     1       4.966 -13.773   2.964  1.00  0.00    -0.200 F 
ATOM     81  F   UNL     1       6.907 -14.801   4.583  1.00  0.00    -0.200 F 
ENDBRANCH  47  71
BRANCH  59  82
ATOM     82  C   UNL     1      10.427 -16.220  -4.972  1.00  0.00     0.064 A 
ATOM     83  C   UNL     1       9.481 -17.240  -5.147  1.00  0.00     0.173 A 
ATOM     84  C   UNL     1      11.782 -16.538  -5.154  1.00  0.00     0.173 A 
ATOM     85  F   UNL     1       8.176 -16.988  -4.970  1.00  0.00    -0.203 F 
ATOM     86  C   UNL     1       9.879 -18.535  -5.467  1.00  0.00     0.198 A 
ATOM     87  C   UNL     1      12.173 -17.826  -5.505  1.00  0.00     0.198 A 
ATOM     88  F   UNL     1      12.724 -15.595  -5.006  1.00  0.00    -0.203 F 
ATOM     89  F   UNL     1       8.963 -19.506  -5.581  1.00  0.00    -0.200 F 
ATOM     90  C   UNL     1      11.223 -18.825  -5.653  1.00  0.00     0.200 A 
ATOM     91  F   UNL     1      13.470 -18.100  -5.700  1.00  0.00    -0.200 F 
ATOM     92  F   UNL     1      11.603 -20.070  -5.968  1.00  0.00    -0.200 F 
ENDBRANCH  59  82
ENDBRANCH  33  34
ENDBRANCH  26  28
ENDBRANCH  25  26
ENDBRANCH  24  25
ENDBRANCH  23  24
ENDBRANCH   1  23
TORSDOF 18
