REMARK SMILES N#C[C@@H]1CN(C(=O)N[C@@H](Cc2cnc[nH]2)C(=O)OCCOCCOC(=O)c2ccc(-c3c4nc(c(-c5c(F)c(F)c(F)c(F)c5F)c5ccc([nH]5)c(-c5c(F)c(F)c(F)c(F)c5F)c5nc(c(-c6c(F)c(F)c(F)c(F)c6F)c6ccc3[nH]6)C=C5)C=C4)cc2)CCO1
REMARK SMILES IDX 20 1 19 2 18 3 16 4 17 5 9 6 8 7 6 8 7 9 5 11 3 12 4 13
REMARK SMILES IDX 92 14 91 15 90 16 2 17 1 18 10 19 11 20 12 21 15 22 13 23
REMARK SMILES IDX 14 24 21 26 22 27 23 28 24 29 25 30 26 31 27 32 28 33 89 34
REMARK SMILES IDX 29 35 88 36 30 37 31 38 32 39 82 40 33 41 87 42 81 43 83 44
REMARK SMILES IDX 34 45 86 46 80 47 79 48 35 50 67 51 47 52 66 53 48 54 51 55
REMARK SMILES IDX 65 56 84 57 49 58 50 59 64 61 85 62 52 63 36 64 37 65 45 66
REMARK SMILES IDX 38 67 39 68 43 69 46 70 40 71 41 72 44 73 42 74 68 75 69 76
REMARK SMILES IDX 77 77 70 78 71 79 75 80 78 81 72 82 73 83 76 84 74 85 53 86
REMARK SMILES IDX 54 87 62 88 55 89 56 90 60 91 63 92 57 93 58 94 61 95 59 96
REMARK H PARENT 8 10 15 25 83 49 51 60
REMARK Flexibility Score: inf
ROOT
ATOM      1  C   UNL     1      -0.874   4.430   0.106  1.00  0.00     0.202 C 
ENDROOT
BRANCH   1   2
ATOM      2  C   UNL     1       0.382   5.281   0.334  1.00  0.00     0.261 C 
BRANCH   2   3
ATOM      3  O   UNL     1       1.388   5.015  -0.668  1.00  0.00    -0.462 OA
BRANCH   3   4
ATOM      4  C   UNL     1       2.567   4.478  -0.251  1.00  0.00     0.329 C 
ATOM      5  O   UNL     1       2.889   4.308   0.920  1.00  0.00    -0.250 OA
BRANCH   4   6
ATOM      6  C   UNL     1       3.493   4.096  -1.425  1.00  0.00     0.199 C 
BRANCH   6   7
ATOM      7  N   UNL     1       2.890   3.137  -2.362  1.00  0.00    -0.324 N 
ATOM      8  C   UNL     1       3.174   1.885  -2.769  1.00  0.00     0.318 C 
ATOM      9  O   UNL     1       2.595   1.508  -3.789  1.00  0.00    -0.249 OA
ATOM     10  H   UNL     1       2.084   3.498  -2.798  1.00  0.00     0.166 HD
BRANCH   8  11
ATOM     11  N   UNL     1       4.031   1.075  -2.089  1.00  0.00    -0.319 N 
ATOM     12  C   UNL     1       3.786   0.008   0.100  1.00  0.00     0.240 C 
ATOM     13  C   UNL     1       4.378   1.166  -0.672  1.00  0.00     0.169 C 
ATOM     14  O   UNL     1       4.292  -1.242  -0.439  1.00  0.00    -0.360 OA
ATOM     15  C   UNL     1       3.929  -1.409  -1.824  1.00  0.00     0.183 C 
ATOM     16  C   UNL     1       4.411  -0.226  -2.683  1.00  0.00     0.150 C 
BRANCH  12  17
ATOM     17  C   UNL     1       2.266   0.008   0.100  1.00  0.00     0.096 C 
ATOM     18  N   UNL     1       1.005   0.008   0.100  1.00  0.00    -0.195 NA
ENDBRANCH  12  17
ENDBRANCH   8  11
ENDBRANCH   6   7
BRANCH   6  19
ATOM     19  C   UNL     1       4.106   5.305  -2.134  1.00  0.00     0.092 C 
BRANCH  19  20
ATOM     20  C   UNL     1       3.163   6.259  -2.775  1.00  0.00     0.037 A 
ATOM     21  C   UNL     1       2.105   6.125  -3.650  1.00  0.00     0.134 A 
ATOM     22  N   UNL     1       3.277   7.615  -2.583  1.00  0.00    -0.348 N 
ATOM     23  N   UNL     1       1.561   7.345  -3.949  1.00  0.00    -0.245 NA
ATOM     24  C   UNL     1       2.298   8.222  -3.311  1.00  0.00     0.196 A 
ATOM     25  H   UNL     1       3.946   8.067  -2.020  1.00  0.00     0.167 HD
ENDBRANCH  19  20
ENDBRANCH   6  19
ENDBRANCH   4   6
ENDBRANCH   3   4
ENDBRANCH   2   3
ENDBRANCH   1   2
BRANCH   1  26
ATOM     26  O   UNL     1      -0.639   3.026   0.061  1.00  0.00    -0.374 OA
BRANCH  26  27
ATOM     27  C   UNL     1       0.002   2.587  -1.138  1.00  0.00     0.202 C 
BRANCH  27  28
ATOM     28  C   UNL     1      -0.771   1.486  -1.862  1.00  0.00     0.261 C 
BRANCH  28  29
ATOM     29  O   UNL     1      -1.660   2.138  -2.786  1.00  0.00    -0.460 OA
BRANCH  29  30
ATOM     30  C   UNL     1      -2.831   2.525  -2.237  1.00  0.00     0.338 C 
ATOM     31  O   UNL     1      -3.384   2.055  -1.257  1.00  0.00    -0.246 OA
BRANCH  30  32
ATOM     32  C   UNL     1      -3.245   3.794  -2.870  1.00  0.00     0.060 A 
ATOM     33  C   UNL     1      -3.889   4.728  -2.049  1.00  0.00     0.016 A 
ATOM     34  C   UNL     1      -2.969   4.097  -4.208  1.00  0.00     0.016 A 
ATOM     35  C   UNL     1      -4.294   5.951  -2.569  1.00  0.00     0.010 A 
ATOM     36  C   UNL     1      -3.381   5.323  -4.732  1.00  0.00     0.010 A 
ATOM     37  C   UNL     1      -4.069   6.240  -3.920  1.00  0.00    -0.014 A 
BRANCH  37  38
ATOM     38  C   UNL     1      -4.672   7.454  -4.507  1.00  0.00     0.031 A 
ATOM     39  C   UNL     1      -5.953   7.322  -5.276  1.00  0.00     0.074 A 
ATOM     40  C   UNL     1      -4.096   8.654  -4.326  1.00  0.00     0.049 A 
ATOM     41  N   UNL     1      -6.641   8.238  -5.907  1.00  0.00    -0.248 NA
ATOM     42  C   UNL     1      -6.538   5.973  -5.344  1.00  0.00     0.031 C 
ATOM     43  C   UNL     1      -2.869   8.894  -3.569  1.00  0.00     0.029 A 
ATOM     44  N   UNL     1      -4.464   9.896  -4.778  1.00  0.00    -0.354 N 
ATOM     45  C   UNL     1      -7.732   7.576  -6.453  1.00  0.00     0.074 A 
ATOM     46  C   UNL     1      -7.605   6.179  -6.102  1.00  0.00     0.031 C 
ATOM     47  C   UNL     1      -2.578  10.205  -3.619  1.00  0.00     0.029 A 
ATOM     48  C   UNL     1      -3.572  10.884  -4.447  1.00  0.00     0.049 A 
ATOM     49  H   UNL     1      -5.288  10.061  -5.291  1.00  0.00     0.167 HD
ATOM     50  C   UNL     1      -8.748   8.097  -7.179  1.00  0.00     0.037 A 
ATOM     51  C   UNL     1      -3.547  12.182  -4.808  1.00  0.00     0.037 A 
ATOM     52  C   UNL     1      -8.860   9.490  -7.521  1.00  0.00     0.049 A 
ATOM     53  C   UNL     1      -4.650  12.718  -5.684  1.00  0.00     0.074 A 
ATOM     54  C   UNL     1      -9.870  10.128  -8.217  1.00  0.00     0.029 A 
ATOM     55  N   UNL     1      -7.918  10.458  -7.203  1.00  0.00    -0.354 N 
ATOM     56  N   UNL     1      -5.705  12.101  -6.160  1.00  0.00    -0.248 NA
ATOM     57  C   UNL     1      -4.556  14.130  -6.078  1.00  0.00     0.031 C 
ATOM     58  C   UNL     1      -9.508  11.469  -8.379  1.00  0.00     0.029 A 
ATOM     59  C   UNL     1      -8.301  11.681  -7.730  1.00  0.00     0.049 A 
ATOM     60  H   UNL     1      -7.099  10.299  -6.681  1.00  0.00     0.167 HD
ATOM     61  C   UNL     1      -6.405  13.048  -6.895  1.00  0.00     0.074 A 
ATOM     62  C   UNL     1      -5.669  14.290  -6.779  1.00  0.00     0.031 C 
ATOM     63  C   UNL     1      -7.549  12.904  -7.608  1.00  0.00     0.037 A 
BRANCH  50  64
ATOM     64  C   UNL     1      -9.800   7.153  -7.685  1.00  0.00     0.064 A 
ATOM     65  C   UNL     1     -10.728   6.547  -6.826  1.00  0.00     0.173 A 
ATOM     66  C   UNL     1      -9.907   6.887  -9.059  1.00  0.00     0.173 A 
ATOM     67  F   UNL     1     -10.661   6.757  -5.502  1.00  0.00    -0.203 F 
ATOM     68  C   UNL     1     -11.712   5.694  -7.321  1.00  0.00     0.198 A 
ATOM     69  C   UNL     1     -10.910   6.059  -9.554  1.00  0.00     0.198 A 
ATOM     70  F   UNL     1      -9.045   7.443  -9.924  1.00  0.00    -0.203 F 
ATOM     71  F   UNL     1     -12.563   5.094  -6.478  1.00  0.00    -0.200 F 
ATOM     72  C   UNL     1     -11.807   5.459  -8.684  1.00  0.00     0.200 A 
ATOM     73  F   UNL     1     -11.009   5.844 -10.873  1.00  0.00    -0.200 F 
ATOM     74  F   UNL     1     -12.763   4.649  -9.161  1.00  0.00    -0.200 F 
ENDBRANCH  50  64
BRANCH  51  75
ATOM     75  C   UNL     1      -2.422  13.052  -4.374  1.00  0.00     0.064 A 
ATOM     76  C   UNL     1      -2.630  14.124  -3.496  1.00  0.00     0.173 A 
ATOM     77  C   UNL     1      -1.117  12.839  -4.844  1.00  0.00     0.173 A 
ATOM     78  F   UNL     1      -3.863  14.386  -3.038  1.00  0.00    -0.203 F 
ATOM     79  C   UNL     1      -1.580  14.960  -3.119  1.00  0.00     0.198 A 
ATOM     80  C   UNL     1      -0.062  13.653  -4.440  1.00  0.00     0.198 A 
ATOM     81  F   UNL     1      -0.863  11.830  -5.691  1.00  0.00    -0.203 F 
ATOM     82  F   UNL     1      -1.815  16.008  -2.318  1.00  0.00    -0.200 F 
ATOM     83  C   UNL     1      -0.296  14.719  -3.586  1.00  0.00     0.200 A 
ATOM     84  F   UNL     1       1.180  13.406  -4.878  1.00  0.00    -0.200 F 
ATOM     85  F   UNL     1       0.715  15.518  -3.217  1.00  0.00    -0.200 F 
ENDBRANCH  51  75
BRANCH  63  86
ATOM     86  C   UNL     1      -8.080  14.120  -8.312  1.00  0.00     0.064 A 
ATOM     87  C   UNL     1      -7.438  14.652  -9.440  1.00  0.00     0.173 A 
ATOM     88  C   UNL     1      -9.269  14.730  -7.884  1.00  0.00     0.173 A 
ATOM     89  F   UNL     1      -6.290  14.116  -9.880  1.00  0.00    -0.203 F 
ATOM     90  C   UNL     1      -7.955  15.764 -10.099  1.00  0.00     0.198 A 
ATOM     91  C   UNL     1      -9.801  15.820  -8.566  1.00  0.00     0.198 A 
ATOM     92  F   UNL     1      -9.927  14.256  -6.815  1.00  0.00    -0.203 F 
ATOM     93  F   UNL     1      -7.299  16.285 -11.145  1.00  0.00    -0.200 F 
ATOM     94  C   UNL     1      -9.140  16.341  -9.668  1.00  0.00     0.200 A 
ATOM     95  F   UNL     1     -10.955  16.366  -8.158  1.00  0.00    -0.200 F 
ATOM     96  F   UNL     1      -9.642  17.404 -10.311  1.00  0.00    -0.200 F 
ENDBRANCH  63  86
ENDBRANCH  37  38
ENDBRANCH  30  32
ENDBRANCH  29  30
ENDBRANCH  28  29
ENDBRANCH  27  28
ENDBRANCH  26  27
ENDBRANCH   1  26
TORSDOF 19
