REMARK SMILES O=C(CNC(=O)N1CC(OCCOCCOC(=O)c2ccc(-c3c4nc(c(-c5c(F)c(F)c(F)c(F)c5F)c5ccc([nH]5)c(-c5c(F)c(F)c(F)c(F)c5F)c5nc(c(-c6c(F)c(F)c(F)c(F)c6F)c6ccc3[nH]6)C=C5)C=C4)cc2)=Nc2ccccc21)N[C@H](C(=O)[O-])c1ccccc1
REMARK SMILES IDX 12 1 11 2 10 3 9 4 7 5 8 6 88 7 83 8 87 9 82 10 84 11 86 12
REMARK SMILES IDX 85 13 5 14 4 15 6 17 3 18 2 19 1 20 89 21 90 23 94 24 95 25
REMARK SMILES IDX 99 26 96 27 98 28 97 29 91 30 92 31 93 32 13 33 14 34 15 35
REMARK SMILES IDX 16 36 17 37 18 38 19 39 20 40 81 41 21 42 80 43 22 44 23 45
REMARK SMILES IDX 24 46 74 47 25 48 79 49 73 50 75 51 26 52 78 53 72 54 71 55
REMARK SMILES IDX 27 57 59 58 39 59 58 60 40 61 43 62 57 63 76 64 41 65 42 66
REMARK SMILES IDX 56 68 77 69 44 70 28 71 29 72 37 73 30 74 31 75 35 76 38 77
REMARK SMILES IDX 32 78 33 79 36 80 34 81 60 82 61 83 69 84 62 85 63 86 67 87
REMARK SMILES IDX 70 88 64 89 65 90 68 91 66 92 45 93 46 94 54 95 47 96 48 97
REMARK SMILES IDX 52 98 55 99 49 100 50 101 53 102 51 103
REMARK H PARENT 4 16 89 22 75 56 43 67
REMARK Flexibility Score: inf
ROOT
ATOM      1  C   UNL     1       6.234   3.391   1.747  1.00  0.00     0.202 C 
ENDROOT
BRANCH   1   2
ATOM      2  C   UNL     1       6.888   4.780   1.669  1.00  0.00     0.259 C 
BRANCH   2   3
ATOM      3  O   UNL     1       6.073   5.714   0.913  1.00  0.00    -0.477 OA
BRANCH   3   4
ATOM      4  C   UNL     1       6.329   5.831  -0.412  1.00  0.00     0.209 C 
ATOM      5  N   UNL     1       5.111   5.913  -2.563  1.00  0.00    -0.283 N 
ATOM      6  C   UNL     1       5.186   6.433  -1.194  1.00  0.00     0.224 C 
ATOM      7  C   UNL     1       6.363   5.545  -3.162  1.00  0.00     0.072 A 
ATOM      8  C   UNL     1       7.488   5.336  -2.328  1.00  0.00     0.091 A 
ATOM      9  C   UNL     1       6.530   5.397  -4.543  1.00  0.00     0.029 A 
ATOM     10  N   UNL     1       7.438   5.417  -0.928  1.00  0.00    -0.214 NA
ATOM     11  C   UNL     1       8.697   4.888  -2.872  1.00  0.00     0.030 A 
ATOM     12  C   UNL     1       7.742   4.939  -5.074  1.00  0.00     0.002 A 
ATOM     13  C   UNL     1       8.820   4.670  -4.238  1.00  0.00     0.002 A 
BRANCH   5  14
ATOM     14  C   UNL     1       3.898   6.076  -3.197  1.00  0.00     0.322 C 
ATOM     15  N   UNL     1       3.438   5.144  -4.070  1.00  0.00    -0.329 N 
ATOM     16  H   UNL     1       2.724   5.449  -4.675  1.00  0.00     0.165 HD
ATOM     17  O   UNL     1       3.151   7.019  -2.926  1.00  0.00    -0.248 OA
BRANCH  15  18
ATOM     18  C   UNL     1       3.850   3.764  -4.240  1.00  0.00     0.218 C 
BRANCH  18  19
ATOM     19  C   UNL     1       2.673   2.792  -4.431  1.00  0.00     0.240 C 
ATOM     20  O   UNL     1       1.989   2.789  -5.449  1.00  0.00    -0.273 OA
ATOM     21  N   UNL     1       2.510   1.948  -3.371  1.00  0.00    -0.342 N 
ATOM     22  H   UNL     1       2.953   2.224  -2.536  1.00  0.00     0.164 HD
BRANCH  21  23
ATOM     23  C   UNL     1       1.756   0.671  -3.306  1.00  0.00     0.158 C 
BRANCH  23  24
ATOM     24  C   UNL     1       2.383  -0.446  -4.143  1.00  0.00    -0.020 A 
ATOM     25  C   UNL     1       1.719  -1.683  -4.248  1.00  0.00     0.006 A 
ATOM     26  C   UNL     1       3.573  -0.294  -4.875  1.00  0.00     0.006 A 
ATOM     27  C   UNL     1       2.218  -2.716  -5.047  1.00  0.00     0.000 A 
ATOM     28  C   UNL     1       4.062  -1.317  -5.695  1.00  0.00     0.000 A 
ATOM     29  C   UNL     1       3.384  -2.528  -5.782  1.00  0.00     0.000 A 
ENDBRANCH  23  24
BRANCH  23  30
ATOM     30  C   UNL     1       1.526   0.308  -1.776  1.00  0.00     0.068 C 
ATOM     31  O   UNL     1       1.678  -0.879  -1.388  1.00  0.00    -0.548 OA
ATOM     32  O   UNL     1       1.254   1.335  -1.066  1.00  0.00    -0.548 OA
ENDBRANCH  23  30
ENDBRANCH  21  23
ENDBRANCH  18  19
ENDBRANCH  15  18
ENDBRANCH   5  14
ENDBRANCH   3   4
ENDBRANCH   2   3
ENDBRANCH   1   2
BRANCH   1  33
ATOM     33  O   UNL     1       6.694   2.449   0.772  1.00  0.00    -0.374 OA
BRANCH  33  34
ATOM     34  C   UNL     1       6.075   2.510  -0.507  1.00  0.00     0.202 C 
BRANCH  34  35
ATOM     35  C   UNL     1       4.701   1.872  -0.680  1.00  0.00     0.261 C 
BRANCH  35  36
ATOM     36  O   UNL     1       3.869   1.980   0.461  1.00  0.00    -0.460 OA
BRANCH  36  37
ATOM     37  C   UNL     1       3.983   0.926   1.293  1.00  0.00     0.338 C 
ATOM     38  O   UNL     1       4.772  -0.012   1.209  1.00  0.00    -0.246 OA
BRANCH  37  39
ATOM     39  C   UNL     1       3.186   1.196   2.496  1.00  0.00     0.060 A 
ATOM     40  C   UNL     1       3.765   0.862   3.723  1.00  0.00     0.016 A 
ATOM     41  C   UNL     1       1.911   1.770   2.437  1.00  0.00     0.016 A 
ATOM     42  C   UNL     1       3.058   1.070   4.898  1.00  0.00     0.010 A 
ATOM     43  C   UNL     1       1.205   1.992   3.620  1.00  0.00     0.010 A 
ATOM     44  C   UNL     1       1.768   1.618   4.850  1.00  0.00    -0.014 A 
BRANCH  44  45
ATOM     45  C   UNL     1       0.991   1.694   6.103  1.00  0.00     0.031 A 
ATOM     46  C   UNL     1      -0.026   0.632   6.395  1.00  0.00     0.074 A 
ATOM     47  C   UNL     1       1.260   2.661   6.996  1.00  0.00     0.049 A 
ATOM     48  N   UNL     1      -0.747   0.453   7.473  1.00  0.00    -0.248 NA
ATOM     49  C   UNL     1      -0.256  -0.368   5.340  1.00  0.00     0.031 C 
ATOM     50  C   UNL     1       2.244   3.726   6.811  1.00  0.00     0.029 A 
ATOM     51  N   UNL     1       0.739   2.895   8.242  1.00  0.00    -0.354 N 
ATOM     52  C   UNL     1      -1.510  -0.679   7.226  1.00  0.00     0.074 A 
ATOM     53  C   UNL     1      -1.192  -1.129   5.889  1.00  0.00     0.031 C 
ATOM     54  C   UNL     1       2.264   4.497   7.910  1.00  0.00     0.029 A 
ATOM     55  C   UNL     1       1.280   3.991   8.864  1.00  0.00     0.049 A 
ATOM     56  H   UNL     1       0.044   2.330   8.651  1.00  0.00     0.167 HD
ATOM     57  C   UNL     1      -2.390  -1.293   8.052  1.00  0.00     0.037 A 
ATOM     58  C   UNL     1       1.004   4.524  10.069  1.00  0.00     0.037 A 
ATOM     59  C   UNL     1      -2.705  -0.833   9.378  1.00  0.00     0.049 A 
ATOM     60  C   UNL     1      -0.015   3.849  10.947  1.00  0.00     0.074 A 
ATOM     61  C   UNL     1      -3.570  -1.388  10.303  1.00  0.00     0.029 A 
ATOM     62  N   UNL     1      -2.167   0.305   9.962  1.00  0.00    -0.354 N 
ATOM     63  N   UNL     1      -0.701   2.755  10.728  1.00  0.00    -0.248 NA
ATOM     64  C   UNL     1      -0.293   4.482  12.244  1.00  0.00     0.031 C 
ATOM     65  C   UNL     1      -3.587  -0.562  11.433  1.00  0.00     0.029 A 
ATOM     66  C   UNL     1      -2.700   0.484  11.228  1.00  0.00     0.049 A 
ATOM     67  H   UNL     1      -1.504   0.898   9.539  1.00  0.00     0.167 HD
ATOM     68  C   UNL     1      -1.477   2.554  11.859  1.00  0.00     0.074 A 
ATOM     69  C   UNL     1      -1.165   3.635  12.774  1.00  0.00     0.031 C 
ATOM     70  C   UNL     1      -2.369   1.567  12.119  1.00  0.00     0.037 A 
BRANCH  57  71
ATOM     71  C   UNL     1      -3.084  -2.514   7.530  1.00  0.00     0.064 A 
ATOM     72  C   UNL     1      -2.412  -3.737   7.391  1.00  0.00     0.173 A 
ATOM     73  C   UNL     1      -4.444  -2.467   7.189  1.00  0.00     0.173 A 
ATOM     74  F   UNL     1      -1.111  -3.832   7.703  1.00  0.00    -0.203 F 
ATOM     75  C   UNL     1      -3.072  -4.865   6.910  1.00  0.00     0.198 A 
ATOM     76  C   UNL     1      -5.106  -3.603   6.730  1.00  0.00     0.198 A 
ATOM     77  F   UNL     1      -5.135  -1.325   7.317  1.00  0.00    -0.203 F 
ATOM     78  F   UNL     1      -2.405  -6.019   6.762  1.00  0.00    -0.200 F 
ATOM     79  C   UNL     1      -4.418  -4.799   6.585  1.00  0.00     0.200 A 
ATOM     80  F   UNL     1      -6.412  -3.543   6.436  1.00  0.00    -0.200 F 
ATOM     81  F   UNL     1      -5.056  -5.889   6.138  1.00  0.00    -0.200 F 
ENDBRANCH  57  71
BRANCH  58  82
ATOM     82  C   UNL     1       1.708   5.754  10.510  1.00  0.00     0.064 A 
ATOM     83  C   UNL     1       2.648   5.720  11.548  1.00  0.00     0.173 A 
ATOM     84  C   UNL     1       1.455   6.991   9.898  1.00  0.00     0.173 A 
ATOM     85  F   UNL     1       2.905   4.567  12.183  1.00  0.00    -0.203 F 
ATOM     86  C   UNL     1       3.301   6.879  11.965  1.00  0.00     0.198 A 
ATOM     87  C   UNL     1       2.126   8.144  10.299  1.00  0.00     0.198 A 
ATOM     88  F   UNL     1       0.558   7.078   8.904  1.00  0.00    -0.203 F 
ATOM     89  F   UNL     1       4.165   6.828  12.988  1.00  0.00    -0.200 F 
ATOM     90  C   UNL     1       3.044   8.088  11.336  1.00  0.00     0.200 A 
ATOM     91  F   UNL     1       1.879   9.309   9.685  1.00  0.00    -0.200 F 
ATOM     92  F   UNL     1       3.673   9.201  11.737  1.00  0.00    -0.200 F 
ENDBRANCH  58  82
BRANCH  70  93
ATOM     93  C   UNL     1      -3.054   1.599  13.452  1.00  0.00     0.064 A 
ATOM     94  C   UNL     1      -4.070   2.523  13.730  1.00  0.00     0.173 A 
ATOM     95  C   UNL     1      -2.721   0.663  14.443  1.00  0.00     0.173 A 
ATOM     96  F   UNL     1      -4.411   3.448  12.820  1.00  0.00    -0.203 F 
ATOM     97  C   UNL     1      -4.718   2.522  14.963  1.00  0.00     0.198 A 
ATOM     98  C   UNL     1      -3.388   0.649  15.664  1.00  0.00     0.198 A 
ATOM     99  F   UNL     1      -1.759  -0.244  14.223  1.00  0.00    -0.203 F 
ATOM    100  F   UNL     1      -5.659   3.439  15.224  1.00  0.00    -0.200 F 
ATOM    101  C   UNL     1      -4.381   1.581  15.925  1.00  0.00     0.200 A 
ATOM    102  F   UNL     1      -3.070  -0.266  16.590  1.00  0.00    -0.200 F 
ATOM    103  F   UNL     1      -5.011   1.577  17.108  1.00  0.00    -0.200 F 
ENDBRANCH  70  93
ENDBRANCH  44  45
ENDBRANCH  37  39
ENDBRANCH  36  37
ENDBRANCH  35  36
ENDBRANCH  34  35
ENDBRANCH  33  34
ENDBRANCH   1  33
TORSDOF 19
