REMARK SMILES Cc1ccc(S(=O)(=O)Nc2cc3c(cc2C(=O)OCCOCCOC(=O)c2ccc(-c4c5nc(c(-c6c(F)c(F)c(F)c(F)c6F)c6ccc([nH]6)c(-c6c(F)c(F)c(F)c(F)c6F)c6nc(c(-c7c(F)c(F)c(F)c(F)c7F)c7ccc4[nH]7)C=C6)C=C5)cc2)OCCO3)s1
REMARK SMILES IDX 20 1 19 2 18 3 16 4 17 5 15 6 10 7 11 8 12 9 14 10 13 11
REMARK SMILES IDX 93 12 90 13 92 14 91 15 9 16 6 18 7 19 8 20 5 21 1 22 2 23
REMARK SMILES IDX 3 24 94 25 4 26 21 27 22 28 23 29 24 30 25 31 26 32 27 33
REMARK SMILES IDX 28 34 89 35 29 36 88 37 30 38 31 39 32 40 82 41 33 42 87 43
REMARK SMILES IDX 81 44 83 45 34 46 86 47 80 48 79 49 35 51 67 52 47 53 66 54
REMARK SMILES IDX 48 55 51 56 65 57 84 58 49 59 50 60 64 62 85 63 52 64 36 65
REMARK SMILES IDX 37 66 45 67 38 68 39 69 43 70 46 71 40 72 41 73 44 74 42 75
REMARK SMILES IDX 68 76 69 77 77 78 70 79 71 80 75 81 78 82 72 83 73 84 76 85
REMARK SMILES IDX 74 86 53 87 54 88 62 89 55 90 56 91 60 92 63 93 57 94 58 95
REMARK SMILES IDX 61 96 59 97
REMARK H PARENT 9 17 83 50 51 61
REMARK Flexibility Score: inf
ROOT
ATOM      1  C   UNL     1      -0.696   0.037   4.378  1.00  0.00     0.202 C 
ENDROOT
BRANCH   1   2
ATOM      2  C   UNL     1      -1.857  -0.959   4.338  1.00  0.00     0.261 C 
BRANCH   2   3
ATOM      3  O   UNL     1      -1.994  -1.621   3.062  1.00  0.00    -0.460 OA
BRANCH   3   4
ATOM      4  C   UNL     1      -3.231  -1.546   2.509  1.00  0.00     0.340 C 
ATOM      5  O   UNL     1      -4.189  -0.924   2.942  1.00  0.00    -0.246 OA
BRANCH   4   6
ATOM      6  C   UNL     1      -3.335  -2.356   1.281  1.00  0.00     0.088 A 
ATOM      7  C   UNL     1      -3.944  -1.813   0.133  1.00  0.00     0.067 A 
ATOM      8  C   UNL     1      -4.454  -2.677  -0.836  1.00  0.00     0.078 A 
ATOM      9  C   UNL     1      -4.173  -4.039  -0.761  1.00  0.00     0.163 A 
ATOM     10  C   UNL     1      -3.004  -3.715   1.331  1.00  0.00     0.068 A 
ATOM     11  C   UNL     1      -3.383  -4.543   0.278  1.00  0.00     0.162 A 
ATOM     12  O   UNL     1      -4.676  -4.819  -1.770  1.00  0.00    -0.486 OA
ATOM     13  O   UNL     1      -2.982  -5.853   0.338  1.00  0.00    -0.486 OA
ATOM     14  C   UNL     1      -4.576  -6.212  -1.452  1.00  0.00     0.271 C 
ATOM     15  C   UNL     1      -3.188  -6.521  -0.916  1.00  0.00     0.271 C 
BRANCH   7  16
ATOM     16  N   UNL     1      -4.054  -0.392  -0.016  1.00  0.00    -0.278 N 
ATOM     17  H   UNL     1      -4.429   0.157   0.710  1.00  0.00     0.180 HD
BRANCH  16  18
ATOM     18  S   UNL     1      -3.527   0.338  -1.464  1.00  0.00     0.271 S 
ATOM     19  O   UNL     1      -3.406   1.747  -1.164  1.00  0.00    -0.200 OA
ATOM     20  O   UNL     1      -4.364  -0.133  -2.546  1.00  0.00    -0.200 OA
BRANCH  18  21
ATOM     21  C   UNL     1      -1.885  -0.268  -1.851  1.00  0.00     0.140 A 
ATOM     22  C   UNL     1       2.005   0.150  -2.011  1.00  0.00     0.056 C 
ATOM     23  C   UNL     1       0.576  -0.271  -2.067  1.00  0.00     0.003 A 
ATOM     24  C   UNL     1       0.061  -1.548  -2.050  1.00  0.00     0.016 A 
ATOM     25  S   UNL     1      -0.672   0.900  -2.176  1.00  0.00    -0.127 S 
ATOM     26  C   UNL     1      -1.361  -1.545  -1.970  1.00  0.00     0.034 A 
ENDBRANCH  18  21
ENDBRANCH  16  18
ENDBRANCH   7  16
ENDBRANCH   4   6
ENDBRANCH   3   4
ENDBRANCH   2   3
ENDBRANCH   1   2
BRANCH   1  27
ATOM     27  O   UNL     1      -0.826   1.253   3.649  1.00  0.00    -0.374 OA
BRANCH  27  28
ATOM     28  C   UNL     1      -1.225   1.192   2.290  1.00  0.00     0.202 C 
BRANCH  28  29
ATOM     29  C   UNL     1      -0.334   0.432   1.301  1.00  0.00     0.261 C 
BRANCH  29  30
ATOM     30  O   UNL     1       0.722  -0.341   1.865  1.00  0.00    -0.460 OA
BRANCH  30  31
ATOM     31  C   UNL     1       1.912   0.296   1.931  1.00  0.00     0.338 C 
ATOM     32  O   UNL     1       2.203   1.405   1.528  1.00  0.00    -0.246 OA
BRANCH  31  33
ATOM     33  C   UNL     1       2.827  -0.562   2.691  1.00  0.00     0.060 A 
ATOM     34  C   UNL     1       3.280  -0.094   3.925  1.00  0.00     0.016 A 
ATOM     35  C   UNL     1       3.241  -1.799   2.186  1.00  0.00     0.016 A 
ATOM     36  C   UNL     1       4.176  -0.863   4.657  1.00  0.00     0.010 A 
ATOM     37  C   UNL     1       4.141  -2.570   2.924  1.00  0.00     0.010 A 
ATOM     38  C   UNL     1       4.624  -2.094   4.153  1.00  0.00    -0.014 A 
BRANCH  38  39
ATOM     39  C   UNL     1       5.641  -2.842   4.922  1.00  0.00     0.031 A 
ATOM     40  C   UNL     1       7.088  -2.721   4.548  1.00  0.00     0.074 A 
ATOM     41  C   UNL     1       5.257  -3.559   5.992  1.00  0.00     0.049 A 
ATOM     42  N   UNL     1       8.144  -3.176   5.171  1.00  0.00    -0.248 NA
ATOM     43  C   UNL     1       7.388  -1.990   3.307  1.00  0.00     0.031 C 
ATOM     44  C   UNL     1       3.872  -3.739   6.427  1.00  0.00     0.029 A 
ATOM     45  N   UNL     1       5.993  -4.251   6.917  1.00  0.00    -0.354 N 
ATOM     46  C   UNL     1       9.233  -2.771   4.411  1.00  0.00     0.074 A 
ATOM     47  C   UNL     1       8.710  -2.072   3.257  1.00  0.00     0.031 C 
ATOM     48  C   UNL     1       3.858  -4.479   7.547  1.00  0.00     0.029 A 
ATOM     49  C   UNL     1       5.231  -4.833   7.900  1.00  0.00     0.049 A 
ATOM     50  H   UNL     1       6.974  -4.325   6.881  1.00  0.00     0.167 HD
ATOM     51  C   UNL     1      10.549  -2.958   4.669  1.00  0.00     0.037 A 
ATOM     52  C   UNL     1       5.606  -5.561   8.968  1.00  0.00     0.037 A 
ATOM     53  C   UNL     1      11.049  -3.665   5.819  1.00  0.00     0.049 A 
ATOM     54  C   UNL     1       7.076  -5.768   9.219  1.00  0.00     0.074 A 
ATOM     55  C   UNL     1      12.361  -3.899   6.190  1.00  0.00     0.029 A 
ATOM     56  N   UNL     1      10.247  -4.264   6.782  1.00  0.00    -0.354 N 
ATOM     57  N   UNL     1       8.102  -5.329   8.528  1.00  0.00    -0.248 NA
ATOM     58  C   UNL     1       7.441  -6.555  10.403  1.00  0.00     0.031 C 
ATOM     59  C   UNL     1      12.353  -4.679   7.351  1.00  0.00     0.029 A 
ATOM     60  C   UNL     1      11.037  -4.890   7.733  1.00  0.00     0.049 A 
ATOM     61  H   UNL     1       9.263  -4.246   6.788  1.00  0.00     0.167 HD
ATOM     62  C   UNL     1       9.232  -5.772   9.200  1.00  0.00     0.074 A 
ATOM     63  C   UNL     1       8.764  -6.491  10.368  1.00  0.00     0.031 C 
ATOM     64  C   UNL     1      10.540  -5.606   8.881  1.00  0.00     0.037 A 
BRANCH  51  65
ATOM     65  C   UNL     1      11.536  -2.405   3.682  1.00  0.00     0.064 A 
ATOM     66  C   UNL     1      11.766  -1.026   3.565  1.00  0.00     0.173 A 
ATOM     67  C   UNL     1      12.287  -3.266   2.868  1.00  0.00     0.173 A 
ATOM     68  F   UNL     1      11.065  -0.158   4.310  1.00  0.00    -0.203 F 
ATOM     69  C   UNL     1      12.696  -0.528   2.654  1.00  0.00     0.198 A 
ATOM     70  C   UNL     1      13.234  -2.767   1.977  1.00  0.00     0.198 A 
ATOM     71  F   UNL     1      12.107  -4.593   2.941  1.00  0.00    -0.203 F 
ATOM     72  F   UNL     1      12.870   0.795   2.531  1.00  0.00    -0.200 F 
ATOM     73  C   UNL     1      13.433  -1.399   1.866  1.00  0.00     0.200 A 
ATOM     74  F   UNL     1      13.951  -3.610   1.222  1.00  0.00    -0.200 F 
ATOM     75  F   UNL     1      14.332  -0.920   0.995  1.00  0.00    -0.200 F 
ENDBRANCH  51  65
BRANCH  52  76
ATOM     76  C   UNL     1       4.577  -6.125   9.880  1.00  0.00     0.064 A 
ATOM     77  C   UNL     1       4.433  -5.661  11.194  1.00  0.00     0.173 A 
ATOM     78  C   UNL     1       3.711  -7.142   9.450  1.00  0.00     0.173 A 
ATOM     79  F   UNL     1       5.248  -4.703  11.659  1.00  0.00    -0.203 F 
ATOM     80  C   UNL     1       3.475  -6.204  12.050  1.00  0.00     0.198 A 
ATOM     81  C   UNL     1       2.734  -7.664  10.296  1.00  0.00     0.198 A 
ATOM     82  F   UNL     1       3.803  -7.619   8.200  1.00  0.00    -0.203 F 
ATOM     83  F   UNL     1       3.387  -5.771  13.315  1.00  0.00    -0.200 F 
ATOM     84  C   UNL     1       2.623  -7.200  11.598  1.00  0.00     0.200 A 
ATOM     85  F   UNL     1       1.903  -8.614   9.849  1.00  0.00    -0.200 F 
ATOM     86  F   UNL     1       1.697  -7.717  12.418  1.00  0.00    -0.200 F 
ENDBRANCH  52  76
BRANCH  64  87
ATOM     87  C   UNL     1      11.547  -6.208   9.815  1.00  0.00     0.064 A 
ATOM     88  C   UNL     1      11.742  -7.595   9.884  1.00  0.00     0.173 A 
ATOM     89  C   UNL     1      12.341  -5.388  10.630  1.00  0.00     0.173 A 
ATOM     90  F   UNL     1      10.995  -8.420   9.134  1.00  0.00    -0.203 F 
ATOM     91  C   UNL     1      12.675  -8.142  10.760  1.00  0.00     0.198 A 
ATOM     92  C   UNL     1      13.294  -5.937  11.483  1.00  0.00     0.198 A 
ATOM     93  F   UNL     1      12.197  -4.055  10.595  1.00  0.00    -0.203 F 
ATOM     94  F   UNL     1      12.808  -9.473  10.848  1.00  0.00    -0.200 F 
ATOM     95  C   UNL     1      13.454  -7.313  11.554  1.00  0.00     0.200 A 
ATOM     96  F   UNL     1      14.055  -5.135  12.240  1.00  0.00    -0.200 F 
ATOM     97  F   UNL     1      14.354  -7.842  12.395  1.00  0.00    -0.200 F 
ENDBRANCH  64  87
ENDBRANCH  38  39
ENDBRANCH  31  33
ENDBRANCH  30  31
ENDBRANCH  29  30
ENDBRANCH  28  29
ENDBRANCH  27  28
ENDBRANCH   1  27
TORSDOF 17
