REMARK SMILES Cc1ccc(-c2cc(C(=O)OCCOCCOC(=O)c3ccc(-c4c5nc(c(-c6c(F)c(F)c(F)c(F)c6F)c6ccc([nH]6)c(-c6c(F)c(F)c(F)c(F)c6F)c6nc(c(-c7c(F)c(F)c(F)c(F)c7F)c7ccc4[nH]7)C=C6)C=C5)cc3)c3cc(C)ccc3n2)c(C)c1
REMARK SMILES IDX 15 1 14 2 13 3 12 4 11 5 9 6 10 7 8 8 6 9 7 10 90 11 89 12
REMARK SMILES IDX 83 13 88 14 84 15 87 16 85 17 86 18 5 19 1 20 2 21 3 22
REMARK SMILES IDX 93 23 4 24 91 25 92 26 16 27 17 28 18 29 19 30 20 31 21 32
REMARK SMILES IDX 82 33 22 34 81 35 23 36 24 37 25 38 75 39 26 40 80 41 74 42
REMARK SMILES IDX 76 43 27 44 79 45 73 46 72 47 28 49 60 50 40 51 59 52 41 53
REMARK SMILES IDX 44 54 58 55 77 56 42 57 43 58 57 60 78 61 45 62 29 63 30 64
REMARK SMILES IDX 38 65 31 66 32 67 36 68 39 69 33 70 34 71 37 72 35 73 61 74
REMARK SMILES IDX 62 75 70 76 63 77 64 78 68 79 71 80 65 81 66 82 69 83 67 84
REMARK SMILES IDX 46 85 47 86 55 87 48 88 49 89 53 90 56 91 50 92 51 93 54 94
REMARK SMILES IDX 52 95
REMARK H PARENT 76 48 44 59
REMARK Flexibility Score: inf
ROOT
ATOM      1  C   UNL     1      -2.819  -6.185   2.241  1.00  0.00     0.202 C 
ENDROOT
BRANCH   1   2
ATOM      2  O   UNL     1      -3.310  -6.531   3.537  1.00  0.00    -0.374 OA
BRANCH   2   3
ATOM      3  C   UNL     1      -4.726  -6.516   3.727  1.00  0.00     0.202 C 
BRANCH   3   4
ATOM      4  C   UNL     1      -5.349  -5.127   3.870  1.00  0.00     0.261 C 
BRANCH   4   5
ATOM      5  O   UNL     1      -5.290  -4.441   2.608  1.00  0.00    -0.460 OA
BRANCH   5   6
ATOM      6  C   UNL     1      -4.815  -3.178   2.654  1.00  0.00     0.338 C 
ATOM      7  O   UNL     1      -4.601  -2.518   3.660  1.00  0.00    -0.246 OA
BRANCH   6   8
ATOM      8  C   UNL     1      -4.373  -2.743   1.310  1.00  0.00     0.071 A 
ATOM      9  C   UNL     1      -2.630  -1.669   0.082  1.00  0.00     0.072 A 
ATOM     10  C   UNL     1      -3.105  -2.158   1.282  1.00  0.00     0.045 A 
ATOM     11  N   UNL     1      -3.349  -1.741  -1.059  1.00  0.00    -0.248 NA
ATOM     12  C   UNL     1      -4.567  -2.308  -1.034  1.00  0.00     0.072 A 
ATOM     13  C   UNL     1      -5.146  -2.854   0.130  1.00  0.00     0.015 A 
ATOM     14  C   UNL     1      -5.285  -2.335  -2.220  1.00  0.00     0.029 A 
ATOM     15  C   UNL     1      -6.436  -3.443   0.033  1.00  0.00     0.014 A 
ATOM     16  C   UNL     1      -6.553  -2.912  -2.306  1.00  0.00     0.005 A 
ATOM     17  C   UNL     1      -7.138  -3.480  -1.179  1.00  0.00    -0.050 A 
ATOM     18  C   UNL     1      -8.469  -4.166  -1.265  1.00  0.00     0.044 C 
BRANCH   9  19
ATOM     19  C   UNL     1      -1.345  -0.969   0.003  1.00  0.00     0.003 A 
ATOM     20  C   UNL     1       2.507   1.013  -0.028  1.00  0.00     0.044 C 
ATOM     21  C   UNL     1       1.181   0.312  -0.029  1.00  0.00    -0.051 A 
ATOM     22  C   UNL     1       1.098  -1.081  -0.033  1.00  0.00     0.004 A 
ATOM     23  C   UNL     1      -0.001   1.062  -0.022  1.00  0.00     0.007 A 
ATOM     24  C   UNL     1      -0.149  -1.712  -0.019  1.00  0.00     0.011 A 
ATOM     25  C   UNL     1      -1.263   0.440   0.000  1.00  0.00    -0.041 A 
ATOM     26  C   UNL     1      -2.480   1.327  -0.002  1.00  0.00     0.045 C 
ENDBRANCH   9  19
ENDBRANCH   6   8
ENDBRANCH   5   6
ENDBRANCH   4   5
ENDBRANCH   3   4
ENDBRANCH   2   3
ENDBRANCH   1   2
BRANCH   1  27
ATOM     27  C   UNL     1      -2.859  -7.299   1.189  1.00  0.00     0.261 C 
BRANCH  27  28
ATOM     28  O   UNL     1      -4.204  -7.684   0.852  1.00  0.00    -0.460 OA
BRANCH  28  29
ATOM     29  C   UNL     1      -4.582  -8.895   1.319  1.00  0.00     0.338 C 
ATOM     30  O   UNL     1      -3.897  -9.703   1.933  1.00  0.00    -0.246 OA
BRANCH  29  31
ATOM     31  C   UNL     1      -6.032  -9.080   1.135  1.00  0.00     0.060 A 
ATOM     32  C   UNL     1      -6.784  -9.462   2.253  1.00  0.00     0.016 A 
ATOM     33  C   UNL     1      -6.635  -8.965  -0.120  1.00  0.00     0.016 A 
ATOM     34  C   UNL     1      -8.133  -9.779   2.113  1.00  0.00     0.010 A 
ATOM     35  C   UNL     1      -7.987  -9.294  -0.261  1.00  0.00     0.010 A 
ATOM     36  C   UNL     1      -8.733  -9.735   0.847  1.00  0.00    -0.014 A 
BRANCH  36  37
ATOM     37  C   UNL     1     -10.095 -10.291   0.664  1.00  0.00     0.031 A 
ATOM     38  C   UNL     1     -10.246 -11.690   0.132  1.00  0.00     0.074 A 
ATOM     39  C   UNL     1     -11.182  -9.576   1.003  1.00  0.00     0.049 A 
ATOM     40  N   UNL     1     -11.335 -12.364  -0.139  1.00  0.00    -0.248 NA
ATOM     41  C   UNL     1      -9.001 -12.429  -0.129  1.00  0.00     0.031 C 
ATOM     42  C   UNL     1     -11.163  -8.232   1.576  1.00  0.00     0.029 A 
ATOM     43  N   UNL     1     -12.516  -9.886   0.910  1.00  0.00    -0.354 N 
ATOM     44  C   UNL     1     -10.908 -13.604  -0.596  1.00  0.00     0.074 A 
ATOM     45  C   UNL     1      -9.461 -13.578  -0.602  1.00  0.00     0.031 C 
ATOM     46  C   UNL     1     -12.429  -7.828   1.778  1.00  0.00     0.029 A 
ATOM     47  C   UNL     1     -13.345  -8.871   1.319  1.00  0.00     0.049 A 
ATOM     48  H   UNL     1     -12.847 -10.753   0.582  1.00  0.00     0.167 HD
ATOM     49  C   UNL     1     -11.654 -14.672  -0.965  1.00  0.00     0.037 A 
ATOM     50  C   UNL     1     -14.690  -8.790   1.303  1.00  0.00     0.037 A 
ATOM     51  C   UNL     1     -13.093 -14.696  -0.966  1.00  0.00     0.049 A 
ATOM     52  C   UNL     1     -15.495  -9.960   0.799  1.00  0.00     0.074 A 
ATOM     53  C   UNL     1     -13.940 -15.727  -1.332  1.00  0.00     0.029 A 
ATOM     54  N   UNL     1     -13.898 -13.634  -0.584  1.00  0.00    -0.354 N 
ATOM     55  N   UNL     1     -15.084 -11.131   0.378  1.00  0.00    -0.248 NA
ATOM     56  C   UNL     1     -16.956  -9.794   0.768  1.00  0.00     0.031 C 
ATOM     57  C   UNL     1     -15.258 -15.275  -1.211  1.00  0.00     0.029 A 
ATOM     58  C   UNL     1     -15.233 -13.978  -0.724  1.00  0.00     0.049 A 
ATOM     59  H   UNL     1     -13.570 -12.763  -0.262  1.00  0.00     0.167 HD
ATOM     60  C   UNL     1     -16.230 -11.851   0.068  1.00  0.00     0.074 A 
ATOM     61  C   UNL     1     -17.356 -10.989   0.358  1.00  0.00     0.031 C 
ATOM     62  C   UNL     1     -16.342 -13.114  -0.412  1.00  0.00     0.037 A 
BRANCH  49  63
ATOM     63  C   UNL     1     -10.924 -15.903  -1.416  1.00  0.00     0.064 A 
ATOM     64  C   UNL     1     -10.235 -16.721  -0.507  1.00  0.00     0.173 A 
ATOM     65  C   UNL     1     -10.945 -16.292  -2.764  1.00  0.00     0.173 A 
ATOM     66  F   UNL     1     -10.174 -16.385   0.790  1.00  0.00    -0.203 F 
ATOM     67  C   UNL     1      -9.577 -17.870  -0.935  1.00  0.00     0.198 A 
ATOM     68  C   UNL     1     -10.308 -17.456  -3.184  1.00  0.00     0.198 A 
ATOM     69  F   UNL     1     -11.593 -15.546  -3.672  1.00  0.00    -0.203 F 
ATOM     70  F   UNL     1      -8.891 -18.614  -0.057  1.00  0.00    -0.200 F 
ATOM     71  C   UNL     1      -9.620 -18.241  -2.271  1.00  0.00     0.200 A 
ATOM     72  F   UNL     1     -10.360 -17.819  -4.473  1.00  0.00    -0.200 F 
ATOM     73  F   UNL     1      -8.992 -19.352  -2.680  1.00  0.00    -0.200 F 
ENDBRANCH  49  63
BRANCH  50  74
ATOM     74  C   UNL     1     -15.370  -7.552   1.768  1.00  0.00     0.064 A 
ATOM     75  C   UNL     1     -16.158  -7.552   2.927  1.00  0.00     0.173 A 
ATOM     76  C   UNL     1     -15.279  -6.356   1.041  1.00  0.00     0.173 A 
ATOM     77  F   UNL     1     -16.298  -8.679   3.641  1.00  0.00    -0.203 F 
ATOM     78  C   UNL     1     -16.848  -6.410   3.328  1.00  0.00     0.198 A 
ATOM     79  C   UNL     1     -15.946  -5.207   1.459  1.00  0.00     0.198 A 
ATOM     80  F   UNL     1     -14.540  -6.303  -0.077  1.00  0.00    -0.203 F 
ATOM     81  F   UNL     1     -17.638  -6.453   4.410  1.00  0.00    -0.200 F 
ATOM     82  C   UNL     1     -16.739  -5.237   2.596  1.00  0.00     0.200 A 
ATOM     83  F   UNL     1     -15.829  -4.073   0.754  1.00  0.00    -0.200 F 
ATOM     84  F   UNL     1     -17.406  -4.141   2.980  1.00  0.00    -0.200 F 
ENDBRANCH  50  74
BRANCH  62  85
ATOM     85  C   UNL     1     -17.727 -13.658  -0.609  1.00  0.00     0.064 A 
ATOM     86  C   UNL     1     -18.552 -13.216  -1.653  1.00  0.00     0.173 A 
ATOM     87  C   UNL     1     -18.219 -14.666   0.235  1.00  0.00     0.173 A 
ATOM     88  F   UNL     1     -18.134 -12.244  -2.478  1.00  0.00    -0.203 F 
ATOM     89  C   UNL     1     -19.829 -13.744  -1.828  1.00  0.00     0.198 A 
ATOM     90  C   UNL     1     -19.484 -15.212   0.039  1.00  0.00     0.198 A 
ATOM     91  F   UNL     1     -17.466 -15.129   1.245  1.00  0.00    -0.203 F 
ATOM     92  F   UNL     1     -20.618 -13.273  -2.804  1.00  0.00    -0.200 F 
ATOM     93  C   UNL     1     -20.291 -14.745  -0.987  1.00  0.00     0.200 A 
ATOM     94  F   UNL     1     -19.923 -16.189   0.845  1.00  0.00    -0.200 F 
ATOM     95  F   UNL     1     -21.517 -15.257  -1.162  1.00  0.00    -0.200 F 
ENDBRANCH  62  85
ENDBRANCH  36  37
ENDBRANCH  29  31
ENDBRANCH  28  29
ENDBRANCH  27  28
ENDBRANCH   1  27
TORSDOF 15
