REMARK SMILES COc1cc(/N=N/c2ccccc2)ccc1NC(=O)[C@H]1CC=CC[C@@H]1C(=O)OCCOCCOC(=O)c1ccc(-c2c3nc(c(-c4c(F)c(F)c(F)c(F)c4F)c4ccc([nH]4)c(-c4c(F)c(F)c(F)c(F)c4F)c4nc(c(-c5c(F)c(F)c(F)c(F)c5F)c5ccc2[nH]5)C=C4)C=C3)cc1
REMARK SMILES IDX 30 1 29 2 28 3 26 4 27 5 25 6 20 7 21 8 22 9 24 10 23 11
REMARK SMILES IDX 18 12 17 13 19 15 16 16 3 17 4 18 5 19 15 20 14 21 2 22 1 23
REMARK SMILES IDX 6 24 7 25 8 26 9 27 13 28 10 29 12 30 11 31 31 32 32 33
REMARK SMILES IDX 33 34 34 35 35 36 36 37 37 38 38 39 99 40 39 41 98 42 40 43
REMARK SMILES IDX 41 44 42 45 92 46 43 47 97 48 91 49 93 50 44 51 96 52 90 53
REMARK SMILES IDX 89 54 45 56 77 57 57 58 76 59 58 60 61 61 75 62 94 63 59 64
REMARK SMILES IDX 60 65 74 67 95 68 62 69 46 70 47 71 55 72 48 73 49 74 53 75
REMARK SMILES IDX 56 76 50 77 51 78 54 79 52 80 78 81 79 82 87 83 80 84 81 85
REMARK SMILES IDX 85 86 88 87 82 88 83 89 86 90 84 91 63 92 64 93 72 94 65 95
REMARK SMILES IDX 66 96 70 97 73 98 67 99 68 100 71 101 69 102
REMARK H PARENT 17 14 93 55 61 66
REMARK Flexibility Score: inf
ROOT
ATOM      1  C   UNL     1       9.158   4.790   4.592  1.00  0.00     0.202 C 
ENDROOT
BRANCH   1   2
ATOM      2  C   UNL     1       8.278   4.012   5.582  1.00  0.00     0.261 C 
BRANCH   2   3
ATOM      3  O   UNL     1       7.559   2.919   5.005  1.00  0.00    -0.463 OA
BRANCH   3   4
ATOM      4  C   UNL     1       6.293   3.247   4.607  1.00  0.00     0.310 C 
ATOM      5  O   UNL     1       5.793   4.356   4.742  1.00  0.00    -0.252 OA
BRANCH   4   6
ATOM      6  C   UNL     1       5.637   2.076   3.893  1.00  0.00     0.116 C 
ATOM      7  C   UNL     1       4.508   2.588   2.955  1.00  0.00     0.097 C 
ATOM      8  C   UNL     1       3.315   3.112   3.789  1.00  0.00     0.041 C 
ATOM      9  C   UNL     1       3.059   2.395   5.080  1.00  0.00    -0.030 C 
ATOM     10  C   UNL     1       5.138   1.040   4.907  1.00  0.00     0.043 C 
ATOM     11  C   UNL     1       3.857   1.440   5.569  1.00  0.00    -0.030 C 
BRANCH   7  12
ATOM     12  C   UNL     1       4.165   1.502   1.920  1.00  0.00     0.228 C 
ATOM     13  N   UNL     1       3.088   1.579   1.085  1.00  0.00    -0.323 N 
ATOM     14  H   UNL     1       2.916   0.762   0.563  1.00  0.00     0.170 HD
ATOM     15  O   UNL     1       4.872   0.494   1.798  1.00  0.00    -0.274 OA
BRANCH  13  16
ATOM     16  C   UNL     1       2.186   2.627   0.844  1.00  0.00     0.083 A 
ATOM     17  C   UNL     1       0.798   2.394   0.789  1.00  0.00     0.144 A 
ATOM     18  C   UNL     1      -0.080   3.490   0.873  1.00  0.00     0.079 A 
ATOM     19  C   UNL     1       0.398   4.803   0.939  1.00  0.00     0.090 A 
ATOM     20  C   UNL     1       2.660   3.940   0.763  1.00  0.00     0.032 A 
ATOM     21  C   UNL     1       1.775   5.015   0.812  1.00  0.00     0.033 A 
BRANCH  17  22
ATOM     22  O   UNL     1       0.169   1.178   0.867  1.00  0.00    -0.494 OA
ATOM     23  C   UNL     1       0.672   0.126   0.053  1.00  0.00     0.278 C 
ENDBRANCH  17  22
BRANCH  19  24
ATOM     24  N   UNL     1      -0.487   5.887   1.127  1.00  0.00    -0.150 NA
ATOM     25  N   UNL     1      -0.130   6.544   2.134  1.00  0.00    -0.151 NA
BRANCH  25  26
ATOM     26  C   UNL     1      -0.868   7.731   2.273  1.00  0.00     0.086 A 
ATOM     27  C   UNL     1      -0.245   8.960   2.020  1.00  0.00     0.030 A 
ATOM     28  C   UNL     1      -2.182   7.725   2.750  1.00  0.00     0.030 A 
ATOM     29  C   UNL     1      -0.929  10.161   2.218  1.00  0.00     0.002 A 
ATOM     30  C   UNL     1      -2.870   8.925   2.950  1.00  0.00     0.002 A 
ATOM     31  C   UNL     1      -2.243  10.142   2.683  1.00  0.00     0.000 A 
ENDBRANCH  25  26
ENDBRANCH  19  24
ENDBRANCH  13  16
ENDBRANCH   7  12
ENDBRANCH   4   6
ENDBRANCH   3   4
ENDBRANCH   2   3
ENDBRANCH   1   2
BRANCH   1  32
ATOM     32  O   UNL     1       8.653   5.080   3.296  1.00  0.00    -0.374 OA
BRANCH  32  33
ATOM     33  C   UNL     1       8.517   4.024   2.346  1.00  0.00     0.202 C 
BRANCH  33  34
ATOM     34  C   UNL     1       9.752   3.199   1.969  1.00  0.00     0.261 C 
BRANCH  34  35
ATOM     35  O   UNL     1      10.239   2.408   3.068  1.00  0.00    -0.460 OA
BRANCH  35  36
ATOM     36  C   UNL     1      11.523   2.652   3.416  1.00  0.00     0.338 C 
ATOM     37  O   UNL     1      12.309   3.426   2.884  1.00  0.00    -0.246 OA
BRANCH  36  38
ATOM     38  C   UNL     1      11.835   1.975   4.681  1.00  0.00     0.060 A 
ATOM     39  C   UNL     1      12.187   2.765   5.784  1.00  0.00     0.016 A 
ATOM     40  C   UNL     1      11.906   0.584   4.745  1.00  0.00     0.016 A 
ATOM     41  C   UNL     1      12.658   2.164   6.948  1.00  0.00     0.010 A 
ATOM     42  C   UNL     1      12.393  -0.017   5.907  1.00  0.00     0.010 A 
ATOM     43  C   UNL     1      12.807   0.773   6.996  1.00  0.00    -0.014 A 
BRANCH  43  44
ATOM     44  C   UNL     1      13.566   0.153   8.106  1.00  0.00     0.031 A 
ATOM     45  C   UNL     1      15.014  -0.182   7.883  1.00  0.00     0.074 A 
ATOM     46  C   UNL     1      12.976  -0.105   9.285  1.00  0.00     0.049 A 
ATOM     47  N   UNL     1      15.849  -0.823   8.660  1.00  0.00    -0.248 NA
ATOM     48  C   UNL     1      15.600   0.262   6.607  1.00  0.00     0.031 C 
ATOM     49  C   UNL     1      11.596   0.227   9.631  1.00  0.00     0.029 A 
ATOM     50  N   UNL     1      13.466  -0.724  10.407  1.00  0.00    -0.354 N 
ATOM     51  C   UNL     1      17.047  -0.876   7.961  1.00  0.00     0.074 A 
ATOM     52  C   UNL     1      16.833  -0.216   6.692  1.00  0.00     0.031 C 
ATOM     53  C   UNL     1      11.342  -0.212  10.876  1.00  0.00     0.029 A 
ATOM     54  C   UNL     1      12.528  -0.889  11.396  1.00  0.00     0.049 A 
ATOM     55  H   UNL     1      14.401  -1.022  10.495  1.00  0.00     0.167 HD
ATOM     56  C   UNL     1      18.221  -1.429   8.347  1.00  0.00     0.037 A 
ATOM     57  C   UNL     1      12.616  -1.543  12.570  1.00  0.00     0.037 A 
ATOM     58  C   UNL     1      18.429  -2.070   9.617  1.00  0.00     0.049 A 
ATOM     59  C   UNL     1      13.917  -2.208  12.945  1.00  0.00     0.074 A 
ATOM     60  C   UNL     1      19.587  -2.640  10.116  1.00  0.00     0.029 A 
ATOM     61  N   UNL     1      17.452  -2.229  10.588  1.00  0.00    -0.354 N 
ATOM     62  N   UNL     1      15.052  -2.238  12.290  1.00  0.00    -0.248 NA
ATOM     63  C   UNL     1      13.947  -2.933  14.224  1.00  0.00     0.031 C 
ATOM     64  C   UNL     1      19.297  -3.188  11.369  1.00  0.00     0.029 A 
ATOM     65  C   UNL     1      17.974  -2.909  11.675  1.00  0.00     0.049 A 
ATOM     66  H   UNL     1      16.525  -1.906  10.515  1.00  0.00     0.167 HD
ATOM     67  C   UNL     1      15.940  -2.943  13.093  1.00  0.00     0.074 A 
ATOM     68  C   UNL     1      15.212  -3.323  14.286  1.00  0.00     0.031 C 
ATOM     69  C   UNL     1      17.241  -3.246  12.867  1.00  0.00     0.037 A 
BRANCH  56  70
ATOM     70  C   UNL     1      19.365  -1.393   7.379  1.00  0.00     0.064 A 
ATOM     71  C   UNL     1      20.062  -0.209   7.101  1.00  0.00     0.173 A 
ATOM     72  C   UNL     1      19.807  -2.576   6.767  1.00  0.00     0.173 A 
ATOM     73  F   UNL     1      19.670   0.950   7.650  1.00  0.00    -0.203 F 
ATOM     74  C   UNL     1      21.153  -0.208   6.235  1.00  0.00     0.198 A 
ATOM     75  C   UNL     1      20.914  -2.577   5.923  1.00  0.00     0.198 A 
ATOM     76  F   UNL     1      19.175  -3.736   7.002  1.00  0.00    -0.203 F 
ATOM     77  F   UNL     1      21.786   0.940   5.957  1.00  0.00    -0.200 F 
ATOM     78  C   UNL     1      21.584  -1.393   5.654  1.00  0.00     0.200 A 
ATOM     79  F   UNL     1      21.335  -3.724   5.373  1.00  0.00    -0.200 F 
ATOM     80  F   UNL     1      22.643  -1.393   4.834  1.00  0.00    -0.200 F 
ENDBRANCH  56  70
BRANCH  57  81
ATOM     81  C   UNL     1      11.438  -1.627  13.473  1.00  0.00     0.064 A 
ATOM     82  C   UNL     1      11.442  -0.998  14.726  1.00  0.00     0.173 A 
ATOM     83  C   UNL     1      10.302  -2.373  13.123  1.00  0.00     0.173 A 
ATOM     84  F   UNL     1      12.515  -0.294  15.118  1.00  0.00    -0.203 F 
ATOM     85  C   UNL     1      10.369  -1.135  15.605  1.00  0.00     0.198 A 
ATOM     86  C   UNL     1       9.217  -2.484  13.990  1.00  0.00     0.198 A 
ATOM     87  F   UNL     1      10.247  -2.996  11.937  1.00  0.00    -0.203 F 
ATOM     88  F   UNL     1      10.426  -0.573  16.820  1.00  0.00    -0.200 F 
ATOM     89  C   UNL     1       9.257  -1.875  15.235  1.00  0.00     0.200 A 
ATOM     90  F   UNL     1       8.140  -3.192  13.624  1.00  0.00    -0.200 F 
ATOM     91  F   UNL     1       8.228  -2.013  16.083  1.00  0.00    -0.200 F 
ENDBRANCH  57  81
BRANCH  69  92
ATOM     92  C   UNL     1      17.987  -3.964  13.954  1.00  0.00     0.064 A 
ATOM     93  C   UNL     1      17.765  -5.319  14.233  1.00  0.00     0.173 A 
ATOM     94  C   UNL     1      18.985  -3.296  14.680  1.00  0.00     0.173 A 
ATOM     95  F   UNL     1      16.813  -5.997  13.575  1.00  0.00    -0.203 F 
ATOM     96  C   UNL     1      18.504  -5.976  15.214  1.00  0.00     0.198 A 
ATOM     97  C   UNL     1      19.742  -3.963  15.638  1.00  0.00     0.198 A 
ATOM     98  F   UNL     1      19.242  -2.001  14.443  1.00  0.00    -0.203 F 
ATOM     99  F   UNL     1      18.249  -7.262  15.493  1.00  0.00    -0.200 F 
ATOM    100  C   UNL     1      19.497  -5.301  15.908  1.00  0.00     0.200 A 
ATOM    101  F   UNL     1      20.712  -3.313  16.296  1.00  0.00    -0.200 F 
ATOM    102  F   UNL     1      20.216  -5.939  16.842  1.00  0.00    -0.200 F 
ENDBRANCH  69  92
ENDBRANCH  43  44
ENDBRANCH  36  38
ENDBRANCH  35  36
ENDBRANCH  34  35
ENDBRANCH  33  34
ENDBRANCH  32  33
ENDBRANCH   1  32
TORSDOF 19
