REMARK SMILES CSc1ccc(/C=C2\C(C)=C(CC(=O)OCCOCCOC(=O)c3ccc(-c4c5nc(c(-c6c(F)c(F)c(F)c(F)c6F)c6ccc([nH]6)c(-c6c(F)c(F)c(F)c(F)c6F)c6nc(c(-c7c(F)c(F)c(F)c(F)c7F)c7ccc4[nH]7)C=C6)C=C5)cc3)c3cc(F)ccc32)cc1
REMARK SMILES IDX 17 1 16 2 15 3 13 4 14 5 12 6 11 7 7 8 8 9 9 10 93 11 10 12
REMARK SMILES IDX 87 13 92 14 88 15 91 16 89 17 90 18 6 19 3 20 4 21 95 22
REMARK SMILES IDX 5 23 94 24 2 25 1 26 18 27 19 28 20 29 21 30 22 31 23 32
REMARK SMILES IDX 24 33 25 34 86 35 26 36 85 37 27 38 28 39 29 40 79 41 30 42
REMARK SMILES IDX 84 43 78 44 80 45 31 46 83 47 77 48 76 49 32 51 64 52 44 53
REMARK SMILES IDX 63 54 45 55 48 56 62 57 81 58 46 59 47 60 61 62 82 63 49 64
REMARK SMILES IDX 33 65 34 66 42 67 35 68 36 69 40 70 43 71 37 72 38 73 41 74
REMARK SMILES IDX 39 75 65 76 66 77 74 78 67 79 68 80 72 81 75 82 69 83 70 84
REMARK SMILES IDX 73 85 71 86 50 87 51 88 59 89 52 90 53 91 57 92 60 93 54 94
REMARK SMILES IDX 55 95 58 96 56 97
REMARK H PARENT 80 50 48 61
REMARK Flexibility Score: inf
ROOT
ATOM      1  C   UNL     1      -0.625   1.730  11.870  1.00  0.00     0.202 C 
ENDROOT
BRANCH   1   2
ATOM      2  C   UNL     1      -0.400   2.995  11.040  1.00  0.00     0.261 C 
BRANCH   2   3
ATOM      3  O   UNL     1       0.196   2.717   9.761  1.00  0.00    -0.463 OA
BRANCH   3   4
ATOM      4  C   UNL     1       1.435   3.243   9.577  1.00  0.00     0.310 C 
ATOM      5  O   UNL     1       2.040   3.921  10.403  1.00  0.00    -0.252 OA
BRANCH   4   6
ATOM      6  C   UNL     1       1.999   3.001   8.194  1.00  0.00     0.159 C 
BRANCH   6   7
ATOM      7  C   UNL     1       1.585   1.725   7.455  1.00  0.00    -0.025 C 
ATOM      8  C   UNL     1       2.695   2.682   4.275  1.00  0.00     0.017 C 
ATOM      9  C   UNL     1       2.396   1.977   5.374  1.00  0.00    -0.014 C 
ATOM     10  C   UNL     1       1.146   1.858   6.167  1.00  0.00    -0.039 C 
ATOM     11  C   UNL     1       3.344   1.059   6.027  1.00  0.00    -0.010 A 
ATOM     12  C   UNL     1       0.219   0.770   5.625  1.00  0.00     0.045 C 
ATOM     13  C   UNL     1       2.737   0.785   7.266  1.00  0.00    -0.011 A 
ATOM     14  C   UNL     1       4.282   0.210   5.457  1.00  0.00     0.012 A 
ATOM     15  C   UNL     1       2.997  -0.407   7.917  1.00  0.00     0.048 A 
ATOM     16  C   UNL     1       4.559  -0.983   6.125  1.00  0.00     0.040 A 
ATOM     17  C   UNL     1       3.901  -1.288   7.324  1.00  0.00     0.123 A 
ATOM     18  F   UNL     1       4.075  -2.501   7.868  1.00  0.00    -0.207 F 
BRANCH   8  19
ATOM     19  C   UNL     1       1.815   3.306   3.264  1.00  0.00    -0.025 A 
ATOM     20  C   UNL     1       0.627   3.130   0.759  1.00  0.00     0.007 A 
ATOM     21  C   UNL     1      -0.118   2.832   1.896  1.00  0.00     0.015 A 
ATOM     22  C   UNL     1       1.859   3.768   0.888  1.00  0.00     0.015 A 
ATOM     23  C   UNL     1       0.466   2.965   3.152  1.00  0.00     0.009 A 
ATOM     24  C   UNL     1       2.453   3.863   2.147  1.00  0.00     0.009 A 
BRANCH  20  25
ATOM     25  S   UNL     1       0.150   2.429  -0.807  1.00  0.00    -0.130 SA
ATOM     26  C   UNL     1       0.745   0.735  -0.477  1.00  0.00     0.091 C 
ENDBRANCH  20  25
ENDBRANCH   8  19
ENDBRANCH   6   7
ENDBRANCH   4   6
ENDBRANCH   3   4
ENDBRANCH   2   3
ENDBRANCH   1   2
BRANCH   1  27
ATOM     27  O   UNL     1       0.559   1.034  12.255  1.00  0.00    -0.374 OA
BRANCH  27  28
ATOM     28  C   UNL     1       1.178   0.199  11.271  1.00  0.00     0.202 C 
BRANCH  28  29
ATOM     29  C   UNL     1       0.302  -0.951  10.770  1.00  0.00     0.261 C 
BRANCH  29  30
ATOM     30  O   UNL     1      -0.634  -0.451   9.797  1.00  0.00    -0.460 OA
BRANCH  30  31
ATOM     31  C   UNL     1      -1.710  -1.251   9.625  1.00  0.00     0.338 C 
ATOM     32  O   UNL     1      -1.850  -2.397  10.007  1.00  0.00    -0.246 OA
BRANCH  31  33
ATOM     33  C   UNL     1      -2.811  -0.448   9.070  1.00  0.00     0.060 A 
ATOM     34  C   UNL     1      -3.781   0.024   9.960  1.00  0.00     0.016 A 
ATOM     35  C   UNL     1      -2.952  -0.263   7.695  1.00  0.00     0.016 A 
ATOM     36  C   UNL     1      -4.930   0.640   9.467  1.00  0.00     0.010 A 
ATOM     37  C   UNL     1      -4.102   0.365   7.202  1.00  0.00     0.010 A 
ATOM     38  C   UNL     1      -5.117   0.781   8.084  1.00  0.00    -0.014 A 
BRANCH  38  39
ATOM     39  C   UNL     1      -6.441   1.226   7.579  1.00  0.00     0.031 A 
ATOM     40  C   UNL     1      -7.423   0.200   7.078  1.00  0.00     0.074 A 
ATOM     41  C   UNL     1      -6.797   2.523   7.626  1.00  0.00     0.049 A 
ATOM     42  N   UNL     1      -8.654   0.362   6.663  1.00  0.00    -0.248 NA
ATOM     43  C   UNL     1      -6.957  -1.195   7.044  1.00  0.00     0.031 C 
ATOM     44  C   UNL     1      -5.949   3.613   8.103  1.00  0.00     0.029 A 
ATOM     45  N   UNL     1      -7.972   3.138   7.272  1.00  0.00    -0.354 N 
ATOM     46  C   UNL     1      -9.108  -0.905   6.322  1.00  0.00     0.074 A 
ATOM     47  C   UNL     1      -8.011  -1.822   6.544  1.00  0.00     0.031 C 
ATOM     48  C   UNL     1      -6.634   4.766   8.015  1.00  0.00     0.029 A 
ATOM     49  C   UNL     1      -7.960   4.498   7.460  1.00  0.00     0.049 A 
ATOM     50  H   UNL     1      -8.750   2.651   6.917  1.00  0.00     0.167 HD
ATOM     51  C   UNL     1     -10.334  -1.275   5.880  1.00  0.00     0.037 A 
ATOM     52  C   UNL     1      -8.909   5.421   7.207  1.00  0.00     0.037 A 
ATOM     53  C   UNL     1     -11.434  -0.372   5.670  1.00  0.00     0.049 A 
ATOM     54  C   UNL     1     -10.247   4.988   6.667  1.00  0.00     0.074 A 
ATOM     55  C   UNL     1     -12.727  -0.666   5.270  1.00  0.00     0.029 A 
ATOM     56  N   UNL     1     -11.370   1.002   5.835  1.00  0.00    -0.354 N 
ATOM     57  N   UNL     1     -10.684   3.780   6.407  1.00  0.00    -0.248 NA
ATOM     58  C   UNL     1     -11.227   6.050   6.394  1.00  0.00     0.031 C 
ATOM     59  C   UNL     1     -13.431   0.536   5.147  1.00  0.00     0.029 A 
ATOM     60  C   UNL     1     -12.591   1.574   5.514  1.00  0.00     0.049 A 
ATOM     61  H   UNL     1     -10.575   1.499   6.136  1.00  0.00     0.167 HD
ATOM     62  C   UNL     1     -11.993   3.934   5.965  1.00  0.00     0.074 A 
ATOM     63  C   UNL     1     -12.285   5.351   6.005  1.00  0.00     0.031 C 
ATOM     64  C   UNL     1     -12.873   2.985   5.562  1.00  0.00     0.037 A 
BRANCH  51  65
ATOM     65  C   UNL     1     -10.553  -2.728   5.578  1.00  0.00     0.064 A 
ATOM     66  C   UNL     1     -10.686  -3.678   6.601  1.00  0.00     0.173 A 
ATOM     67  C   UNL     1     -10.683  -3.164   4.252  1.00  0.00     0.173 A 
ATOM     68  F   UNL     1     -10.558  -3.311   7.885  1.00  0.00    -0.203 F 
ATOM     69  C   UNL     1     -10.924  -5.018   6.305  1.00  0.00     0.198 A 
ATOM     70  C   UNL     1     -10.945  -4.500   3.960  1.00  0.00     0.198 A 
ATOM     71  F   UNL     1     -10.569  -2.292   3.239  1.00  0.00    -0.203 F 
ATOM     72  F   UNL     1     -11.014  -5.916   7.295  1.00  0.00    -0.200 F 
ATOM     73  C   UNL     1     -11.061  -5.426   4.986  1.00  0.00     0.200 A 
ATOM     74  F   UNL     1     -11.087  -4.891   2.686  1.00  0.00    -0.200 F 
ATOM     75  F   UNL     1     -11.299  -6.714   4.703  1.00  0.00    -0.200 F 
ENDBRANCH  51  65
BRANCH  52  76
ATOM     76  C   UNL     1      -8.629   6.858   7.459  1.00  0.00     0.064 A 
ATOM     77  C   UNL     1      -9.277   7.554   8.489  1.00  0.00     0.173 A 
ATOM     78  C   UNL     1      -7.728   7.571   6.655  1.00  0.00     0.173 A 
ATOM     79  F   UNL     1     -10.168   6.921   9.266  1.00  0.00    -0.203 F 
ATOM     80  C   UNL     1      -9.047   8.913   8.694  1.00  0.00     0.198 A 
ATOM     81  C   UNL     1      -7.479   8.923   6.878  1.00  0.00     0.198 A 
ATOM     82  F   UNL     1      -7.086   6.951   5.654  1.00  0.00    -0.203 F 
ATOM     83  F   UNL     1      -9.715   9.565   9.655  1.00  0.00    -0.200 F 
ATOM     84  C   UNL     1      -8.145   9.595   7.891  1.00  0.00     0.200 A 
ATOM     85  F   UNL     1      -6.601   9.576   6.105  1.00  0.00    -0.200 F 
ATOM     86  F   UNL     1      -7.925  10.902   8.088  1.00  0.00    -0.200 F 
ENDBRANCH  52  76
BRANCH  64  87
ATOM     87  C   UNL     1     -14.244   3.440   5.156  1.00  0.00     0.064 A 
ATOM     88  C   UNL     1     -14.465   4.111   3.944  1.00  0.00     0.173 A 
ATOM     89  C   UNL     1     -15.356   3.162   5.966  1.00  0.00     0.173 A 
ATOM     90  F   UNL     1     -13.433   4.412   3.142  1.00  0.00    -0.203 F 
ATOM     91  C   UNL     1     -15.746   4.506   3.569  1.00  0.00     0.198 A 
ATOM     92  C   UNL     1     -16.639   3.535   5.575  1.00  0.00     0.198 A 
ATOM     93  F   UNL     1     -15.199   2.516   7.131  1.00  0.00    -0.203 F 
ATOM     94  F   UNL     1     -15.929   5.183   2.426  1.00  0.00    -0.200 F 
ATOM     95  C   UNL     1     -16.832   4.212   4.380  1.00  0.00     0.200 A 
ATOM     96  F   UNL     1     -17.688   3.240   6.354  1.00  0.00    -0.200 F 
ATOM     97  F   UNL     1     -18.065   4.588   4.014  1.00  0.00    -0.200 F 
ENDBRANCH  64  87
ENDBRANCH  38  39
ENDBRANCH  31  33
ENDBRANCH  30  31
ENDBRANCH  29  30
ENDBRANCH  28  29
ENDBRANCH  27  28
ENDBRANCH   1  27
TORSDOF 17
