REMARK SMILES CC[C@H]1CCC[C@H](O[C@@H]2CC[C@]([NH2+]C(C)C)(C(=O)OCCOCCOC(=O)c3ccc(-c4c5nc(c(-c6c(F)c(F)c(F)c(F)c6F)c6ccc([nH]6)c(-c6c(F)c(F)c(F)c(F)c6F)c6nc(c(-c7c(F)c(F)c(F)c(F)c7F)c7ccc4[nH]7)C=C6)C=C5)cc3)C2)C1
REMARK SMILES IDX 21 1 20 2 19 3 17 4 18 5 12 6 9 7 10 8 91 9 11 10 8 11 7 12
REMARK SMILES IDX 3 13 4 14 92 15 5 16 6 17 2 18 1 19 13 20 14 23 15 24 16 25
REMARK SMILES IDX 22 26 23 27 24 28 25 29 26 30 27 31 28 32 29 33 90 34 30 35
REMARK SMILES IDX 89 36 31 37 32 38 33 39 83 40 34 41 88 42 82 43 84 44 35 45
REMARK SMILES IDX 87 46 81 47 80 48 36 50 68 51 48 52 67 53 49 54 52 55 66 56
REMARK SMILES IDX 85 57 50 58 51 59 65 61 86 62 53 63 37 64 38 65 46 66 39 67
REMARK SMILES IDX 40 68 44 69 47 70 41 71 42 72 45 73 43 74 69 75 70 76 78 77
REMARK SMILES IDX 71 78 72 79 76 80 79 81 73 82 74 83 77 84 75 85 54 86 55 87
REMARK SMILES IDX 63 88 56 89 57 90 61 91 64 92 58 93 59 94 62 95 60 96
REMARK H PARENT 13 21 13 22 84 49 52 60
REMARK Flexibility Score: inf
ROOT
ATOM      1  C   UNL     1      -4.494  -0.172   0.965  1.00  0.00     0.202 C 
ENDROOT
BRANCH   1   2
ATOM      2  C   UNL     1      -4.286   0.732  -0.256  1.00  0.00     0.261 C 
BRANCH   2   3
ATOM      3  O   UNL     1      -3.334   1.776   0.024  1.00  0.00    -0.459 OA
BRANCH   3   4
ATOM      4  C   UNL     1      -3.820   3.047   0.047  1.00  0.00     0.368 C 
ATOM      5  O   UNL     1      -4.967   3.363  -0.252  1.00  0.00    -0.245 OA
BRANCH   4   6
ATOM      6  C   UNL     1      -2.762   4.086   0.502  1.00  0.00     0.197 C 
ATOM      7  C   UNL     1      -0.726   4.608   1.664  1.00  0.00     0.125 C 
ATOM      8  C   UNL     1      -1.847   5.044   2.609  1.00  0.00     0.039 C 
ATOM      9  C   UNL     1      -1.372   3.521   0.819  1.00  0.00     0.113 C 
ATOM     10  C   UNL     1      -3.156   4.650   1.895  1.00  0.00     0.084 C 
BRANCH   7  11
ATOM     11  O   UNL     1       0.550   4.385   2.236  1.00  0.00    -0.375 OA
BRANCH  11  12
ATOM     12  C   UNL     1       0.990   3.167   2.825  1.00  0.00     0.118 C 
ATOM     13  C   UNL     1       1.696   0.708   2.461  1.00  0.00    -0.009 C 
ATOM     14  C   UNL     1       0.849   0.362   3.700  1.00  0.00     0.004 C 
ATOM     15  C   UNL     1       1.210   2.021   1.824  1.00  0.00     0.035 C 
ATOM     16  C   UNL     1       0.757   1.508   4.704  1.00  0.00     0.003 C 
ATOM     17  C   UNL     1       0.179   2.757   4.050  1.00  0.00     0.032 C 
BRANCH  13  18
ATOM     18  C   UNL     1       3.200   0.682   2.782  1.00  0.00     0.000 C 
ATOM     19  C   UNL     1       4.082   0.918   1.562  1.00  0.00     0.004 C 
ENDBRANCH  13  18
ENDBRANCH  11  12
ENDBRANCH   7  11
BRANCH   6  20
ATOM     20  N   UNL     1      -2.772   5.230  -0.448  1.00  0.00    -0.330 N 
ATOM     21  H   UNL     1      -2.330   6.024   0.015  1.00  0.00     0.347 HD
ATOM     22  H   UNL     1      -3.751   5.382  -0.689  1.00  0.00     0.347 HD
BRANCH  20  23
ATOM     23  C   UNL     1      -2.078   5.010  -1.724  1.00  0.00     0.176 C 
ATOM     24  C   UNL     1      -2.951   5.511  -2.876  1.00  0.00     0.075 C 
ATOM     25  C   UNL     1      -0.759   5.787  -1.711  1.00  0.00     0.075 C 
ENDBRANCH  20  23
ENDBRANCH   6  20
ENDBRANCH   4   6
ENDBRANCH   3   4
ENDBRANCH   2   3
ENDBRANCH   1   2
BRANCH   1  26
ATOM     26  O   UNL     1      -5.038   0.486   2.111  1.00  0.00    -0.374 OA
BRANCH  26  27
ATOM     27  C   UNL     1      -4.090   1.155   2.944  1.00  0.00     0.202 C 
BRANCH  27  28
ATOM     28  C   UNL     1      -3.474   0.301   4.054  1.00  0.00     0.261 C 
BRANCH  28  29
ATOM     29  O   UNL     1      -2.779  -0.831   3.508  1.00  0.00    -0.460 OA
BRANCH  29  30
ATOM     30  C   UNL     1      -3.441  -2.001   3.639  1.00  0.00     0.338 C 
ATOM     31  O   UNL     1      -4.467  -2.207   4.275  1.00  0.00    -0.246 OA
BRANCH  30  32
ATOM     32  C   UNL     1      -2.837  -3.026   2.773  1.00  0.00     0.060 A 
ATOM     33  C   UNL     1      -3.711  -3.804   2.006  1.00  0.00     0.016 A 
ATOM     34  C   UNL     1      -1.462  -3.278   2.763  1.00  0.00     0.016 A 
ATOM     35  C   UNL     1      -3.224  -4.886   1.280  1.00  0.00     0.010 A 
ATOM     36  C   UNL     1      -0.974  -4.367   2.033  1.00  0.00     0.010 A 
ATOM     37  C   UNL     1      -1.859  -5.200   1.326  1.00  0.00    -0.014 A 
BRANCH  37  38
ATOM     38  C   UNL     1      -1.398  -6.491   0.764  1.00  0.00     0.031 A 
ATOM     39  C   UNL     1      -1.182  -7.653   1.694  1.00  0.00     0.074 A 
ATOM     40  C   UNL     1      -1.226  -6.640  -0.560  1.00  0.00     0.049 A 
ATOM     41  N   UNL     1      -0.789  -8.872   1.424  1.00  0.00    -0.248 NA
ATOM     42  C   UNL     1      -1.445  -7.408   3.121  1.00  0.00     0.031 C 
ATOM     43  C   UNL     1      -1.446  -5.598  -1.561  1.00  0.00     0.029 A 
ATOM     44  N   UNL     1      -0.826  -7.731  -1.290  1.00  0.00    -0.354 N 
ATOM     45  C   UNL     1      -0.751  -9.534   2.644  1.00  0.00     0.074 A 
ATOM     46  C   UNL     1      -1.132  -8.577   3.660  1.00  0.00     0.031 C 
ATOM     47  C   UNL     1      -1.177  -6.101  -2.778  1.00  0.00     0.029 A 
ATOM     48  C   UNL     1      -0.739  -7.488  -2.637  1.00  0.00     0.049 A 
ATOM     49  H   UNL     1      -0.622  -8.605  -0.885  1.00  0.00     0.167 HD
ATOM     50  C   UNL     1      -0.437 -10.828   2.893  1.00  0.00     0.037 A 
ATOM     51  C   UNL     1      -0.334  -8.293  -3.639  1.00  0.00     0.037 A 
ATOM     52  C   UNL     1      -0.068 -11.780   1.879  1.00  0.00     0.049 A 
ATOM     53  C   UNL     1       0.076  -9.709  -3.326  1.00  0.00     0.074 A 
ATOM     54  C   UNL     1       0.237 -13.121   2.024  1.00  0.00     0.029 A 
ATOM     55  N   UNL     1       0.052 -11.485   0.528  1.00  0.00    -0.354 N 
ATOM     56  N   UNL     1       0.077 -10.337  -2.175  1.00  0.00    -0.248 NA
ATOM     57  C   UNL     1       0.540 -10.528  -4.455  1.00  0.00     0.031 C 
ATOM     58  C   UNL     1       0.595 -13.626   0.769  1.00  0.00     0.029 A 
ATOM     59  C   UNL     1       0.459 -12.613  -0.167  1.00  0.00     0.049 A 
ATOM     60  H   UNL     1      -0.125 -10.605   0.124  1.00  0.00     0.167 HD
ATOM     61  C   UNL     1       0.510 -11.629  -2.444  1.00  0.00     0.074 A 
ATOM     62  C   UNL     1       0.752 -11.698  -3.870  1.00  0.00     0.031 C 
ATOM     63  C   UNL     1       0.688 -12.665  -1.588  1.00  0.00     0.037 A 
BRANCH  50  64
ATOM     64  C   UNL     1      -0.450 -11.283   4.323  1.00  0.00     0.064 A 
ATOM     65  C   UNL     1      -1.646 -11.451   5.035  1.00  0.00     0.173 A 
ATOM     66  C   UNL     1       0.753 -11.586   4.979  1.00  0.00     0.173 A 
ATOM     67  F   UNL     1      -2.822 -11.161   4.458  1.00  0.00    -0.203 F 
ATOM     68  C   UNL     1      -1.636 -11.883   6.360  1.00  0.00     0.198 A 
ATOM     69  C   UNL     1       0.757 -12.044   6.293  1.00  0.00     0.198 A 
ATOM     70  F   UNL     1       1.925 -11.445   4.342  1.00  0.00    -0.203 F 
ATOM     71  F   UNL     1      -2.788 -11.993   7.035  1.00  0.00    -0.200 F 
ATOM     72  C   UNL     1      -0.436 -12.185   6.985  1.00  0.00     0.200 A 
ATOM     73  F   UNL     1       1.918 -12.346   6.892  1.00  0.00    -0.200 F 
ATOM     74  F   UNL     1      -0.428 -12.607   8.257  1.00  0.00    -0.200 F 
ENDBRANCH  50  64
BRANCH  51  75
ATOM     75  C   UNL     1      -0.294  -7.781  -5.033  1.00  0.00     0.064 A 
ATOM     76  C   UNL     1      -1.174  -8.268  -6.008  1.00  0.00     0.173 A 
ATOM     77  C   UNL     1       0.637  -6.807  -5.422  1.00  0.00     0.173 A 
ATOM     78  F   UNL     1      -2.065  -9.219  -5.690  1.00  0.00    -0.203 F 
ATOM     79  C   UNL     1      -1.114  -7.813  -7.324  1.00  0.00     0.198 A 
ATOM     80  C   UNL     1       0.678  -6.332  -6.731  1.00  0.00     0.198 A 
ATOM     81  F   UNL     1       1.503  -6.309  -4.527  1.00  0.00    -0.203 F 
ATOM     82  F   UNL     1      -1.937  -8.329  -8.247  1.00  0.00    -0.200 F 
ATOM     83  C   UNL     1      -0.192  -6.841  -7.683  1.00  0.00     0.200 A 
ATOM     84  F   UNL     1       1.562  -5.384  -7.071  1.00  0.00    -0.200 F 
ATOM     85  F   UNL     1      -0.137  -6.402  -8.947  1.00  0.00    -0.200 F 
ENDBRANCH  51  75
BRANCH  63  86
ATOM     86  C   UNL     1       1.133 -13.975  -2.174  1.00  0.00     0.064 A 
ATOM     87  C   UNL     1       2.439 -14.164  -2.647  1.00  0.00     0.173 A 
ATOM     88  C   UNL     1       0.251 -15.066  -2.222  1.00  0.00     0.173 A 
ATOM     89  F   UNL     1       3.315 -13.148  -2.636  1.00  0.00    -0.203 F 
ATOM     90  C   UNL     1       2.839 -15.391  -3.171  1.00  0.00     0.198 A 
ATOM     91  C   UNL     1       0.664 -16.299  -2.718  1.00  0.00     0.198 A 
ATOM     92  F   UNL     1      -1.007 -14.939  -1.775  1.00  0.00    -0.203 F 
ATOM     93  F   UNL     1       4.078 -15.536  -3.660  1.00  0.00    -0.200 F 
ATOM     94  C   UNL     1       1.954 -16.459  -3.198  1.00  0.00     0.200 A 
ATOM     95  F   UNL     1      -0.188 -17.333  -2.731  1.00  0.00    -0.200 F 
ATOM     96  F   UNL     1       2.344 -17.641  -3.695  1.00  0.00    -0.200 F 
ENDBRANCH  63  86
ENDBRANCH  37  38
ENDBRANCH  30  32
ENDBRANCH  29  30
ENDBRANCH  28  29
ENDBRANCH  27  28
ENDBRANCH  26  27
ENDBRANCH   1  26
TORSDOF 19
