REMARK SMILES CC[C@@](C)(NC(=O)N1CCCC[C@@H]1C)C(=O)OCCOCCOC(=O)c1ccc(-c2c3nc(c(-c4c(F)c(F)c(F)c(F)c4F)c4ccc([nH]4)c(-c4c(F)c(F)c(F)c(F)c4F)c4nc(c(-c5c(F)c(F)c(F)c(F)c5F)c5ccc2[nH]5)C=C4)C=C3)cc1
REMARK SMILES IDX 20 1 19 2 18 3 17 4 15 5 16 6 3 7 4 8 2 9 1 10 5 11 6 12
REMARK SMILES IDX 7 14 8 15 9 16 13 17 10 18 12 19 14 20 11 21 21 22 22 23
REMARK SMILES IDX 23 24 24 25 25 26 26 27 27 28 88 29 28 30 87 31 29 32 30 33
REMARK SMILES IDX 31 34 81 35 32 36 86 37 80 38 82 39 33 40 85 41 79 42 78 43
REMARK SMILES IDX 34 45 66 46 46 47 65 48 47 49 50 50 64 51 83 52 48 53 49 54
REMARK SMILES IDX 63 56 84 57 51 58 35 59 36 60 44 61 37 62 38 63 42 64 45 65
REMARK SMILES IDX 39 66 40 67 43 68 41 69 67 70 68 71 76 72 69 73 70 74 74 75
REMARK SMILES IDX 77 76 71 77 72 78 75 79 73 80 52 81 53 82 61 83 54 84 55 85
REMARK SMILES IDX 59 86 62 87 56 88 57 89 60 90 58 91
REMARK H PARENT 5 13 82 44 50 55
REMARK Flexibility Score: inf
ROOT
ATOM      1  O   UNL     1       3.936  -3.483  -1.429  1.00  0.00    -0.374 OA
ENDROOT
BRANCH   1   2
ATOM      2  C   UNL     1       4.903  -2.498  -0.990  1.00  0.00     0.202 C 
BRANCH   2   3
ATOM      3  C   UNL     1       4.676  -1.159  -0.223  1.00  0.00     0.261 C 
BRANCH   3   4
ATOM      4  O   UNL     1       3.623  -1.197   0.713  1.00  0.00    -0.462 OA
BRANCH   4   5
ATOM      5  C   UNL     1       2.475  -0.589   0.344  1.00  0.00     0.331 C 
ATOM      6  O   UNL     1       2.400   0.191  -0.573  1.00  0.00    -0.249 OA
BRANCH   5   7
ATOM      7  C   UNL     1       1.311  -1.018   1.278  1.00  0.00     0.136 C 
ATOM      8  C   UNL     1       1.069  -0.043   2.428  1.00  0.00     0.047 C 
BRANCH   7   9
ATOM      9  C   UNL     1       0.046  -1.039   0.333  1.00  0.00     0.037 C 
ATOM     10  C   UNL     1      -0.485   0.322  -0.147  1.00  0.00     0.007 C 
ENDBRANCH   7   9
BRANCH   7  11
ATOM     11  N   UNL     1       1.472  -2.403   1.856  1.00  0.00    -0.322 N 
ATOM     12  C   UNL     1       2.393  -3.184   2.469  1.00  0.00     0.318 C 
ATOM     13  H   UNL     1       0.630  -2.903   1.754  1.00  0.00     0.166 HD
ATOM     14  O   UNL     1       1.971  -4.272   2.865  1.00  0.00    -0.249 OA
BRANCH  12  15
ATOM     15  N   UNL     1       3.733  -2.854   2.582  1.00  0.00    -0.322 N 
ATOM     16  C   UNL     1       4.708  -3.712   1.900  1.00  0.00     0.121 C 
ATOM     17  C   UNL     1       4.176  -2.162   3.788  1.00  0.00     0.083 C 
ATOM     18  C   UNL     1       6.202  -3.705   2.162  1.00  0.00     0.022 C 
ATOM     19  C   UNL     1       5.609  -2.516   4.244  1.00  0.00     0.025 C 
ATOM     20  C   UNL     1       3.235  -2.425   4.971  1.00  0.00     0.031 C 
ATOM     21  C   UNL     1       6.627  -2.641   3.126  1.00  0.00     0.004 C 
ENDBRANCH  12  15
ENDBRANCH   7  11
ENDBRANCH   5   7
ENDBRANCH   4   5
ENDBRANCH   3   4
ENDBRANCH   2   3
ENDBRANCH   1   2
BRANCH   1  22
ATOM     22  C   UNL     1       2.829  -4.053  -0.690  1.00  0.00     0.202 C 
BRANCH  22  23
ATOM     23  C   UNL     1       2.764  -5.603  -0.170  1.00  0.00     0.261 C 
BRANCH  23  24
ATOM     24  O   UNL     1       3.354  -6.021   1.136  1.00  0.00    -0.460 OA
BRANCH  24  25
ATOM     25  C   UNL     1       2.732  -6.862   2.059  1.00  0.00     0.338 C 
ATOM     26  O   UNL     1       1.678  -7.444   1.842  1.00  0.00    -0.246 OA
BRANCH  25  27
ATOM     27  C   UNL     1       3.539  -7.119   3.374  1.00  0.00     0.060 A 
ATOM     28  C   UNL     1       4.396  -6.181   3.937  1.00  0.00     0.016 A 
ATOM     29  C   UNL     1       3.433  -8.281   4.149  1.00  0.00     0.016 A 
ATOM     30  C   UNL     1       5.334  -6.431   4.948  1.00  0.00     0.010 A 
ATOM     31  C   UNL     1       4.254  -8.488   5.319  1.00  0.00     0.010 A 
ATOM     32  C   UNL     1       5.268  -7.581   5.705  1.00  0.00    -0.014 A 
BRANCH  32  33
ATOM     33  C   UNL     1       6.281  -7.803   6.808  1.00  0.00     0.031 A 
ATOM     34  C   UNL     1       7.083  -9.079   6.807  1.00  0.00     0.074 A 
ATOM     35  C   UNL     1       6.625  -6.872   7.738  1.00  0.00     0.049 A 
ATOM     36  N   UNL     1       7.792  -9.632   7.761  1.00  0.00    -0.248 NA
ATOM     37  C   UNL     1       7.097  -9.825   5.541  1.00  0.00     0.031 C 
ATOM     38  C   UNL     1       6.125  -5.497   7.816  1.00  0.00     0.029 A 
ATOM     39  N   UNL     1       7.507  -6.941   8.805  1.00  0.00    -0.354 N 
ATOM     40  C   UNL     1       8.254 -10.834   7.239  1.00  0.00     0.074 A 
ATOM     41  C   UNL     1       7.777 -10.911   5.874  1.00  0.00     0.031 C 
ATOM     42  C   UNL     1       6.717  -4.856   8.838  1.00  0.00     0.029 A 
ATOM     43  C   UNL     1       7.549  -5.797   9.578  1.00  0.00     0.049 A 
ATOM     44  H   UNL     1       8.056  -7.736   8.995  1.00  0.00     0.167 HD
ATOM     45  C   UNL     1       8.990 -11.797   7.848  1.00  0.00     0.037 A 
ATOM     46  C   UNL     1       8.123  -5.547  10.777  1.00  0.00     0.037 A 
ATOM     47  C   UNL     1       9.518 -11.694   9.184  1.00  0.00     0.049 A 
ATOM     48  C   UNL     1       8.862  -6.657  11.487  1.00  0.00     0.074 A 
ATOM     49  C   UNL     1      10.179 -12.650   9.936  1.00  0.00     0.029 A 
ATOM     50  N   UNL     1       9.475 -10.542   9.955  1.00  0.00    -0.354 N 
ATOM     51  N   UNL     1       9.121  -7.875  11.077  1.00  0.00    -0.248 NA
ATOM     52  C   UNL     1       9.361  -6.370  12.843  1.00  0.00     0.031 C 
ATOM     53  C   UNL     1      10.516 -12.083  11.171  1.00  0.00     0.029 A 
ATOM     54  C   UNL     1      10.105 -10.760  11.170  1.00  0.00     0.049 A 
ATOM     55  H   UNL     1       9.058  -9.694   9.680  1.00  0.00     0.167 HD
ATOM     56  C   UNL     1       9.817  -8.489  12.112  1.00  0.00     0.074 A 
ATOM     57  C   UNL     1       9.971  -7.503  13.158  1.00  0.00     0.031 C 
ATOM     58  C   UNL     1      10.273  -9.763  12.195  1.00  0.00     0.037 A 
BRANCH  45  59
ATOM     59  C   UNL     1       9.180 -13.082   7.096  1.00  0.00     0.064 A 
ATOM     60  C   UNL     1      10.024 -13.183   5.982  1.00  0.00     0.173 A 
ATOM     61  C   UNL     1       8.467 -14.228   7.485  1.00  0.00     0.173 A 
ATOM     62  F   UNL     1      10.710 -12.112   5.556  1.00  0.00    -0.203 F 
ATOM     63  C   UNL     1      10.111 -14.370   5.257  1.00  0.00     0.198 A 
ATOM     64  C   UNL     1       8.581 -15.421   6.778  1.00  0.00     0.198 A 
ATOM     65  F   UNL     1       7.649 -14.187   8.548  1.00  0.00    -0.203 F 
ATOM     66  F   UNL     1      10.867 -14.423   4.151  1.00  0.00    -0.200 F 
ATOM     67  C   UNL     1       9.392 -15.487   5.656  1.00  0.00     0.200 A 
ATOM     68  F   UNL     1       7.893 -16.501   7.173  1.00  0.00    -0.200 F 
ATOM     69  F   UNL     1       9.468 -16.623   4.950  1.00  0.00    -0.200 F 
ENDBRANCH  45  59
BRANCH  46  70
ATOM     70  C   UNL     1       7.940  -4.227  11.462  1.00  0.00     0.064 A 
ATOM     71  C   UNL     1       9.034  -3.407  11.785  1.00  0.00     0.173 A 
ATOM     72  C   UNL     1       6.673  -3.797  11.889  1.00  0.00     0.173 A 
ATOM     73  F   UNL     1      10.276  -3.784  11.445  1.00  0.00    -0.203 F 
ATOM     74  C   UNL     1       8.870  -2.232  12.521  1.00  0.00     0.198 A 
ATOM     75  C   UNL     1       6.505  -2.603  12.589  1.00  0.00     0.198 A 
ATOM     76  F   UNL     1       5.588  -4.544  11.633  1.00  0.00    -0.203 F 
ATOM     77  F   UNL     1       9.942  -1.509  12.875  1.00  0.00    -0.200 F 
ATOM     78  C   UNL     1       7.605  -1.827  12.916  1.00  0.00     0.200 A 
ATOM     79  F   UNL     1       5.277  -2.213  12.960  1.00  0.00    -0.200 F 
ATOM     80  F   UNL     1       7.447  -0.701  13.626  1.00  0.00    -0.200 F 
ENDBRANCH  46  70
BRANCH  58  81
ATOM     81  C   UNL     1      11.025 -10.150  13.436  1.00  0.00     0.064 A 
ATOM     82  C   UNL     1      10.378 -10.327  14.668  1.00  0.00     0.173 A 
ATOM     83  C   UNL     1      12.409 -10.379  13.383  1.00  0.00     0.173 A 
ATOM     84  F   UNL     1       9.059 -10.105  14.775  1.00  0.00    -0.203 F 
ATOM     85  C   UNL     1      11.092 -10.694  15.806  1.00  0.00     0.198 A 
ATOM     86  C   UNL     1      13.115 -10.772  14.516  1.00  0.00     0.198 A 
ATOM     87  F   UNL     1      13.075 -10.227  12.229  1.00  0.00    -0.203 F 
ATOM     88  F   UNL     1      10.460 -10.811  16.982  1.00  0.00    -0.200 F 
ATOM     89  C   UNL     1      12.458 -10.922  15.728  1.00  0.00     0.200 A 
ATOM     90  F   UNL     1      14.433 -11.003  14.437  1.00  0.00    -0.200 F 
ATOM     91  F   UNL     1      13.143 -11.279  16.823  1.00  0.00    -0.200 F 
ENDBRANCH  58  81
ENDBRANCH  32  33
ENDBRANCH  25  27
ENDBRANCH  24  25
ENDBRANCH  23  24
ENDBRANCH  22  23
ENDBRANCH   1  22
TORSDOF 17
