REMARK SMILES CCSc1ccc(-c2cc(Cl)cc3c2O[C@@H](C(F)(F)F)C(C(=O)OCCOCCOC(=O)c2ccc(-c4c5nc(c(-c6c(F)c(F)c(F)c(F)c6F)c6ccc([nH]6)c(-c6c(F)c(F)c(F)c(F)c6F)c6nc(c(-c7c(F)c(F)c(F)c(F)c7F)c7ccc4[nH]7)C=C6)C=C5)cc2)=C3)cc1
REMARK SMILES IDX 26 1 25 2 24 3 22 4 23 5 21 6 8 7 9 8 14 9 10 10 13 11 15 12
REMARK SMILES IDX 11 13 12 14 96 15 16 16 7 17 4 18 5 19 98 20 6 21 97 22 3 23
REMARK SMILES IDX 2 24 1 25 17 26 18 27 19 28 20 29 27 30 28 31 29 32 30 33
REMARK SMILES IDX 31 34 32 35 33 36 34 37 95 38 35 39 94 40 36 41 37 42 38 43
REMARK SMILES IDX 88 44 39 45 93 46 87 47 89 48 40 49 92 50 86 51 85 52 41 54
REMARK SMILES IDX 73 55 53 56 72 57 54 58 57 59 71 60 90 61 55 62 56 63 70 65
REMARK SMILES IDX 91 66 58 67 42 68 43 69 51 70 44 71 45 72 49 73 52 74 46 75
REMARK SMILES IDX 47 76 50 77 48 78 74 79 75 80 83 81 76 82 77 83 81 84 84 85
REMARK SMILES IDX 78 86 79 87 82 88 80 89 59 90 60 91 68 92 61 93 62 94 66 95
REMARK SMILES IDX 69 96 63 97 64 98 67 99 65 100
REMARK H PARENT 89 53 57 64
REMARK Flexibility Score: inf
ROOT
ATOM      1  C   UNL     1      13.481  -3.786  -1.191  1.00  0.00     0.202 C 
ENDROOT
BRANCH   1   2
ATOM      2  C   UNL     1      13.745  -2.290  -0.959  1.00  0.00     0.261 C 
BRANCH   2   3
ATOM      3  O   UNL     1      12.724  -1.648  -0.181  1.00  0.00    -0.460 OA
BRANCH   3   4
ATOM      4  C   UNL     1      12.456  -0.370  -0.511  1.00  0.00     0.338 C 
ATOM      5  O   UNL     1      13.105   0.308  -1.296  1.00  0.00    -0.246 OA
BRANCH   4   6
ATOM      6  C   UNL     1      11.167   0.101   0.050  1.00  0.00     0.087 C 
ATOM      7  C   UNL     1       7.923  -2.464  -0.346  1.00  0.00     0.026 A 
ATOM      8  C   UNL     1       8.254  -3.299  -1.438  1.00  0.00     0.033 A 
ATOM      9  C   UNL     1       8.843  -1.427  -0.088  1.00  0.00     0.135 A 
ATOM     10  C   UNL     1       9.177  -2.889  -2.398  1.00  0.00     0.042 A 
ATOM     11  C   UNL     1       9.565  -0.882  -1.162  1.00  0.00     0.019 A 
ATOM     12  O   UNL     1       9.421  -1.315   1.193  1.00  0.00    -0.475 OA
ATOM     13  Cl  UNL     1       9.509  -3.898  -3.747  1.00  0.00    -0.084 Cl
ATOM     14  C   UNL     1       9.755  -1.630  -2.317  1.00  0.00     0.032 A 
ATOM     15  C   UNL     1      10.309   0.377  -0.947  1.00  0.00     0.027 C 
ATOM     16  C   UNL     1      10.514  -0.317   1.351  1.00  0.00     0.316 C 
BRANCH   7  17
ATOM     17  C   UNL     1       6.428  -2.327  -0.157  1.00  0.00    -0.015 A 
ATOM     18  C   UNL     1       3.598  -2.200  -0.700  1.00  0.00     0.007 A 
ATOM     19  C   UNL     1       4.225  -3.400  -0.343  1.00  0.00     0.015 A 
ATOM     20  C   UNL     1       4.384  -1.049  -0.726  1.00  0.00     0.015 A 
ATOM     21  C   UNL     1       5.603  -3.462  -0.060  1.00  0.00     0.010 A 
ATOM     22  C   UNL     1       5.771  -1.110  -0.446  1.00  0.00     0.010 A 
BRANCH  18  23
ATOM     23  S   UNL     1       1.880  -2.329  -1.187  1.00  0.00    -0.126 SA
BRANCH  23  24
ATOM     24  C   UNL     1       1.208  -0.631  -1.178  1.00  0.00     0.071 C 
ATOM     25  C   UNL     1       1.130  -0.043   0.218  1.00  0.00     0.016 C 
ENDBRANCH  23  24
ENDBRANCH  18  23
ENDBRANCH   7  17
BRANCH  16  26
ATOM     26  C   UNL     1      11.495  -0.543   2.524  1.00  0.00     0.430 C 
ATOM     27  F   UNL     1      12.043   0.652   2.882  1.00  0.00    -0.167 F 
ATOM     28  F   UNL     1      10.868  -1.018   3.624  1.00  0.00    -0.167 F 
ATOM     29  F   UNL     1      12.521  -1.374   2.262  1.00  0.00    -0.167 F 
ENDBRANCH  16  26
ENDBRANCH   4   6
ENDBRANCH   3   4
ENDBRANCH   2   3
ENDBRANCH   1   2
BRANCH   1  30
ATOM     30  O   UNL     1      12.151  -4.270  -1.071  1.00  0.00    -0.374 OA
BRANCH  30  31
ATOM     31  C   UNL     1      11.531  -4.235   0.212  1.00  0.00     0.202 C 
BRANCH  31  32
ATOM     32  C   UNL     1      12.088  -5.129   1.323  1.00  0.00     0.261 C 
BRANCH  32  33
ATOM     33  O   UNL     1      13.459  -4.855   1.652  1.00  0.00    -0.460 OA
BRANCH  33  34
ATOM     34  C   UNL     1      14.319  -5.858   1.365  1.00  0.00     0.338 C 
ATOM     35  O   UNL     1      14.060  -6.948   0.868  1.00  0.00    -0.246 OA
BRANCH  34  36
ATOM     36  C   UNL     1      15.699  -5.416   1.597  1.00  0.00     0.060 A 
ATOM     37  C   UNL     1      16.581  -5.404   0.509  1.00  0.00     0.016 A 
ATOM     38  C   UNL     1      16.147  -5.122   2.885  1.00  0.00     0.016 A 
ATOM     39  C   UNL     1      17.930  -5.133   0.713  1.00  0.00     0.010 A 
ATOM     40  C   UNL     1      17.503  -4.857   3.089  1.00  0.00     0.010 A 
ATOM     41  C   UNL     1      18.405  -4.894   2.009  1.00  0.00    -0.014 A 
BRANCH  41  42
ATOM     42  C   UNL     1      19.863  -4.815   2.255  1.00  0.00     0.031 A 
ATOM     43  C   UNL     1      20.570  -6.003   2.842  1.00  0.00     0.074 A 
ATOM     44  C   UNL     1      20.545  -3.699   1.946  1.00  0.00     0.049 A 
ATOM     45  N   UNL     1      21.822  -6.133   3.199  1.00  0.00    -0.248 NA
ATOM     46  C   UNL     1      19.753  -7.207   3.060  1.00  0.00     0.031 C 
ATOM     47  C   UNL     1      19.969  -2.501   1.340  1.00  0.00     0.029 A 
ATOM     48  N   UNL     1      21.872  -3.391   2.112  1.00  0.00    -0.354 N 
ATOM     49  C   UNL     1      21.941  -7.427   3.690  1.00  0.00     0.074 A 
ATOM     50  C   UNL     1      20.628  -8.030   3.619  1.00  0.00     0.031 C 
ATOM     51  C   UNL     1      20.935  -1.578   1.199  1.00  0.00     0.029 A 
ATOM     52  C   UNL     1      22.185  -2.108   1.739  1.00  0.00     0.049 A 
ATOM     53  H   UNL     1      22.534  -4.028   2.465  1.00  0.00     0.167 HD
ATOM     54  C   UNL     1      23.050  -8.056   4.147  1.00  0.00     0.037 A 
ATOM     55  C   UNL     1      23.345  -1.432   1.850  1.00  0.00     0.037 A 
ATOM     56  C   UNL     1      24.352  -7.444   4.219  1.00  0.00     0.049 A 
ATOM     57  C   UNL     1      24.547  -2.129   2.432  1.00  0.00     0.074 A 
ATOM     58  C   UNL     1      25.544  -7.996   4.654  1.00  0.00     0.029 A 
ATOM     59  N   UNL     1      24.628  -6.134   3.852  1.00  0.00    -0.354 N 
ATOM     60  N   UNL     1      24.660  -3.359   2.872  1.00  0.00    -0.248 NA
ATOM     61  C   UNL     1      25.786  -1.344   2.526  1.00  0.00     0.031 C 
ATOM     62  C   UNL     1      26.528  -7.003   4.607  1.00  0.00     0.029 A 
ATOM     63  C   UNL     1      25.966  -5.852   4.078  1.00  0.00     0.049 A 
ATOM     64  H   UNL     1      23.971  -5.499   3.486  1.00  0.00     0.167 HD
ATOM     65  C   UNL     1      25.984  -3.506   3.266  1.00  0.00     0.074 A 
ATOM     66  C   UNL     1      26.639  -2.242   2.999  1.00  0.00     0.031 C 
ATOM     67  C   UNL     1      26.603  -4.588   3.800  1.00  0.00     0.037 A 
BRANCH  54  68
ATOM     68  C   UNL     1      22.896  -9.469   4.634  1.00  0.00     0.064 A 
ATOM     69  C   UNL     1      22.620 -10.529   3.756  1.00  0.00     0.173 A 
ATOM     70  C   UNL     1      23.054  -9.773   5.995  1.00  0.00     0.173 A 
ATOM     71  F   UNL     1      22.447 -10.293   2.447  1.00  0.00    -0.203 F 
ATOM     72  C   UNL     1      22.477 -11.832   4.227  1.00  0.00     0.198 A 
ATOM     73  C   UNL     1      22.944 -11.082   6.457  1.00  0.00     0.198 A 
ATOM     74  F   UNL     1      23.324  -8.800   6.879  1.00  0.00    -0.203 F 
ATOM     75  F   UNL     1      22.159 -12.819   3.376  1.00  0.00    -0.200 F 
ATOM     76  C   UNL     1      22.646 -12.109   5.575  1.00  0.00     0.200 A 
ATOM     77  F   UNL     1      23.123 -11.349   7.758  1.00  0.00    -0.200 F 
ATOM     78  F   UNL     1      22.515 -13.364   6.025  1.00  0.00    -0.200 F 
ENDBRANCH  54  68
BRANCH  55  79
ATOM     79  C   UNL     1      23.419  -0.012   1.416  1.00  0.00     0.064 A 
ATOM     80  C   UNL     1      24.195   0.371   0.315  1.00  0.00     0.173 A 
ATOM     81  C   UNL     1      22.721   0.994   2.103  1.00  0.00     0.173 A 
ATOM     82  F   UNL     1      24.899  -0.549  -0.360  1.00  0.00    -0.203 F 
ATOM     83  C   UNL     1      24.288   1.707  -0.072  1.00  0.00     0.198 A 
ATOM     84  C   UNL     1      22.788   2.325   1.696  1.00  0.00     0.198 A 
ATOM     85  F   UNL     1      21.963   0.682   3.164  1.00  0.00    -0.203 F 
ATOM     86  F   UNL     1      25.078   2.051  -1.098  1.00  0.00    -0.200 F 
ATOM     87  C   UNL     1      23.579   2.681   0.615  1.00  0.00     0.200 A 
ATOM     88  F   UNL     1      22.090   3.260   2.353  1.00  0.00    -0.200 F 
ATOM     89  F   UNL     1      23.665   3.965   0.240  1.00  0.00    -0.200 F 
ENDBRANCH  55  79
BRANCH  67  90
ATOM     90  C   UNL     1      28.073  -4.470   4.091  1.00  0.00     0.064 A 
ATOM     91  C   UNL     1      28.560  -3.665   5.132  1.00  0.00     0.173 A 
ATOM     92  C   UNL     1      29.005  -5.206   3.342  1.00  0.00     0.173 A 
ATOM     93  F   UNL     1      27.714  -2.930   5.870  1.00  0.00    -0.203 F 
ATOM     94  C   UNL     1      29.925  -3.578   5.391  1.00  0.00     0.198 A 
ATOM     95  C   UNL     1      30.366  -5.145   3.627  1.00  0.00     0.198 A 
ATOM     96  F   UNL     1      28.593  -5.998   2.341  1.00  0.00    -0.203 F 
ATOM     97  F   UNL     1      30.371  -2.761   6.356  1.00  0.00    -0.200 F 
ATOM     98  C   UNL     1      30.826  -4.324   4.645  1.00  0.00     0.200 A 
ATOM     99  F   UNL     1      31.232  -5.880   2.916  1.00  0.00    -0.200 F 
ATOM    100  F   UNL     1      32.138  -4.246   4.903  1.00  0.00    -0.200 F 
ENDBRANCH  67  90
ENDBRANCH  41  42
ENDBRANCH  34  36
ENDBRANCH  33  34
ENDBRANCH  32  33
ENDBRANCH  31  32
ENDBRANCH  30  31
ENDBRANCH   1  30
TORSDOF 18
