REMARK SMILES CC(C)[C@@H](C(=O)OCCOCCOC(=O)c1ccc(-c2c3nc(c(-c4c(F)c(F)c(F)c(F)c4F)c4ccc([nH]4)c(-c4c(F)c(F)c(F)c(F)c4F)c4nc(c(-c5c(F)c(F)c(F)c(F)c5F)c5ccc2[nH]5)C=C4)C=C3)cc1)N1C(=O)/C(=C\c2ccc([N+](=O)[O-])cc2)SC1=S
REMARK SMILES IDX 9 1 8 2 7 3 5 4 6 5 4 6 2 7 1 8 3 9 79 10 80 11 94 12 81 13
REMARK SMILES IDX 82 14 93 15 95 16 83 17 84 18 85 19 92 20 86 21 91 22 87 23
REMARK SMILES IDX 88 24 89 25 90 26 10 27 11 28 12 29 13 30 14 31 15 32 16 33
REMARK SMILES IDX 17 34 78 35 18 36 77 37 19 38 20 39 21 40 71 41 22 42 76 43
REMARK SMILES IDX 70 44 72 45 23 46 75 47 69 48 68 49 24 51 56 52 36 53 55 54
REMARK SMILES IDX 37 55 40 56 54 57 73 58 38 59 39 60 53 62 74 63 41 64 25 65
REMARK SMILES IDX 26 66 34 67 27 68 28 69 32 70 35 71 29 72 30 73 33 74 31 75
REMARK SMILES IDX 57 76 58 77 66 78 59 79 60 80 64 81 67 82 61 83 62 84 65 85
REMARK SMILES IDX 63 86 42 87 43 88 51 89 44 90 45 91 49 92 52 93 46 94 47 95
REMARK SMILES IDX 50 96 48 97
REMARK H PARENT 72 50 40 61
REMARK Flexibility Score: inf
ROOT
ATOM      1  C   UNL     1      -1.655  -0.084   3.543  1.00  0.00     0.202 C 
ENDROOT
BRANCH   1   2
ATOM      2  C   UNL     1      -2.389  -0.369   2.229  1.00  0.00     0.261 C 
BRANCH   2   3
ATOM      3  O   UNL     1      -1.603   0.024   1.086  1.00  0.00    -0.462 OA
BRANCH   3   4
ATOM      4  C   UNL     1      -1.939   1.204   0.506  1.00  0.00     0.329 C 
ATOM      5  O   UNL     1      -2.899   1.882   0.861  1.00  0.00    -0.250 OA
BRANCH   4   6
ATOM      6  C   UNL     1      -1.016   1.580  -0.683  1.00  0.00     0.204 C 
BRANCH   6   7
ATOM      7  C   UNL     1       0.501   1.245  -0.582  1.00  0.00     0.017 C 
ATOM      8  C   UNL     1       0.818  -0.249  -0.412  1.00  0.00     0.010 C 
ATOM      9  C   UNL     1       1.240   1.724  -1.844  1.00  0.00     0.010 C 
ENDBRANCH   6   7
BRANCH   6  10
ATOM     10  N   UNL     1      -1.360   3.020  -0.941  1.00  0.00    -0.278 N 
ATOM     11  C   UNL     1      -2.534   3.216  -1.668  1.00  0.00     0.267 C 
ATOM     12  C   UNL     1      -0.830   4.164  -0.370  1.00  0.00     0.149 C 
ATOM     13  O   UNL     1      -3.106   2.356  -2.325  1.00  0.00    -0.268 OA
ATOM     14  C   UNL     1      -3.021   4.613  -1.507  1.00  0.00     0.081 C 
ATOM     15  S   UNL     1      -1.764   5.580  -0.859  1.00  0.00    -0.054 SA
ATOM     16  S   UNL     1       0.475   4.379   0.644  1.00  0.00    -0.052 S 
ATOM     17  C   UNL     1      -4.265   5.070  -1.700  1.00  0.00     0.029 C 
BRANCH  17  18
ATOM     18  C   UNL     1      -5.395   4.223  -2.072  1.00  0.00    -0.024 A 
ATOM     19  C   UNL     1      -5.881   4.248  -3.382  1.00  0.00     0.015 A 
ATOM     20  C   UNL     1      -5.969   3.360  -1.127  1.00  0.00     0.015 A 
ATOM     21  C   UNL     1      -6.921   3.396  -3.759  1.00  0.00     0.086 A 
ATOM     22  C   UNL     1      -7.009   2.505  -1.494  1.00  0.00     0.086 A 
ATOM     23  C   UNL     1      -7.476   2.521  -2.815  1.00  0.00     0.269 A 
BRANCH  23  24
ATOM     24  N   UNL     1      -8.546   1.602  -3.217  1.00  0.00     0.062 N 
ATOM     25  O   UNL     1      -8.956   1.670  -4.385  1.00  0.00    -0.258 OA
ATOM     26  O   UNL     1      -8.980   0.811  -2.367  1.00  0.00    -0.258 OA
ENDBRANCH  23  24
ENDBRANCH  17  18
ENDBRANCH   6  10
ENDBRANCH   4   6
ENDBRANCH   3   4
ENDBRANCH   2   3
ENDBRANCH   1   2
BRANCH   1  27
ATOM     27  O   UNL     1      -1.570   1.290   3.920  1.00  0.00    -0.374 OA
BRANCH  27  28
ATOM     28  C   UNL     1      -0.546   2.067   3.302  1.00  0.00     0.202 C 
BRANCH  28  29
ATOM     29  C   UNL     1       0.835   1.999   3.955  1.00  0.00     0.261 C 
BRANCH  29  30
ATOM     30  O   UNL     1       1.391   0.679   3.829  1.00  0.00    -0.460 OA
BRANCH  30  31
ATOM     31  C   UNL     1       1.437  -0.016   4.986  1.00  0.00     0.338 C 
ATOM     32  O   UNL     1       1.185   0.397   6.111  1.00  0.00    -0.246 OA
BRANCH  31  33
ATOM     33  C   UNL     1       1.676  -1.443   4.713  1.00  0.00     0.060 A 
ATOM     34  C   UNL     1       0.863  -2.359   5.391  1.00  0.00     0.016 A 
ATOM     35  C   UNL     1       2.703  -1.887   3.875  1.00  0.00     0.016 A 
ATOM     36  C   UNL     1       1.122  -3.722   5.297  1.00  0.00     0.010 A 
ATOM     37  C   UNL     1       2.964  -3.258   3.783  1.00  0.00     0.010 A 
ATOM     38  C   UNL     1       2.203  -4.175   4.530  1.00  0.00    -0.014 A 
BRANCH  38  39
ATOM     39  C   UNL     1       2.620  -5.591   4.652  1.00  0.00     0.031 A 
ATOM     40  C   UNL     1       3.764  -5.937   5.564  1.00  0.00     0.074 A 
ATOM     41  C   UNL     1       1.947  -6.560   4.008  1.00  0.00     0.049 A 
ATOM     42  N   UNL     1       4.280  -7.107   5.843  1.00  0.00    -0.248 NA
ATOM     43  C   UNL     1       4.414  -4.812   6.255  1.00  0.00     0.031 C 
ATOM     44  C   UNL     1       0.800  -6.348   3.129  1.00  0.00     0.029 A 
ATOM     45  N   UNL     1       2.134  -7.919   4.001  1.00  0.00    -0.354 N 
ATOM     46  C   UNL     1       5.314  -6.859   6.737  1.00  0.00     0.074 A 
ATOM     47  C   UNL     1       5.375  -5.426   6.929  1.00  0.00     0.031 C 
ATOM     48  C   UNL     1       0.386  -7.537   2.660  1.00  0.00     0.029 A 
ATOM     49  C   UNL     1       1.254  -8.588   3.188  1.00  0.00     0.049 A 
ATOM     50  H   UNL     1       2.832  -8.371   4.528  1.00  0.00     0.167 HD
ATOM     51  C   UNL     1       6.130  -7.748   7.351  1.00  0.00     0.037 A 
ATOM     52  C   UNL     1       1.171  -9.900   2.894  1.00  0.00     0.037 A 
ATOM     53  C   UNL     1       6.061  -9.173   7.162  1.00  0.00     0.049 A 
ATOM     54  C   UNL     1       2.128 -10.863   3.545  1.00  0.00     0.074 A 
ATOM     55  C   UNL     1       6.824 -10.161   7.760  1.00  0.00     0.029 A 
ATOM     56  N   UNL     1       5.181  -9.812   6.301  1.00  0.00    -0.354 N 
ATOM     57  N   UNL     1       3.080 -10.625   4.414  1.00  0.00    -0.248 NA
ATOM     58  C   UNL     1       1.995 -12.280   3.177  1.00  0.00     0.031 C 
ATOM     59  C   UNL     1       6.440 -11.394   7.222  1.00  0.00     0.029 A 
ATOM     60  C   UNL     1       5.402 -11.180   6.328  1.00  0.00     0.049 A 
ATOM     61  H   UNL     1       4.500  -9.360   5.752  1.00  0.00     0.167 HD
ATOM     62  C   UNL     1       3.643 -11.858   4.715  1.00  0.00     0.074 A 
ATOM     63  C   UNL     1       2.915 -12.846   3.945  1.00  0.00     0.031 C 
ATOM     64  C   UNL     1       4.668 -12.148   5.554  1.00  0.00     0.037 A 
BRANCH  51  65
ATOM     65  C   UNL     1       7.186  -7.200   8.266  1.00  0.00     0.064 A 
ATOM     66  C   UNL     1       6.867  -6.642   9.513  1.00  0.00     0.173 A 
ATOM     67  C   UNL     1       8.539  -7.258   7.900  1.00  0.00     0.173 A 
ATOM     68  F   UNL     1       5.586  -6.549   9.904  1.00  0.00    -0.203 F 
ATOM     69  C   UNL     1       7.861  -6.137  10.348  1.00  0.00     0.198 A 
ATOM     70  C   UNL     1       9.533  -6.778   8.749  1.00  0.00     0.198 A 
ATOM     71  F   UNL     1       8.898  -7.784   6.720  1.00  0.00    -0.203 F 
ATOM     72  F   UNL     1       7.529  -5.565  11.513  1.00  0.00    -0.200 F 
ATOM     73  C   UNL     1       9.193  -6.212   9.968  1.00  0.00     0.200 A 
ATOM     74  F   UNL     1      10.820  -6.861   8.385  1.00  0.00    -0.200 F 
ATOM     75  F   UNL     1      10.149  -5.730  10.774  1.00  0.00    -0.200 F 
ENDBRANCH  51  65
BRANCH  52  76
ATOM     76  C   UNL     1       0.145 -10.376   1.932  1.00  0.00     0.064 A 
ATOM     77  C   UNL     1      -0.940 -11.155   2.353  1.00  0.00     0.173 A 
ATOM     78  C   UNL     1       0.230 -10.059   0.568  1.00  0.00     0.173 A 
ATOM     79  F   UNL     1      -1.052 -11.504   3.644  1.00  0.00    -0.203 F 
ATOM     80  C   UNL     1      -1.894 -11.611   1.446  1.00  0.00     0.198 A 
ATOM     81  C   UNL     1      -0.738 -10.492  -0.335  1.00  0.00     0.198 A 
ATOM     82  F   UNL     1       1.250  -9.315   0.114  1.00  0.00    -0.203 F 
ATOM     83  F   UNL     1      -2.901 -12.388   1.868  1.00  0.00    -0.200 F 
ATOM     84  C   UNL     1      -1.796 -11.273   0.104  1.00  0.00     0.200 A 
ATOM     85  F   UNL     1      -0.646 -10.152  -1.627  1.00  0.00    -0.200 F 
ATOM     86  F   UNL     1      -2.718 -11.706  -0.767  1.00  0.00    -0.200 F 
ENDBRANCH  52  76
BRANCH  64  87
ATOM     87  C   UNL     1       5.048 -13.593   5.704  1.00  0.00     0.064 A 
ATOM     88  C   UNL     1       5.711 -14.288   4.682  1.00  0.00     0.173 A 
ATOM     89  C   UNL     1       4.782 -14.277   6.900  1.00  0.00     0.173 A 
ATOM     90  F   UNL     1       5.975 -13.682   3.515  1.00  0.00    -0.203 F 
ATOM     91  C   UNL     1       6.073 -15.623   4.843  1.00  0.00     0.198 A 
ATOM     92  C   UNL     1       5.171 -15.603   7.068  1.00  0.00     0.198 A 
ATOM     93  F   UNL     1       4.157 -13.655   7.910  1.00  0.00    -0.203 F 
ATOM     94  F   UNL     1       6.665 -16.281   3.837  1.00  0.00    -0.200 F 
ATOM     95  C   UNL     1       5.809 -16.277   6.038  1.00  0.00     0.200 A 
ATOM     96  F   UNL     1       4.928 -16.229   8.228  1.00  0.00    -0.200 F 
ATOM     97  F   UNL     1       6.164 -17.560   6.194  1.00  0.00    -0.200 F 
ENDBRANCH  64  87
ENDBRANCH  38  39
ENDBRANCH  31  33
ENDBRANCH  30  31
ENDBRANCH  29  30
ENDBRANCH  28  29
ENDBRANCH  27  28
ENDBRANCH   1  27
TORSDOF 18
