REMARK SMILES O=C(CCC[N@@H+]1CCC[C@]2(CCC(=O)N(CCc3ccccc3)C2)C1)OCCOCCOC(=O)c1ccc(-c2c3nc(c(-c4c(F)c(F)c(F)c(F)c4F)c4ccc([nH]4)c(-c4c(F)c(F)c(F)c(F)c4F)c4nc(c(-c5c(F)c(F)c(F)c(F)c5F)c5ccc2[nH]5)C=C4)C=C3)cc1
REMARK SMILES IDX 27 1 26 2 2 3 1 4 3 5 4 6 5 7 6 8 7 9 25 10 8 12 10 13 9 14
REMARK SMILES IDX 11 15 24 16 12 17 15 18 13 19 14 20 16 21 17 22 18 23 19 24
REMARK SMILES IDX 23 25 20 26 22 27 21 28 28 29 29 30 30 31 31 32 32 33 33 34
REMARK SMILES IDX 34 35 35 36 36 37 97 38 37 39 96 40 38 41 39 42 40 43 90 44
REMARK SMILES IDX 41 45 95 46 89 47 91 48 42 49 94 50 88 51 87 52 43 54 75 55
REMARK SMILES IDX 55 56 74 57 56 58 59 59 73 60 92 61 57 62 58 63 72 65 93 66
REMARK SMILES IDX 60 67 44 68 45 69 53 70 46 71 47 72 51 73 54 74 48 75 49 76
REMARK SMILES IDX 52 77 50 78 76 79 77 80 85 81 78 82 79 83 83 84 86 85 80 86
REMARK SMILES IDX 81 87 84 88 82 89 61 90 62 91 70 92 63 93 64 94 68 95 71 96
REMARK SMILES IDX 65 97 66 98 69 99 67 100
REMARK H PARENT 6 11 91 53 59 64
REMARK Flexibility Score: inf
ROOT
ATOM      1  C   UNL     1       3.533  -0.451  -2.258  1.00  0.00     0.261 C 
ENDROOT
BRANCH   1   2
ATOM      2  O   UNL     1       2.771  -1.577  -1.801  1.00  0.00    -0.463 OA
BRANCH   2   3
ATOM      3  C   UNL     1       1.956  -1.405  -0.743  1.00  0.00     0.306 C 
ATOM      4  O   UNL     1       0.765  -1.146  -0.881  1.00  0.00    -0.252 OA
BRANCH   3   5
ATOM      5  C   UNL     1       2.611  -1.565   0.611  1.00  0.00     0.128 C 
BRANCH   5   6
ATOM      6  C   UNL     1       3.814  -2.492   0.761  1.00  0.00     0.073 C 
BRANCH   6   7
ATOM      7  C   UNL     1       5.241  -1.997   0.434  1.00  0.00     0.262 C 
BRANCH   7   8
ATOM      8  N   UNL     1       5.985  -1.046   1.243  1.00  0.00    -0.334 N 
ATOM      9  C   UNL     1       7.219  -1.488   1.863  1.00  0.00     0.262 C 
ATOM     10  C   UNL     1       5.557   0.272   1.675  1.00  0.00     0.271 C 
ATOM     11  H   UNL     1       5.740  -0.758   0.296  1.00  0.00     0.348 HD
ATOM     12  C   UNL     1       6.989  -1.616   3.361  1.00  0.00     0.062 C 
ATOM     13  C   UNL     1       5.301   0.345   3.220  1.00  0.00     0.038 C 
ATOM     14  C   UNL     1       6.504  -0.294   3.970  1.00  0.00     0.020 C 
ATOM     15  C   UNL     1       3.978  -0.417   3.497  1.00  0.00     0.024 C 
ATOM     16  C   UNL     1       5.156   1.841   3.665  1.00  0.00     0.132 C 
ATOM     17  C   UNL     1       3.290  -0.090   4.803  1.00  0.00     0.101 C 
ATOM     18  N   UNL     1       4.372   2.029   4.890  1.00  0.00    -0.342 N 
ATOM     19  C   UNL     1       3.131   1.407   4.834  1.00  0.00     0.222 C 
ATOM     20  O   UNL     1       2.079   2.000   4.638  1.00  0.00    -0.275 OA
BRANCH  18  21
ATOM     21  C   UNL     1       5.041   2.118   6.192  1.00  0.00     0.124 C 
BRANCH  21  22
ATOM     22  C   UNL     1       4.169   2.675   7.348  1.00  0.00     0.057 C 
BRANCH  22  23
ATOM     23  C   UNL     1       2.997   1.827   7.810  1.00  0.00    -0.046 A 
ATOM     24  C   UNL     1       1.733   2.418   7.963  1.00  0.00     0.004 A 
ATOM     25  C   UNL     1       3.125   0.457   8.078  1.00  0.00     0.004 A 
ATOM     26  C   UNL     1       0.616   1.649   8.299  1.00  0.00     0.000 A 
ATOM     27  C   UNL     1       2.001  -0.318   8.386  1.00  0.00     0.000 A 
ATOM     28  C   UNL     1       0.747   0.277   8.490  1.00  0.00     0.000 A 
ENDBRANCH  22  23
ENDBRANCH  21  22
ENDBRANCH  18  21
ENDBRANCH   7   8
ENDBRANCH   6   7
ENDBRANCH   5   6
ENDBRANCH   3   5
ENDBRANCH   2   3
ENDBRANCH   1   2
BRANCH   1  29
ATOM     29  C   UNL     1       3.116   0.965  -1.855  1.00  0.00     0.202 C 
BRANCH  29  30
ATOM     30  O   UNL     1       2.945   1.150  -0.457  1.00  0.00    -0.374 OA
BRANCH  30  31
ATOM     31  C   UNL     1       1.986   2.157  -0.103  1.00  0.00     0.202 C 
BRANCH  31  32
ATOM     32  C   UNL     1       2.599   3.556   0.008  1.00  0.00     0.261 C 
BRANCH  32  33
ATOM     33  O   UNL     1       3.170   3.934  -1.256  1.00  0.00    -0.460 OA
BRANCH  33  34
ATOM     34  C   UNL     1       4.530   3.957  -1.302  1.00  0.00     0.338 C 
ATOM     35  O   UNL     1       5.296   3.937  -0.369  1.00  0.00    -0.246 OA
BRANCH  34  36
ATOM     36  C   UNL     1       4.952   3.777  -2.722  1.00  0.00     0.060 A 
ATOM     37  C   UNL     1       6.176   3.134  -2.956  1.00  0.00     0.016 A 
ATOM     38  C   UNL     1       4.117   4.102  -3.797  1.00  0.00     0.016 A 
ATOM     39  C   UNL     1       6.583   2.849  -4.261  1.00  0.00     0.010 A 
ATOM     40  C   UNL     1       4.521   3.812  -5.101  1.00  0.00     0.010 A 
ATOM     41  C   UNL     1       5.769   3.213  -5.340  1.00  0.00    -0.014 A 
BRANCH  41  42
ATOM     42  C   UNL     1       6.297   3.162  -6.723  1.00  0.00     0.031 A 
ATOM     43  C   UNL     1       6.839   4.434  -7.312  1.00  0.00     0.074 A 
ATOM     44  C   UNL     1       6.284   2.027  -7.442  1.00  0.00     0.049 A 
ATOM     45  N   UNL     1       7.288   4.669  -8.517  1.00  0.00    -0.248 NA
ATOM     46  C   UNL     1       6.865   5.604  -6.419  1.00  0.00     0.031 C 
ATOM     47  C   UNL     1       5.803   0.730  -6.973  1.00  0.00     0.029 A 
ATOM     48  N   UNL     1       6.677   1.794  -8.737  1.00  0.00    -0.354 N 
ATOM     49  C   UNL     1       7.642   6.012  -8.527  1.00  0.00     0.074 A 
ATOM     50  C   UNL     1       7.324   6.549  -7.223  1.00  0.00     0.031 C 
ATOM     51  C   UNL     1       5.916  -0.163  -7.972  1.00  0.00     0.029 A 
ATOM     52  C   UNL     1       6.451   0.506  -9.157  1.00  0.00     0.049 A 
ATOM     53  H   UNL     1       7.082   2.484  -9.310  1.00  0.00     0.167 HD
ATOM     54  C   UNL     1       8.194   6.731  -9.531  1.00  0.00     0.037 A 
ATOM     55  C   UNL     1       6.638  -0.054 -10.368  1.00  0.00     0.037 A 
ATOM     56  C   UNL     1       8.509   6.195 -10.827  1.00  0.00     0.049 A 
ATOM     57  C   UNL     1       7.203   0.782 -11.490  1.00  0.00     0.074 A 
ATOM     58  C   UNL     1       9.091   6.833 -11.907  1.00  0.00     0.029 A 
ATOM     59  N   UNL     1       8.258   4.888 -11.218  1.00  0.00    -0.354 N 
ATOM     60  N   UNL     1       7.571   2.041 -11.482  1.00  0.00    -0.248 NA
ATOM     61  C   UNL     1       7.379   0.117 -12.790  1.00  0.00     0.031 C 
ATOM     62  C   UNL     1       9.151   5.924 -12.968  1.00  0.00     0.029 A 
ATOM     63  C   UNL     1       8.653   4.706 -12.533  1.00  0.00     0.049 A 
ATOM     64  H   UNL     1       7.859   4.193 -10.646  1.00  0.00     0.167 HD
ATOM     65  C   UNL     1       8.049   2.309 -12.759  1.00  0.00     0.074 A 
ATOM     66  C   UNL     1       7.933   1.080 -13.514  1.00  0.00     0.031 C 
ATOM     67  C   UNL     1       8.540   3.469 -13.262  1.00  0.00     0.037 A 
BRANCH  54  68
ATOM     68  C   UNL     1       8.469   8.180  -9.266  1.00  0.00     0.064 A 
ATOM     69  C   UNL     1       9.499   8.588  -8.405  1.00  0.00     0.173 A 
ATOM     70  C   UNL     1       7.699   9.174  -9.888  1.00  0.00     0.173 A 
ATOM     71  F   UNL     1      10.249   7.675  -7.770  1.00  0.00    -0.203 F 
ATOM     72  C   UNL     1       9.730   9.938  -8.155  1.00  0.00     0.198 A 
ATOM     73  C   UNL     1       7.951  10.523  -9.657  1.00  0.00     0.198 A 
ATOM     74  F   UNL     1       6.701   8.836 -10.718  1.00  0.00    -0.203 F 
ATOM     75  F   UNL     1      10.684  10.303  -7.288  1.00  0.00    -0.200 F 
ATOM     76  C   UNL     1       8.960  10.904  -8.786  1.00  0.00     0.200 A 
ATOM     77  F   UNL     1       7.212  11.456 -10.273  1.00  0.00    -0.200 F 
ATOM     78  F   UNL     1       9.185  12.203  -8.546  1.00  0.00    -0.200 F 
ENDBRANCH  54  68
BRANCH  55  79
ATOM     79  C   UNL     1       6.286  -1.481 -10.593  1.00  0.00     0.064 A 
ATOM     80  C   UNL     1       7.280  -2.444 -10.819  1.00  0.00     0.173 A 
ATOM     81  C   UNL     1       4.950  -1.907 -10.614  1.00  0.00     0.173 A 
ATOM     82  F   UNL     1       8.571  -2.081 -10.837  1.00  0.00    -0.203 F 
ATOM     83  C   UNL     1       6.950  -3.774 -11.074  1.00  0.00     0.198 A 
ATOM     84  C   UNL     1       4.622  -3.241 -10.843  1.00  0.00     0.198 A 
ATOM     85  F   UNL     1       3.961  -1.024 -10.409  1.00  0.00    -0.203 F 
ATOM     86  F   UNL     1       7.917  -4.664 -11.332  1.00  0.00    -0.200 F 
ATOM     87  C   UNL     1       5.622  -4.173 -11.081  1.00  0.00     0.200 A 
ATOM     88  F   UNL     1       3.338  -3.624 -10.841  1.00  0.00    -0.200 F 
ATOM     89  F   UNL     1       5.305  -5.451 -11.326  1.00  0.00    -0.200 F 
ENDBRANCH  55  79
BRANCH  67  90
ATOM     90  C   UNL     1       9.027   3.457 -14.681  1.00  0.00     0.064 A 
ATOM     91  C   UNL     1       8.137   3.410 -15.764  1.00  0.00     0.173 A 
ATOM     92  C   UNL     1      10.399   3.550 -14.960  1.00  0.00     0.173 A 
ATOM     93  F   UNL     1       6.817   3.308 -15.549  1.00  0.00    -0.203 F 
ATOM     94  C   UNL     1       8.605   3.438 -17.075  1.00  0.00     0.198 A 
ATOM     95  C   UNL     1      10.861   3.606 -16.271  1.00  0.00     0.198 A 
ATOM     96  F   UNL     1      11.290   3.606 -13.959  1.00  0.00    -0.203 F 
ATOM     97  F   UNL     1       7.740   3.353 -18.095  1.00  0.00    -0.200 F 
ATOM     98  C   UNL     1       9.965   3.544 -17.327  1.00  0.00     0.200 A 
ATOM     99  F   UNL     1      12.174   3.724 -16.513  1.00  0.00    -0.200 F 
ATOM    100  F   UNL     1      10.413   3.582 -18.590  1.00  0.00    -0.200 F 
ENDBRANCH  67  90
ENDBRANCH  41  42
ENDBRANCH  34  36
ENDBRANCH  33  34
ENDBRANCH  32  33
ENDBRANCH  31  32
ENDBRANCH  30  31
ENDBRANCH  29  30
ENDBRANCH   1  29
TORSDOF 20
