REMARK SMILES CC(C)[C@H]1CC[C@@H](C)/C(=C/c2ccc(NC(=O)CCC(=O)OCCOCCOC(=O)c3ccc(-c4c5nc(c(-c6c(F)c(F)c(F)c(F)c6F)c6ccc([nH]6)c(-c6c(F)c(F)c(F)c(F)c6F)c6nc(c(-c7c(F)c(F)c(F)c(F)c7F)c7ccc4[nH]7)C=C6)C=C5)cc3)cc2)C1=O
REMARK SMILES IDX 23 1 22 2 20 3 21 4 19 5 18 6 16 7 15 8 17 10 14 11 11 12
REMARK SMILES IDX 12 13 95 14 13 15 94 16 10 17 4 18 5 19 96 20 6 21 9 22
REMARK SMILES IDX 97 23 7 24 8 25 2 26 1 27 3 28 24 29 25 30 26 31 27 32 28 33
REMARK SMILES IDX 29 34 30 35 31 36 32 37 93 38 33 39 92 40 34 41 35 42 36 43
REMARK SMILES IDX 86 44 37 45 91 46 85 47 87 48 38 49 90 50 84 51 83 52 39 54
REMARK SMILES IDX 71 55 51 56 70 57 52 58 55 59 69 60 88 61 53 62 54 63 68 65
REMARK SMILES IDX 89 66 56 67 40 68 41 69 49 70 42 71 43 72 47 73 50 74 44 75
REMARK SMILES IDX 45 76 48 77 46 78 72 79 73 80 81 81 74 82 75 83 79 84 82 85
REMARK SMILES IDX 76 86 77 87 80 88 78 89 57 90 58 91 66 92 59 93 60 94 64 95
REMARK SMILES IDX 67 96 61 97 62 98 65 99 63 100
REMARK H PARENT 15 9 87 53 55 64
REMARK Flexibility Score: inf
ROOT
ATOM      1  C   UNL     1       2.181   4.575  -0.966  1.00  0.00     0.261 C 
ENDROOT
BRANCH   1   2
ATOM      2  O   UNL     1       2.684   5.168   0.239  1.00  0.00    -0.463 OA
BRANCH   2   3
ATOM      3  C   UNL     1       2.850   6.505   0.248  1.00  0.00     0.306 C 
ATOM      4  O   UNL     1       2.734   7.226  -0.734  1.00  0.00    -0.252 OA
BRANCH   3   5
ATOM      5  C   UNL     1       3.201   7.007   1.628  1.00  0.00     0.132 C 
BRANCH   5   6
ATOM      6  C   UNL     1       2.704   6.130   2.784  1.00  0.00     0.112 C 
BRANCH   6   7
ATOM      7  C   UNL     1       3.743   5.123   3.264  1.00  0.00     0.224 C 
ATOM      8  N   UNL     1       3.811   3.789   2.970  1.00  0.00    -0.326 N 
ATOM      9  H   UNL     1       4.638   3.381   3.314  1.00  0.00     0.169 HD
ATOM     10  O   UNL     1       4.672   5.564   3.961  1.00  0.00    -0.275 OA
BRANCH   8  11
ATOM     11  C   UNL     1       3.001   2.849   2.301  1.00  0.00     0.041 A 
ATOM     12  C   UNL     1       1.463   1.029   0.719  1.00  0.00    -0.025 A 
ATOM     13  C   UNL     1       0.909   2.174   1.247  1.00  0.00     0.010 A 
ATOM     14  C   UNL     1       2.763   0.712   1.115  1.00  0.00     0.010 A 
ATOM     15  C   UNL     1       1.695   3.083   1.961  1.00  0.00     0.027 A 
ATOM     16  C   UNL     1       3.508   1.597   1.940  1.00  0.00     0.027 A 
BRANCH  12  17
ATOM     17  C   UNL     1       0.742   0.429  -0.417  1.00  0.00     0.015 C 
ATOM     18  C   UNL     1      -1.182  -1.996   1.031  1.00  0.00     0.063 C 
ATOM     19  C   UNL     1      -1.864  -2.633  -0.198  1.00  0.00     0.013 C 
ATOM     20  C   UNL     1      -1.171  -0.482   0.838  1.00  0.00     0.162 C 
ATOM     21  C   UNL     1      -1.290  -2.123  -1.536  1.00  0.00     0.009 C 
ATOM     22  C   UNL     1      -0.504  -0.081  -0.427  1.00  0.00    -0.001 C 
ATOM     23  O   UNL     1      -1.694   0.342   1.577  1.00  0.00    -0.294 OA
ATOM     24  C   UNL     1      -1.247  -0.590  -1.638  1.00  0.00     0.020 C 
ATOM     25  C   UNL     1      -2.662  -0.001  -1.775  1.00  0.00     0.013 C 
BRANCH  18  26
ATOM     26  C   UNL     1      -1.749  -2.388   2.418  1.00  0.00    -0.007 C 
ATOM     27  C   UNL     1      -2.539  -3.694   2.440  1.00  0.00     0.008 C 
ATOM     28  C   UNL     1      -0.584  -2.486   3.411  1.00  0.00     0.008 C 
ENDBRANCH  18  26
ENDBRANCH  12  17
ENDBRANCH   8  11
ENDBRANCH   6   7
ENDBRANCH   5   6
ENDBRANCH   3   5
ENDBRANCH   2   3
ENDBRANCH   1   2
BRANCH   1  29
ATOM     29  C   UNL     1       0.683   4.863  -1.182  1.00  0.00     0.202 C 
BRANCH  29  30
ATOM     30  O   UNL     1      -0.149   4.420  -0.097  1.00  0.00    -0.374 OA
BRANCH  30  31
ATOM     31  C   UNL     1      -0.656   5.440   0.777  1.00  0.00     0.202 C 
BRANCH  31  32
ATOM     32  C   UNL     1      -1.444   4.850   2.000  1.00  0.00     0.261 C 
BRANCH  32  33
ATOM     33  O   UNL     1      -0.590   4.408   3.111  1.00  0.00    -0.460 OA
BRANCH  33  34
ATOM     34  C   UNL     1      -1.064   3.387   3.892  1.00  0.00     0.338 C 
ATOM     35  O   UNL     1      -2.225   3.006   3.905  1.00  0.00    -0.246 OA
BRANCH  34  36
ATOM     36  C   UNL     1       0.011   2.660   4.671  1.00  0.00     0.060 A 
ATOM     37  C   UNL     1       0.193   1.290   4.430  1.00  0.00     0.016 A 
ATOM     38  C   UNL     1       0.788   3.240   5.681  1.00  0.00     0.016 A 
ATOM     39  C   UNL     1       1.133   0.520   5.154  1.00  0.00     0.010 A 
ATOM     40  C   UNL     1       1.707   2.452   6.439  1.00  0.00     0.010 A 
ATOM     41  C   UNL     1       1.888   1.075   6.195  1.00  0.00    -0.014 A 
BRANCH  41  42
ATOM     42  C   UNL     1       2.726   0.170   7.072  1.00  0.00     0.031 A 
ATOM     43  C   UNL     1       2.080  -0.573   8.227  1.00  0.00     0.074 A 
ATOM     44  C   UNL     1       4.031  -0.100   6.846  1.00  0.00     0.049 A 
ATOM     45  N   UNL     1       2.600  -1.447   9.061  1.00  0.00    -0.248 NA
ATOM     46  C   UNL     1       0.658  -0.297   8.462  1.00  0.00     0.031 C 
ATOM     47  C   UNL     1       4.837   0.442   5.759  1.00  0.00     0.029 A 
ATOM     48  N   UNL     1       4.911  -0.923   7.530  1.00  0.00    -0.354 N 
ATOM     49  C   UNL     1       1.568  -1.838   9.906  1.00  0.00     0.074 A 
ATOM     50  C   UNL     1       0.398  -1.083   9.498  1.00  0.00     0.031 C 
ATOM     51  C   UNL     1       6.087  -0.052   5.850  1.00  0.00     0.029 A 
ATOM     52  C   UNL     1       6.187  -0.938   7.015  1.00  0.00     0.049 A 
ATOM     53  H   UNL     1       4.646  -1.452   8.317  1.00  0.00     0.167 HD
ATOM     54  C   UNL     1       1.570  -2.738  10.923  1.00  0.00     0.037 A 
ATOM     55  C   UNL     1       7.310  -1.573   7.424  1.00  0.00     0.037 A 
ATOM     56  C   UNL     1       2.701  -3.499  11.395  1.00  0.00     0.049 A 
ATOM     57  C   UNL     1       7.316  -2.481   8.637  1.00  0.00     0.074 A 
ATOM     58  C   UNL     1       2.745  -4.427  12.426  1.00  0.00     0.029 A 
ATOM     59  N   UNL     1       3.986  -3.416  10.892  1.00  0.00    -0.354 N 
ATOM     60  N   UNL     1       6.323  -2.868   9.395  1.00  0.00    -0.248 NA
ATOM     61  C   UNL     1       8.619  -3.044   9.046  1.00  0.00     0.031 C 
ATOM     62  C   UNL     1       4.065  -4.867  12.579  1.00  0.00     0.029 A 
ATOM     63  C   UNL     1       4.835  -4.250  11.611  1.00  0.00     0.049 A 
ATOM     64  H   UNL     1       4.261  -2.849  10.135  1.00  0.00     0.167 HD
ATOM     65  C   UNL     1       6.870  -3.736  10.338  1.00  0.00     0.074 A 
ATOM     66  C   UNL     1       8.282  -3.837  10.053  1.00  0.00     0.031 C 
ATOM     67  C   UNL     1       6.244  -4.387  11.348  1.00  0.00     0.037 A 
BRANCH  54  68
ATOM     68  C   UNL     1       0.271  -2.946  11.643  1.00  0.00     0.064 A 
ATOM     69  C   UNL     1      -0.767  -3.696  11.071  1.00  0.00     0.173 A 
ATOM     70  C   UNL     1       0.085  -2.438  12.938  1.00  0.00     0.173 A 
ATOM     71  F   UNL     1      -0.633  -4.201   9.836  1.00  0.00    -0.203 F 
ATOM     72  C   UNL     1      -1.958  -3.906  11.760  1.00  0.00     0.198 A 
ATOM     73  C   UNL     1      -1.097  -2.671  13.633  1.00  0.00     0.198 A 
ATOM     74  F   UNL     1       1.058  -1.732  13.532  1.00  0.00    -0.203 F 
ATOM     75  F   UNL     1      -2.952  -4.594  11.183  1.00  0.00    -0.200 F 
ATOM     76  C   UNL     1      -2.120  -3.397  13.041  1.00  0.00     0.200 A 
ATOM     77  F   UNL     1      -1.246  -2.194  14.876  1.00  0.00    -0.200 F 
ATOM     78  F   UNL     1      -3.265  -3.605  13.705  1.00  0.00    -0.200 F 
ENDBRANCH  54  68
BRANCH  55  79
ATOM     79  C   UNL     1       8.595  -1.371   6.696  1.00  0.00     0.064 A 
ATOM     80  C   UNL     1       9.203  -2.423   5.993  1.00  0.00     0.173 A 
ATOM     81  C   UNL     1       9.296  -0.161   6.793  1.00  0.00     0.173 A 
ATOM     82  F   UNL     1       8.596  -3.616   5.918  1.00  0.00    -0.203 F 
ATOM     83  C   UNL     1      10.472  -2.277   5.436  1.00  0.00     0.198 A 
ATOM     84  C   UNL     1      10.553  -0.009   6.212  1.00  0.00     0.198 A 
ATOM     85  F   UNL     1       8.771   0.865   7.479  1.00  0.00    -0.203 F 
ATOM     86  F   UNL     1      11.060  -3.319   4.830  1.00  0.00    -0.200 F 
ATOM     87  C   UNL     1      11.145  -1.070   5.543  1.00  0.00     0.200 A 
ATOM     88  F   UNL     1      11.203   1.158   6.322  1.00  0.00    -0.200 F 
ATOM     89  F   UNL     1      12.372  -0.935   5.022  1.00  0.00    -0.200 F 
ENDBRANCH  55  79
BRANCH  67  90
ATOM     90  C   UNL     1       7.059  -5.311  12.217  1.00  0.00     0.064 A 
ATOM     91  C   UNL     1       8.016  -4.827  13.123  1.00  0.00     0.173 A 
ATOM     92  C   UNL     1       6.862  -6.701  12.165  1.00  0.00     0.173 A 
ATOM     93  F   UNL     1       8.258  -3.510  13.209  1.00  0.00    -0.203 F 
ATOM     94  C   UNL     1       8.761  -5.697  13.920  1.00  0.00     0.198 A 
ATOM     95  C   UNL     1       7.590  -7.566  12.983  1.00  0.00     0.198 A 
ATOM     96  F   UNL     1       5.959  -7.226  11.324  1.00  0.00    -0.203 F 
ATOM     97  F   UNL     1       9.701  -5.210  14.742  1.00  0.00    -0.200 F 
ATOM     98  C   UNL     1       8.544  -7.064  13.854  1.00  0.00     0.200 A 
ATOM     99  F   UNL     1       7.370  -8.887  12.924  1.00  0.00    -0.200 F 
ATOM    100  F   UNL     1       9.259  -7.898  14.622  1.00  0.00    -0.200 F 
ENDBRANCH  67  90
ENDBRANCH  41  42
ENDBRANCH  34  36
ENDBRANCH  33  34
ENDBRANCH  32  33
ENDBRANCH  31  32
ENDBRANCH  30  31
ENDBRANCH  29  30
ENDBRANCH   1  29
TORSDOF 19
