REMARK SMILES CC1=C[C@H](C)[C@H](CN2C[C@@]34C=C[C@@H](O3)[C@H](C(=O)OCCOCCOC(=O)c3ccc(-c5c6nc(c(-c7c(F)c(F)c(F)c(F)c7F)c7ccc([nH]7)c(-c7c(F)c(F)c(F)c(F)c7F)c7nc(c(-c8c(F)c(F)c(F)c(F)c8F)c8ccc5[nH]8)C=C7)C=C6)cc3)[C@@H]4C2=O)[C@H](C)C1
REMARK SMILES IDX 21 1 20 2 19 3 18 4 16 5 17 6 15 7 8 8 9 9 91 10 10 11 90 12
REMARK SMILES IDX 92 13 11 14 14 15 12 16 13 17 7 18 6 19 1 20 2 21 3 22 95 23
REMARK SMILES IDX 4 24 93 25 5 26 94 27 22 28 23 29 24 30 25 31 26 32 27 33
REMARK SMILES IDX 28 34 89 35 29 36 88 37 30 38 31 39 32 40 82 41 33 42 87 43
REMARK SMILES IDX 81 44 83 45 34 46 86 47 80 48 79 49 35 51 67 52 47 53 66 54
REMARK SMILES IDX 48 55 51 56 65 57 84 58 49 59 50 60 64 62 85 63 52 64 36 65
REMARK SMILES IDX 37 66 45 67 38 68 39 69 43 70 46 71 40 72 41 73 44 74 42 75
REMARK SMILES IDX 68 76 69 77 77 78 70 79 71 80 75 81 78 82 72 83 73 84 76 85
REMARK SMILES IDX 74 86 53 87 54 88 62 89 55 90 56 91 60 92 63 93 57 94 58 95
REMARK SMILES IDX 61 96 59 97
REMARK H PARENT 83 50 51 61
REMARK Flexibility Score: inf
ROOT
ATOM      1  O   UNL     1      -6.343   5.407   8.542  1.00  0.00    -0.374 OA
ENDROOT
BRANCH   1   2
ATOM      2  C   UNL     1      -7.436   4.579   8.160  1.00  0.00     0.202 C 
BRANCH   2   3
ATOM      3  C   UNL     1      -7.151   3.385   7.238  1.00  0.00     0.261 C 
BRANCH   3   4
ATOM      4  O   UNL     1      -6.085   2.550   7.723  1.00  0.00    -0.463 OA
BRANCH   4   5
ATOM      5  C   UNL     1      -4.992   2.566   6.931  1.00  0.00     0.312 C 
ATOM      6  O   UNL     1      -4.945   3.093   5.822  1.00  0.00    -0.252 OA
BRANCH   5   7
ATOM      7  C   UNL     1      -3.730   2.143   7.611  1.00  0.00     0.148 C 
ATOM      8  N   UNL     1      -1.931   0.049   5.107  1.00  0.00    -0.339 N 
ATOM      9  C   UNL     1      -1.200  -0.170   6.394  1.00  0.00     0.160 C 
ATOM     10  C   UNL     1      -3.210   0.602   5.436  1.00  0.00     0.230 C 
ATOM     11  C   UNL     1      -2.239   0.259   7.447  1.00  0.00     0.117 C 
ATOM     12  C   UNL     1      -2.865   1.393   6.649  1.00  0.00     0.133 C 
ATOM     13  O   UNL     1      -4.226   0.590   4.772  1.00  0.00    -0.274 OA
ATOM     14  C   UNL     1      -3.274  -0.729   7.933  1.00  0.00     0.009 C 
ATOM     15  O   UNL     1      -2.035   0.994   8.662  1.00  0.00    -0.360 OA
ATOM     16  C   UNL     1      -4.056  -0.061   8.793  1.00  0.00     0.004 C 
ATOM     17  C   UNL     1      -3.500   1.322   8.873  1.00  0.00     0.157 C 
BRANCH   8  18
ATOM     18  C   UNL     1      -1.395   0.834   4.009  1.00  0.00     0.124 C 
BRANCH  18  19
ATOM     19  C   UNL     1      -0.044   0.531   3.376  1.00  0.00     0.018 C 
ATOM     20  C   UNL     1       1.652  -0.044  -0.741  1.00  0.00     0.039 C 
ATOM     21  C   UNL     1       1.101   0.120   0.648  1.00  0.00    -0.077 C 
ATOM     22  C   UNL     1       0.703  -0.930   1.371  1.00  0.00    -0.025 C 
ATOM     23  C   UNL     1       0.990   1.528   1.117  1.00  0.00     0.034 C 
ATOM     24  C   UNL     1       0.045  -0.877   2.716  1.00  0.00     0.014 C 
ATOM     25  C   UNL     1       0.449   1.780   2.531  1.00  0.00    -0.005 C 
ATOM     26  C   UNL     1      -1.280  -1.650   2.608  1.00  0.00     0.012 C 
ATOM     27  C   UNL     1      -0.521   2.987   2.429  1.00  0.00     0.008 C 
ENDBRANCH  18  19
ENDBRANCH   8  18
ENDBRANCH   5   7
ENDBRANCH   4   5
ENDBRANCH   3   4
ENDBRANCH   2   3
ENDBRANCH   1   2
BRANCH   1  28
ATOM     28  C   UNL     1      -5.325   4.858   9.375  1.00  0.00     0.202 C 
BRANCH  28  29
ATOM     29  C   UNL     1      -5.734   4.134  10.667  1.00  0.00     0.261 C 
BRANCH  29  30
ATOM     30  O   UNL     1      -6.534   2.959  10.422  1.00  0.00    -0.460 OA
BRANCH  30  31
ATOM     31  C   UNL     1      -7.628   2.851  11.215  1.00  0.00     0.338 C 
ATOM     32  O   UNL     1      -7.911   3.545  12.177  1.00  0.00    -0.246 OA
BRANCH  31  33
ATOM     33  C   UNL     1      -8.581   1.867  10.671  1.00  0.00     0.060 A 
ATOM     34  C   UNL     1      -9.742   2.357  10.060  1.00  0.00     0.016 A 
ATOM     35  C   UNL     1      -8.441   0.504  10.936  1.00  0.00     0.016 A 
ATOM     36  C   UNL     1     -10.787   1.490   9.753  1.00  0.00     0.010 A 
ATOM     37  C   UNL     1      -9.500  -0.365  10.633  1.00  0.00     0.010 A 
ATOM     38  C   UNL     1     -10.694   0.131  10.079  1.00  0.00    -0.014 A 
BRANCH  38  39
ATOM     39  C   UNL     1     -11.909  -0.714   9.955  1.00  0.00     0.031 A 
ATOM     40  C   UNL     1     -12.735  -1.015  11.176  1.00  0.00     0.074 A 
ATOM     41  C   UNL     1     -12.321  -1.134   8.745  1.00  0.00     0.049 A 
ATOM     42  N   UNL     1     -13.861  -1.677  11.276  1.00  0.00    -0.248 NA
ATOM     43  C   UNL     1     -12.229  -0.496  12.456  1.00  0.00     0.031 C 
ATOM     44  C   UNL     1     -11.628  -0.875   7.485  1.00  0.00     0.029 A 
ATOM     45  N   UNL     1     -13.429  -1.857   8.381  1.00  0.00    -0.354 N 
ATOM     46  C   UNL     1     -14.197  -1.654  12.624  1.00  0.00     0.074 A 
ATOM     47  C   UNL     1     -13.140  -0.941  13.310  1.00  0.00     0.031 C 
ATOM     48  C   UNL     1     -12.329  -1.429   6.482  1.00  0.00     0.029 A 
ATOM     49  C   UNL     1     -13.504  -2.103   7.032  1.00  0.00     0.049 A 
ATOM     50  H   UNL     1     -14.105  -2.170   9.024  1.00  0.00     0.167 HD
ATOM     51  C   UNL     1     -15.292  -2.172  13.233  1.00  0.00     0.037 A 
ATOM     52  C   UNL     1     -14.411  -2.803   6.325  1.00  0.00     0.037 A 
ATOM     53  C   UNL     1     -16.346  -2.878  12.550  1.00  0.00     0.049 A 
ATOM     54  C   UNL     1     -15.590  -3.415   7.034  1.00  0.00     0.074 A 
ATOM     55  C   UNL     1     -17.507  -3.418  13.076  1.00  0.00     0.029 A 
ATOM     56  N   UNL     1     -16.363  -3.150  11.189  1.00  0.00    -0.354 N 
ATOM     57  N   UNL     1     -15.913  -3.363   8.304  1.00  0.00    -0.248 NA
ATOM     58  C   UNL     1     -16.535  -4.176   6.207  1.00  0.00     0.031 C 
ATOM     59  C   UNL     1     -18.199  -4.064  12.045  1.00  0.00     0.029 A 
ATOM     60  C   UNL     1     -17.499  -3.876  10.864  1.00  0.00     0.049 A 
ATOM     61  H   UNL     1     -15.671  -2.868  10.549  1.00  0.00     0.167 HD
ATOM     62  C   UNL     1     -17.105  -4.066   8.424  1.00  0.00     0.074 A 
ATOM     63  C   UNL     1     -17.461  -4.511   7.093  1.00  0.00     0.031 C 
ATOM     64  C   UNL     1     -17.837  -4.323   9.537  1.00  0.00     0.037 A 
BRANCH  51  65
ATOM     65  C   UNL     1     -15.398  -2.018  14.724  1.00  0.00     0.064 A 
ATOM     66  C   UNL     1     -15.667  -0.778  15.322  1.00  0.00     0.173 A 
ATOM     67  C   UNL     1     -15.272  -3.136  15.562  1.00  0.00     0.173 A 
ATOM     68  F   UNL     1     -15.784   0.325  14.568  1.00  0.00    -0.203 F 
ATOM     69  C   UNL     1     -15.783  -0.660  16.706  1.00  0.00     0.198 A 
ATOM     70  C   UNL     1     -15.418  -3.020  16.942  1.00  0.00     0.198 A 
ATOM     71  F   UNL     1     -15.020  -4.347  15.041  1.00  0.00    -0.203 F 
ATOM     72  F   UNL     1     -15.999   0.542  17.259  1.00  0.00    -0.200 F 
ATOM     73  C   UNL     1     -15.666  -1.781  17.513  1.00  0.00     0.200 A 
ATOM     74  F   UNL     1     -15.317  -4.107  17.719  1.00  0.00    -0.200 F 
ATOM     75  F   UNL     1     -15.788  -1.668  18.843  1.00  0.00    -0.200 F 
ENDBRANCH  51  65
BRANCH  52  76
ATOM     76  C   UNL     1     -14.234  -2.973   4.859  1.00  0.00     0.064 A 
ATOM     77  C   UNL     1     -15.115  -2.377   3.946  1.00  0.00     0.173 A 
ATOM     78  C   UNL     1     -13.188  -3.752   4.343  1.00  0.00     0.173 A 
ATOM     79  F   UNL     1     -16.147  -1.646   4.390  1.00  0.00    -0.203 F 
ATOM     80  C   UNL     1     -14.967  -2.571   2.573  1.00  0.00     0.198 A 
ATOM     81  C   UNL     1     -13.023  -3.920   2.970  1.00  0.00     0.198 A 
ATOM     82  F   UNL     1     -12.321  -4.347   5.175  1.00  0.00    -0.203 F 
ATOM     83  F   UNL     1     -15.853  -2.032   1.724  1.00  0.00    -0.200 F 
ATOM     84  C   UNL     1     -13.918  -3.336   2.087  1.00  0.00     0.200 A 
ATOM     85  F   UNL     1     -12.002  -4.652   2.505  1.00  0.00    -0.200 F 
ATOM     86  F   UNL     1     -13.775  -3.520   0.767  1.00  0.00    -0.200 F 
ENDBRANCH  52  76
BRANCH  64  87
ATOM     87  C   UNL     1     -19.105  -5.109   9.354  1.00  0.00     0.064 A 
ATOM     88  C   UNL     1     -19.085  -6.470   9.015  1.00  0.00     0.173 A 
ATOM     89  C   UNL     1     -20.356  -4.494   9.523  1.00  0.00     0.173 A 
ATOM     90  F   UNL     1     -17.917  -7.102   8.828  1.00  0.00    -0.203 F 
ATOM     91  C   UNL     1     -20.269  -7.176   8.812  1.00  0.00     0.198 A 
ATOM     92  C   UNL     1     -21.537  -5.212   9.352  1.00  0.00     0.198 A 
ATOM     93  F   UNL     1     -20.433  -3.197   9.855  1.00  0.00    -0.203 F 
ATOM     94  F   UNL     1     -20.224  -8.459   8.425  1.00  0.00    -0.200 F 
ATOM     95  C   UNL     1     -21.493  -6.548   8.985  1.00  0.00     0.200 A 
ATOM     96  F   UNL     1     -22.719  -4.606   9.534  1.00  0.00    -0.200 F 
ATOM     97  F   UNL     1     -22.630  -7.228   8.786  1.00  0.00    -0.200 F 
ENDBRANCH  64  87
ENDBRANCH  38  39
ENDBRANCH  31  33
ENDBRANCH  30  31
ENDBRANCH  29  30
ENDBRANCH  28  29
ENDBRANCH   1  28
TORSDOF 16
