REMARK SMILES O=C(C[NH2+]CC[NH+]1CCCCCC1)OCCOCCOC(=O)c1ccc(-c2c3nc(c(-c4c(F)c(F)c(F)c(F)c4F)c4ccc([nH]4)c(-c4c(F)c(F)c(F)c(F)c4F)c4nc(c(-c5c(F)c(F)c(F)c(F)c5F)c5ccc2[nH]5)C=C4)C=C3)cc1
REMARK SMILES IDX 14 1 2 2 1 3 3 4 4 5 5 8 6 9 7 10 8 12 9 13 10 14 11 15
REMARK SMILES IDX 13 17 12 18 15 20 16 21 17 22 18 23 19 24 20 25 21 26 22 27
REMARK SMILES IDX 23 28 24 29 85 30 25 31 84 32 26 33 27 34 28 35 78 36 29 37
REMARK SMILES IDX 83 38 77 39 79 40 30 41 82 42 76 43 75 44 31 46 63 47 43 48
REMARK SMILES IDX 62 49 44 50 47 51 61 52 80 53 45 54 46 55 60 57 81 58 48 59
REMARK SMILES IDX 32 60 33 61 41 62 34 63 35 64 39 65 42 66 36 67 37 68 40 69
REMARK SMILES IDX 38 70 64 71 65 72 73 73 66 74 67 75 71 76 74 77 68 78 69 79
REMARK SMILES IDX 72 80 70 81 49 82 50 83 58 84 51 85 52 86 56 87 59 88 53 89
REMARK SMILES IDX 54 90 57 91 55 92
REMARK H PARENT 4 6 4 7 7 11 79 45 47 56
REMARK Flexibility Score: 80.00
ROOT
ATOM      1  O   UNL     1       3.015  -0.131   1.185  1.00  0.00    -0.459 OA
ENDROOT
BRANCH   1   2
ATOM      2  C   UNL     1       2.265   0.612   0.345  1.00  0.00     0.361 C 
ATOM      3  O   UNL     1       1.064   0.755   0.578  1.00  0.00    -0.245 OA
BRANCH   2   4
ATOM      4  C   UNL     1       2.891   1.217  -0.907  1.00  0.00     0.385 C 
BRANCH   4   5
ATOM      5  N   UNL     1       4.063   2.060  -0.628  1.00  0.00    -0.332 N 
ATOM      6  H   UNL     1       4.844   1.459  -0.365  1.00  0.00     0.346 HD
ATOM      7  H   UNL     1       3.817   2.700   0.127  1.00  0.00     0.346 HD
BRANCH   5   8
ATOM      8  C   UNL     1       4.455   2.862  -1.788  1.00  0.00     0.323 C 
BRANCH   8   9
ATOM      9  C   UNL     1       3.334   3.679  -2.489  1.00  0.00     0.324 C 
BRANCH   9  10
ATOM     10  N   UNL     1       2.632   4.734  -1.721  1.00  0.00    -0.330 N 
ATOM     11  H   UNL     1       1.703   4.829  -2.131  1.00  0.00     0.348 HD
BRANCH  10  12
ATOM     12  C   UNL     1       2.241   4.396  -0.357  1.00  0.00     0.262 C 
BRANCH  12  13
ATOM     13  C   UNL     1       0.960   5.047   0.143  1.00  0.00     0.061 C 
BRANCH  13  14
ATOM     14  C   UNL     1       1.143   6.473   0.611  1.00  0.00     0.006 C 
BRANCH  14  15
ATOM     15  C   UNL     1       1.666   7.391  -0.483  1.00  0.00     0.006 CG0
ATOM     16  G   UNL     1       3.119   7.100  -0.842  1.00  0.00     0.000 G0
ENDBRANCH  14  15
ENDBRANCH  13  14
ENDBRANCH  12  13
ENDBRANCH  10  12
BRANCH  10  17
ATOM     17  C   UNL     1       3.319   6.013  -1.896  1.00  0.00     0.262 C 
BRANCH  17  18
ATOM     18  C   UNL     1       3.119   7.100  -0.842  1.00  0.00     0.061 CG0
ATOM     19  G   UNL     1       1.666   7.391  -0.483  1.00  0.00     0.000 G0
ENDBRANCH  17  18
ENDBRANCH  10  17
ENDBRANCH   9  10
ENDBRANCH   8   9
ENDBRANCH   5   8
ENDBRANCH   4   5
ENDBRANCH   2   4
ENDBRANCH   1   2
BRANCH   1  20
ATOM     20  C   UNL     1       4.420  -0.339   1.007  1.00  0.00     0.261 C 
BRANCH  20  21
ATOM     21  C   UNL     1       4.752  -1.457   0.023  1.00  0.00     0.202 C 
BRANCH  21  22
ATOM     22  O   UNL     1       4.226  -1.407  -1.302  1.00  0.00    -0.374 OA
BRANCH  22  23
ATOM     23  C   UNL     1       2.912  -1.948  -1.502  1.00  0.00     0.202 C 
BRANCH  23  24
ATOM     24  C   UNL     1       2.840  -3.438  -1.817  1.00  0.00     0.261 C 
BRANCH  24  25
ATOM     25  O   UNL     1       3.269  -4.205  -0.690  1.00  0.00    -0.460 OA
BRANCH  25  26
ATOM     26  C   UNL     1       4.581  -4.528  -0.714  1.00  0.00     0.338 C 
ATOM     27  O   UNL     1       5.362  -4.409  -1.646  1.00  0.00    -0.246 OA
BRANCH  26  28
ATOM     28  C   UNL     1       5.009  -4.837   0.661  1.00  0.00     0.060 A 
ATOM     29  C   UNL     1       6.260  -4.351   1.064  1.00  0.00     0.016 A 
ATOM     30  C   UNL     1       4.196  -5.552   1.544  1.00  0.00     0.016 A 
ATOM     31  C   UNL     1       6.747  -4.666   2.321  1.00  0.00     0.010 A 
ATOM     32  C   UNL     1       4.689  -5.879   2.804  1.00  0.00     0.010 A 
ATOM     33  C   UNL     1       5.990  -5.490   3.162  1.00  0.00    -0.014 A 
BRANCH  33  34
ATOM     34  C   UNL     1       6.675  -6.133   4.298  1.00  0.00     0.031 A 
ATOM     35  C   UNL     1       7.169  -7.540   4.115  1.00  0.00     0.074 A 
ATOM     36  C   UNL     1       6.926  -5.439   5.418  1.00  0.00     0.049 A 
ATOM     37  N   UNL     1       7.835  -8.301   4.943  1.00  0.00    -0.248 NA
ATOM     38  C   UNL     1       6.872  -8.178   2.820  1.00  0.00     0.031 C 
ATOM     39  C   UNL     1       6.514  -4.059   5.664  1.00  0.00     0.029 A 
ATOM     40  N   UNL     1       7.597  -5.804   6.553  1.00  0.00    -0.354 N 
ATOM     41  C   UNL     1       8.041  -9.497   4.268  1.00  0.00     0.074 A 
ATOM     42  C   UNL     1       7.386  -9.386   2.985  1.00  0.00     0.031 C 
ATOM     43  C   UNL     1       6.939  -3.692   6.885  1.00  0.00     0.029 A 
ATOM     44  C   UNL     1       7.627  -4.820   7.507  1.00  0.00     0.049 A 
ATOM     45  H   UNL     1       8.018  -6.686   6.672  1.00  0.00     0.167 HD
ATOM     46  C   UNL     1       8.736 -10.582   4.679  1.00  0.00     0.037 A 
ATOM     47  C   UNL     1       8.140  -4.848   8.751  1.00  0.00     0.037 A 
ATOM     48  C   UNL     1       9.373 -10.677   5.965  1.00  0.00     0.049 A 
ATOM     49  C   UNL     1       8.853  -6.094   9.207  1.00  0.00     0.074 A 
ATOM     50  C   UNL     1      10.094 -11.729   6.498  1.00  0.00     0.029 A 
ATOM     51  N   UNL     1       9.357  -9.673   6.925  1.00  0.00    -0.354 N 
ATOM     52  N   UNL     1       9.062  -7.217   8.561  1.00  0.00    -0.248 NA
ATOM     53  C   UNL     1       9.417  -6.069  10.562  1.00  0.00     0.031 C 
ATOM     54  C   UNL     1      10.469 -11.383   7.801  1.00  0.00     0.029 A 
ATOM     55  C   UNL     1      10.040 -10.089   8.056  1.00  0.00     0.049 A 
ATOM     56  H   UNL     1       8.925  -8.795   6.817  1.00  0.00     0.167 HD
ATOM     57  C   UNL     1       9.799  -8.022   9.419  1.00  0.00     0.074 A 
ATOM     58  C   UNL     1      10.027  -7.243  10.619  1.00  0.00     0.031 C 
ATOM     59  C   UNL     1      10.245  -9.291   9.239  1.00  0.00     0.037 A 
BRANCH  46  60
ATOM     60  C   UNL     1       8.823 -11.749   3.738  1.00  0.00     0.064 A 
ATOM     61  C   UNL     1       9.564 -11.684   2.547  1.00  0.00     0.173 A 
ATOM     62  C   UNL     1       8.177 -12.957   4.040  1.00  0.00     0.173 A 
ATOM     63  F   UNL     1      10.183 -10.546   2.198  1.00  0.00    -0.203 F 
ATOM     64  C   UNL     1       9.638 -12.776   1.687  1.00  0.00     0.198 A 
ATOM     65  C   UNL     1       8.280 -14.058   3.193  1.00  0.00     0.198 A 
ATOM     66  F   UNL     1       7.451 -13.074   5.162  1.00  0.00    -0.203 F 
ATOM     67  F   UNL     1      10.311 -12.674   0.532  1.00  0.00    -0.200 F 
ATOM     68  C   UNL     1       9.004 -13.965   2.015  1.00  0.00     0.200 A 
ATOM     69  F   UNL     1       7.675 -15.209   3.518  1.00  0.00    -0.200 F 
ATOM     70  F   UNL     1       9.085 -15.019   1.191  1.00  0.00    -0.200 F 
ENDBRANCH  46  60
BRANCH  47  71
ATOM     71  C   UNL     1       7.984  -3.672   9.645  1.00  0.00     0.064 A 
ATOM     72  C   UNL     1       9.090  -2.923  10.068  1.00  0.00     0.173 A 
ATOM     73  C   UNL     1       6.718  -3.283  10.110  1.00  0.00     0.173 A 
ATOM     74  F   UNL     1      10.323  -3.263   9.665  1.00  0.00    -0.203 F 
ATOM     75  C   UNL     1       8.940  -1.850  10.945  1.00  0.00     0.198 A 
ATOM     76  C   UNL     1       6.566  -2.189  10.958  1.00  0.00     0.198 A 
ATOM     77  F   UNL     1       5.625  -3.962   9.732  1.00  0.00    -0.203 F 
ATOM     78  F   UNL     1      10.021  -1.187  11.379  1.00  0.00    -0.200 F 
ATOM     79  C   UNL     1       7.678  -1.480  11.385  1.00  0.00     0.200 A 
ATOM     80  F   UNL     1       5.342  -1.825  11.364  1.00  0.00    -0.200 F 
ATOM     81  F   UNL     1       7.534  -0.448  12.226  1.00  0.00    -0.200 F 
ENDBRANCH  47  71
BRANCH  59  82
ATOM     82  C   UNL     1      11.046  -9.893  10.359  1.00  0.00     0.064 A 
ATOM     83  C   UNL     1      10.463 -10.212  11.595  1.00  0.00     0.173 A 
ATOM     84  C   UNL     1      12.414 -10.158  10.190  1.00  0.00     0.173 A 
ATOM     85  F   UNL     1       9.162  -9.969  11.811  1.00  0.00    -0.203 F 
ATOM     86  C   UNL     1      11.232 -10.722  12.637  1.00  0.00     0.198 A 
ATOM     87  C   UNL     1      13.170 -10.707  11.221  1.00  0.00     0.198 A 
ATOM     88  F   UNL     1      13.018  -9.886   9.024  1.00  0.00    -0.203 F 
ATOM     89  F   UNL     1      10.670 -10.945  13.834  1.00  0.00    -0.200 F 
ATOM     90  C   UNL     1      12.582 -10.974  12.448  1.00  0.00     0.200 A 
ATOM     91  F   UNL     1      14.470 -10.968  11.030  1.00  0.00    -0.200 F 
ATOM     92  F   UNL     1      13.321 -11.462  13.454  1.00  0.00    -0.200 F 
ENDBRANCH  59  82
ENDBRANCH  33  34
ENDBRANCH  26  28
ENDBRANCH  25  26
ENDBRANCH  24  25
ENDBRANCH  23  24
ENDBRANCH  22  23
ENDBRANCH  21  22
ENDBRANCH  20  21
ENDBRANCH   1  20
TORSDOF 18
