REMARK SMILES CCSc1nc(CC(=O)N[C@@H](C(=O)OCCOCCOC(=O)c2ccc(-c3c4nc(c(-c5c(F)c(F)c(F)c(F)c5F)c5ccc([nH]5)c(-c5c(F)c(F)c(F)c(F)c5F)c5nc(c(-c6c(F)c(F)c(F)c(F)c6F)c6ccc3[nH]6)C=C5)C=C4)cc2)C2=C(C)N=N[C@@H]2C)cs1
REMARK SMILES IDX 15 1 14 2 12 3 13 4 11 5 10 6 8 7 9 8 7 10 6 11 4 12 5 13
REMARK SMILES IDX 94 14 93 15 3 16 2 17 1 18 86 19 87 20 91 21 88 22 89 23
REMARK SMILES IDX 90 24 92 25 16 26 17 27 18 28 19 29 20 30 21 31 22 32 23 33
REMARK SMILES IDX 24 34 85 35 25 36 84 37 26 38 27 39 28 40 78 41 29 42 83 43
REMARK SMILES IDX 77 44 79 45 30 46 82 47 76 48 75 49 31 51 63 52 43 53 62 54
REMARK SMILES IDX 44 55 47 56 61 57 80 58 45 59 46 60 60 62 81 63 48 64 32 65
REMARK SMILES IDX 33 66 41 67 34 68 35 69 39 70 42 71 36 72 37 73 40 74 38 75
REMARK SMILES IDX 64 76 65 77 73 78 66 79 67 80 71 81 74 82 68 83 69 84 72 85
REMARK SMILES IDX 70 86 49 87 50 88 58 89 51 90 52 91 56 92 59 93 53 94 54 95
REMARK SMILES IDX 57 96 55 97
REMARK H PARENT 10 9 79 50 47 61
REMARK Flexibility Score: inf
ROOT
ATOM      1  C   UNL     1       2.977  -2.114  -3.822  1.00  0.00     0.261 C 
ENDROOT
BRANCH   1   2
ATOM      2  O   UNL     1       3.894  -3.092  -3.295  1.00  0.00    -0.461 OA
BRANCH   2   3
ATOM      3  C   UNL     1       3.387  -4.347  -3.112  1.00  0.00     0.333 C 
ATOM      4  O   UNL     1       2.210  -4.645  -3.284  1.00  0.00    -0.249 OA
BRANCH   3   5
ATOM      5  C   UNL     1       4.481  -5.364  -2.676  1.00  0.00     0.223 C 
BRANCH   5   6
ATOM      6  N   UNL     1       5.856  -4.871  -2.663  1.00  0.00    -0.339 N 
ATOM      7  C   UNL     1       6.572  -4.394  -1.604  1.00  0.00     0.226 C 
ATOM      8  O   UNL     1       7.702  -3.948  -1.813  1.00  0.00    -0.275 OA
ATOM      9  H   UNL     1       6.327  -4.886  -3.528  1.00  0.00     0.164 HD
BRANCH   7  10
ATOM     10  C   UNL     1       5.982  -4.416  -0.208  1.00  0.00     0.157 C 
BRANCH  10  11
ATOM     11  C   UNL     1       5.030  -3.284  -0.026  1.00  0.00     0.062 A 
ATOM     12  C   UNL     1       2.994  -2.439   0.231  1.00  0.00     0.150 A 
ATOM     13  N   UNL     1       3.670  -3.553   0.041  1.00  0.00    -0.234 NA
ATOM     14  S   UNL     1       3.943  -1.014   0.296  1.00  0.00    -0.116 S 
ATOM     15  C   UNL     1       5.359  -1.947   0.086  1.00  0.00     0.092 A 
BRANCH  12  16
ATOM     16  S   UNL     1       1.266  -2.506   0.502  1.00  0.00    -0.096 SA
BRANCH  16  17
ATOM     17  C   UNL     1       0.598  -1.238  -0.607  1.00  0.00     0.074 C 
ATOM     18  C   UNL     1       0.547   0.137   0.036  1.00  0.00     0.016 C 
ENDBRANCH  16  17
ENDBRANCH  12  16
ENDBRANCH  10  11
ENDBRANCH   7  10
ENDBRANCH   5   6
BRANCH   5  19
ATOM     19  C   UNL     1       4.459  -6.627  -3.479  1.00  0.00     0.012 C 
ATOM     20  C   UNL     1       4.642  -7.883  -3.056  1.00  0.00     0.064 C 
ATOM     21  C   UNL     1       4.073  -6.764  -4.917  1.00  0.00     0.156 C 
ATOM     22  C   UNL     1       5.097  -8.358  -1.722  1.00  0.00     0.069 C 
ATOM     23  N   UNL     1       4.332  -8.812  -4.016  1.00  0.00    -0.160 NA
ATOM     24  N   UNL     1       3.917  -8.238  -5.060  1.00  0.00    -0.181 NA
ATOM     25  C   UNL     1       5.159  -6.348  -5.906  1.00  0.00     0.040 C 
ENDBRANCH   5  19
ENDBRANCH   3   5
ENDBRANCH   2   3
ENDBRANCH   1   2
BRANCH   1  26
ATOM     26  C   UNL     1       3.658  -1.236  -4.872  1.00  0.00     0.202 C 
BRANCH  26  27
ATOM     27  O   UNL     1       3.929  -1.851  -6.133  1.00  0.00    -0.374 OA
BRANCH  27  28
ATOM     28  C   UNL     1       4.867  -2.919  -6.143  1.00  0.00     0.202 C 
BRANCH  28  29
ATOM     29  C   UNL     1       6.357  -2.552  -6.142  1.00  0.00     0.261 C 
BRANCH  29  30
ATOM     30  O   UNL     1       6.677  -1.513  -5.212  1.00  0.00    -0.460 OA
BRANCH  30  31
ATOM     31  C   UNL     1       6.772  -0.293  -5.788  1.00  0.00     0.338 C 
ATOM     32  O   UNL     1       6.737  -0.031  -6.984  1.00  0.00    -0.246 OA
BRANCH  31  33
ATOM     33  C   UNL     1       6.762   0.759  -4.761  1.00  0.00     0.060 A 
ATOM     34  C   UNL     1       5.857   1.810  -4.950  1.00  0.00     0.016 A 
ATOM     35  C   UNL     1       7.665   0.772  -3.695  1.00  0.00     0.016 A 
ATOM     36  C   UNL     1       5.911   2.925  -4.125  1.00  0.00     0.010 A 
ATOM     37  C   UNL     1       7.723   1.899  -2.868  1.00  0.00     0.010 A 
ATOM     38  C   UNL     1       6.885   3.000  -3.120  1.00  0.00    -0.014 A 
BRANCH  38  39
ATOM     39  C   UNL     1       7.139   4.320  -2.499  1.00  0.00     0.031 A 
ATOM     40  C   UNL     1       8.253   5.169  -3.050  1.00  0.00     0.074 A 
ATOM     41  C   UNL     1       6.326   4.796  -1.542  1.00  0.00     0.049 A 
ATOM     42  N   UNL     1       8.600   6.391  -2.738  1.00  0.00    -0.248 NA
ATOM     43  C   UNL     1       9.085   4.558  -4.100  1.00  0.00     0.031 C 
ATOM     44  C   UNL     1       5.194   4.076  -0.963  1.00  0.00     0.029 A 
ATOM     45  N   UNL     1       6.320   6.009  -0.902  1.00  0.00    -0.354 N 
ATOM     46  C   UNL     1       9.682   6.695  -3.555  1.00  0.00     0.074 A 
ATOM     47  C   UNL     1       9.962   5.518  -4.347  1.00  0.00     0.031 C 
ATOM     48  C   UNL     1       4.596   4.867  -0.055  1.00  0.00     0.029 A 
ATOM     49  C   UNL     1       5.314   6.138   0.021  1.00  0.00     0.049 A 
ATOM     50  H   UNL     1       6.976   6.720  -1.088  1.00  0.00     0.167 HD
ATOM     51  C   UNL     1      10.370   7.858  -3.648  1.00  0.00     0.037 A 
ATOM     52  C   UNL     1       5.013   7.168   0.835  1.00  0.00     0.037 A 
ATOM     53  C   UNL     1      10.087   9.027  -2.859  1.00  0.00     0.049 A 
ATOM     54  C   UNL     1       5.828   8.433   0.749  1.00  0.00     0.074 A 
ATOM     55  C   UNL     1      10.719  10.257  -2.877  1.00  0.00     0.029 A 
ATOM     56  N   UNL     1       9.085   9.105  -1.902  1.00  0.00    -0.354 N 
ATOM     57  N   UNL     1       6.830   8.722  -0.046  1.00  0.00    -0.248 NA
ATOM     58  C   UNL     1       5.460   9.520   1.666  1.00  0.00     0.031 C 
ATOM     59  C   UNL     1      10.130  11.064  -1.898  1.00  0.00     0.029 A 
ATOM     60  C   UNL     1       9.096  10.356  -1.308  1.00  0.00     0.049 A 
ATOM     61  H   UNL     1       8.459   8.378  -1.679  1.00  0.00     0.167 HD
ATOM     62  C   UNL     1       7.194  10.028   0.254  1.00  0.00     0.074 A 
ATOM     63  C   UNL     1       6.292  10.482   1.293  1.00  0.00     0.031 C 
ATOM     64  C   UNL     1       8.184  10.787  -0.279  1.00  0.00     0.037 A 
BRANCH  51  65
ATOM     65  C   UNL     1      11.510   7.909  -4.622  1.00  0.00     0.064 A 
ATOM     66  C   UNL     1      11.296   7.930  -6.009  1.00  0.00     0.173 A 
ATOM     67  C   UNL     1      12.835   7.958  -4.163  1.00  0.00     0.173 A 
ATOM     68  F   UNL     1      10.049   7.867  -6.500  1.00  0.00    -0.203 F 
ATOM     69  C   UNL     1      12.366   7.971  -6.899  1.00  0.00     0.198 A 
ATOM     70  C   UNL     1      13.901   8.027  -5.055  1.00  0.00     0.198 A 
ATOM     71  F   UNL     1      13.095   7.941  -2.847  1.00  0.00    -0.203 F 
ATOM     72  F   UNL     1      12.140   7.941  -8.220  1.00  0.00    -0.200 F 
ATOM     73  C   UNL     1      13.667   8.026  -6.422  1.00  0.00     0.200 A 
ATOM     74  F   UNL     1      15.157   8.090  -4.591  1.00  0.00    -0.200 F 
ATOM     75  F   UNL     1      14.696   8.070  -7.279  1.00  0.00    -0.200 F 
ENDBRANCH  51  65
BRANCH  52  76
ATOM     76  C   UNL     1       3.886   7.051   1.796  1.00  0.00     0.064 A 
ATOM     77  C   UNL     1       2.722   7.819   1.649  1.00  0.00     0.173 A 
ATOM     78  C   UNL     1       3.959   6.181   2.893  1.00  0.00     0.173 A 
ATOM     79  F   UNL     1       2.613   8.681   0.628  1.00  0.00    -0.203 F 
ATOM     80  C   UNL     1       1.684   7.735   2.575  1.00  0.00     0.198 A 
ATOM     81  C   UNL     1       2.909   6.077   3.802  1.00  0.00     0.198 A 
ATOM     82  F   UNL     1       5.051   5.424   3.079  1.00  0.00    -0.203 F 
ATOM     83  F   UNL     1       0.602   8.514   2.437  1.00  0.00    -0.200 F 
ATOM     84  C   UNL     1       1.775   6.861   3.647  1.00  0.00     0.200 A 
ATOM     85  F   UNL     1       2.996   5.221   4.829  1.00  0.00    -0.200 F 
ATOM     86  F   UNL     1       0.775   6.779   4.535  1.00  0.00    -0.200 F 
ENDBRANCH  52  76
BRANCH  64  87
ATOM     87  C   UNL     1       8.320  12.193   0.230  1.00  0.00     0.064 A 
ATOM     88  C   UNL     1       8.801  12.468   1.518  1.00  0.00     0.173 A 
ATOM     89  C   UNL     1       7.991  13.280  -0.595  1.00  0.00     0.173 A 
ATOM     90  F   UNL     1       9.117  11.463   2.349  1.00  0.00    -0.203 F 
ATOM     91  C   UNL     1       8.915  13.778   1.975  1.00  0.00     0.198 A 
ATOM     92  C   UNL     1       8.137  14.589  -0.146  1.00  0.00     0.198 A 
ATOM     93  F   UNL     1       7.536  13.072  -1.839  1.00  0.00    -0.203 F 
ATOM     94  F   UNL     1       9.324  14.015   3.229  1.00  0.00    -0.200 F 
ATOM     95  C   UNL     1       8.589  14.837   1.141  1.00  0.00     0.200 A 
ATOM     96  F   UNL     1       7.835  15.612  -0.958  1.00  0.00    -0.200 F 
ATOM     97  F   UNL     1       8.702  16.098   1.581  1.00  0.00    -0.200 F 
ENDBRANCH  64  87
ENDBRANCH  38  39
ENDBRANCH  31  33
ENDBRANCH  30  31
ENDBRANCH  29  30
ENDBRANCH  28  29
ENDBRANCH  27  28
ENDBRANCH  26  27
ENDBRANCH   1  26
TORSDOF 20
