REMARK SMILES NC(=O)c1c(-c2ccc(Cl)cc2)csc1NC(=O)[C@H]1[C@@H](C(=O)OCCOCCOC(=O)c2ccc(-c3c4nc(c(-c5c(F)c(F)c(F)c(F)c5F)c5ccc([nH]5)c(-c5c(F)c(F)c(F)c(F)c5F)c5nc(c(-c6c(F)c(F)c(F)c(F)c6F)c6ccc3[nH]6)C=C5)C=C4)cc2)[C@@H]2CC[C@H]1O2
REMARK SMILES IDX 25 1 24 2 23 3 21 4 22 5 20 6 19 7 98 8 95 9 97 10 99 11
REMARK SMILES IDX 96 12 17 13 16 14 18 16 15 17 4 18 5 19 13 20 14 21 2 22
REMARK SMILES IDX 1 23 3 26 6 27 7 28 12 29 8 30 11 31 9 32 10 33 26 34 27 35
REMARK SMILES IDX 28 36 29 37 30 38 31 39 32 40 33 41 94 42 34 43 93 44 35 45
REMARK SMILES IDX 36 46 37 47 87 48 38 49 92 50 86 51 88 52 39 53 91 54 85 55
REMARK SMILES IDX 84 56 40 58 72 59 52 60 71 61 53 62 56 63 70 64 89 65 54 66
REMARK SMILES IDX 55 67 69 69 90 70 57 71 41 72 42 73 50 74 43 75 44 76 48 77
REMARK SMILES IDX 51 78 45 79 46 80 49 81 47 82 73 83 74 84 82 85 75 86 76 87
REMARK SMILES IDX 80 88 83 89 77 90 78 91 81 92 79 93 58 94 59 95 67 96 60 97
REMARK SMILES IDX 61 98 65 99 68 100 62 101 63 102 66 103 64 104
REMARK H PARENT 16 15 1 24 1 25 88 57 56 68
REMARK Flexibility Score: inf
ROOT
ATOM      1  C   UNL     1       1.954 -11.396  -3.487  1.00  0.00     0.202 C 
ENDROOT
BRANCH   1   2
ATOM      2  C   UNL     1       2.733 -10.226  -2.884  1.00  0.00     0.261 C 
BRANCH   2   3
ATOM      3  O   UNL     1       1.913  -9.480  -1.962  1.00  0.00    -0.463 OA
BRANCH   3   4
ATOM      4  C   UNL     1       1.736  -8.163  -2.276  1.00  0.00     0.312 C 
ATOM      5  O   UNL     1       2.268  -7.604  -3.222  1.00  0.00    -0.252 OA
BRANCH   4   6
ATOM      6  C   UNL     1       0.738  -7.528  -1.323  1.00  0.00     0.143 C 
ATOM      7  C   UNL     1       0.043  -6.279  -1.878  1.00  0.00     0.124 C 
ATOM      8  C   UNL     1       0.964  -5.157  -1.350  1.00  0.00     0.132 C 
ATOM      9  C   UNL     1       1.539  -6.908  -0.181  1.00  0.00     0.133 C 
ATOM     10  C   UNL     1       0.450  -4.780   0.047  1.00  0.00     0.035 C 
ATOM     11  O   UNL     1       2.174  -5.831  -0.909  1.00  0.00    -0.373 OA
ATOM     12  C   UNL     1       0.651  -6.115   0.796  1.00  0.00     0.036 C 
BRANCH   7  13
ATOM     13  C   UNL     1      -0.405  -6.284  -3.334  1.00  0.00     0.231 C 
ATOM     14  N   UNL     1      -1.529  -6.990  -3.732  1.00  0.00    -0.317 N 
ATOM     15  H   UNL     1      -1.561  -7.163  -4.700  1.00  0.00     0.170 HD
ATOM     16  O   UNL     1       0.241  -5.692  -4.200  1.00  0.00    -0.274 OA
BRANCH  14  17
ATOM     17  C   UNL     1      -2.626  -7.507  -3.037  1.00  0.00     0.108 A 
ATOM     18  C   UNL     1      -3.584  -8.428  -3.487  1.00  0.00     0.082 A 
ATOM     19  C   UNL     1      -4.402  -8.880  -2.366  1.00  0.00     0.007 A 
ATOM     20  C   UNL     1      -4.176  -8.127  -1.234  1.00  0.00     0.076 A 
ATOM     21  S   UNL     1      -3.064  -6.895  -1.512  1.00  0.00    -0.125 S 
BRANCH  18  22
ATOM     22  C   UNL     1      -3.613  -8.896  -4.876  1.00  0.00     0.252 C 
ATOM     23  N   UNL     1      -4.696  -9.620  -5.275  1.00  0.00    -0.365 N 
ATOM     24  H   UNL     1      -4.752  -9.952  -6.201  1.00  0.00     0.159 HD
ATOM     25  H   UNL     1      -5.422  -9.812  -4.639  1.00  0.00     0.159 HD
ATOM     26  O   UNL     1      -2.722  -8.634  -5.677  1.00  0.00    -0.269 OA
ENDBRANCH  18  22
BRANCH  19  27
ATOM     27  C   UNL     1      -5.359  -9.972  -2.252  1.00  0.00    -0.017 A 
ATOM     28  C   UNL     1      -6.708  -9.686  -2.004  1.00  0.00     0.010 A 
ATOM     29  C   UNL     1      -4.934 -11.306  -2.286  1.00  0.00     0.010 A 
ATOM     30  C   UNL     1      -7.618 -10.722  -1.786  1.00  0.00     0.021 A 
ATOM     31  C   UNL     1      -5.847 -12.342  -2.073  1.00  0.00     0.021 A 
ATOM     32  C   UNL     1      -7.184 -12.045  -1.819  1.00  0.00     0.041 A 
ATOM     33  Cl  UNL     1      -8.303 -13.318  -1.528  1.00  0.00    -0.084 Cl
ENDBRANCH  19  27
ENDBRANCH  14  17
ENDBRANCH   7  13
ENDBRANCH   4   6
ENDBRANCH   3   4
ENDBRANCH   2   3
ENDBRANCH   1   2
BRANCH   1  34
ATOM     34  O   UNL     1       0.924 -11.111  -4.430  1.00  0.00    -0.374 OA
BRANCH  34  35
ATOM     35  C   UNL     1      -0.124 -10.235  -4.047  1.00  0.00     0.202 C 
BRANCH  35  36
ATOM     36  C   UNL     1      -1.154 -10.745  -3.034  1.00  0.00     0.261 C 
BRANCH  36  37
ATOM     37  O   UNL     1      -0.671 -11.735  -2.134  1.00  0.00    -0.460 OA
BRANCH  37  38
ATOM     38  C   UNL     1      -1.021 -12.996  -2.464  1.00  0.00     0.338 C 
ATOM     39  O   UNL     1      -1.796 -13.370  -3.330  1.00  0.00    -0.246 OA
BRANCH  38  40
ATOM     40  C   UNL     1      -0.200 -13.900  -1.660  1.00  0.00     0.060 A 
ATOM     41  C   UNL     1       0.770 -14.655  -2.324  1.00  0.00     0.016 A 
ATOM     42  C   UNL     1      -0.386 -13.993  -0.279  1.00  0.00     0.016 A 
ATOM     43  C   UNL     1       1.546 -15.546  -1.599  1.00  0.00     0.010 A 
ATOM     44  C   UNL     1       0.392 -14.893   0.446  1.00  0.00     0.010 A 
ATOM     45  C   UNL     1       1.337 -15.691  -0.220  1.00  0.00    -0.014 A 
BRANCH  45  46
ATOM     46  C   UNL     1       2.031 -16.786   0.485  1.00  0.00     0.031 A 
ATOM     47  C   UNL     1       1.288 -18.065   0.735  1.00  0.00     0.074 A 
ATOM     48  C   UNL     1       3.326 -16.651   0.814  1.00  0.00     0.049 A 
ATOM     49  N   UNL     1       1.713 -19.181   1.266  1.00  0.00    -0.248 NA
ATOM     50  C   UNL     1      -0.128 -18.094   0.328  1.00  0.00     0.031 C 
ATOM     51  C   UNL     1       4.132 -15.451   0.584  1.00  0.00     0.029 A 
ATOM     52  N   UNL     1       4.195 -17.535   1.395  1.00  0.00    -0.354 N 
ATOM     53  C   UNL     1       0.627 -20.045   1.243  1.00  0.00     0.074 A 
ATOM     54  C   UNL     1      -0.492 -19.314   0.692  1.00  0.00     0.031 C 
ATOM     55  C   UNL     1       5.385 -15.680   1.010  1.00  0.00     0.029 A 
ATOM     56  C   UNL     1       5.460 -17.029   1.564  1.00  0.00     0.049 A 
ATOM     57  H   UNL     1       3.937 -18.445   1.666  1.00  0.00     0.167 HD
ATOM     58  C   UNL     1       0.580 -21.340   1.632  1.00  0.00     0.037 A 
ATOM     59  C   UNL     1       6.548 -17.601   2.111  1.00  0.00     0.037 A 
ATOM     60  C   UNL     1       1.703 -22.048   2.186  1.00  0.00     0.049 A 
ATOM     61  C   UNL     1       6.445 -19.024   2.594  1.00  0.00     0.074 A 
ATOM     62  C   UNL     1       1.772 -23.359   2.622  1.00  0.00     0.029 A 
ATOM     63  N   UNL     1       2.961 -21.493   2.385  1.00  0.00    -0.354 N 
ATOM     64  N   UNL     1       5.423 -19.846   2.544  1.00  0.00    -0.248 NA
ATOM     65  C   UNL     1       7.650 -19.603   3.200  1.00  0.00     0.031 C 
ATOM     66  C   UNL     1       3.056 -23.582   3.130  1.00  0.00     0.029 A 
ATOM     67  C   UNL     1       3.806 -22.429   2.957  1.00  0.00     0.049 A 
ATOM     68  H   UNL     1       3.214 -20.570   2.153  1.00  0.00     0.167 HD
ATOM     69  C   UNL     1       5.868 -21.044   3.086  1.00  0.00     0.074 A 
ATOM     70  C   UNL     1       7.261 -20.849   3.430  1.00  0.00     0.031 C 
ATOM     71  C   UNL     1       5.190 -22.202   3.288  1.00  0.00     0.037 A 
BRANCH  58  72
ATOM     72  C   UNL     1      -0.727 -22.065   1.487  1.00  0.00     0.064 A 
ATOM     73  C   UNL     1      -1.238 -22.418   0.229  1.00  0.00     0.173 A 
ATOM     74  C   UNL     1      -1.460 -22.445   2.622  1.00  0.00     0.173 A 
ATOM     75  F   UNL     1      -0.588 -22.061  -0.889  1.00  0.00    -0.203 F 
ATOM     76  C   UNL     1      -2.442 -23.110   0.111  1.00  0.00     0.198 A 
ATOM     77  C   UNL     1      -2.647 -23.162   2.502  1.00  0.00     0.198 A 
ATOM     78  F   UNL     1      -1.019 -22.130   3.849  1.00  0.00    -0.203 F 
ATOM     79  F   UNL     1      -2.931 -23.400  -1.102  1.00  0.00    -0.200 F 
ATOM     80  C   UNL     1      -3.140 -23.490   1.248  1.00  0.00     0.200 A 
ATOM     81  F   UNL     1      -3.316 -23.536   3.601  1.00  0.00    -0.200 F 
ATOM     82  F   UNL     1      -4.292 -24.166   1.134  1.00  0.00    -0.200 F 
ENDBRANCH  58  72
BRANCH  59  83
ATOM     83  C   UNL     1       7.818 -16.837   2.236  1.00  0.00     0.064 A 
ATOM     84  C   UNL     1       8.972 -17.222   1.538  1.00  0.00     0.173 A 
ATOM     85  C   UNL     1       7.915 -15.725   3.086  1.00  0.00     0.173 A 
ATOM     86  F   UNL     1       8.939 -18.290   0.727  1.00  0.00    -0.203 F 
ATOM     87  C   UNL     1      10.179 -16.546   1.712  1.00  0.00     0.198 A 
ATOM     88  C   UNL     1       9.113 -15.029   3.232  1.00  0.00     0.198 A 
ATOM     89  F   UNL     1       6.842 -15.310   3.776  1.00  0.00    -0.203 F 
ATOM     90  F   UNL     1      11.280 -16.975   1.080  1.00  0.00    -0.200 F 
ATOM     91  C   UNL     1      10.248 -15.448   2.555  1.00  0.00     0.200 A 
ATOM     92  F   UNL     1       9.170 -13.959   4.037  1.00  0.00    -0.200 F 
ATOM     93  F   UNL     1      11.409 -14.802   2.725  1.00  0.00    -0.200 F 
ENDBRANCH  59  83
BRANCH  71  94
ATOM     94  C   UNL     1       5.963 -23.344   3.881  1.00  0.00     0.064 A 
ATOM     95  C   UNL     1       6.402 -23.323   5.213  1.00  0.00     0.173 A 
ATOM     96  C   UNL     1       6.260 -24.477   3.108  1.00  0.00     0.173 A 
ATOM     97  F   UNL     1       6.154 -22.257   5.989  1.00  0.00    -0.203 F 
ATOM     98  C   UNL     1       7.149 -24.375   5.736  1.00  0.00     0.198 A 
ATOM     99  C   UNL     1       6.974 -25.543   3.646  1.00  0.00     0.198 A 
ATOM    100  F   UNL     1       5.854 -24.552   1.832  1.00  0.00    -0.203 F 
ATOM    101  F   UNL     1       7.617 -24.302   6.990  1.00  0.00    -0.200 F 
ATOM    102  C   UNL     1       7.429 -25.486   4.955  1.00  0.00     0.200 A 
ATOM    103  F   UNL     1       7.230 -26.623   2.895  1.00  0.00    -0.200 F 
ATOM    104  F   UNL     1       8.149 -26.497   5.460  1.00  0.00    -0.200 F 
ENDBRANCH  71  94
ENDBRANCH  45  46
ENDBRANCH  38  40
ENDBRANCH  37  38
ENDBRANCH  36  37
ENDBRANCH  35  36
ENDBRANCH  34  35
ENDBRANCH   1  34
TORSDOF 18
