REMARK SMILES NS(=O)(=O)c1ccc(-n2nc(C(=O)NCCCC(=O)OCCOCCOC(=O)c3ccc(-c4c5nc(c(-c6c(F)c(F)c(F)c(F)c6F)c6ccc([nH]6)c(-c6c(F)c(F)c(F)c(F)c6F)c6nc(c(-c7c(F)c(F)c(F)c(F)c7F)c7ccc4[nH]7)C=C6)C=C5)cc3)cc2-c2ccccc2)cc1
REMARK SMILES IDX 21 1 20 2 18 3 19 4 17 5 16 6 15 7 14 8 12 9 13 10 11 12
REMARK SMILES IDX 9 13 10 14 93 15 92 16 8 17 5 18 6 19 101 20 7 21 100 22
REMARK SMILES IDX 2 23 3 24 4 25 1 26 94 29 95 30 99 31 96 32 98 33 97 34
REMARK SMILES IDX 22 35 23 36 24 37 25 38 26 39 27 40 28 41 29 42 30 43 91 44
REMARK SMILES IDX 31 45 90 46 32 47 33 48 34 49 84 50 35 51 89 52 83 53 85 54
REMARK SMILES IDX 36 55 88 56 82 57 81 58 37 60 69 61 49 62 68 63 50 64 53 65
REMARK SMILES IDX 67 66 86 67 51 68 52 69 66 71 87 72 54 73 38 74 39 75 47 76
REMARK SMILES IDX 40 77 41 78 45 79 48 80 42 81 43 82 46 83 44 84 70 85 71 86
REMARK SMILES IDX 79 87 72 88 73 89 77 90 80 91 74 92 75 93 78 94 76 95 55 96
REMARK SMILES IDX 56 97 64 98 57 99 58 100 62 101 65 102 59 103 60 104 63 105
REMARK SMILES IDX 61 106
REMARK H PARENT 14 11 1 27 1 28 85 59 53 70
REMARK Flexibility Score: inf
ROOT
ATOM      1  C   UNL     1       4.747   7.166 -13.372  1.00  0.00     0.261 C 
ENDROOT
BRANCH   1   2
ATOM      2  O   UNL     1       3.918   7.222 -12.196  1.00  0.00    -0.463 OA
BRANCH   2   3
ATOM      3  C   UNL     1       3.143   8.322 -12.044  1.00  0.00     0.305 C 
ATOM      4  O   UNL     1       3.169   9.302 -12.775  1.00  0.00    -0.252 OA
BRANCH   3   5
ATOM      5  C   UNL     1       2.231   8.223 -10.839  1.00  0.00     0.124 C 
BRANCH   5   6
ATOM      6  C   UNL     1       1.654   6.849 -10.495  1.00  0.00     0.033 C 
BRANCH   6   7
ATOM      7  C   UNL     1       2.643   5.803  -9.993  1.00  0.00     0.117 C 
BRANCH   7   8
ATOM      8  N   UNL     1       3.265   6.167  -8.739  1.00  0.00    -0.351 N 
ATOM      9  C   UNL     1       3.227   5.659  -7.459  1.00  0.00     0.271 C 
ATOM     10  O   UNL     1       3.887   6.294  -6.630  1.00  0.00    -0.267 OA
ATOM     11  H   UNL     1       3.847   6.957  -8.818  1.00  0.00     0.163 HD
BRANCH   9  12
ATOM     12  C   UNL     1       2.492   4.425  -7.095  1.00  0.00     0.151 A 
ATOM     13  N   UNL     1       1.861   2.815  -5.813  1.00  0.00    -0.232 N 
ATOM     14  N   UNL     1       2.371   4.064  -5.794  1.00  0.00    -0.162 NA
ATOM     15  C   UNL     1       1.415   2.463  -7.066  1.00  0.00     0.075 A 
ATOM     16  C   UNL     1       1.865   3.450  -7.906  1.00  0.00     0.065 A 
BRANCH  13  17
ATOM     17  C   UNL     1       1.743   2.014  -4.654  1.00  0.00     0.065 A 
ATOM     18  C   UNL     1       0.977   0.289  -2.632  1.00  0.00     0.082 A 
ATOM     19  C   UNL     1       1.716  -0.213  -3.702  1.00  0.00     0.024 A 
ATOM     20  C   UNL     1       0.663   1.654  -2.541  1.00  0.00     0.024 A 
ATOM     21  C   UNL     1       2.099   0.654  -4.718  1.00  0.00     0.030 A 
ATOM     22  C   UNL     1       1.073   2.531  -3.546  1.00  0.00     0.030 A 
BRANCH  18  23
ATOM     23  S   UNL     1       0.415  -0.817  -1.377  1.00  0.00     0.238 S 
ATOM     24  O   UNL     1       1.070  -2.095  -1.537  1.00  0.00    -0.207 OA
ATOM     25  O   UNL     1      -1.018  -0.687  -1.260  1.00  0.00    -0.207 OA
BRANCH  23  26
ATOM     26  N   UNL     1       1.079  -0.139   0.004  1.00  0.00    -0.225 NA
ATOM     27  H   UNL     1       0.821  -0.700   0.816  1.00  0.00     0.137 HD
ATOM     28  H   UNL     1       0.726   0.811   0.120  1.00  0.00     0.137 HD
ENDBRANCH  23  26
ENDBRANCH  18  23
ENDBRANCH  13  17
BRANCH  15  29
ATOM     29  C   UNL     1       0.713   1.237  -7.389  1.00  0.00     0.000 A 
ATOM     30  C   UNL     1      -0.545   0.936  -6.863  1.00  0.00     0.010 A 
ATOM     31  C   UNL     1       1.382   0.303  -8.174  1.00  0.00     0.010 A 
ATOM     32  C   UNL     1      -1.112  -0.310  -7.112  1.00  0.00     0.001 A 
ATOM     33  C   UNL     1       0.816  -0.931  -8.429  1.00  0.00     0.001 A 
ATOM     34  C   UNL     1      -0.421  -1.240  -7.883  1.00  0.00     0.000 A 
ENDBRANCH  15  29
ENDBRANCH   9  12
ENDBRANCH   7   8
ENDBRANCH   6   7
ENDBRANCH   5   6
ENDBRANCH   3   5
ENDBRANCH   2   3
ENDBRANCH   1   2
BRANCH   1  35
ATOM     35  C   UNL     1       4.216   6.122 -14.352  1.00  0.00     0.202 C 
BRANCH  35  36
ATOM     36  O   UNL     1       3.018   6.464 -15.053  1.00  0.00    -0.374 OA
BRANCH  36  37
ATOM     37  C   UNL     1       1.771   6.351 -14.376  1.00  0.00     0.202 C 
BRANCH  37  38
ATOM     38  C   UNL     1       1.171   4.954 -14.286  1.00  0.00     0.261 C 
BRANCH  38  39
ATOM     39  O   UNL     1       2.023   4.095 -13.546  1.00  0.00    -0.460 OA
BRANCH  39  40
ATOM     40  C   UNL     1       2.861   3.328 -14.293  1.00  0.00     0.338 C 
ATOM     41  O   UNL     1       3.014   3.344 -15.491  1.00  0.00    -0.246 OA
BRANCH  40  42
ATOM     42  C   UNL     1       3.473   2.343 -13.384  1.00  0.00     0.060 A 
ATOM     43  C   UNL     1       4.111   1.259 -13.991  1.00  0.00     0.016 A 
ATOM     44  C   UNL     1       3.014   2.294 -12.068  1.00  0.00     0.016 A 
ATOM     45  C   UNL     1       3.983   0.021 -13.399  1.00  0.00     0.010 A 
ATOM     46  C   UNL     1       2.812   1.059 -11.529  1.00  0.00     0.010 A 
ATOM     47  C   UNL     1       3.214  -0.068 -12.241  1.00  0.00    -0.014 A 
BRANCH  47  48
ATOM     48  C   UNL     1       2.869  -1.361 -11.688  1.00  0.00     0.031 A 
ATOM     49  C   UNL     1       3.975  -1.912 -10.861  1.00  0.00     0.074 A 
ATOM     50  C   UNL     1       1.603  -1.829 -11.790  1.00  0.00     0.049 A 
ATOM     51  N   UNL     1       4.630  -3.009 -11.035  1.00  0.00    -0.248 NA
ATOM     52  C   UNL     1       4.557  -1.042  -9.817  1.00  0.00     0.031 C 
ATOM     53  C   UNL     1       0.435  -1.143 -12.356  1.00  0.00     0.029 A 
ATOM     54  N   UNL     1       1.054  -2.974 -11.284  1.00  0.00    -0.354 N 
ATOM     55  C   UNL     1       5.556  -3.059  -9.995  1.00  0.00     0.074 A 
ATOM     56  C   UNL     1       5.615  -1.747  -9.425  1.00  0.00     0.031 C 
ATOM     57  C   UNL     1      -0.698  -1.783 -11.981  1.00  0.00     0.029 A 
ATOM     58  C   UNL     1      -0.350  -2.979 -11.240  1.00  0.00     0.049 A 
ATOM     59  H   UNL     1       1.599  -3.733 -10.975  1.00  0.00     0.167 HD
ATOM     60  C   UNL     1       5.980  -4.246  -9.492  1.00  0.00     0.037 A 
ATOM     61  C   UNL     1      -1.113  -3.878 -10.553  1.00  0.00     0.037 A 
ATOM     62  C   UNL     1       5.725  -5.311 -10.424  1.00  0.00     0.049 A 
ATOM     63  C   UNL     1      -0.202  -5.021 -10.243  1.00  0.00     0.074 A 
ATOM     64  C   UNL     1       6.176  -5.599 -11.695  1.00  0.00     0.029 A 
ATOM     65  N   UNL     1       4.569  -6.030 -10.248  1.00  0.00    -0.354 N 
ATOM     66  N   UNL     1       0.289  -5.815 -11.155  1.00  0.00    -0.248 NA
ATOM     67  C   UNL     1       0.533  -4.995  -8.984  1.00  0.00     0.031 C 
ATOM     68  C   UNL     1       5.043  -6.123 -12.378  1.00  0.00     0.029 A 
ATOM     69  C   UNL     1       3.983  -6.209 -11.473  1.00  0.00     0.049 A 
ATOM     70  H   UNL     1       4.220  -6.360  -9.388  1.00  0.00     0.167 HD
ATOM     71  C   UNL     1       1.594  -6.061 -10.751  1.00  0.00     0.074 A 
ATOM     72  C   UNL     1       1.663  -5.593  -9.370  1.00  0.00     0.031 C 
ATOM     73  C   UNL     1       2.559  -6.349 -11.671  1.00  0.00     0.037 A 
BRANCH  60  74
ATOM     74  C   UNL     1       6.243  -4.490  -8.028  1.00  0.00     0.064 A 
ATOM     75  C   UNL     1       6.816  -5.714  -7.638  1.00  0.00     0.173 A 
ATOM     76  C   UNL     1       5.697  -3.712  -6.980  1.00  0.00     0.173 A 
ATOM     77  F   UNL     1       7.345  -6.541  -8.552  1.00  0.00    -0.203 F 
ATOM     78  C   UNL     1       6.778  -6.157  -6.313  1.00  0.00     0.198 A 
ATOM     79  C   UNL     1       5.713  -4.131  -5.652  1.00  0.00     0.198 A 
ATOM     80  F   UNL     1       5.025  -2.576  -7.200  1.00  0.00    -0.203 F 
ATOM     81  F   UNL     1       7.222  -7.384  -6.011  1.00  0.00    -0.200 F 
ATOM     82  C   UNL     1       6.223  -5.367  -5.323  1.00  0.00     0.200 A 
ATOM     83  F   UNL     1       5.153  -3.356  -4.712  1.00  0.00    -0.200 F 
ATOM     84  F   UNL     1       6.134  -5.814  -4.064  1.00  0.00    -0.200 F 
ENDBRANCH  60  74
BRANCH  61  85
ATOM     85  C   UNL     1      -2.453  -3.745  -9.892  1.00  0.00     0.064 A 
ATOM     86  C   UNL     1      -3.051  -4.854  -9.257  1.00  0.00     0.173 A 
ATOM     87  C   UNL     1      -3.036  -2.497  -9.592  1.00  0.00     0.173 A 
ATOM     88  F   UNL     1      -2.586  -6.092  -9.480  1.00  0.00    -0.203 F 
ATOM     89  C   UNL     1      -4.082  -4.713  -8.316  1.00  0.00     0.198 A 
ATOM     90  C   UNL     1      -4.048  -2.355  -8.635  1.00  0.00     0.198 A 
ATOM     91  F   UNL     1      -2.554  -1.365 -10.117  1.00  0.00    -0.203 F 
ATOM     92  F   UNL     1      -4.564  -5.793  -7.684  1.00  0.00    -0.200 F 
ATOM     93  C   UNL     1      -4.555  -3.459  -7.979  1.00  0.00     0.200 A 
ATOM     94  F   UNL     1      -4.463  -1.127  -8.288  1.00  0.00    -0.200 F 
ATOM     95  F   UNL     1      -5.462  -3.310  -7.004  1.00  0.00    -0.200 F 
ENDBRANCH  61  85
BRANCH  73  96
ATOM     96  C   UNL     1       2.111  -6.634 -13.079  1.00  0.00     0.064 A 
ATOM     97  C   UNL     1       1.519  -5.681 -13.926  1.00  0.00     0.173 A 
ATOM     98  C   UNL     1       2.458  -7.868 -13.642  1.00  0.00     0.173 A 
ATOM     99  F   UNL     1       1.243  -4.447 -13.488  1.00  0.00    -0.203 F 
ATOM    100  C   UNL     1       1.263  -5.963 -15.267  1.00  0.00     0.198 A 
ATOM    101  C   UNL     1       2.240  -8.133 -14.989  1.00  0.00     0.198 A 
ATOM    102  F   UNL     1       3.076  -8.795 -12.893  1.00  0.00    -0.203 F 
ATOM    103  F   UNL     1       0.697  -5.035 -16.053  1.00  0.00    -0.200 F 
ATOM    104  C   UNL     1       1.637  -7.185 -15.800  1.00  0.00     0.200 A 
ATOM    105  F   UNL     1       2.652  -9.296 -15.512  1.00  0.00    -0.200 F 
ATOM    106  F   UNL     1       1.444  -7.438 -17.102  1.00  0.00    -0.200 F 
ENDBRANCH  73  96
ENDBRANCH  47  48
ENDBRANCH  40  42
ENDBRANCH  39  40
ENDBRANCH  38  39
ENDBRANCH  37  38
ENDBRANCH  36  37
ENDBRANCH  35  36
ENDBRANCH   1  35
TORSDOF 22
