REMARK SMILES CC(=O)N[C@@H](Cc1c(OCC(C)C)ccc2ccccc12)C(=O)OCCOCCOC(=O)c1ccc(-c2c3nc(c(-c4c(F)c(F)c(F)c(F)c4F)c4ccc([nH]4)c(-c4c(F)c(F)c(F)c(F)c4F)c4nc(c(-c5c(F)c(F)c(F)c(F)c5F)c5ccc2[nH]5)C=C4)C=C3)cc1
REMARK SMILES IDX 25 1 24 2 22 3 23 4 5 5 4 6 1 7 2 8 3 9 6 11 7 12 8 13 21 14
REMARK SMILES IDX 14 15 16 16 20 17 15 18 17 19 19 20 18 21 9 22 10 23 11 24
REMARK SMILES IDX 12 25 13 26 26 27 27 28 28 29 29 30 30 31 31 32 32 33 33 34
REMARK SMILES IDX 34 35 95 36 35 37 94 38 36 39 37 40 38 41 88 42 39 43 93 44
REMARK SMILES IDX 87 45 89 46 40 47 92 48 86 49 85 50 41 52 73 53 53 54 72 55
REMARK SMILES IDX 54 56 57 57 71 58 90 59 55 60 56 61 70 63 91 64 58 65 42 66
REMARK SMILES IDX 43 67 51 68 44 69 45 70 49 71 52 72 46 73 47 74 50 75 48 76
REMARK SMILES IDX 74 77 75 78 83 79 76 80 77 81 81 82 84 83 78 84 79 85 82 86
REMARK SMILES IDX 80 87 59 88 60 89 68 90 61 91 62 92 66 93 69 94 63 95 64 96
REMARK SMILES IDX 67 97 65 98
REMARK H PARENT 4 10 89 51 57 62
REMARK Flexibility Score: inf
ROOT
ATOM      1  C   UNL     1       0.364   5.636   1.835  1.00  0.00     0.261 C 
ENDROOT
BRANCH   1   2
ATOM      2  O   UNL     1       0.760   4.666   0.857  1.00  0.00    -0.462 OA
BRANCH   2   3
ATOM      3  C   UNL     1       1.929   4.009   1.108  1.00  0.00     0.329 C 
ATOM      4  O   UNL     1       2.702   4.273   2.022  1.00  0.00    -0.250 OA
BRANCH   3   5
ATOM      5  C   UNL     1       2.218   2.933   0.049  1.00  0.00     0.196 C 
BRANCH   5   6
ATOM      6  N   UNL     1       1.007   2.450  -0.636  1.00  0.00    -0.343 N 
ATOM      7  C   UNL     1       1.176   0.090   0.055  1.00  0.00     0.114 C 
ATOM      8  C   UNL     1       0.475   1.198  -0.678  1.00  0.00     0.217 C 
ATOM      9  O   UNL     1      -0.575   1.004  -1.287  1.00  0.00    -0.275 OA
ATOM     10  H   UNL     1       0.508   3.134  -1.138  1.00  0.00     0.164 HD
ENDBRANCH   5   6
BRANCH   5  11
ATOM     11  C   UNL     1       3.269   3.452  -0.955  1.00  0.00     0.077 C 
BRANCH  11  12
ATOM     12  C   UNL     1       2.757   4.601  -1.828  1.00  0.00     0.005 A 
ATOM     13  C   UNL     1       2.912   5.929  -1.363  1.00  0.00     0.123 A 
ATOM     14  C   UNL     1       2.057   4.352  -3.051  1.00  0.00    -0.011 A 
ATOM     15  C   UNL     1       2.284   6.974  -2.033  1.00  0.00     0.047 A 
ATOM     16  C   UNL     1       1.478   5.448  -3.737  1.00  0.00    -0.018 A 
ATOM     17  C   UNL     1       1.891   3.073  -3.638  1.00  0.00     0.009 A 
ATOM     18  C   UNL     1       1.581   6.736  -3.210  1.00  0.00     0.012 A 
ATOM     19  C   UNL     1       0.788   5.252  -4.944  1.00  0.00     0.009 A 
ATOM     20  C   UNL     1       1.196   2.889  -4.835  1.00  0.00     0.001 A 
ATOM     21  C   UNL     1       0.648   3.981  -5.492  1.00  0.00     0.001 A 
BRANCH  13  22
ATOM     22  O   UNL     1       3.706   6.084  -0.260  1.00  0.00    -0.493 OA
BRANCH  22  23
ATOM     23  C   UNL     1       4.067   7.380   0.214  1.00  0.00     0.232 C 
BRANCH  23  24
ATOM     24  C   UNL     1       5.382   7.901  -0.400  1.00  0.00     0.020 C 
ATOM     25  C   UNL     1       5.320   8.123  -1.912  1.00  0.00     0.011 C 
ATOM     26  C   UNL     1       5.789   9.208   0.285  1.00  0.00     0.011 C 
ENDBRANCH  23  24
ENDBRANCH  22  23
ENDBRANCH  13  22
ENDBRANCH  11  12
ENDBRANCH   5  11
ENDBRANCH   3   5
ENDBRANCH   2   3
ENDBRANCH   1   2
BRANCH   1  27
ATOM     27  C   UNL     1      -1.109   5.466   2.210  1.00  0.00     0.202 C 
BRANCH  27  28
ATOM     28  O   UNL     1      -1.468   4.218   2.801  1.00  0.00    -0.374 OA
BRANCH  28  29
ATOM     29  C   UNL     1      -1.507   3.070   1.951  1.00  0.00     0.202 C 
BRANCH  29  30
ATOM     30  C   UNL     1      -2.672   2.983   0.955  1.00  0.00     0.261 C 
BRANCH  30  31
ATOM     31  O   UNL     1      -2.651   4.034  -0.029  1.00  0.00    -0.460 OA
BRANCH  31  32
ATOM     32  C   UNL     1      -3.723   4.859  -0.003  1.00  0.00     0.338 C 
ATOM     33  O   UNL     1      -4.701   4.794   0.731  1.00  0.00    -0.246 OA
BRANCH  32  34
ATOM     34  C   UNL     1      -3.504   6.006  -0.898  1.00  0.00     0.060 A 
ATOM     35  C   UNL     1      -3.490   7.287  -0.328  1.00  0.00     0.016 A 
ATOM     36  C   UNL     1      -3.426   5.843  -2.281  1.00  0.00     0.016 A 
ATOM     37  C   UNL     1      -3.424   8.413  -1.146  1.00  0.00     0.010 A 
ATOM     38  C   UNL     1      -3.375   6.975  -3.101  1.00  0.00     0.010 A 
ATOM     39  C   UNL     1      -3.398   8.265  -2.539  1.00  0.00    -0.014 A 
BRANCH  39  40
ATOM     40  C   UNL     1      -3.493   9.460  -3.411  1.00  0.00     0.031 A 
ATOM     41  C   UNL     1      -4.825   9.858  -3.978  1.00  0.00     0.074 A 
ATOM     42  C   UNL     1      -2.397  10.189  -3.684  1.00  0.00     0.049 A 
ATOM     43  N   UNL     1      -5.117  10.826  -4.811  1.00  0.00    -0.248 NA
ATOM     44  C   UNL     1      -5.985   9.063  -3.548  1.00  0.00     0.031 C 
ATOM     45  C   UNL     1      -1.061   9.931  -3.151  1.00  0.00     0.029 A 
ATOM     46  N   UNL     1      -2.235  11.288  -4.489  1.00  0.00    -0.354 N 
ATOM     47  C   UNL     1      -6.490  10.754  -5.006  1.00  0.00     0.074 A 
ATOM     48  C   UNL     1      -6.972   9.636  -4.223  1.00  0.00     0.031 C 
ATOM     49  C   UNL     1      -0.208  10.837  -3.660  1.00  0.00     0.029 A 
ATOM     50  C   UNL     1      -0.933  11.713  -4.580  1.00  0.00     0.049 A 
ATOM     51  H   UNL     1      -2.981  11.729  -4.956  1.00  0.00     0.167 HD
ATOM     52  C   UNL     1      -7.277  11.553  -5.767  1.00  0.00     0.037 A 
ATOM     53  C   UNL     1      -0.387  12.679  -5.343  1.00  0.00     0.037 A 
ATOM     54  C   UNL     1      -6.795  12.662  -6.549  1.00  0.00     0.049 A 
ATOM     55  C   UNL     1      -1.270  13.492  -6.254  1.00  0.00     0.074 A 
ATOM     56  C   UNL     1      -7.518  13.546  -7.330  1.00  0.00     0.029 A 
ATOM     57  N   UNL     1      -5.463  13.030  -6.657  1.00  0.00    -0.354 N 
ATOM     58  N   UNL     1      -2.569  13.434  -6.415  1.00  0.00    -0.248 NA
ATOM     59  C   UNL     1      -0.607  14.501  -7.093  1.00  0.00     0.031 C 
ATOM     60  C   UNL     1      -6.617  14.418  -7.952  1.00  0.00     0.029 A 
ATOM     61  C   UNL     1      -5.338  14.107  -7.520  1.00  0.00     0.049 A 
ATOM     62  H   UNL     1      -4.716  12.591  -6.189  1.00  0.00     0.167 HD
ATOM     63  C   UNL     1      -2.882  14.406  -7.357  1.00  0.00     0.074 A 
ATOM     64  C   UNL     1      -1.637  15.052  -7.720  1.00  0.00     0.031 C 
ATOM     65  C   UNL     1      -4.091  14.735  -7.875  1.00  0.00     0.037 A 
BRANCH  52  66
ATOM     66  C   UNL     1      -8.743  11.239  -5.815  1.00  0.00     0.064 A 
ATOM     67  C   UNL     1      -9.588  11.504  -4.728  1.00  0.00     0.173 A 
ATOM     68  C   UNL     1      -9.316  10.706  -6.979  1.00  0.00     0.173 A 
ATOM     69  F   UNL     1      -9.087  12.005  -3.589  1.00  0.00    -0.203 F 
ATOM     70  C   UNL     1     -10.952  11.227  -4.798  1.00  0.00     0.198 A 
ATOM     71  C   UNL     1     -10.683  10.452  -7.054  1.00  0.00     0.198 A 
ATOM     72  F   UNL     1      -8.551  10.439  -8.049  1.00  0.00    -0.203 F 
ATOM     73  F   UNL     1     -11.735  11.454  -3.735  1.00  0.00    -0.200 F 
ATOM     74  C   UNL     1     -11.498  10.708  -5.962  1.00  0.00     0.200 A 
ATOM     75  F   UNL     1     -11.211   9.961  -8.184  1.00  0.00    -0.200 F 
ATOM     76  F   UNL     1     -12.812  10.448  -6.030  1.00  0.00    -0.200 F 
ENDBRANCH  52  66
BRANCH  53  77
ATOM     77  C   UNL     1       1.080  12.912  -5.303  1.00  0.00     0.064 A 
ATOM     78  C   UNL     1       1.611  14.090  -4.760  1.00  0.00     0.173 A 
ATOM     79  C   UNL     1       1.979  11.967  -5.820  1.00  0.00     0.173 A 
ATOM     80  F   UNL     1       0.790  15.033  -4.276  1.00  0.00    -0.203 F 
ATOM     81  C   UNL     1       2.986  14.320  -4.749  1.00  0.00     0.198 A 
ATOM     82  C   UNL     1       3.353  12.186  -5.784  1.00  0.00     0.198 A 
ATOM     83  F   UNL     1       1.520  10.824  -6.350  1.00  0.00    -0.203 F 
ATOM     84  F   UNL     1       3.466  15.471  -4.261  1.00  0.00    -0.200 F 
ATOM     85  C   UNL     1       3.856  13.366  -5.255  1.00  0.00     0.200 A 
ATOM     86  F   UNL     1       4.191  11.256  -6.263  1.00  0.00    -0.200 F 
ATOM     87  F   UNL     1       5.177  13.585  -5.239  1.00  0.00    -0.200 F 
ENDBRANCH  53  77
BRANCH  65  88
ATOM     88  C   UNL     1      -4.130  15.849  -8.880  1.00  0.00     0.064 A 
ATOM     89  C   UNL     1      -3.653  15.673 -10.187  1.00  0.00     0.173 A 
ATOM     90  C   UNL     1      -4.691  17.091  -8.546  1.00  0.00     0.173 A 
ATOM     91  F   UNL     1      -3.093  14.510 -10.550  1.00  0.00    -0.203 F 
ATOM     92  C   UNL     1      -3.719  16.707 -11.118  1.00  0.00     0.198 A 
ATOM     93  C   UNL     1      -4.779  18.114  -9.487  1.00  0.00     0.198 A 
ATOM     94  F   UNL     1      -5.166  17.308  -7.311  1.00  0.00    -0.203 F 
ATOM     95  F   UNL     1      -3.219  16.530 -12.349  1.00  0.00    -0.200 F 
ATOM     96  C   UNL     1      -4.288  17.923 -10.770  1.00  0.00     0.200 A 
ATOM     97  F   UNL     1      -5.340  19.284  -9.152  1.00  0.00    -0.200 F 
ATOM     98  F   UNL     1      -4.357  18.914 -11.669  1.00  0.00    -0.200 F 
ENDBRANCH  65  88
ENDBRANCH  39  40
ENDBRANCH  32  34
ENDBRANCH  31  32
ENDBRANCH  30  31
ENDBRANCH  29  30
ENDBRANCH  28  29
ENDBRANCH  27  28
ENDBRANCH   1  27
TORSDOF 20
