REMARK SMILES Cc1cccc(-c2ncc(C[NH+]3CCC4(CC3)NC(=O)C[C@H]4C(=O)OCCOCCOC(=O)c3ccc(-c4c5nc(c(-c6c(F)c(F)c(F)c(F)c6F)c6ccc([nH]6)c(-c6c(F)c(F)c(F)c(F)c6F)c6nc(c(-c7c(F)c(F)c(F)c(F)c7F)c7ccc4[nH]7)C=C6)C=C5)cc3)cn2)c1
REMARK SMILES IDX 27 1 26 2 25 3 23 4 24 5 22 6 12 7 13 8 17 9 14 11 16 12
REMARK SMILES IDX 15 13 18 14 19 15 21 17 20 18 11 19 10 20 7 21 8 22 98 23
REMARK SMILES IDX 9 24 97 25 6 26 1 27 2 28 3 29 99 30 4 31 5 32 28 33 29 34
REMARK SMILES IDX 30 35 31 36 32 37 33 38 34 39 35 40 96 41 36 42 95 43 37 44
REMARK SMILES IDX 38 45 39 46 89 47 40 48 94 49 88 50 90 51 41 52 93 53 87 54
REMARK SMILES IDX 86 55 42 57 74 58 54 59 73 60 55 61 58 62 72 63 91 64 56 65
REMARK SMILES IDX 57 66 71 68 92 69 59 70 43 71 44 72 52 73 45 74 46 75 50 76
REMARK SMILES IDX 53 77 47 78 48 79 51 80 49 81 75 82 76 83 84 84 77 85 78 86
REMARK SMILES IDX 82 87 85 88 79 89 80 90 83 91 81 92 60 93 61 94 69 95 62 96
REMARK SMILES IDX 63 97 67 98 70 99 64 100 65 101 68 102 66 103
REMARK H PARENT 12 10 18 16 90 56 58 67
REMARK Flexibility Score: inf
ROOT
ATOM      1  C   UNL     1      -2.099   5.632  -3.176  1.00  0.00     0.202 C 
ENDROOT
BRANCH   1   2
ATOM      2  C   UNL     1      -0.651   5.197  -3.121  1.00  0.00     0.261 C 
BRANCH   2   3
ATOM      3  O   UNL     1       0.165   5.466  -1.937  1.00  0.00    -0.463 OA
BRANCH   3   4
ATOM      4  C   UNL     1       0.421   6.727  -1.476  1.00  0.00     0.311 C 
ATOM      5  O   UNL     1       0.464   7.731  -2.171  1.00  0.00    -0.252 OA
BRANCH   4   6
ATOM      6  C   UNL     1       0.621   6.748   0.059  1.00  0.00     0.134 C 
ATOM      7  N   UNL     1      -3.259   6.717   1.337  1.00  0.00    -0.331 N 
ATOM      8  C   UNL     1      -2.231   7.014   2.342  1.00  0.00     0.264 C 
ATOM      9  C   UNL     1      -2.647   6.633   0.031  1.00  0.00     0.264 C 
ATOM     10  H   UNL     1      -3.876   7.524   1.426  1.00  0.00     0.348 HD
ATOM     11  C   UNL     1      -0.854   6.290   2.252  1.00  0.00     0.091 C 
ATOM     12  C   UNL     1      -1.615   5.533   0.064  1.00  0.00     0.091 C 
ATOM     13  C   UNL     1      -0.371   5.854   0.840  1.00  0.00     0.064 C 
ATOM     14  N   UNL     1       0.400   4.631   1.003  1.00  0.00    -0.349 N 
ATOM     15  C   UNL     1       1.740   4.747   0.721  1.00  0.00     0.221 C 
ATOM     16  H   UNL     1      -0.008   3.784   1.294  1.00  0.00     0.164 HD
ATOM     17  C   UNL     1       2.011   6.196   0.414  1.00  0.00     0.117 C 
ATOM     18  O   UNL     1       2.543   3.849   0.771  1.00  0.00    -0.275 OA
BRANCH   7  19
ATOM     19  C   UNL     1      -4.311   5.688   1.576  1.00  0.00     0.302 C 
BRANCH  19  20
ATOM     20  C   UNL     1      -3.968   4.233   1.320  1.00  0.00     0.043 A 
ATOM     21  C   UNL     1      -2.595   1.953   0.670  1.00  0.00     0.159 A 
ATOM     22  N   UNL     1      -2.537   2.395   1.944  1.00  0.00    -0.236 NA
ATOM     23  N   UNL     1      -3.375   2.502  -0.284  1.00  0.00    -0.236 NA
ATOM     24  C   UNL     1      -3.253   3.502   2.247  1.00  0.00     0.124 A 
ATOM     25  C   UNL     1      -4.056   3.626   0.068  1.00  0.00     0.124 A 
BRANCH  21  26
ATOM     26  C   UNL     1      -1.704   0.831   0.323  1.00  0.00     0.019 A 
ATOM     27  C   UNL     1       2.053   0.010   0.145  1.00  0.00     0.044 C 
ATOM     28  C   UNL     1       0.557  -0.139   0.111  1.00  0.00    -0.050 A 
ATOM     29  C   UNL     1      -0.009  -1.402  -0.071  1.00  0.00     0.003 A 
ATOM     30  C   UNL     1      -0.297   0.964   0.302  1.00  0.00     0.015 A 
ATOM     31  C   UNL     1      -1.395  -1.551  -0.095  1.00  0.00     0.001 A 
ATOM     32  C   UNL     1      -2.232  -0.446   0.091  1.00  0.00     0.012 A 
ENDBRANCH  21  26
ENDBRANCH  19  20
ENDBRANCH   7  19
ENDBRANCH   4   6
ENDBRANCH   3   4
ENDBRANCH   2   3
ENDBRANCH   1   2
BRANCH   1  33
ATOM     33  O   UNL     1      -2.117   7.046  -3.135  1.00  0.00    -0.374 OA
BRANCH  33  34
ATOM     34  C   UNL     1      -3.365   7.716  -3.224  1.00  0.00     0.202 C 
BRANCH  34  35
ATOM     35  C   UNL     1      -4.464   7.055  -4.072  1.00  0.00     0.261 C 
BRANCH  35  36
ATOM     36  O   UNL     1      -4.232   7.289  -5.478  1.00  0.00    -0.460 OA
BRANCH  36  37
ATOM     37  C   UNL     1      -3.692   6.255  -6.182  1.00  0.00     0.338 C 
ATOM     38  O   UNL     1      -4.183   5.144  -6.281  1.00  0.00    -0.246 OA
BRANCH  37  39
ATOM     39  C   UNL     1      -2.279   6.584  -6.537  1.00  0.00     0.060 A 
ATOM     40  C   UNL     1      -1.406   5.572  -6.977  1.00  0.00     0.016 A 
ATOM     41  C   UNL     1      -1.760   7.776  -6.050  1.00  0.00     0.016 A 
ATOM     42  C   UNL     1      -0.024   5.694  -6.760  1.00  0.00     0.010 A 
ATOM     43  C   UNL     1      -0.444   7.795  -5.656  1.00  0.00     0.010 A 
ATOM     44  C   UNL     1       0.443   6.761  -6.002  1.00  0.00    -0.014 A 
BRANCH  44  45
ATOM     45  C   UNL     1       1.797   6.944  -5.464  1.00  0.00     0.031 A 
ATOM     46  C   UNL     1       2.486   8.188  -5.878  1.00  0.00     0.074 A 
ATOM     47  C   UNL     1       2.316   6.194  -4.454  1.00  0.00     0.049 A 
ATOM     48  N   UNL     1       3.696   8.460  -5.558  1.00  0.00    -0.248 NA
ATOM     49  C   UNL     1       1.893   9.226  -6.726  1.00  0.00     0.031 C 
ATOM     50  C   UNL     1       3.396   6.536  -3.520  1.00  0.00     0.029 A 
ATOM     51  N   UNL     1       1.980   4.896  -4.033  1.00  0.00    -0.354 N 
ATOM     52  C   UNL     1       3.927   9.781  -5.836  1.00  0.00     0.074 A 
ATOM     53  C   UNL     1       2.831  10.175  -6.677  1.00  0.00     0.031 C 
ATOM     54  C   UNL     1       3.831   5.416  -2.910  1.00  0.00     0.029 A 
ATOM     55  C   UNL     1       3.144   4.296  -3.525  1.00  0.00     0.049 A 
ATOM     56  H   UNL     1       1.089   4.481  -4.084  1.00  0.00     0.167 HD
ATOM     57  C   UNL     1       4.981  10.367  -5.205  1.00  0.00     0.037 A 
ATOM     58  C   UNL     1       3.657   3.212  -4.166  1.00  0.00     0.037 A 
ATOM     59  C   UNL     1       5.841   9.328  -4.588  1.00  0.00     0.049 A 
ATOM     60  C   UNL     1       4.965   3.597  -4.806  1.00  0.00     0.074 A 
ATOM     61  C   UNL     1       6.179   8.929  -3.307  1.00  0.00     0.029 A 
ATOM     62  N   UNL     1       6.256   8.280  -5.406  1.00  0.00    -0.354 N 
ATOM     63  N   UNL     1       5.502   4.779  -4.663  1.00  0.00    -0.248 NA
ATOM     64  C   UNL     1       5.742   2.749  -5.695  1.00  0.00     0.031 C 
ATOM     65  C   UNL     1       6.772   7.618  -3.386  1.00  0.00     0.029 A 
ATOM     66  C   UNL     1       6.836   7.234  -4.717  1.00  0.00     0.049 A 
ATOM     67  H   UNL     1       6.147   8.285  -6.384  1.00  0.00     0.167 HD
ATOM     68  C   UNL     1       6.606   4.906  -5.434  1.00  0.00     0.074 A 
ATOM     69  C   UNL     1       6.711   3.602  -6.081  1.00  0.00     0.031 C 
ATOM     70  C   UNL     1       7.314   6.078  -5.486  1.00  0.00     0.037 A 
BRANCH  57  71
ATOM     71  C   UNL     1       5.186  11.865  -5.059  1.00  0.00     0.064 A 
ATOM     72  C   UNL     1       6.300  12.355  -4.346  1.00  0.00     0.173 A 
ATOM     73  C   UNL     1       4.309  12.877  -5.518  1.00  0.00     0.173 A 
ATOM     74  F   UNL     1       7.210  11.523  -3.822  1.00  0.00    -0.203 F 
ATOM     75  C   UNL     1       6.516  13.722  -4.122  1.00  0.00     0.198 A 
ATOM     76  C   UNL     1       4.547  14.243  -5.332  1.00  0.00     0.198 A 
ATOM     77  F   UNL     1       3.151  12.612  -6.124  1.00  0.00    -0.203 F 
ATOM     78  F   UNL     1       7.573  14.118  -3.400  1.00  0.00    -0.200 F 
ATOM     79  C   UNL     1       5.647  14.667  -4.626  1.00  0.00     0.200 A 
ATOM     80  F   UNL     1       3.679  15.139  -5.826  1.00  0.00    -0.200 F 
ATOM     81  F   UNL     1       5.856  15.974  -4.420  1.00  0.00    -0.200 F 
ENDBRANCH  57  71
BRANCH  58  82
ATOM     82  C   UNL     1       2.548   2.340  -4.686  1.00  0.00     0.064 A 
ATOM     83  C   UNL     1       1.689   1.757  -3.721  1.00  0.00     0.173 A 
ATOM     84  C   UNL     1       2.025   2.498  -5.976  1.00  0.00     0.173 A 
ATOM     85  F   UNL     1       2.120   1.597  -2.460  1.00  0.00    -0.203 F 
ATOM     86  C   UNL     1       0.342   1.501  -3.991  1.00  0.00     0.198 A 
ATOM     87  C   UNL     1       0.677   2.221  -6.246  1.00  0.00     0.198 A 
ATOM     88  F   UNL     1       2.764   3.067  -6.939  1.00  0.00    -0.203 F 
ATOM     89  F   UNL     1      -0.483   1.116  -3.007  1.00  0.00    -0.200 F 
ATOM     90  C   UNL     1      -0.172   1.773  -5.244  1.00  0.00     0.200 A 
ATOM     91  F   UNL     1       0.167   2.501  -7.455  1.00  0.00    -0.200 F 
ATOM     92  F   UNL     1      -1.491   1.674  -5.468  1.00  0.00    -0.200 F 
ENDBRANCH  58  82
BRANCH  70  93
ATOM     93  C   UNL     1       8.511   6.223  -6.381  1.00  0.00     0.064 A 
ATOM     94  C   UNL     1       9.441   5.188  -6.550  1.00  0.00     0.173 A 
ATOM     95  C   UNL     1       8.785   7.417  -7.083  1.00  0.00     0.173 A 
ATOM     96  F   UNL     1       9.378   4.075  -5.805  1.00  0.00    -0.203 F 
ATOM     97  C   UNL     1      10.465   5.276  -7.490  1.00  0.00     0.198 A 
ATOM     98  C   UNL     1       9.852   7.529  -7.965  1.00  0.00     0.198 A 
ATOM     99  F   UNL     1       8.018   8.509  -6.975  1.00  0.00    -0.203 F 
ATOM    100  F   UNL     1      11.252   4.214  -7.710  1.00  0.00    -0.200 F 
ATOM    101  C   UNL     1      10.665   6.443  -8.203  1.00  0.00     0.200 A 
ATOM    102  F   UNL     1      10.062   8.689  -8.601  1.00  0.00    -0.200 F 
ATOM    103  F   UNL     1      11.639   6.523  -9.117  1.00  0.00    -0.200 F 
ENDBRANCH  70  93
ENDBRANCH  44  45
ENDBRANCH  37  39
ENDBRANCH  36  37
ENDBRANCH  35  36
ENDBRANCH  34  35
ENDBRANCH  33  34
ENDBRANCH   1  33
TORSDOF 17
