REMARK SMILES O=C(CC1(CC(=O)OCCOCCOC(=O)c2ccc(-c3c4nc(c(-c5c(F)c(F)c(F)c(F)c5F)c5ccc([nH]5)c(-c5c(F)c(F)c(F)c(F)c5F)c5nc(c(-c6c(F)c(F)c(F)c(F)c6F)c6ccc3[nH]6)C=C5)C=C4)cc2)CCCC1)NNc1ccc([N+](=O)[O-])cc1
REMARK SMILES IDX 9 1 8 2 6 3 7 4 5 5 4 6 80 7 83 8 81 9 82 10 3 11 2 12 1 13
REMARK SMILES IDX 84 14 85 16 86 18 87 19 94 20 88 21 93 22 89 23 90 24 91 25
REMARK SMILES IDX 92 26 10 27 11 28 12 29 13 30 14 31 15 32 16 33 17 34 18 35
REMARK SMILES IDX 79 36 19 37 78 38 20 39 21 40 22 41 72 42 23 43 77 44 71 45
REMARK SMILES IDX 73 46 24 47 76 48 70 49 69 50 25 52 57 53 37 54 56 55 38 56
REMARK SMILES IDX 41 57 55 58 74 59 39 60 40 61 54 63 75 64 42 65 26 66 27 67
REMARK SMILES IDX 35 68 28 69 29 70 33 71 36 72 30 73 31 74 34 75 32 76 58 77
REMARK SMILES IDX 59 78 67 79 60 80 61 81 65 82 68 83 62 84 63 85 66 86 64 87
REMARK SMILES IDX 43 88 44 89 52 90 45 91 46 92 50 93 53 94 47 95 48 96 51 97
REMARK SMILES IDX 49 98
REMARK H PARENT 84 15 85 17 73 51 41 62
REMARK Flexibility Score: inf
ROOT
ATOM      1  C   UNL     1       5.412   2.318   4.568  1.00  0.00     0.261 C 
ENDROOT
BRANCH   1   2
ATOM      2  O   UNL     1       5.113   1.188   3.720  1.00  0.00    -0.463 OA
BRANCH   2   3
ATOM      3  C   UNL     1       4.067   0.417   4.114  1.00  0.00     0.306 C 
ATOM      4  O   UNL     1       3.314   0.685   5.042  1.00  0.00    -0.252 OA
BRANCH   3   5
ATOM      5  C   UNL     1       3.984  -0.902   3.370  1.00  0.00     0.130 C 
BRANCH   5   6
ATOM      6  C   UNL     1       4.063  -0.952   1.811  1.00  0.00    -0.010 C 
ATOM      7  C   UNL     1       3.827  -2.421   1.382  1.00  0.00     0.008 C 
ATOM      8  C   UNL     1       5.499  -0.746   1.290  1.00  0.00     0.008 C 
ATOM      9  C   UNL     1       5.150  -3.134   1.659  1.00  0.00     0.001 C 
ATOM     10  C   UNL     1       6.230  -2.057   1.570  1.00  0.00     0.001 C 
BRANCH   6  11
ATOM     11  C   UNL     1       3.068   0.051   1.181  1.00  0.00     0.109 C 
BRANCH  11  12
ATOM     12  C   UNL     1       2.302  -0.379  -0.061  1.00  0.00     0.238 C 
ATOM     13  O   UNL     1       1.092  -0.596  -0.034  1.00  0.00    -0.273 OA
ATOM     14  N   UNL     1       3.060  -0.451  -1.213  1.00  0.00    -0.270 N 
ATOM     15  H   UNL     1       4.036  -0.326  -1.188  1.00  0.00     0.191 HD
BRANCH  14  16
ATOM     16  N   UNL     1       2.404  -0.702  -2.404  1.00  0.00    -0.299 N 
ATOM     17  H   UNL     1       1.483  -0.380  -2.537  1.00  0.00     0.188 HD
BRANCH  16  18
ATOM     18  C   UNL     1       3.046  -1.414  -3.420  1.00  0.00     0.055 A 
ATOM     19  C   UNL     1       2.577  -1.268  -4.736  1.00  0.00     0.034 A 
ATOM     20  C   UNL     1       4.202  -2.182  -3.212  1.00  0.00     0.034 A 
ATOM     21  C   UNL     1       3.239  -1.860  -5.817  1.00  0.00     0.088 A 
ATOM     22  C   UNL     1       4.866  -2.797  -4.281  1.00  0.00     0.088 A 
ATOM     23  C   UNL     1       4.388  -2.621  -5.584  1.00  0.00     0.269 A 
BRANCH  23  24
ATOM     24  N   UNL     1       5.107  -3.223  -6.714  1.00  0.00     0.062 N 
ATOM     25  O   UNL     1       4.691  -2.982  -7.856  1.00  0.00    -0.258 OA
ATOM     26  O   UNL     1       6.094  -3.928  -6.459  1.00  0.00    -0.258 OA
ENDBRANCH  23  24
ENDBRANCH  16  18
ENDBRANCH  14  16
ENDBRANCH  11  12
ENDBRANCH   6  11
ENDBRANCH   5   6
ENDBRANCH   3   5
ENDBRANCH   2   3
ENDBRANCH   1   2
BRANCH   1  27
ATOM     27  C   UNL     1       5.177   3.663   3.877  1.00  0.00     0.202 C 
BRANCH  27  28
ATOM     28  O   UNL     1       3.812   4.047   3.723  1.00  0.00    -0.374 OA
BRANCH  28  29
ATOM     29  C   UNL     1       3.085   3.420   2.668  1.00  0.00     0.202 C 
BRANCH  29  30
ATOM     30  C   UNL     1       3.349   4.007   1.277  1.00  0.00     0.261 C 
BRANCH  30  31
ATOM     31  O   UNL     1       4.693   3.716   0.843  1.00  0.00    -0.460 OA
BRANCH  31  32
ATOM     32  C   UNL     1       5.402   4.805   0.457  1.00  0.00     0.338 C 
ATOM     33  O   UNL     1       4.982   5.934   0.273  1.00  0.00    -0.246 OA
BRANCH  32  34
ATOM     34  C   UNL     1       6.845   4.497   0.433  1.00  0.00     0.060 A 
ATOM     35  C   UNL     1       7.681   5.306   1.211  1.00  0.00     0.016 A 
ATOM     36  C   UNL     1       7.385   3.524  -0.411  1.00  0.00     0.016 A 
ATOM     37  C   UNL     1       9.065   5.192   1.098  1.00  0.00     0.010 A 
ATOM     38  C   UNL     1       8.778   3.414  -0.528  1.00  0.00     0.010 A 
ATOM     39  C   UNL     1       9.623   4.278   0.193  1.00  0.00    -0.014 A 
BRANCH  39  40
ATOM     40  C   UNL     1      11.074   4.367  -0.112  1.00  0.00     0.031 A 
ATOM     41  C   UNL     1      11.518   5.154  -1.317  1.00  0.00     0.074 A 
ATOM     42  C   UNL     1      11.992   3.824   0.708  1.00  0.00     0.049 A 
ATOM     43  N   UNL     1      12.730   5.393  -1.754  1.00  0.00    -0.248 NA
ATOM     44  C   UNL     1      10.455   5.761  -2.134  1.00  0.00     0.031 C 
ATOM     45  C   UNL     1      11.697   3.076   1.928  1.00  0.00     0.029 A 
ATOM     46  N   UNL     1      13.363   3.828   0.637  1.00  0.00    -0.354 N 
ATOM     47  C   UNL     1      12.574   6.186  -2.884  1.00  0.00     0.074 A 
ATOM     48  C   UNL     1      11.152   6.358  -3.089  1.00  0.00     0.031 C 
ATOM     49  C   UNL     1      12.856   2.688   2.491  1.00  0.00     0.029 A 
ATOM     50  C   UNL     1      13.970   3.144   1.661  1.00  0.00     0.049 A 
ATOM     51  H   UNL     1      13.864   4.279  -0.080  1.00  0.00     0.167 HD
ATOM     52  C   UNL     1      13.529   6.736  -3.670  1.00  0.00     0.037 A 
ATOM     53  C   UNL     1      15.276   2.905   1.894  1.00  0.00     0.037 A 
ATOM     54  C   UNL     1      14.944   6.568  -3.478  1.00  0.00     0.049 A 
ATOM     55  C   UNL     1      16.316   3.470   0.960  1.00  0.00     0.074 A 
ATOM     56  C   UNL     1      15.985   7.073  -4.238  1.00  0.00     0.029 A 
ATOM     57  N   UNL     1      15.517   5.840  -2.448  1.00  0.00    -0.354 N 
ATOM     58  N   UNL     1      16.156   4.225  -0.099  1.00  0.00    -0.248 NA
ATOM     59  C   UNL     1      17.721   3.151   1.259  1.00  0.00     0.031 C 
ATOM     60  C   UNL     1      17.189   6.624  -3.684  1.00  0.00     0.029 A 
ATOM     61  C   UNL     1      16.897   5.871  -2.559  1.00  0.00     0.049 A 
ATOM     62  H   UNL     1      15.017   5.370  -1.742  1.00  0.00     0.167 HD
ATOM     63  C   UNL     1      17.434   4.494  -0.573  1.00  0.00     0.074 A 
ATOM     64  C   UNL     1      18.361   3.831   0.319  1.00  0.00     0.031 C 
ATOM     65  C   UNL     1      17.806   5.222  -1.653  1.00  0.00     0.037 A 
BRANCH  52  66
ATOM     66  C   UNL     1      13.074   7.577  -4.824  1.00  0.00     0.064 A 
ATOM     67  C   UNL     1      12.589   8.879  -4.629  1.00  0.00     0.173 A 
ATOM     68  C   UNL     1      13.179   7.102  -6.139  1.00  0.00     0.173 A 
ATOM     69  F   UNL     1      12.458   9.371  -3.388  1.00  0.00    -0.203 F 
ATOM     70  C   UNL     1      12.214   9.671  -5.710  1.00  0.00     0.198 A 
ATOM     71  C   UNL     1      12.822   7.905  -7.219  1.00  0.00     0.198 A 
ATOM     72  F   UNL     1      13.639   5.865  -6.376  1.00  0.00    -0.203 F 
ATOM     73  F   UNL     1      11.727  10.902  -5.500  1.00  0.00    -0.200 F 
ATOM     74  C   UNL     1      12.339   9.187  -7.004  1.00  0.00     0.200 A 
ATOM     75  F   UNL     1      12.951   7.439  -8.469  1.00  0.00    -0.200 F 
ATOM     76  F   UNL     1      11.988   9.955  -8.045  1.00  0.00    -0.200 F 
ENDBRANCH  52  66
BRANCH  53  77
ATOM     77  C   UNL     1      15.687   2.076   3.057  1.00  0.00     0.064 A 
ATOM     78  C   UNL     1      16.377   2.636   4.141  1.00  0.00     0.173 A 
ATOM     79  C   UNL     1      15.439   0.696   3.083  1.00  0.00     0.173 A 
ATOM     80  F   UNL     1      16.662   3.947   4.147  1.00  0.00    -0.203 F 
ATOM     81  C   UNL     1      16.824   1.843   5.196  1.00  0.00     0.198 A 
ATOM     82  C   UNL     1      15.863  -0.091   4.151  1.00  0.00     0.198 A 
ATOM     83  F   UNL     1      14.786   0.112   2.067  1.00  0.00    -0.203 F 
ATOM     84  F   UNL     1      17.527   2.395   6.194  1.00  0.00    -0.200 F 
ATOM     85  C   UNL     1      16.564   0.481   5.202  1.00  0.00     0.200 A 
ATOM     86  F   UNL     1      15.603  -1.406   4.155  1.00  0.00    -0.200 F 
ATOM     87  F   UNL     1      16.999  -0.282   6.213  1.00  0.00    -0.200 F 
ENDBRANCH  53  77
BRANCH  65  88
ATOM     88  C   UNL     1      19.276   5.373  -1.912  1.00  0.00     0.064 A 
ATOM     89  C   UNL     1      20.041   4.319  -2.430  1.00  0.00     0.173 A 
ATOM     90  C   UNL     1      19.915   6.601  -1.682  1.00  0.00     0.173 A 
ATOM     91  F   UNL     1      19.477   3.122  -2.653  1.00  0.00    -0.203 F 
ATOM     92  C   UNL     1      21.399   4.482  -2.689  1.00  0.00     0.198 A 
ATOM     93  C   UNL     1      21.268   6.767  -1.965  1.00  0.00     0.198 A 
ATOM     94  F   UNL     1      19.224   7.642  -1.194  1.00  0.00    -0.203 F 
ATOM     95  F   UNL     1      22.121   3.450  -3.148  1.00  0.00    -0.200 F 
ATOM     96  C   UNL     1      22.010   5.707  -2.462  1.00  0.00     0.200 A 
ATOM     97  F   UNL     1      21.854   7.954  -1.754  1.00  0.00    -0.200 F 
ATOM     98  F   UNL     1      23.316   5.863  -2.717  1.00  0.00    -0.200 F 
ENDBRANCH  65  88
ENDBRANCH  39  40
ENDBRANCH  32  34
ENDBRANCH  31  32
ENDBRANCH  30  31
ENDBRANCH  29  30
ENDBRANCH  28  29
ENDBRANCH  27  28
ENDBRANCH   1  27
TORSDOF 20
