REMARK SMILES CC[C@H](C)[NH2+][C@H](CS)C(=O)OCCOCCOC(=O)c1ccc(-c2c3nc(c(-c4c(F)c(F)c(F)c(F)c4F)c4ccc([nH]4)c(-c4c(F)c(F)c(F)c(F)c4F)c4nc(c(-c5c(F)c(F)c(F)c(F)c5F)c5ccc2[nH]5)C=C4)C=C3)cc1
REMARK SMILES IDX 13 1 12 2 11 3 9 4 10 5 6 6 5 7 3 10 4 11 2 12 1 13 7 14
REMARK SMILES IDX 8 15 14 17 15 18 16 19 17 20 18 21 19 22 20 23 21 24 82 25
REMARK SMILES IDX 22 26 81 27 23 28 24 29 25 30 75 31 26 32 80 33 74 34 76 35
REMARK SMILES IDX 27 36 79 37 73 38 72 39 28 41 60 42 40 43 59 44 41 45 44 46
REMARK SMILES IDX 58 47 77 48 42 49 43 50 57 52 78 53 45 54 29 55 30 56 38 57
REMARK SMILES IDX 31 58 32 59 36 60 39 61 33 62 34 63 37 64 35 65 61 66 62 67
REMARK SMILES IDX 70 68 63 69 64 70 68 71 71 72 65 73 66 74 69 75 67 76 46 77
REMARK SMILES IDX 47 78 55 79 48 80 49 81 53 82 56 83 50 84 51 85 54 86 52 87
REMARK H PARENT 5 8 5 9 8 16 76 40 44 51
REMARK Flexibility Score: inf
ROOT
ATOM      1  C   UNL     1      -0.740   7.036  -4.218  1.00  0.00     0.202 C 
ENDROOT
BRANCH   1   2
ATOM      2  C   UNL     1      -0.614   5.772  -5.078  1.00  0.00     0.261 C 
BRANCH   2   3
ATOM      3  O   UNL     1      -0.290   4.597  -4.304  1.00  0.00    -0.459 OA
BRANCH   3   4
ATOM      4  C   UNL     1       0.897   3.994  -4.612  1.00  0.00     0.365 C 
ATOM      5  O   UNL     1       1.665   4.385  -5.485  1.00  0.00    -0.245 OA
BRANCH   4   6
ATOM      6  C   UNL     1       1.190   2.749  -3.748  1.00  0.00     0.303 C 
BRANCH   6   7
ATOM      7  N   UNL     1       0.517   1.577  -4.351  1.00  0.00    -0.332 N 
ATOM      8  H   UNL     1       0.380   1.792  -5.339  1.00  0.00     0.347 HD
ATOM      9  H   UNL     1       1.141   0.803  -4.125  1.00  0.00     0.347 HD
BRANCH   7  10
ATOM     10  C   UNL     1      -0.778   1.135  -3.829  1.00  0.00     0.179 C 
ATOM     11  C   UNL     1      -1.497   0.486  -5.017  1.00  0.00     0.075 C 
BRANCH  10  12
ATOM     12  C   UNL     1      -0.602   0.186  -2.615  1.00  0.00     0.061 C 
ATOM     13  C   UNL     1      -1.423  -1.094  -2.596  1.00  0.00     0.010 C 
ENDBRANCH  10  12
ENDBRANCH   7  10
ENDBRANCH   6   7
BRANCH   6  14
ATOM     14  C   UNL     1       1.015   3.015  -2.240  1.00  0.00     0.143 C 
BRANCH  14  15
ATOM     15  S   UNL     1       2.557   3.568  -1.412  1.00  0.00    -0.172 SA
ATOM     16  H   UNL     1       3.499   2.592  -1.511  1.00  0.00     0.102 HD
ENDBRANCH  14  15
ENDBRANCH   6  14
ENDBRANCH   4   6
ENDBRANCH   3   4
ENDBRANCH   2   3
ENDBRANCH   1   2
BRANCH   1  17
ATOM     17  O   UNL     1       0.455   7.543  -3.622  1.00  0.00    -0.374 OA
BRANCH  17  18
ATOM     18  C   UNL     1       1.007   6.802  -2.539  1.00  0.00     0.202 C 
BRANCH  18  19
ATOM     19  C   UNL     1       0.342   6.970  -1.168  1.00  0.00     0.261 C 
BRANCH  19  20
ATOM     20  O   UNL     1      -1.051   6.614  -1.184  1.00  0.00    -0.460 OA
BRANCH  20  21
ATOM     21  C   UNL     1      -1.892   7.661  -1.024  1.00  0.00     0.338 C 
ATOM     22  O   UNL     1      -1.594   8.823  -0.772  1.00  0.00    -0.246 OA
BRANCH  21  23
ATOM     23  C   UNL     1      -3.273   7.273  -1.352  1.00  0.00     0.060 A 
ATOM     24  C   UNL     1      -3.953   8.064  -2.286  1.00  0.00     0.016 A 
ATOM     25  C   UNL     1      -3.927   6.227  -0.696  1.00  0.00     0.016 A 
ATOM     26  C   UNL     1      -5.309   7.855  -2.522  1.00  0.00     0.010 A 
ATOM     27  C   UNL     1      -5.292   6.022  -0.930  1.00  0.00     0.010 A 
ATOM     28  C   UNL     1      -5.996   6.862  -1.811  1.00  0.00    -0.014 A 
BRANCH  28  29
ATOM     29  C   UNL     1      -7.477   6.821  -1.883  1.00  0.00     0.031 A 
ATOM     30  C   UNL     1      -8.278   7.466  -0.785  1.00  0.00     0.074 A 
ATOM     31  C   UNL     1      -8.098   6.267  -2.938  1.00  0.00     0.049 A 
ATOM     32  N   UNL     1      -9.576   7.561  -0.648  1.00  0.00    -0.248 NA
ATOM     33  C   UNL     1      -7.511   8.090   0.305  1.00  0.00     0.031 C 
ATOM     34  C   UNL     1      -7.429   5.650  -4.081  1.00  0.00     0.029 A 
ATOM     35  N   UNL     1      -9.435   6.137  -3.218  1.00  0.00    -0.354 N 
ATOM     36  C   UNL     1      -9.781   8.248   0.541  1.00  0.00     0.074 A 
ATOM     37  C   UNL     1      -8.476   8.521   1.104  1.00  0.00     0.031 C 
ATOM     38  C   UNL     1      -8.360   5.205  -4.941  1.00  0.00     0.029 A 
ATOM     39  C   UNL     1      -9.688   5.480  -4.396  1.00  0.00     0.049 A 
ATOM     40  H   UNL     1     -10.145   6.483  -2.630  1.00  0.00     0.167 HD
ATOM     41  C   UNL     1     -10.952   8.627   1.107  1.00  0.00     0.037 A 
ATOM     42  C   UNL     1     -10.861   5.130  -4.960  1.00  0.00     0.037 A 
ATOM     43  C   UNL     1     -12.248   8.362   0.541  1.00  0.00     0.049 A 
ATOM     44  C   UNL     1     -12.150   5.506  -4.276  1.00  0.00     0.074 A 
ATOM     45  C   UNL     1     -13.493   8.728   1.023  1.00  0.00     0.029 A 
ATOM     46  N   UNL     1     -12.466   7.656  -0.633  1.00  0.00    -0.354 N 
ATOM     47  N   UNL     1     -12.334   6.182  -3.168  1.00  0.00    -0.248 NA
ATOM     48  C   UNL     1     -13.395   5.070  -4.925  1.00  0.00     0.031 C 
ATOM     49  C   UNL     1     -14.466   8.200   0.168  1.00  0.00     0.029 A 
ATOM     50  C   UNL     1     -13.826   7.550  -0.875  1.00  0.00     0.049 A 
ATOM     51  H   UNL     1     -11.759   7.285  -1.209  1.00  0.00     0.167 HD
ATOM     52  C   UNL     1     -13.710   6.279  -3.003  1.00  0.00     0.074 A 
ATOM     53  C   UNL     1     -14.314   5.600  -4.131  1.00  0.00     0.031 C 
ATOM     54  C   UNL     1     -14.410   6.877  -2.007  1.00  0.00     0.037 A 
BRANCH  41  55
ATOM     55  C   UNL     1     -10.886   9.346   2.422  1.00  0.00     0.064 A 
ATOM     56  C   UNL     1     -10.432  10.670   2.518  1.00  0.00     0.173 A 
ATOM     57  C   UNL     1     -11.315   8.713   3.598  1.00  0.00     0.173 A 
ATOM     58  F   UNL     1      -9.998  11.316   1.425  1.00  0.00    -0.203 F 
ATOM     59  C   UNL     1     -10.388  11.325   3.747  1.00  0.00     0.198 A 
ATOM     60  C   UNL     1     -11.295   9.379   4.820  1.00  0.00     0.198 A 
ATOM     61  F   UNL     1     -11.761   7.448   3.561  1.00  0.00    -0.203 F 
ATOM     62  F   UNL     1      -9.910  12.574   3.822  1.00  0.00    -0.200 F 
ATOM     63  C   UNL     1     -10.825  10.681   4.895  1.00  0.00     0.200 A 
ATOM     64  F   UNL     1     -11.728   8.759   5.927  1.00  0.00    -0.200 F 
ATOM     65  F   UNL     1     -10.788  11.314   6.076  1.00  0.00    -0.200 F 
ENDBRANCH  41  55
BRANCH  42  66
ATOM     66  C   UNL     1     -10.872   4.379  -6.241  1.00  0.00     0.064 A 
ATOM     67  C   UNL     1     -11.339   4.970  -7.423  1.00  0.00     0.173 A 
ATOM     68  C   UNL     1     -10.430   3.049  -6.307  1.00  0.00     0.173 A 
ATOM     69  F   UNL     1     -11.796   6.230  -7.406  1.00  0.00    -0.203 F 
ATOM     70  C   UNL     1     -11.378   4.254  -8.619  1.00  0.00     0.198 A 
ATOM     71  C   UNL     1     -10.444   2.344  -7.508  1.00  0.00     0.198 A 
ATOM     72  F   UNL     1      -9.977   2.437  -5.203  1.00  0.00    -0.203 F 
ATOM     73  F   UNL     1     -11.870   4.829  -9.725  1.00  0.00    -0.200 F 
ATOM     74  C   UNL     1     -10.925   2.944  -8.661  1.00  0.00     0.200 A 
ATOM     75  F   UNL     1      -9.996   1.082  -7.547  1.00  0.00    -0.200 F 
ATOM     76  F   UNL     1     -10.960   2.258  -9.812  1.00  0.00    -0.200 F 
ENDBRANCH  42  66
BRANCH  54  77
ATOM     77  C   UNL     1     -15.908   6.855  -2.109  1.00  0.00     0.064 A 
ATOM     78  C   UNL     1     -16.644   5.682  -1.891  1.00  0.00     0.173 A 
ATOM     79  C   UNL     1     -16.617   8.034  -2.385  1.00  0.00     0.173 A 
ATOM     80  F   UNL     1     -16.012   4.526  -1.637  1.00  0.00    -0.203 F 
ATOM     81  C   UNL     1     -18.034   5.684  -1.970  1.00  0.00     0.198 A 
ATOM     82  C   UNL     1     -18.008   8.040  -2.434  1.00  0.00     0.198 A 
ATOM     83  F   UNL     1     -15.960   9.185  -2.594  1.00  0.00    -0.203 F 
ATOM     84  F   UNL     1     -18.715   4.542  -1.803  1.00  0.00    -0.200 F 
ATOM     85  C   UNL     1     -18.715   6.864  -2.234  1.00  0.00     0.200 A 
ATOM     86  F   UNL     1     -18.665   9.183  -2.676  1.00  0.00    -0.200 F 
ATOM     87  F   UNL     1     -20.053   6.866  -2.302  1.00  0.00    -0.200 F 
ENDBRANCH  54  77
ENDBRANCH  28  29
ENDBRANCH  21  23
ENDBRANCH  20  21
ENDBRANCH  19  20
ENDBRANCH  18  19
ENDBRANCH  17  18
ENDBRANCH   1  17
TORSDOF 19
