REMARK SMILES CS(=O)(=O)c1ccc(/C=C(/C(=O)OCCOCCOC(=O)c2ccc(-c3c4nc(c(-c5c(F)c(F)c(F)c(F)c5F)c5ccc([nH]5)c(-c5c(F)c(F)c(F)c(F)c5F)c5nc(c(-c6c(F)c(F)c(F)c(F)c6F)c6ccc3[nH]6)C=C5)C=C4)cc2)c2cccc(Br)c2)cc1
REMARK SMILES IDX 16 1 15 2 14 3 13 4 11 5 12 6 10 7 9 8 8 9 5 10 6 11 93 12
REMARK SMILES IDX 7 13 92 14 2 15 1 16 3 17 4 18 85 19 86 20 91 21 87 22 89 23
REMARK SMILES IDX 88 24 90 25 17 26 18 27 19 28 20 29 21 30 22 31 23 32 84 33
REMARK SMILES IDX 24 34 83 35 25 36 26 37 27 38 77 39 28 40 82 41 76 42 78 43
REMARK SMILES IDX 29 44 81 45 75 46 74 47 30 49 62 50 42 51 61 52 43 53 46 54
REMARK SMILES IDX 60 55 79 56 44 57 45 58 59 60 80 61 47 62 31 63 32 64 40 65
REMARK SMILES IDX 33 66 34 67 38 68 41 69 35 70 36 71 39 72 37 73 63 74 64 75
REMARK SMILES IDX 72 76 65 77 66 78 70 79 73 80 67 81 68 82 71 83 69 84 48 85
REMARK SMILES IDX 49 86 57 87 50 88 51 89 55 90 58 91 52 92 53 93 56 94 54 95
REMARK H PARENT 78 48 46 59
REMARK Flexibility Score: inf
ROOT
ATOM      1  O   UNL     1       1.968   4.656  10.416  1.00  0.00    -0.374 OA
ENDROOT
BRANCH   1   2
ATOM      2  C   UNL     1       2.538   5.877   9.947  1.00  0.00     0.202 C 
BRANCH   2   3
ATOM      3  C   UNL     1       3.571   5.786   8.820  1.00  0.00     0.261 C 
BRANCH   3   4
ATOM      4  O   UNL     1       2.996   5.252   7.613  1.00  0.00    -0.460 OA
BRANCH   4   5
ATOM      5  C   UNL     1       3.573   4.104   7.172  1.00  0.00     0.338 C 
ATOM      6  O   UNL     1       4.601   3.611   7.614  1.00  0.00    -0.246 OA
BRANCH   5   7
ATOM      7  C   UNL     1       2.738   3.412   6.137  1.00  0.00     0.067 C 
ATOM      8  C   UNL     1       2.068   4.127   5.203  1.00  0.00     0.024 C 
BRANCH   8   9
ATOM      9  C   UNL     1       1.405   3.624   3.972  1.00  0.00    -0.025 A 
ATOM     10  C   UNL     1       0.580   2.628   1.474  1.00  0.00     0.067 A 
ATOM     11  C   UNL     1       0.393   1.860   2.620  1.00  0.00     0.021 A 
ATOM     12  C   UNL     1       1.068   3.930   1.574  1.00  0.00     0.021 A 
ATOM     13  C   UNL     1       0.777   2.375   3.862  1.00  0.00     0.009 A 
ATOM     14  C   UNL     1       1.475   4.423   2.819  1.00  0.00     0.009 A 
BRANCH  10  15
ATOM     15  S   UNL     1       0.244   1.931  -0.126  1.00  0.00     0.175 S 
ATOM     16  C   UNL     1       1.050   0.348  -0.122  1.00  0.00     0.163 C 
ATOM     17  O   UNL     1       0.931   2.752  -1.106  1.00  0.00    -0.224 OA
ATOM     18  O   UNL     1      -1.188   1.717  -0.196  1.00  0.00    -0.224 OA
ENDBRANCH  10  15
ENDBRANCH   8   9
BRANCH   7  19
ATOM     19  C   UNL     1       2.777   1.936   6.161  1.00  0.00    -0.010 A 
ATOM     20  C   UNL     1       1.968   1.238   7.075  1.00  0.00     0.009 A 
ATOM     21  C   UNL     1       3.564   1.219   5.255  1.00  0.00     0.024 A 
ATOM     22  C   UNL     1       1.929  -0.155   7.070  1.00  0.00     0.002 A 
ATOM     23  C   UNL     1       3.508  -0.174   5.247  1.00  0.00     0.018 A 
ATOM     24  C   UNL     1       2.696  -0.863   6.148  1.00  0.00     0.016 A 
ATOM     25  Br  UNL     1       4.512  -1.137   3.969  1.00  0.00    -0.051 Br
ENDBRANCH   7  19
ENDBRANCH   5   7
ENDBRANCH   4   5
ENDBRANCH   3   4
ENDBRANCH   2   3
ENDBRANCH   1   2
BRANCH   1  26
ATOM     26  C   UNL     1       1.031   3.997   9.569  1.00  0.00     0.202 C 
BRANCH  26  27
ATOM     27  C   UNL     1      -0.399   4.546   9.514  1.00  0.00     0.261 C 
BRANCH  27  28
ATOM     28  O   UNL     1      -0.453   5.930   9.140  1.00  0.00    -0.460 OA
BRANCH  28  29
ATOM     29  C   UNL     1      -0.711   6.772  10.166  1.00  0.00     0.338 C 
ATOM     30  O   UNL     1      -0.977   6.477  11.325  1.00  0.00    -0.246 OA
BRANCH  29  31
ATOM     31  C   UNL     1      -0.455   8.159   9.747  1.00  0.00     0.060 A 
ATOM     32  C   UNL     1       0.430   8.917  10.524  1.00  0.00     0.016 A 
ATOM     33  C   UNL     1      -1.105   8.725   8.649  1.00  0.00     0.016 A 
ATOM     34  C   UNL     1       0.636  10.262  10.233  1.00  0.00     0.010 A 
ATOM     35  C   UNL     1      -0.906  10.078   8.364  1.00  0.00     0.010 A 
ATOM     36  C   UNL     1      -0.061  10.858   9.174  1.00  0.00    -0.014 A 
BRANCH  36  37
ATOM     37  C   UNL     1      -0.012  12.329   9.003  1.00  0.00     0.031 A 
ATOM     38  C   UNL     1      -1.153  13.158   9.520  1.00  0.00     0.074 A 
ATOM     39  C   UNL     1       1.044  12.914   8.414  1.00  0.00     0.049 A 
ATOM     40  N   UNL     1      -1.347  14.449   9.437  1.00  0.00    -0.248 NA
ATOM     41  C   UNL     1      -2.221  12.432  10.226  1.00  0.00     0.031 C 
ATOM     42  C   UNL     1       2.225  12.215   7.912  1.00  0.00     0.029 A 
ATOM     43  N   UNL     1       1.286  14.235   8.131  1.00  0.00    -0.354 N 
ATOM     44  C   UNL     1      -2.559  14.689  10.070  1.00  0.00     0.074 A 
ATOM     45  C   UNL     1      -3.071  13.409  10.507  1.00  0.00     0.031 C 
ATOM     46  C   UNL     1       3.064  13.113   7.369  1.00  0.00     0.029 A 
ATOM     47  C   UNL     1       2.462  14.443   7.454  1.00  0.00     0.049 A 
ATOM     48  H   UNL     1       0.676  14.963   8.388  1.00  0.00     0.167 HD
ATOM     49  C   UNL     1      -3.182  15.874  10.275  1.00  0.00     0.037 A 
ATOM     50  C   UNL     1       2.978  15.576   6.941  1.00  0.00     0.037 A 
ATOM     51  C   UNL     1      -2.666  17.144   9.837  1.00  0.00     0.049 A 
ATOM     52  C   UNL     1       2.227  16.872   7.117  1.00  0.00     0.074 A 
ATOM     53  C   UNL     1      -3.211  18.404  10.013  1.00  0.00     0.029 A 
ATOM     54  N   UNL     1      -1.487  17.314   9.127  1.00  0.00    -0.354 N 
ATOM     55  N   UNL     1       1.095  17.096   7.739  1.00  0.00    -0.248 NA
ATOM     56  C   UNL     1       2.830  18.072   6.521  1.00  0.00     0.031 C 
ATOM     57  C   UNL     1      -2.389  19.330   9.361  1.00  0.00     0.029 A 
ATOM     58  C   UNL     1      -1.301  18.655   8.831  1.00  0.00     0.049 A 
ATOM     59  H   UNL     1      -0.872  16.588   8.871  1.00  0.00     0.167 HD
ATOM     60  C   UNL     1       0.865  18.462   7.635  1.00  0.00     0.074 A 
ATOM     61  C   UNL     1       1.983  19.018   6.902  1.00  0.00     0.031 C 
ATOM     62  C   UNL     1      -0.178  19.191   8.105  1.00  0.00     0.037 A 
BRANCH  49  63
ATOM     63  C   UNL     1      -4.508  15.848  10.979  1.00  0.00     0.064 A 
ATOM     64  C   UNL     1      -4.613  15.552  12.347  1.00  0.00     0.173 A 
ATOM     65  C   UNL     1      -5.686  16.156  10.283  1.00  0.00     0.173 A 
ATOM     66  F   UNL     1      -3.518  15.236  13.056  1.00  0.00    -0.203 F 
ATOM     67  C   UNL     1      -5.851  15.541  12.985  1.00  0.00     0.198 A 
ATOM     68  C   UNL     1      -6.919  16.174  10.930  1.00  0.00     0.198 A 
ATOM     69  F   UNL     1      -5.642  16.449   8.975  1.00  0.00    -0.203 F 
ATOM     70  F   UNL     1      -5.933  15.210  14.281  1.00  0.00    -0.200 F 
ATOM     71  C   UNL     1      -7.001  15.860  12.278  1.00  0.00     0.200 A 
ATOM     72  F   UNL     1      -8.027  16.494  10.248  1.00  0.00    -0.200 F 
ATOM     73  F   UNL     1      -8.191  15.857  12.895  1.00  0.00    -0.200 F 
ENDBRANCH  49  63
BRANCH  50  74
ATOM     74  C   UNL     1       4.264  15.537   6.198  1.00  0.00     0.064 A 
ATOM     75  C   UNL     1       5.415  16.153   6.710  1.00  0.00     0.173 A 
ATOM     76  C   UNL     1       4.365  14.898   4.953  1.00  0.00     0.173 A 
ATOM     77  F   UNL     1       5.362  16.798   7.884  1.00  0.00    -0.203 F 
ATOM     78  C   UNL     1       6.612  16.146   5.996  1.00  0.00     0.198 A 
ATOM     79  C   UNL     1       5.571  14.866   4.255  1.00  0.00     0.198 A 
ATOM     80  F   UNL     1       3.294  14.294   4.419  1.00  0.00    -0.203 F 
ATOM     81  F   UNL     1       7.684  16.784   6.486  1.00  0.00    -0.200 F 
ATOM     82  C   UNL     1       6.691  15.498   4.773  1.00  0.00     0.200 A 
ATOM     83  F   UNL     1       5.645  14.226   3.080  1.00  0.00    -0.200 F 
ATOM     84  F   UNL     1       7.843  15.489   4.090  1.00  0.00    -0.200 F 
ENDBRANCH  50  74
BRANCH  62  85
ATOM     85  C   UNL     1      -0.141  20.675   7.875  1.00  0.00     0.064 A 
ATOM     86  C   UNL     1      -0.332  21.231   6.602  1.00  0.00     0.173 A 
ATOM     87  C   UNL     1       0.049  21.555   8.953  1.00  0.00     0.173 A 
ATOM     88  F   UNL     1      -0.502  20.433   5.536  1.00  0.00    -0.203 F 
ATOM     89  C   UNL     1      -0.307  22.610   6.411  1.00  0.00     0.198 A 
ATOM     90  C   UNL     1       0.040  22.934   8.764  1.00  0.00     0.198 A 
ATOM     91  F   UNL     1       0.228  21.076  10.194  1.00  0.00    -0.203 F 
ATOM     92  F   UNL     1      -0.441  23.116   5.178  1.00  0.00    -0.200 F 
ATOM     93  C   UNL     1      -0.129  23.460   7.493  1.00  0.00     0.200 A 
ATOM     94  F   UNL     1       0.197  23.753   9.813  1.00  0.00    -0.200 F 
ATOM     95  F   UNL     1      -0.114  24.787   7.309  1.00  0.00    -0.200 F 
ENDBRANCH  62  85
ENDBRANCH  36  37
ENDBRANCH  29  31
ENDBRANCH  28  29
ENDBRANCH  27  28
ENDBRANCH  26  27
ENDBRANCH   1  26
TORSDOF 17
