REMARK SMILES Cn1ccnc1SCC[C@@H]1CCC[C@]1([NH3+])C(=O)OCCOCCOC(=O)c1ccc(-c2c3nc(c(-c4c(F)c(F)c(F)c(F)c4F)c4ccc([nH]4)c(-c4c(F)c(F)c(F)c(F)c4F)c4nc(c(-c5c(F)c(F)c(F)c(F)c5F)c5ccc2[nH]5)C=C4)C=C3)cc1
REMARK SMILES IDX 20 1 19 2 18 3 16 4 17 5 14 6 10 7 11 8 12 9 13 10 9 11 8 12
REMARK SMILES IDX 7 13 6 14 1 15 2 16 3 17 4 18 5 19 15 20 21 24 22 25 23 26
REMARK SMILES IDX 24 27 25 28 26 29 27 30 28 31 89 32 29 33 88 34 30 35 31 36
REMARK SMILES IDX 32 37 82 38 33 39 87 40 81 41 83 42 34 43 86 44 80 45 79 46
REMARK SMILES IDX 35 48 67 49 47 50 66 51 48 52 51 53 65 54 84 55 49 56 50 57
REMARK SMILES IDX 64 59 85 60 52 61 36 62 37 63 45 64 38 65 39 66 43 67 46 68
REMARK SMILES IDX 40 69 41 70 44 71 42 72 68 73 69 74 77 75 70 76 71 77 75 78
REMARK SMILES IDX 78 79 72 80 73 81 76 82 74 83 53 84 54 85 62 86 55 87 56 88
REMARK SMILES IDX 60 89 63 90 57 91 58 92 61 93 59 94
REMARK H PARENT 15 21 15 22 15 23 83 47 51 58
REMARK Flexibility Score: inf
ROOT
ATOM      1  C   UNL     1       7.158   0.135   2.931  1.00  0.00     0.202 C 
ENDROOT
BRANCH   1   2
ATOM      2  C   UNL     1       6.859  -0.340   1.506  1.00  0.00     0.261 C 
BRANCH   2   3
ATOM      3  O   UNL     1       5.486  -0.157   1.127  1.00  0.00    -0.459 OA
BRANCH   3   4
ATOM      4  C   UNL     1       4.707  -1.266   1.271  1.00  0.00     0.368 C 
ATOM      5  O   UNL     1       5.134  -2.352   1.645  1.00  0.00    -0.245 OA
BRANCH   4   6
ATOM      6  C   UNL     1       3.260  -1.043   0.746  1.00  0.00     0.195 C 
ATOM      7  C   UNL     1       2.414   0.172   1.214  1.00  0.00     0.063 C 
ATOM      8  C   UNL     1       1.839  -0.196   2.590  1.00  0.00     0.011 C 
ATOM      9  C   UNL     1       1.969  -1.708   2.701  1.00  0.00     0.008 C 
ATOM     10  C   UNL     1       2.377  -2.188   1.310  1.00  0.00     0.081 C 
BRANCH   7  11
ATOM     11  C   UNL     1       2.899   1.624   1.140  1.00  0.00     0.022 C 
BRANCH  11  12
ATOM     12  C   UNL     1       2.271   2.505   0.043  1.00  0.00     0.079 C 
BRANCH  12  13
ATOM     13  S   UNL     1       0.482   2.841   0.004  1.00  0.00    -0.088 SA
BRANCH  13  14
ATOM     14  C   UNL     1      -0.383   1.350  -0.165  1.00  0.00     0.167 A 
ATOM     15  C   UNL     1       0.741   0.301  -2.204  1.00  0.00     0.152 C 
ATOM     16  N   UNL     1      -0.193   0.372  -1.111  1.00  0.00    -0.329 N 
ATOM     17  C   UNL     1      -1.070  -0.649  -0.823  1.00  0.00     0.108 A 
ATOM     18  C   UNL     1      -1.828  -0.190   0.224  1.00  0.00     0.132 A 
ATOM     19  N   UNL     1      -1.391   1.043   0.626  1.00  0.00    -0.231 NA
ENDBRANCH  13  14
ENDBRANCH  12  13
ENDBRANCH  11  12
ENDBRANCH   7  11
BRANCH   6  20
ATOM     20  N   UNL     1       3.304  -1.113  -0.740  1.00  0.00    -0.343 N 
ATOM     21  H   UNL     1       2.366  -0.970  -1.115  1.00  0.00     0.345 HD
ATOM     22  H   UNL     1       3.648  -2.029  -1.027  1.00  0.00     0.345 HD
ATOM     23  H   UNL     1       3.926  -0.388  -1.096  1.00  0.00     0.345 HD
ENDBRANCH   6  20
ENDBRANCH   4   6
ENDBRANCH   3   4
ENDBRANCH   2   3
ENDBRANCH   1   2
BRANCH   1  24
ATOM     24  O   UNL     1       6.433  -0.464   3.999  1.00  0.00    -0.374 OA
BRANCH  24  25
ATOM     25  C   UNL     1       5.091  -0.030   4.218  1.00  0.00     0.202 C 
BRANCH  25  26
ATOM     26  C   UNL     1       4.888   1.323   4.904  1.00  0.00     0.261 C 
BRANCH  26  27
ATOM     27  O   UNL     1       5.268   2.408   4.039  1.00  0.00    -0.460 OA
BRANCH  27  28
ATOM     28  C   UNL     1       6.412   3.033   4.402  1.00  0.00     0.338 C 
ATOM     29  O   UNL     1       7.079   2.838   5.401  1.00  0.00    -0.246 OA
BRANCH  28  30
ATOM     30  C   UNL     1       6.886   3.880   3.292  1.00  0.00     0.060 A 
ATOM     31  C   UNL     1       8.232   3.751   2.920  1.00  0.00     0.016 A 
ATOM     32  C   UNL     1       6.067   4.839   2.695  1.00  0.00     0.016 A 
ATOM     33  C   UNL     1       8.793   4.643   2.015  1.00  0.00     0.010 A 
ATOM     34  C   UNL     1       6.633   5.742   1.794  1.00  0.00     0.010 A 
ATOM     35  C   UNL     1       8.008   5.681   1.502  1.00  0.00    -0.014 A 
BRANCH  35  36
ATOM     36  C   UNL     1       8.674   6.842   0.870  1.00  0.00     0.031 A 
ATOM     37  C   UNL     1       8.905   8.066   1.713  1.00  0.00     0.074 A 
ATOM     38  C   UNL     1       9.085   6.798  -0.407  1.00  0.00     0.049 A 
ATOM     39  N   UNL     1       9.384   9.234   1.373  1.00  0.00    -0.248 NA
ATOM     40  C   UNL     1       8.537   7.957   3.135  1.00  0.00     0.031 C 
ATOM     41  C   UNL     1       8.976   5.640  -1.289  1.00  0.00     0.029 A 
ATOM     42  N   UNL     1       9.672   7.764  -1.183  1.00  0.00    -0.354 N 
ATOM     43  C   UNL     1       9.348  10.004   2.530  1.00  0.00     0.074 A 
ATOM     44  C   UNL     1       8.782   9.181   3.574  1.00  0.00     0.031 C 
ATOM     45  C   UNL     1       9.469   5.966  -2.496  1.00  0.00     0.029 A 
ATOM     46  C   UNL     1       9.888   7.367  -2.478  1.00  0.00     0.049 A 
ATOM     47  H   UNL     1       9.914   8.656  -0.843  1.00  0.00     0.167 HD
ATOM     48  C   UNL     1       9.754  11.284   2.700  1.00  0.00     0.037 A 
ATOM     49  C   UNL     1      10.346   8.071  -3.530  1.00  0.00     0.037 A 
ATOM     50  C   UNL     1      10.328  12.085   1.653  1.00  0.00     0.049 A 
ATOM     51  C   UNL     1      10.722   9.518  -3.335  1.00  0.00     0.074 A 
ATOM     52  C   UNL     1      10.796  13.384   1.718  1.00  0.00     0.029 A 
ATOM     53  N   UNL     1      10.502  11.659   0.343  1.00  0.00    -0.354 N 
ATOM     54  N   UNL     1      10.696  10.241  -2.240  1.00  0.00    -0.248 NA
ATOM     55  C   UNL     1      11.189  10.248  -4.522  1.00  0.00     0.031 C 
ATOM     56  C   UNL     1      11.196  13.766   0.433  1.00  0.00     0.029 A 
ATOM     57  C   UNL     1      11.044  12.681  -0.417  1.00  0.00     0.049 A 
ATOM     58  H   UNL     1      10.274  10.763   0.005  1.00  0.00     0.167 HD
ATOM     59  C   UNL     1      11.185  11.492  -2.594  1.00  0.00     0.074 A 
ATOM     60  C   UNL     1      11.494  11.432  -4.008  1.00  0.00     0.031 C 
ATOM     61  C   UNL     1      11.369  12.588  -1.818  1.00  0.00     0.037 A 
BRANCH  48  62
ATOM     62  C   UNL     1       9.548  11.905   4.051  1.00  0.00     0.064 A 
ATOM     63  C   UNL     1      10.278  11.500   5.179  1.00  0.00     0.173 A 
ATOM     64  C   UNL     1       8.609  12.935   4.216  1.00  0.00     0.173 A 
ATOM     65  F   UNL     1      11.177  10.508   5.082  1.00  0.00    -0.203 F 
ATOM     66  C   UNL     1      10.052  12.079   6.426  1.00  0.00     0.198 A 
ATOM     67  C   UNL     1       8.410  13.536   5.456  1.00  0.00     0.198 A 
ATOM     68  F   UNL     1       7.884  13.364   3.171  1.00  0.00    -0.203 F 
ATOM     69  F   UNL     1      10.720  11.636   7.500  1.00  0.00    -0.200 F 
ATOM     70  C   UNL     1       9.124  13.101   6.562  1.00  0.00     0.200 A 
ATOM     71  F   UNL     1       7.522  14.532   5.582  1.00  0.00    -0.200 F 
ATOM     72  F   UNL     1       8.911  13.660   7.761  1.00  0.00    -0.200 F 
ENDBRANCH  48  62
BRANCH  49  73
ATOM     73  C   UNL     1      10.475   7.419  -4.859  1.00  0.00     0.064 A 
ATOM     74  C   UNL     1      11.735   7.182  -5.426  1.00  0.00     0.173 A 
ATOM     75  C   UNL     1       9.346   7.015  -5.588  1.00  0.00     0.173 A 
ATOM     76  F   UNL     1      12.843   7.568  -4.777  1.00  0.00    -0.203 F 
ATOM     77  C   UNL     1      11.860   6.580  -6.676  1.00  0.00     0.198 A 
ATOM     78  C   UNL     1       9.474   6.387  -6.825  1.00  0.00     0.198 A 
ATOM     79  F   UNL     1       8.117   7.217  -5.090  1.00  0.00    -0.203 F 
ATOM     80  F   UNL     1      13.075   6.401  -7.212  1.00  0.00    -0.200 F 
ATOM     81  C   UNL     1      10.730   6.176  -7.371  1.00  0.00     0.200 A 
ATOM     82  F   UNL     1       8.380   5.985  -7.486  1.00  0.00    -0.200 F 
ATOM     83  F   UNL     1      10.852   5.589  -8.569  1.00  0.00    -0.200 F 
ENDBRANCH  49  73
BRANCH  61  84
ATOM     84  C   UNL     1      11.998  13.794  -2.454  1.00  0.00     0.064 A 
ATOM     85  C   UNL     1      11.303  14.604  -3.362  1.00  0.00     0.173 A 
ATOM     86  C   UNL     1      13.295  14.185  -2.084  1.00  0.00     0.173 A 
ATOM     87  F   UNL     1      10.066  14.267  -3.758  1.00  0.00    -0.203 F 
ATOM     88  C   UNL     1      11.889  15.752  -3.889  1.00  0.00     0.198 A 
ATOM     89  C   UNL     1      13.865  15.350  -2.587  1.00  0.00     0.198 A 
ATOM     90  F   UNL     1      14.000  13.448  -1.211  1.00  0.00    -0.203 F 
ATOM     91  F   UNL     1      11.221  16.491  -4.786  1.00  0.00    -0.200 F 
ATOM     92  C   UNL     1      13.164  16.130  -3.493  1.00  0.00     0.200 A 
ATOM     93  F   UNL     1      15.090  15.721  -2.189  1.00  0.00    -0.200 F 
ATOM     94  F   UNL     1      13.718  17.245  -3.988  1.00  0.00    -0.200 F 
ENDBRANCH  61  84
ENDBRANCH  35  36
ENDBRANCH  28  30
ENDBRANCH  27  28
ENDBRANCH  26  27
ENDBRANCH  25  26
ENDBRANCH  24  25
ENDBRANCH   1  24
TORSDOF 19
