REMARK SMILES Cc1ccccc1[C@H]1[NH2+][C@@H](C(=O)OCCOCCOC(=O)c2ccc(-c3c4nc(c(-c5c(F)c(F)c(F)c(F)c5F)c5ccc([nH]5)c(-c5c(F)c(F)c(F)c(F)c5F)c5nc(c(-c6c(F)c(F)c(F)c(F)c6F)c6ccc3[nH]6)C=C5)C=C4)cc2)CC2=c3ccccc3=N[C@@H]21
REMARK SMILES IDX 17 1 16 2 15 3 14 4 13 5 11 6 12 7 10 8 8 9 9 10 94 11 86 14
REMARK SMILES IDX 93 15 85 16 87 17 92 18 88 19 91 20 89 21 90 22 7 23 1 24
REMARK SMILES IDX 2 25 3 26 4 27 6 28 5 29 18 30 19 31 20 32 21 33 22 34 23 35
REMARK SMILES IDX 84 36 24 37 83 38 25 39 26 40 27 41 77 42 28 43 82 44 76 45
REMARK SMILES IDX 78 46 29 47 81 48 75 49 74 50 30 52 62 53 42 54 61 55 43 56
REMARK SMILES IDX 46 57 60 58 79 59 44 60 45 61 59 63 80 64 47 65 31 66 32 67
REMARK SMILES IDX 40 68 33 69 34 70 38 71 41 72 35 73 36 74 39 75 37 76 63 77
REMARK SMILES IDX 64 78 72 79 65 80 66 81 70 82 73 83 67 84 68 85 71 86 69 87
REMARK SMILES IDX 48 88 49 89 57 90 50 91 51 92 55 93 58 94 52 95 53 96 56 97
REMARK SMILES IDX 54 98
REMARK H PARENT 9 12 9 13 78 51 46 62
REMARK Flexibility Score: inf
ROOT
ATOM      1  C   UNL     1      -1.731   2.503   2.116  1.00  0.00     0.202 C 
ENDROOT
BRANCH   1   2
ATOM      2  O   UNL     1      -2.092   3.820   1.588  1.00  0.00    -0.374 OA
BRANCH   2   3
ATOM      3  C   UNL     1      -1.111   4.309   0.740  1.00  0.00     0.202 C 
BRANCH   3   4
ATOM      4  C   UNL     1      -0.740   5.731   0.410  1.00  0.00     0.261 C 
BRANCH   4   5
ATOM      5  O   UNL     1      -0.033   6.480   1.371  1.00  0.00    -0.459 OA
BRANCH   5   6
ATOM      6  C   UNL     1       0.600   5.770   2.311  1.00  0.00     0.365 C 
ATOM      7  O   UNL     1       0.353   5.986   3.494  1.00  0.00    -0.245 OA
BRANCH   6   8
ATOM      8  C   UNL     1       1.732   4.830   1.871  1.00  0.00     0.298 C 
ATOM      9  C   UNL     1       1.507   2.760   0.270  1.00  0.00     0.243 C 
ATOM     10  N   UNL     1       1.766   4.285   0.419  1.00  0.00    -0.326 N 
ATOM     11  C   UNL     1       2.475   1.885   1.358  1.00  0.00     0.196 C 
ATOM     12  H   UNL     1       1.053   4.779  -0.118  1.00  0.00     0.347 HD
ATOM     13  H   UNL     1       2.716   4.442   0.084  1.00  0.00     0.347 HD
ATOM     14  C   UNL     1       2.895   2.832   2.477  1.00  0.00    -0.024 C 
ATOM     15  N   UNL     1       3.808   1.533   0.744  1.00  0.00    -0.270 NA
ATOM     16  C   UNL     1       1.879   3.774   2.980  1.00  0.00     0.111 C 
ATOM     17  C   UNL     1       4.196   3.134   2.446  1.00  0.00     0.002 A 
ATOM     18  C   UNL     1       4.678   2.276   1.366  1.00  0.00     0.066 A 
ATOM     19  C   UNL     1       4.894   4.336   2.827  1.00  0.00     0.010 A 
ATOM     20  C   UNL     1       6.097   2.493   0.981  1.00  0.00     0.028 A 
ATOM     21  C   UNL     1       6.045   4.628   2.200  1.00  0.00     0.001 A 
ATOM     22  C   UNL     1       6.671   3.666   1.311  1.00  0.00     0.002 A 
BRANCH   9  23
ATOM     23  C   UNL     1       0.197   2.301  -0.820  1.00  0.00     0.015 A 
ATOM     24  C   UNL     1      -2.932   1.569  -0.003  1.00  0.00     0.045 C 
ATOM     25  C   UNL     1      -1.702   1.980  -0.906  1.00  0.00    -0.042 A 
ATOM     26  C   UNL     1      -2.396   1.218  -2.445  1.00  0.00     0.004 A 
ATOM     27  C   UNL     1      -1.368   0.781  -3.787  1.00  0.00     0.000 A 
ATOM     28  C   UNL     1       1.169   1.660  -2.233  1.00  0.00     0.010 A 
ATOM     29  C   UNL     1       0.381   0.931  -3.670  1.00  0.00     0.001 A 
ENDBRANCH   9  23
ENDBRANCH   6   8
ENDBRANCH   5   6
ENDBRANCH   4   5
ENDBRANCH   3   4
ENDBRANCH   2   3
ENDBRANCH   1   2
BRANCH   1  30
ATOM     30  C   UNL     1      -0.740   1.259   1.451  1.00  0.00     0.261 C 
BRANCH  30  31
ATOM     31  O   UNL     1      -0.588   0.438  -0.037  1.00  0.00    -0.460 OA
BRANCH  31  32
ATOM     32  C   UNL     1      -0.545   0.686  -1.731  1.00  0.00     0.338 C 
ATOM     33  O   UNL     1      -0.390  -0.500  -2.104  1.00  0.00    -0.246 OA
BRANCH  32  34
ATOM     34  C   UNL     1      -0.754   2.612  -2.679  1.00  0.00     0.060 A 
ATOM     35  C   UNL     1       0.110   3.402  -3.640  1.00  0.00     0.016 A 
ATOM     36  C   UNL     1      -1.847   3.633  -2.498  1.00  0.00     0.016 A 
ATOM     37  C   UNL     1       0.182   4.825  -3.817  1.00  0.00     0.010 A 
ATOM     38  C   UNL     1      -1.726   5.024  -2.540  1.00  0.00     0.010 A 
ATOM     39  C   UNL     1      -0.617   5.635  -3.063  1.00  0.00    -0.014 A 
BRANCH  39  40
ATOM     40  C   UNL     1      -0.324   7.011  -2.643  1.00  0.00     0.031 A 
ATOM     41  C   UNL     1      -1.373   8.054  -2.802  1.00  0.00     0.074 A 
ATOM     42  C   UNL     1       0.786   7.232  -1.877  1.00  0.00     0.049 A 
ATOM     43  N   UNL     1      -1.103   9.311  -2.911  1.00  0.00    -0.248 NA
ATOM     44  C   UNL     1      -2.816   7.802  -2.981  1.00  0.00     0.031 C 
ATOM     45  C   UNL     1       1.007   8.286  -0.876  1.00  0.00     0.029 A 
ATOM     46  N   UNL     1       1.944   6.432  -1.737  1.00  0.00    -0.354 N 
ATOM     47  C   UNL     1      -2.300   9.965  -2.709  1.00  0.00     0.074 A 
ATOM     48  C   UNL     1      -3.306   9.036  -3.108  1.00  0.00     0.031 C 
ATOM     49  C   UNL     1       2.270   8.219  -0.412  1.00  0.00     0.029 A 
ATOM     50  C   UNL     1       2.974   7.250  -1.224  1.00  0.00     0.049 A 
ATOM     51  H   UNL     1       2.018   5.476  -1.959  1.00  0.00     0.167 HD
ATOM     52  C   UNL     1      -2.328  11.086  -1.938  1.00  0.00     0.037 A 
ATOM     53  C   UNL     1       4.066   7.518  -2.000  1.00  0.00     0.037 A 
ATOM     54  C   UNL     1      -0.966  11.447  -1.511  1.00  0.00     0.049 A 
ATOM     55  C   UNL     1       4.103   8.923  -2.490  1.00  0.00     0.074 A 
ATOM     56  C   UNL     1      -0.313  11.528  -0.295  1.00  0.00     0.029 A 
ATOM     57  N   UNL     1       0.043  11.492  -2.467  1.00  0.00    -0.354 N 
ATOM     58  N   UNL     1       3.173   9.784  -2.205  1.00  0.00    -0.248 NA
ATOM     59  C   UNL     1       5.094   9.443  -3.414  1.00  0.00     0.031 C 
ATOM     60  C   UNL     1       1.092  11.675  -0.554  1.00  0.00     0.029 A 
ATOM     61  C   UNL     1       1.290  11.725  -1.925  1.00  0.00     0.049 A 
ATOM     62  H   UNL     1      -0.116  11.369  -3.431  1.00  0.00     0.167 HD
ATOM     63  C   UNL     1       3.332  10.908  -2.942  1.00  0.00     0.074 A 
ATOM     64  C   UNL     1       4.531  10.623  -3.727  1.00  0.00     0.031 C 
ATOM     65  C   UNL     1       2.417  11.922  -2.845  1.00  0.00     0.037 A 
BRANCH  52  66
ATOM     66  C   UNL     1      -3.583  11.779  -1.419  1.00  0.00     0.064 A 
ATOM     67  C   UNL     1      -3.464  13.070  -0.862  1.00  0.00     0.173 A 
ATOM     68  C   UNL     1      -4.907  11.273  -1.419  1.00  0.00     0.173 A 
ATOM     69  F   UNL     1      -2.269  13.669  -0.763  1.00  0.00    -0.203 F 
ATOM     70  C   UNL     1      -4.563  13.800  -0.393  1.00  0.00     0.198 A 
ATOM     71  C   UNL     1      -6.013  12.026  -1.003  1.00  0.00     0.198 A 
ATOM     72  F   UNL     1      -5.199  10.015  -1.763  1.00  0.00    -0.203 F 
ATOM     73  F   UNL     1      -4.373  15.012   0.146  1.00  0.00    -0.200 F 
ATOM     74  C   UNL     1      -5.841  13.291  -0.489  1.00  0.00     0.200 A 
ATOM     75  F   UNL     1      -7.246  11.505  -1.095  1.00  0.00    -0.200 F 
ATOM     76  F   UNL     1      -6.897  14.005  -0.076  1.00  0.00    -0.200 F 
ENDBRANCH  52  66
BRANCH  53  77
ATOM     77  C   UNL     1       4.519   6.319  -2.737  1.00  0.00     0.064 A 
ATOM     78  C   UNL     1       5.115   5.357  -1.920  1.00  0.00     0.173 A 
ATOM     79  C   UNL     1       3.872   5.889  -3.910  1.00  0.00     0.173 A 
ATOM     80  F   UNL     1       5.734   5.729  -0.788  1.00  0.00    -0.203 F 
ATOM     81  C   UNL     1       4.862   4.018  -2.152  1.00  0.00     0.198 A 
ATOM     82  C   UNL     1       3.726   4.529  -4.180  1.00  0.00     0.198 A 
ATOM     83  F   UNL     1       3.210   6.768  -4.676  1.00  0.00    -0.203 F 
ATOM     84  F   UNL     1       5.099   3.128  -1.199  1.00  0.00    -0.200 F 
ATOM     85  C   UNL     1       4.198   3.596  -3.282  1.00  0.00     0.200 A 
ATOM     86  F   UNL     1       2.990   4.114  -5.220  1.00  0.00    -0.200 F 
ATOM     87  F   UNL     1       3.963   2.290  -3.460  1.00  0.00    -0.200 F 
ENDBRANCH  53  77
BRANCH  65  88
ATOM     88  C   UNL     1       2.431  13.137  -3.735  1.00  0.00     0.064 A 
ATOM     89  C   UNL     1       3.572  13.586  -4.404  1.00  0.00     0.173 A 
ATOM     90  C   UNL     1       1.263  13.897  -3.978  1.00  0.00     0.173 A 
ATOM     91  F   UNL     1       4.798  13.214  -4.015  1.00  0.00    -0.203 F 
ATOM     92  C   UNL     1       3.499  14.505  -5.446  1.00  0.00     0.198 A 
ATOM     93  C   UNL     1       1.202  14.871  -4.964  1.00  0.00     0.198 A 
ATOM     94  F   UNL     1       0.139  13.748  -3.268  1.00  0.00    -0.203 F 
ATOM     95  F   UNL     1       4.599  14.781  -6.157  1.00  0.00    -0.200 F 
ATOM     96  C   UNL     1       2.306  15.133  -5.740  1.00  0.00     0.200 A 
ATOM     97  F   UNL     1       0.056  15.538  -5.160  1.00  0.00    -0.200 F 
ATOM     98  F   UNL     1       2.234  16.025  -6.734  1.00  0.00    -0.200 F 
ENDBRANCH  65  88
ENDBRANCH  39  40
ENDBRANCH  32  34
ENDBRANCH  31  32
ENDBRANCH  30  31
ENDBRANCH   1  30
TORSDOF 15
