REMARK SMILES CCc1ncc(S(=O)(=O)NCc2ccc(C(=O)OCCOCCOC(=O)c3ccc(-c4c5nc(c(-c6c(F)c(F)c(F)c(F)c6F)c6ccc([nH]6)c(-c6c(F)c(F)c(F)c(F)c6F)c6nc(c(-c7c(F)c(F)c(F)c(F)c7F)c7ccc4[nH]7)C=C6)C=C5)cc3)o2)[nH]1
REMARK SMILES IDX 19 1 18 2 16 3 17 4 15 5 12 6 13 7 90 8 14 9 11 10 10 11
REMARK SMILES IDX 7 13 8 14 9 15 6 16 3 17 4 18 91 19 5 20 2 22 1 23 20 24
REMARK SMILES IDX 21 25 22 26 23 27 24 28 25 29 26 30 27 31 28 32 89 33 29 34
REMARK SMILES IDX 88 35 30 36 31 37 32 38 82 39 33 40 87 41 81 42 83 43 34 44
REMARK SMILES IDX 86 45 80 46 79 47 35 49 67 50 47 51 66 52 48 53 51 54 65 55
REMARK SMILES IDX 84 56 49 57 50 58 64 60 85 61 52 62 36 63 37 64 45 65 38 66
REMARK SMILES IDX 39 67 43 68 46 69 40 70 41 71 44 72 42 73 68 74 69 75 77 76
REMARK SMILES IDX 70 77 71 78 75 79 78 80 72 81 73 82 76 83 74 84 53 85 54 86
REMARK SMILES IDX 62 87 55 88 56 89 60 90 63 91 57 92 58 93 61 94 59 95
REMARK H PARENT 10 12 91 21 83 48 51 59
REMARK Flexibility Score: inf
ROOT
ATOM      1  C   UNL     1       8.576   3.558   2.530  1.00  0.00     0.261 C 
ENDROOT
BRANCH   1   2
ATOM      2  O   UNL     1       7.409   3.793   3.335  1.00  0.00    -0.457 OA
BRANCH   2   3
ATOM      3  C   UNL     1       6.472   2.801   3.327  1.00  0.00     0.374 C 
ATOM      4  O   UNL     1       6.432   1.886   2.514  1.00  0.00    -0.242 OA
BRANCH   3   5
ATOM      5  C   UNL     1       5.638   2.927   4.500  1.00  0.00     0.211 A 
ATOM      6  C   UNL     1       4.290   2.130   6.050  1.00  0.00     0.119 A 
ATOM      7  C   UNL     1       4.586   3.422   6.428  1.00  0.00     0.048 A 
ATOM      8  O   UNL     1       4.922   1.830   4.884  1.00  0.00    -0.453 OA
ATOM      9  C   UNL     1       5.451   3.937   5.429  1.00  0.00     0.058 A 
BRANCH   6  10
ATOM     10  C   UNL     1       3.460   1.043   6.615  1.00  0.00     0.174 C 
BRANCH  10  11
ATOM     11  N   UNL     1       2.048   1.421   6.719  1.00  0.00    -0.202 NA
ATOM     12  H   UNL     1       1.573   0.660   7.204  1.00  0.00     0.141 HD
BRANCH  11  13
ATOM     13  S   UNL     1       1.170   1.735   5.328  1.00  0.00     0.258 S 
ATOM     14  O   UNL     1       1.817   2.774   4.562  1.00  0.00    -0.205 OA
ATOM     15  O   UNL     1      -0.209   1.879   5.736  1.00  0.00    -0.205 OA
BRANCH  13  16
ATOM     16  C   UNL     1       1.173   0.343   4.280  1.00  0.00     0.167 A 
ATOM     17  C   UNL     1       0.891  -0.784   2.376  1.00  0.00     0.106 A 
ATOM     18  N   UNL     1       1.247  -1.687   3.266  1.00  0.00    -0.240 NA
ATOM     19  N   UNL     1       0.853   0.462   2.948  1.00  0.00    -0.332 N 
ATOM     20  C   UNL     1       1.412  -1.003   4.443  1.00  0.00     0.153 A 
ATOM     21  H   UNL     1       0.633   1.301   2.483  1.00  0.00     0.169 HD
BRANCH  17  22
ATOM     22  C   UNL     1       0.508  -1.044   0.957  1.00  0.00     0.072 C 
ATOM     23  C   UNL     1       1.145  -0.081  -0.031  1.00  0.00     0.012 C 
ENDBRANCH  17  22
ENDBRANCH  13  16
ENDBRANCH  11  13
ENDBRANCH  10  11
ENDBRANCH   6  10
ENDBRANCH   3   5
ENDBRANCH   2   3
ENDBRANCH   1   2
BRANCH   1  24
ATOM     24  C   UNL     1       9.815   3.528   3.431  1.00  0.00     0.202 C 
BRANCH  24  25
ATOM     25  O   UNL     1       9.956   2.337   4.209  1.00  0.00    -0.374 OA
BRANCH  25  26
ATOM     26  C   UNL     1       9.219   2.270   5.430  1.00  0.00     0.202 C 
BRANCH  26  27
ATOM     27  C   UNL     1       9.891   2.938   6.635  1.00  0.00     0.261 C 
BRANCH  27  28
ATOM     28  O   UNL     1       9.909   4.370   6.494  1.00  0.00    -0.460 OA
BRANCH  28  29
ATOM     29  C   UNL     1      11.130   4.901   6.245  1.00  0.00     0.338 C 
ATOM     30  O   UNL     1      12.201   4.320   6.222  1.00  0.00    -0.246 OA
BRANCH  29  31
ATOM     31  C   UNL     1      10.986   6.309   5.826  1.00  0.00     0.060 A 
ATOM     32  C   UNL     1      11.674   6.711   4.674  1.00  0.00     0.016 A 
ATOM     33  C   UNL     1      10.255   7.234   6.574  1.00  0.00     0.016 A 
ATOM     34  C   UNL     1      11.677   8.051   4.293  1.00  0.00     0.010 A 
ATOM     35  C   UNL     1      10.265   8.581   6.196  1.00  0.00     0.010 A 
ATOM     36  C   UNL     1      11.005   9.000   5.076  1.00  0.00    -0.014 A 
BRANCH  36  37
ATOM     37  C   UNL     1      11.210  10.444   4.811  1.00  0.00     0.031 A 
ATOM     38  C   UNL     1      12.218  11.196   5.635  1.00  0.00     0.074 A 
ATOM     39  C   UNL     1      10.528  11.072   3.839  1.00  0.00     0.049 A 
ATOM     40  N   UNL     1      12.530  12.467   5.612  1.00  0.00    -0.248 NA
ATOM     41  C   UNL     1      12.978  10.408   6.618  1.00  0.00     0.031 C 
ATOM     42  C   UNL     1       9.556  10.443   2.947  1.00  0.00     0.029 A 
ATOM     43  N   UNL     1      10.547  12.387   3.446  1.00  0.00    -0.354 N 
ATOM     44  C   UNL     1      13.513  12.631   6.579  1.00  0.00     0.074 A 
ATOM     45  C   UNL     1      13.729  11.337   7.189  1.00  0.00     0.031 C 
ATOM     46  C   UNL     1       9.059  11.377   2.118  1.00  0.00     0.029 A 
ATOM     47  C   UNL     1       9.657  12.672   2.441  1.00  0.00     0.049 A 
ATOM     48  H   UNL     1      11.142  13.061   3.846  1.00  0.00     0.167 HD
ATOM     49  C   UNL     1      14.181  13.758   6.920  1.00  0.00     0.037 A 
ATOM     50  C   UNL     1       9.346  13.850   1.865  1.00  0.00     0.037 A 
ATOM     51  C   UNL     1      13.969  15.044   6.311  1.00  0.00     0.049 A 
ATOM     52  C   UNL     1      10.056  15.102   2.310  1.00  0.00     0.074 A 
ATOM     53  C   UNL     1      14.610  16.242   6.576  1.00  0.00     0.029 A 
ATOM     54  N   UNL     1      13.038  15.299   5.315  1.00  0.00    -0.354 N 
ATOM     55  N   UNL     1      10.998  15.246   3.210  1.00  0.00    -0.248 NA
ATOM     56  C   UNL     1       9.657  16.358   1.657  1.00  0.00     0.031 C 
ATOM     57  C   UNL     1      14.036  17.232   5.771  1.00  0.00     0.029 A 
ATOM     58  C   UNL     1      13.070  16.641   4.971  1.00  0.00     0.049 A 
ATOM     59  H   UNL     1      12.443  14.627   4.912  1.00  0.00     0.167 HD
ATOM     60  C   UNL     1      11.322  16.596   3.213  1.00  0.00     0.074 A 
ATOM     61  C   UNL     1      10.484  17.230   2.217  1.00  0.00     0.031 C 
ATOM     62  C   UNL     1      12.234  17.253   3.972  1.00  0.00     0.037 A 
BRANCH  49  63
ATOM     63  C   UNL     1      15.191  13.654   8.024  1.00  0.00     0.064 A 
ATOM     64  C   UNL     1      16.425  13.014   7.835  1.00  0.00     0.173 A 
ATOM     65  C   UNL     1      14.933  14.228   9.278  1.00  0.00     0.173 A 
ATOM     66  F   UNL     1      16.712  12.436   6.659  1.00  0.00    -0.203 F 
ATOM     67  C   UNL     1      17.354  12.932   8.868  1.00  0.00     0.198 A 
ATOM     68  C   UNL     1      15.875  14.167  10.301  1.00  0.00     0.198 A 
ATOM     69  F   UNL     1      13.769  14.853   9.509  1.00  0.00    -0.203 F 
ATOM     70  F   UNL     1      18.509  12.279   8.679  1.00  0.00    -0.200 F 
ATOM     71  C   UNL     1      17.081  13.514  10.098  1.00  0.00     0.200 A 
ATOM     72  F   UNL     1      15.614  14.737  11.485  1.00  0.00    -0.200 F 
ATOM     73  F   UNL     1      17.979  13.439  11.090  1.00  0.00    -0.200 F 
ENDBRANCH  49  63
BRANCH  50  74
ATOM     74  C   UNL     1       8.301  13.907   0.811  1.00  0.00     0.064 A 
ATOM     75  C   UNL     1       8.632  14.185  -0.522  1.00  0.00     0.173 A 
ATOM     76  C   UNL     1       6.948  13.704   1.120  1.00  0.00     0.173 A 
ATOM     77  F   UNL     1       9.909  14.414  -0.860  1.00  0.00    -0.203 F 
ATOM     78  C   UNL     1       7.647  14.274  -1.504  1.00  0.00     0.198 A 
ATOM     79  C   UNL     1       5.967  13.767   0.133  1.00  0.00     0.198 A 
ATOM     80  F   UNL     1       6.580  13.438   2.382  1.00  0.00    -0.203 F 
ATOM     81  F   UNL     1       7.986  14.586  -2.762  1.00  0.00    -0.200 F 
ATOM     82  C   UNL     1       6.316  14.060  -1.177  1.00  0.00     0.200 A 
ATOM     83  F   UNL     1       4.684  13.550   0.452  1.00  0.00    -0.200 F 
ATOM     84  F   UNL     1       5.370  14.144  -2.121  1.00  0.00    -0.200 F 
ENDBRANCH  50  74
BRANCH  62  85
ATOM     85  C   UNL     1      12.398  18.726   3.733  1.00  0.00     0.064 A 
ATOM     86  C   UNL     1      11.434  19.651   4.158  1.00  0.00     0.173 A 
ATOM     87  C   UNL     1      13.555  19.219   3.111  1.00  0.00     0.173 A 
ATOM     88  F   UNL     1      10.304  19.228   4.745  1.00  0.00    -0.203 F 
ATOM     89  C   UNL     1      11.613  21.017   3.950  1.00  0.00     0.198 A 
ATOM     90  C   UNL     1      13.743  20.587   2.929  1.00  0.00     0.198 A 
ATOM     91  F   UNL     1      14.509  18.375   2.692  1.00  0.00    -0.203 F 
ATOM     92  F   UNL     1      10.661  21.881   4.328  1.00  0.00    -0.200 F 
ATOM     93  C   UNL     1      12.770  21.483   3.343  1.00  0.00     0.200 A 
ATOM     94  F   UNL     1      14.866  21.036   2.353  1.00  0.00    -0.200 F 
ATOM     95  F   UNL     1      12.943  22.798   3.151  1.00  0.00    -0.200 F 
ENDBRANCH  62  85
ENDBRANCH  36  37
ENDBRANCH  29  31
ENDBRANCH  28  29
ENDBRANCH  27  28
ENDBRANCH  26  27
ENDBRANCH  25  26
ENDBRANCH  24  25
ENDBRANCH   1  24
TORSDOF 19
