REMARK SMILES Cc1cc([N+](=O)[O-])ccc1NC(=O)[C@@H]1[C@@H](C(=O)OCCOCCOC(=O)c2ccc(-c3c4nc(c(-c5c(F)c(F)c(F)c(F)c5F)c5ccc([nH]5)c(-c5c(F)c(F)c(F)c(F)c5F)c5nc(c(-c6c(F)c(F)c(F)c(F)c6F)c6ccc3[nH]6)C=C5)C=C4)cc2)[C@H]2C=C[C@@H]1C2
REMARK SMILES IDX 20 1 19 2 18 3 16 4 17 5 15 6 14 7 93 8 90 9 92 10 94 11
REMARK SMILES IDX 91 12 12 13 11 14 13 16 10 17 1 18 2 19 3 20 4 21 9 22 8 23
REMARK SMILES IDX 5 24 6 25 7 26 21 27 22 28 23 29 24 30 25 31 26 32 27 33
REMARK SMILES IDX 28 34 89 35 29 36 88 37 30 38 31 39 32 40 82 41 33 42 87 43
REMARK SMILES IDX 81 44 83 45 34 46 86 47 80 48 79 49 35 51 67 52 47 53 66 54
REMARK SMILES IDX 48 55 51 56 65 57 84 58 49 59 50 60 64 62 85 63 52 64 36 65
REMARK SMILES IDX 37 66 45 67 38 68 39 69 43 70 46 71 40 72 41 73 44 74 42 75
REMARK SMILES IDX 68 76 69 77 77 78 70 79 71 80 75 81 78 82 72 83 73 84 76 85
REMARK SMILES IDX 74 86 53 87 54 88 62 89 55 90 56 91 60 92 63 93 57 94 58 95
REMARK SMILES IDX 61 96 59 97
REMARK H PARENT 11 15 83 50 51 61
REMARK Flexibility Score: inf
ROOT
ATOM      1  C   UNL     1      -1.455   8.162  -1.496  1.00  0.00     0.202 C 
ENDROOT
BRANCH   1   2
ATOM      2  C   UNL     1      -2.646   7.542  -0.817  1.00  0.00     0.261 C 
BRANCH   2   3
ATOM      3  O   UNL     1      -2.242   6.664   0.249  1.00  0.00    -0.463 OA
BRANCH   3   4
ATOM      4  C   UNL     1      -1.952   5.374  -0.084  1.00  0.00     0.310 C 
ATOM      5  O   UNL     1      -2.253   4.829  -1.139  1.00  0.00    -0.252 OA
BRANCH   4   6
ATOM      6  C   UNL     1      -1.137   4.750   1.010  1.00  0.00     0.119 C 
ATOM      7  C   UNL     1      -0.646   3.326   0.645  1.00  0.00     0.100 C 
ATOM      8  C   UNL     1      -0.818   2.567   1.989  1.00  0.00     0.025 C 
ATOM      9  C   UNL     1      -1.896   4.502   2.335  1.00  0.00     0.027 C 
ATOM     10  C   UNL     1      -2.285   2.231   2.052  1.00  0.00    -0.027 C 
ATOM     11  C   UNL     1      -0.816   3.685   3.047  1.00  0.00     0.017 C 
ATOM     12  C   UNL     1      -2.929   3.394   2.228  1.00  0.00    -0.027 C 
BRANCH   7  13
ATOM     13  C   UNL     1       0.751   3.233   0.070  1.00  0.00     0.228 C 
ATOM     14  N   UNL     1       1.218   2.023  -0.392  1.00  0.00    -0.326 N 
ATOM     15  H   UNL     1       2.146   2.033  -0.723  1.00  0.00     0.169 HD
ATOM     16  O   UNL     1       1.510   4.203   0.053  1.00  0.00    -0.274 OA
BRANCH  14  17
ATOM     17  C   UNL     1       0.573   0.770  -0.464  1.00  0.00     0.044 A 
ATOM     18  C   UNL     1       2.766  -0.428   0.134  1.00  0.00     0.047 C 
ATOM     19  C   UNL     1       1.282  -0.396  -0.118  1.00  0.00    -0.021 A 
ATOM     20  C   UNL     1       0.580  -1.615  -0.002  1.00  0.00     0.091 A 
ATOM     21  C   UNL     1      -0.798  -1.669  -0.248  1.00  0.00     0.269 A 
ATOM     22  C   UNL     1      -0.771   0.654  -0.850  1.00  0.00     0.033 A 
ATOM     23  C   UNL     1      -1.472  -0.543  -0.710  1.00  0.00     0.088 A 
BRANCH  21  24
ATOM     24  N   UNL     1      -1.539  -2.914  -0.023  1.00  0.00     0.062 N 
ATOM     25  O   UNL     1      -0.883  -3.943   0.188  1.00  0.00    -0.258 OA
ATOM     26  O   UNL     1      -2.777  -2.856  -0.046  1.00  0.00    -0.258 OA
ENDBRANCH  21  24
ENDBRANCH  14  17
ENDBRANCH   7  13
ENDBRANCH   4   6
ENDBRANCH   3   4
ENDBRANCH   2   3
ENDBRANCH   1   2
BRANCH   1  27
ATOM     27  O   UNL     1      -0.928   7.158  -2.354  1.00  0.00    -0.374 OA
BRANCH  27  28
ATOM     28  C   UNL     1       0.275   7.500  -3.022  1.00  0.00     0.202 C 
BRANCH  28  29
ATOM     29  C   UNL     1       0.143   8.723  -3.942  1.00  0.00     0.261 C 
BRANCH  29  30
ATOM     30  O   UNL     1      -0.811   8.442  -4.986  1.00  0.00    -0.460 OA
BRANCH  30  31
ATOM     31  C   UNL     1      -2.022   9.049  -4.853  1.00  0.00     0.338 C 
ATOM     32  O   UNL     1      -2.200  10.237  -4.642  1.00  0.00    -0.246 OA
BRANCH  31  33
ATOM     33  C   UNL     1      -3.081   8.011  -4.716  1.00  0.00     0.060 A 
ATOM     34  C   UNL     1      -4.361   8.373  -4.254  1.00  0.00     0.016 A 
ATOM     35  C   UNL     1      -2.710   6.668  -4.758  1.00  0.00     0.016 A 
ATOM     36  C   UNL     1      -5.210   7.403  -3.706  1.00  0.00     0.010 A 
ATOM     37  C   UNL     1      -3.505   5.737  -4.129  1.00  0.00     0.010 A 
ATOM     38  C   UNL     1      -4.744   6.097  -3.576  1.00  0.00    -0.014 A 
BRANCH  38  39
ATOM     39  C   UNL     1      -5.397   5.020  -2.832  1.00  0.00     0.031 A 
ATOM     40  C   UNL     1      -5.795   3.798  -3.569  1.00  0.00     0.074 A 
ATOM     41  C   UNL     1      -5.361   5.004  -1.478  1.00  0.00     0.049 A 
ATOM     42  N   UNL     1      -6.420   2.804  -3.043  1.00  0.00    -0.248 NA
ATOM     43  C   UNL     1      -5.537   3.597  -4.990  1.00  0.00     0.031 C 
ATOM     44  C   UNL     1      -5.509   3.852  -0.593  1.00  0.00     0.029 A 
ATOM     45  N   UNL     1      -5.221   6.072  -0.577  1.00  0.00    -0.354 N 
ATOM     46  C   UNL     1      -6.342   1.736  -3.905  1.00  0.00     0.074 A 
ATOM     47  C   UNL     1      -5.893   2.319  -5.144  1.00  0.00     0.031 C 
ATOM     48  C   UNL     1      -5.807   4.280   0.643  1.00  0.00     0.029 A 
ATOM     49  C   UNL     1      -5.936   5.723   0.577  1.00  0.00     0.049 A 
ATOM     50  H   UNL     1      -4.718   6.904  -0.726  1.00  0.00     0.167 HD
ATOM     51  C   UNL     1      -6.549   0.488  -3.385  1.00  0.00     0.037 A 
ATOM     52  C   UNL     1      -6.986   6.460   1.019  1.00  0.00     0.037 A 
ATOM     53  C   UNL     1      -7.056   0.600  -1.996  1.00  0.00     0.049 A 
ATOM     54  C   UNL     1      -8.182   5.561   1.005  1.00  0.00     0.074 A 
ATOM     55  C   UNL     1      -6.520   0.315  -0.751  1.00  0.00     0.029 A 
ATOM     56  N   UNL     1      -8.196   1.382  -1.746  1.00  0.00    -0.354 N 
ATOM     57  N   UNL     1      -8.336   4.611   0.115  1.00  0.00    -0.248 NA
ATOM     58  C   UNL     1      -9.129   5.484   2.110  1.00  0.00     0.031 C 
ATOM     59  C   UNL     1      -7.286   1.015   0.231  1.00  0.00     0.029 A 
ATOM     60  C   UNL     1      -8.309   1.707  -0.406  1.00  0.00     0.049 A 
ATOM     61  H   UNL     1      -8.836   1.664  -2.439  1.00  0.00     0.167 HD
ATOM     62  C   UNL     1      -9.239   3.717   0.607  1.00  0.00     0.074 A 
ATOM     63  C   UNL     1      -9.765   4.337   1.816  1.00  0.00     0.031 C 
ATOM     64  C   UNL     1      -9.448   2.466   0.107  1.00  0.00     0.037 A 
BRANCH  51  65
ATOM     65  C   UNL     1      -6.097  -0.829  -4.027  1.00  0.00     0.064 A 
ATOM     66  C   UNL     1      -6.110  -2.035  -3.286  1.00  0.00     0.173 A 
ATOM     67  C   UNL     1      -5.574  -0.982  -5.331  1.00  0.00     0.173 A 
ATOM     68  F   UNL     1      -6.612  -2.086  -2.046  1.00  0.00    -0.203 F 
ATOM     69  C   UNL     1      -5.606  -3.248  -3.787  1.00  0.00     0.198 A 
ATOM     70  C   UNL     1      -5.069  -2.190  -5.831  1.00  0.00     0.198 A 
ATOM     71  F   UNL     1      -5.533   0.014  -6.212  1.00  0.00    -0.203 F 
ATOM     72  F   UNL     1      -5.635  -4.349  -3.022  1.00  0.00    -0.200 F 
ATOM     73  C   UNL     1      -5.077  -3.323  -5.057  1.00  0.00     0.200 A 
ATOM     74  F   UNL     1      -4.573  -2.232  -7.077  1.00  0.00    -0.200 F 
ATOM     75  F   UNL     1      -4.589  -4.475  -5.536  1.00  0.00    -0.200 F 
ENDBRANCH  51  65
BRANCH  52  76
ATOM     76  C   UNL     1      -6.836   7.907   0.711  1.00  0.00     0.064 A 
ATOM     77  C   UNL     1      -5.806   8.590   1.399  1.00  0.00     0.173 A 
ATOM     78  C   UNL     1      -7.287   8.477  -0.486  1.00  0.00     0.173 A 
ATOM     79  F   UNL     1      -5.305   8.073   2.534  1.00  0.00    -0.203 F 
ATOM     80  C   UNL     1      -5.170   9.705   0.851  1.00  0.00     0.198 A 
ATOM     81  C   UNL     1      -6.642   9.595  -1.034  1.00  0.00     0.198 A 
ATOM     82  F   UNL     1      -8.252   7.881  -1.198  1.00  0.00    -0.203 F 
ATOM     83  F   UNL     1      -4.087  10.220   1.452  1.00  0.00    -0.200 F 
ATOM     84  C   UNL     1      -5.563  10.181  -0.387  1.00  0.00     0.200 A 
ATOM     85  F   UNL     1      -6.998  10.044  -2.247  1.00  0.00    -0.200 F 
ATOM     86  F   UNL     1      -4.854  11.149  -0.987  1.00  0.00    -0.200 F 
ENDBRANCH  52  76
BRANCH  64  87
ATOM     87  C   UNL     1     -10.810   1.839   0.164  1.00  0.00     0.064 A 
ATOM     88  C   UNL     1     -11.986   2.606   0.279  1.00  0.00     0.173 A 
ATOM     89  C   UNL     1     -10.991   0.468  -0.112  1.00  0.00     0.173 A 
ATOM     90  F   UNL     1     -11.947   3.938   0.426  1.00  0.00    -0.203 F 
ATOM     91  C   UNL     1     -13.249   2.033   0.189  1.00  0.00     0.198 A 
ATOM     92  C   UNL     1     -12.256  -0.089  -0.264  1.00  0.00     0.198 A 
ATOM     93  F   UNL     1      -9.950  -0.359  -0.287  1.00  0.00    -0.203 F 
ATOM     94  F   UNL     1     -14.335   2.802   0.347  1.00  0.00    -0.200 F 
ATOM     95  C   UNL     1     -13.385   0.690  -0.098  1.00  0.00     0.200 A 
ATOM     96  F   UNL     1     -12.376  -1.379  -0.604  1.00  0.00    -0.200 F 
ATOM     97  F   UNL     1     -14.602   0.151  -0.237  1.00  0.00    -0.200 F 
ENDBRANCH  64  87
ENDBRANCH  38  39
ENDBRANCH  31  33
ENDBRANCH  30  31
ENDBRANCH  29  30
ENDBRANCH  28  29
ENDBRANCH  27  28
ENDBRANCH   1  27
TORSDOF 17
