REMARK SMILES CC1(C)[C@H](C(=O)OCCOCCOC(=O)c2ccc(-c3c4nc(c(-c5c(F)c(F)c(F)c(F)c5F)c5ccc([nH]5)c(-c5c(F)c(F)c(F)c(F)c5F)c5nc(c(-c6c(F)c(F)c(F)c(F)c6F)c6ccc3[nH]6)C=C5)C=C4)cc2)[C@@H]1C(=O)Nc1ccc(NC(=O)C2CCC2)cc1
REMARK SMILES IDX 9 1 8 2 7 3 5 4 6 5 4 6 1 7 2 8 3 9 79 10 80 11 81 12 82 13
REMARK SMILES IDX 83 15 84 16 95 17 85 18 94 19 86 20 87 21 88 22 89 24 90 25
REMARK SMILES IDX 91 26 93 27 92 28 10 29 11 30 12 31 13 32 14 33 15 34 16 35
REMARK SMILES IDX 17 36 78 37 18 38 77 39 19 40 20 41 21 42 71 43 22 44 76 45
REMARK SMILES IDX 70 46 72 47 23 48 75 49 69 50 68 51 24 53 56 54 36 55 55 56
REMARK SMILES IDX 37 57 40 58 54 59 73 60 38 61 39 62 53 64 74 65 41 66 25 67
REMARK SMILES IDX 26 68 34 69 27 70 28 71 32 72 35 73 29 74 30 75 33 76 31 77
REMARK SMILES IDX 57 78 58 79 66 80 59 81 60 82 64 83 67 84 61 85 62 86 65 87
REMARK SMILES IDX 63 88 42 89 43 90 51 91 44 92 45 93 49 94 52 95 46 96 47 97
REMARK SMILES IDX 50 98 48 99
REMARK H PARENT 82 14 87 23 72 52 40 63
REMARK Flexibility Score: inf
ROOT
ATOM      1  C   UNL     1      -1.908   2.544  -3.888  1.00  0.00     0.202 C 
ENDROOT
BRANCH   1   2
ATOM      2  C   UNL     1      -1.694   2.803  -2.383  1.00  0.00     0.261 C 
BRANCH   2   3
ATOM      3  O   UNL     1      -1.105   1.813  -1.543  1.00  0.00    -0.463 OA
BRANCH   3   4
ATOM      4  C   UNL     1      -1.707   0.604  -1.499  1.00  0.00     0.310 C 
ATOM      5  O   UNL     1      -2.607   0.250  -2.231  1.00  0.00    -0.252 OA
BRANCH   4   6
ATOM      6  C   UNL     1      -1.052  -0.371  -0.596  1.00  0.00     0.118 C 
ATOM      7  C   UNL     1       1.210  -1.271   0.207  1.00  0.00     0.013 C 
ATOM      8  C   UNL     1       0.198  -0.150   0.231  1.00  0.00    -0.009 C 
ATOM      9  C   UNL     1       0.854   1.214   0.303  1.00  0.00     0.013 C 
ATOM     10  C   UNL     1      -1.167  -0.415   0.907  1.00  0.00     0.100 C 
BRANCH  10  11
ATOM     11  C   UNL     1      -1.699   0.595   1.852  1.00  0.00     0.228 C 
ATOM     12  O   UNL     1      -0.970   1.010   2.752  1.00  0.00    -0.274 OA
ATOM     13  N   UNL     1      -2.980   1.075   1.782  1.00  0.00    -0.326 N 
ATOM     14  H   UNL     1      -3.282   1.594   2.562  1.00  0.00     0.169 HD
BRANCH  13  15
ATOM     15  C   UNL     1      -3.915   0.930   0.760  1.00  0.00     0.041 A 
ATOM     16  C   UNL     1      -4.348   2.120   0.200  1.00  0.00     0.028 A 
ATOM     17  C   UNL     1      -4.343  -0.279   0.222  1.00  0.00     0.028 A 
ATOM     18  C   UNL     1      -5.034   2.101  -1.008  1.00  0.00     0.028 A 
ATOM     19  C   UNL     1      -5.134  -0.274  -0.946  1.00  0.00     0.028 A 
ATOM     20  C   UNL     1      -5.425   0.928  -1.617  1.00  0.00     0.041 A 
BRANCH  20  21
ATOM     21  N   UNL     1      -6.016   0.855  -2.887  1.00  0.00    -0.326 N 
ATOM     22  C   UNL     1      -6.338   1.726  -3.908  1.00  0.00     0.227 C 
ATOM     23  H   UNL     1      -6.269  -0.070  -3.111  1.00  0.00     0.169 HD
ATOM     24  O   UNL     1      -6.830   1.150  -4.902  1.00  0.00    -0.274 OA
BRANCH  22  25
ATOM     25  C   UNL     1      -6.121   3.253  -3.984  1.00  0.00     0.079 C 
ATOM     26  C   UNL     1      -7.340   4.010  -4.637  1.00  0.00     0.013 C 
ATOM     27  C   UNL     1      -6.265   4.312  -2.861  1.00  0.00     0.013 C 
ATOM     28  C   UNL     1      -6.909   5.262  -3.871  1.00  0.00     0.002 C 
ENDBRANCH  22  25
ENDBRANCH  20  21
ENDBRANCH  13  15
ENDBRANCH  10  11
ENDBRANCH   4   6
ENDBRANCH   3   4
ENDBRANCH   2   3
ENDBRANCH   1   2
BRANCH   1  29
ATOM     29  O   UNL     1      -1.304   1.505  -4.636  1.00  0.00    -0.374 OA
BRANCH  29  30
ATOM     30  C   UNL     1      -0.099   0.879  -4.254  1.00  0.00     0.202 C 
BRANCH  30  31
ATOM     31  C   UNL     1       1.186   1.697  -4.319  1.00  0.00     0.261 C 
BRANCH  31  32
ATOM     32  O   UNL     1       1.099   2.947  -3.626  1.00  0.00    -0.460 OA
BRANCH  32  33
ATOM     33  C   UNL     1       0.985   4.021  -4.442  1.00  0.00     0.338 C 
ATOM     34  O   UNL     1       0.961   4.030  -5.660  1.00  0.00    -0.246 OA
BRANCH  33  35
ATOM     35  C   UNL     1       0.765   5.241  -3.648  1.00  0.00     0.060 A 
ATOM     36  C   UNL     1      -0.264   6.096  -4.059  1.00  0.00     0.016 A 
ATOM     37  C   UNL     1       1.604   5.590  -2.586  1.00  0.00     0.016 A 
ATOM     38  C   UNL     1      -0.411   7.343  -3.461  1.00  0.00     0.010 A 
ATOM     39  C   UNL     1       1.462   6.848  -1.992  1.00  0.00     0.010 A 
ATOM     40  C   UNL     1       0.489   7.746  -2.465  1.00  0.00    -0.014 A 
BRANCH  40  41
ATOM     41  C   UNL     1       0.537   9.178  -2.090  1.00  0.00     0.031 A 
ATOM     42  C   UNL     1       1.561  10.058  -2.753  1.00  0.00     0.074 A 
ATOM     43  C   UNL     1      -0.355   9.700  -1.232  1.00  0.00     0.049 A 
ATOM     44  N   UNL     1       1.780  11.340  -2.603  1.00  0.00    -0.248 NA
ATOM     45  C   UNL     1       2.461   9.404  -3.717  1.00  0.00     0.031 C 
ATOM     46  C   UNL     1      -1.419   8.955  -0.563  1.00  0.00     0.029 A 
ATOM     47  N   UNL     1      -0.505  10.986  -0.780  1.00  0.00    -0.354 N 
ATOM     48  C   UNL     1       2.838  11.642  -3.451  1.00  0.00     0.074 A 
ATOM     49  C   UNL     1       3.243  10.407  -4.085  1.00  0.00     0.031 C 
ATOM     50  C   UNL     1      -2.112   9.798   0.222  1.00  0.00     0.029 A 
ATOM     51  C   UNL     1      -1.523  11.133   0.128  1.00  0.00     0.049 A 
ATOM     52  H   UNL     1       0.063  11.732  -1.078  1.00  0.00     0.167 HD
ATOM     53  C   UNL     1       3.412  12.845  -3.689  1.00  0.00     0.037 A 
ATOM     54  C   UNL     1      -1.921  12.223   0.814  1.00  0.00     0.037 A 
ATOM     55  C   UNL     1       3.006  14.072  -3.059  1.00  0.00     0.049 A 
ATOM     56  C   UNL     1      -1.218  13.537   0.583  1.00  0.00     0.074 A 
ATOM     57  C   UNL     1       3.512  15.347  -3.244  1.00  0.00     0.029 A 
ATOM     58  N   UNL     1       1.997  14.175  -2.113  1.00  0.00    -0.354 N 
ATOM     59  N   UNL     1      -0.239  13.821  -0.242  1.00  0.00    -0.248 NA
ATOM     60  C   UNL     1      -1.684  14.684   1.375  1.00  0.00     0.031 C 
ATOM     61  C   UNL     1       2.845  16.212  -2.371  1.00  0.00     0.029 A 
ATOM     62  C   UNL     1       1.884  15.488  -1.685  1.00  0.00     0.049 A 
ATOM     63  H   UNL     1       1.443  13.427  -1.794  1.00  0.00     0.167 HD
ATOM     64  C   UNL     1       0.009  15.180  -0.089  1.00  0.00     0.074 A 
ATOM     65  C   UNL     1      -0.935  15.666   0.895  1.00  0.00     0.031 C 
ATOM     66  C   UNL     1       0.934  15.956  -0.707  1.00  0.00     0.037 A 
BRANCH  53  67
ATOM     67  C   UNL     1       4.561  12.884  -4.655  1.00  0.00     0.064 A 
ATOM     68  C   UNL     1       4.374  12.699  -6.034  1.00  0.00     0.173 A 
ATOM     69  C   UNL     1       5.862  13.138  -4.198  1.00  0.00     0.173 A 
ATOM     70  F   UNL     1       3.151  12.437  -6.520  1.00  0.00    -0.203 F 
ATOM     71  C   UNL     1       5.452  12.740  -6.915  1.00  0.00     0.198 A 
ATOM     72  C   UNL     1       6.933  13.208  -5.085  1.00  0.00     0.198 A 
ATOM     73  F   UNL     1       6.096  13.324  -2.890  1.00  0.00    -0.203 F 
ATOM     74  F   UNL     1       5.257  12.512  -8.221  1.00  0.00    -0.200 F 
ATOM     75  C   UNL     1       6.729  13.002  -6.441  1.00  0.00     0.200 A 
ATOM     76  F   UNL     1       8.165  13.472  -4.627  1.00  0.00    -0.200 F 
ATOM     77  F   UNL     1       7.764  13.047  -7.290  1.00  0.00    -0.200 F 
ENDBRANCH  53  67
BRANCH  54  78
ATOM     78  C   UNL     1      -3.034  12.120   1.793  1.00  0.00     0.064 A 
ATOM     79  C   UNL     1      -4.259  12.764   1.569  1.00  0.00     0.173 A 
ATOM     80  C   UNL     1      -2.887  11.395   2.985  1.00  0.00     0.173 A 
ATOM     81  F   UNL     1      -4.440  13.489   0.455  1.00  0.00    -0.203 F 
ATOM     82  C   UNL     1      -5.286  12.705   2.509  1.00  0.00     0.198 A 
ATOM     83  C   UNL     1      -3.925  11.312   3.911  1.00  0.00     0.198 A 
ATOM     84  F   UNL     1      -1.735  10.761   3.248  1.00  0.00    -0.203 F 
ATOM     85  F   UNL     1      -6.428  13.371   2.293  1.00  0.00    -0.200 F 
ATOM     86  C   UNL     1      -5.120  11.975   3.677  1.00  0.00     0.200 A 
ATOM     87  F   UNL     1      -3.764  10.595   5.031  1.00  0.00    -0.200 F 
ATOM     88  F   UNL     1      -6.108  11.917   4.580  1.00  0.00    -0.200 F 
ENDBRANCH  54  78
BRANCH  66  89
ATOM     89  C   UNL     1       0.948  17.418  -0.364  1.00  0.00     0.064 A 
ATOM     90  C   UNL     1       1.394  17.879   0.883  1.00  0.00     0.173 A 
ATOM     91  C   UNL     1       0.545  18.373  -1.311  1.00  0.00     0.173 A 
ATOM     92  F   UNL     1       1.776  17.006   1.828  1.00  0.00    -0.203 F 
ATOM     93  C   UNL     1       1.407  19.239   1.181  1.00  0.00     0.198 A 
ATOM     94  C   UNL     1       0.592  19.734  -1.022  1.00  0.00     0.198 A 
ATOM     95  F   UNL     1       0.119  17.986  -2.523  1.00  0.00    -0.203 F 
ATOM     96  F   UNL     1       1.787  19.653   2.398  1.00  0.00    -0.200 F 
ATOM     97  C   UNL     1       1.014  20.165   0.226  1.00  0.00     0.200 A 
ATOM     98  F   UNL     1       0.226  20.628  -1.951  1.00  0.00    -0.200 F 
ATOM     99  F   UNL     1       1.033  21.474   0.513  1.00  0.00    -0.200 F 
ENDBRANCH  66  89
ENDBRANCH  40  41
ENDBRANCH  33  35
ENDBRANCH  32  33
ENDBRANCH  31  32
ENDBRANCH  30  31
ENDBRANCH  29  30
ENDBRANCH   1  29
TORSDOF 18
