REMARK SMILES CC[N@@H+](C)CCn1c(SCC(=O)OCCOCCOC(=O)c2ccc(-c3c4nc(c(-c5c(F)c(F)c(F)c(F)c5F)c5ccc([nH]5)c(-c5c(F)c(F)c(F)c(F)c5F)c5nc(c(-c6c(F)c(F)c(F)c(F)c6F)c6ccc3[nH]6)C=C5)C=C4)cc2)nc2cnccc21
REMARK SMILES IDX 14 1 13 2 11 3 12 4 10 5 9 6 8 7 7 8 91 9 85 10 86 11 90 12
REMARK SMILES IDX 87 13 89 14 88 15 6 16 5 17 3 18 4 19 2 21 1 22 15 23 16 24
REMARK SMILES IDX 17 25 18 26 19 27 20 28 21 29 22 30 23 31 84 32 24 33 83 34
REMARK SMILES IDX 25 35 26 36 27 37 77 38 28 39 82 40 76 41 78 42 29 43 81 44
REMARK SMILES IDX 75 45 74 46 30 48 62 49 42 50 61 51 43 52 46 53 60 54 79 55
REMARK SMILES IDX 44 56 45 57 59 59 80 60 47 61 31 62 32 63 40 64 33 65 34 66
REMARK SMILES IDX 38 67 41 68 35 69 36 70 39 71 37 72 63 73 64 74 72 75 65 76
REMARK SMILES IDX 66 77 70 78 73 79 67 80 68 81 71 82 69 83 48 84 49 85 57 86
REMARK SMILES IDX 50 87 51 88 55 89 58 90 52 91 53 92 56 93 54 94
REMARK H PARENT 3 20 78 47 46 58
REMARK Flexibility Score: inf
ROOT
ATOM      1  C   UNL     1       5.156  -6.321  -1.226  1.00  0.00     0.261 C 
ENDROOT
BRANCH   1   2
ATOM      2  O   UNL     1       4.011  -5.777  -1.909  1.00  0.00    -0.463 OA
BRANCH   2   3
ATOM      3  C   UNL     1       2.858  -5.718  -1.195  1.00  0.00     0.316 C 
ATOM      4  O   UNL     1       2.752  -6.068  -0.024  1.00  0.00    -0.251 OA
BRANCH   3   5
ATOM      5  C   UNL     1       1.674  -5.204  -1.984  1.00  0.00     0.200 C 
BRANCH   5   6
ATOM      6  S   UNL     1       2.059  -3.895  -3.140  1.00  0.00    -0.076 SA
BRANCH   6   7
ATOM      7  C   UNL     1       1.703  -2.314  -2.491  1.00  0.00     0.169 A 
ATOM      8  N   UNL     1       2.104  -1.763  -1.285  1.00  0.00    -0.313 N 
ATOM      9  C   UNL     1       2.480  -0.453  -1.565  1.00  0.00     0.072 A 
ATOM     10  N   UNL     1       1.417  -1.355  -3.351  1.00  0.00    -0.221 NA
ATOM     11  C   UNL     1       1.981  -0.215  -2.841  1.00  0.00     0.108 A 
ATOM     12  C   UNL     1       3.220   0.509  -0.872  1.00  0.00     0.049 A 
ATOM     13  C   UNL     1       2.180   1.042  -3.423  1.00  0.00     0.141 A 
ATOM     14  C   UNL     1       3.384   1.716  -1.539  1.00  0.00     0.113 A 
ATOM     15  N   UNL     1       2.881   2.001  -2.761  1.00  0.00    -0.262 NA
BRANCH   8  16
ATOM     16  C   UNL     1       2.375  -2.405  -0.023  1.00  0.00     0.186 C 
BRANCH  16  17
ATOM     17  C   UNL     1       1.656  -1.976   1.260  1.00  0.00     0.284 C 
BRANCH  17  18
ATOM     18  N   UNL     1       0.200  -2.060   1.332  1.00  0.00    -0.336 N 
ATOM     19  C   UNL     1      -0.267  -3.436   1.158  1.00  0.00     0.332 C 
ATOM     20  H   UNL     1      -0.034  -1.746   2.274  1.00  0.00     0.347 HD
BRANCH  18  21
ATOM     21  C   UNL     1      -0.510  -1.148   0.426  1.00  0.00     0.258 C 
ATOM     22  C   UNL     1      -0.132   0.324   0.580  1.00  0.00     0.071 C 
ENDBRANCH  18  21
ENDBRANCH  17  18
ENDBRANCH  16  17
ENDBRANCH   8  16
ENDBRANCH   6   7
ENDBRANCH   5   6
ENDBRANCH   3   5
ENDBRANCH   2   3
ENDBRANCH   1   2
BRANCH   1  23
ATOM     23  C   UNL     1       6.319  -5.336  -1.185  1.00  0.00     0.202 C 
BRANCH  23  24
ATOM     24  O   UNL     1       6.316  -4.169  -0.387  1.00  0.00    -0.374 OA
BRANCH  24  25
ATOM     25  C   UNL     1       5.351  -3.208  -0.754  1.00  0.00     0.202 C 
BRANCH  25  26
ATOM     26  C   UNL     1       5.445  -2.412  -2.075  1.00  0.00     0.261 C 
BRANCH  26  27
ATOM     27  O   UNL     1       5.795  -3.189  -3.211  1.00  0.00    -0.460 OA
BRANCH  27  28
ATOM     28  C   UNL     1       6.871  -2.733  -3.901  1.00  0.00     0.338 C 
ATOM     29  O   UNL     1       7.270  -1.580  -3.994  1.00  0.00    -0.246 OA
BRANCH  28  30
ATOM     30  C   UNL     1       7.706  -3.933  -4.049  1.00  0.00     0.060 A 
ATOM     31  C   UNL     1       7.139  -5.114  -4.545  1.00  0.00     0.016 A 
ATOM     32  C   UNL     1       8.835  -3.950  -3.213  1.00  0.00     0.016 A 
ATOM     33  C   UNL     1       7.618  -6.322  -4.052  1.00  0.00     0.010 A 
ATOM     34  C   UNL     1       9.300  -5.159  -2.716  1.00  0.00     0.010 A 
ATOM     35  C   UNL     1       8.651  -6.341  -3.080  1.00  0.00    -0.014 A 
BRANCH  35  36
ATOM     36  C   UNL     1       9.234  -7.641  -2.732  1.00  0.00     0.031 A 
ATOM     37  C   UNL     1       9.859  -8.177  -3.971  1.00  0.00     0.074 A 
ATOM     38  C   UNL     1       9.343  -8.261  -1.532  1.00  0.00     0.049 A 
ATOM     39  N   UNL     1       9.450  -9.178  -4.676  1.00  0.00    -0.248 NA
ATOM     40  C   UNL     1      10.852  -7.320  -4.653  1.00  0.00     0.031 C 
ATOM     41  C   UNL     1       9.000  -7.789  -0.189  1.00  0.00     0.029 A 
ATOM     42  N   UNL     1       9.873  -9.499  -1.260  1.00  0.00    -0.354 N 
ATOM     43  C   UNL     1      10.272  -9.186  -5.797  1.00  0.00     0.074 A 
ATOM     44  C   UNL     1      10.931  -7.912  -5.843  1.00  0.00     0.031 C 
ATOM     45  C   UNL     1       9.520  -8.614   0.748  1.00  0.00     0.029 A 
ATOM     46  C   UNL     1      10.145  -9.737   0.089  1.00  0.00     0.049 A 
ATOM     47  H   UNL     1      10.048 -10.166  -1.962  1.00  0.00     0.167 HD
ATOM     48  C   UNL     1      10.583 -10.355  -6.409  1.00  0.00     0.037 A 
ATOM     49  C   UNL     1      10.864 -10.760   0.624  1.00  0.00     0.037 A 
ATOM     50  C   UNL     1       9.612 -11.371  -6.094  1.00  0.00     0.049 A 
ATOM     51  C   UNL     1      10.900 -11.831  -0.394  1.00  0.00     0.074 A 
ATOM     52  C   UNL     1       8.265 -11.547  -6.333  1.00  0.00     0.029 A 
ATOM     53  N   UNL     1       9.935 -12.222  -5.071  1.00  0.00    -0.354 N 
ATOM     54  N   UNL     1       9.859 -12.528  -0.747  1.00  0.00    -0.248 NA
ATOM     55  C   UNL     1      12.007 -11.820  -1.333  1.00  0.00     0.031 C 
ATOM     56  C   UNL     1       7.757 -12.202  -5.172  1.00  0.00     0.029 A 
ATOM     57  C   UNL     1       8.823 -12.454  -4.309  1.00  0.00     0.049 A 
ATOM     58  H   UNL     1      10.827 -12.606  -4.909  1.00  0.00     0.167 HD
ATOM     59  C   UNL     1       9.990 -12.664  -2.118  1.00  0.00     0.074 A 
ATOM     60  C   UNL     1      11.374 -12.293  -2.408  1.00  0.00     0.031 C 
ATOM     61  C   UNL     1       8.882 -12.781  -2.904  1.00  0.00     0.037 A 
BRANCH  48  62
ATOM     62  C   UNL     1      11.987 -10.674  -6.872  1.00  0.00     0.064 A 
ATOM     63  C   UNL     1      12.216 -11.878  -7.561  1.00  0.00     0.173 A 
ATOM     64  C   UNL     1      13.150 -10.006  -6.419  1.00  0.00     0.173 A 
ATOM     65  F   UNL     1      11.187 -12.621  -7.996  1.00  0.00    -0.203 F 
ATOM     66  C   UNL     1      13.503 -12.396  -7.733  1.00  0.00     0.198 A 
ATOM     67  C   UNL     1      14.434 -10.494  -6.644  1.00  0.00     0.198 A 
ATOM     68  F   UNL     1      13.107  -8.921  -5.638  1.00  0.00    -0.203 F 
ATOM     69  F   UNL     1      13.662 -13.606  -8.284  1.00  0.00    -0.200 F 
ATOM     70  C   UNL     1      14.610 -11.703  -7.276  1.00  0.00     0.200 A 
ATOM     71  F   UNL     1      15.487  -9.819  -6.162  1.00  0.00    -0.200 F 
ATOM     72  F   UNL     1      15.838 -12.223  -7.393  1.00  0.00    -0.200 F 
ENDBRANCH  48  62
BRANCH  49  73
ATOM     73  C   UNL     1      11.815 -10.763   1.772  1.00  0.00     0.064 A 
ATOM     74  C   UNL     1      12.352 -11.973   2.256  1.00  0.00     0.173 A 
ATOM     75  C   UNL     1      12.464  -9.588   2.193  1.00  0.00     0.173 A 
ATOM     76  F   UNL     1      11.819 -13.146   1.883  1.00  0.00    -0.203 F 
ATOM     77  C   UNL     1      13.500 -12.006   3.057  1.00  0.00     0.198 A 
ATOM     78  C   UNL     1      13.607  -9.622   2.998  1.00  0.00     0.198 A 
ATOM     79  F   UNL     1      12.068  -8.387   1.751  1.00  0.00    -0.203 F 
ATOM     80  F   UNL     1      14.028 -13.182   3.425  1.00  0.00    -0.200 F 
ATOM     81  C   UNL     1      14.137 -10.830   3.412  1.00  0.00     0.200 A 
ATOM     82  F   UNL     1      14.234  -8.478   3.308  1.00  0.00    -0.200 F 
ATOM     83  F   UNL     1      15.281 -10.861   4.111  1.00  0.00    -0.200 F 
ENDBRANCH  49  73
BRANCH  61  84
ATOM     84  C   UNL     1       7.576 -13.094  -2.228  1.00  0.00     0.064 A 
ATOM     85  C   UNL     1       6.909 -12.233  -1.338  1.00  0.00     0.173 A 
ATOM     86  C   UNL     1       6.906 -14.260  -2.622  1.00  0.00     0.173 A 
ATOM     87  F   UNL     1       7.447 -11.060  -0.975  1.00  0.00    -0.203 F 
ATOM     88  C   UNL     1       5.636 -12.544  -0.855  1.00  0.00     0.198 A 
ATOM     89  C   UNL     1       5.623 -14.548  -2.170  1.00  0.00     0.198 A 
ATOM     90  F   UNL     1       7.481 -15.097  -3.501  1.00  0.00    -0.203 F 
ATOM     91  F   UNL     1       5.015 -11.709  -0.009  1.00  0.00    -0.200 F 
ATOM     92  C   UNL     1       4.990 -13.694  -1.282  1.00  0.00     0.200 A 
ATOM     93  F   UNL     1       4.986 -15.635  -2.625  1.00  0.00    -0.200 F 
ATOM     94  F   UNL     1       3.746 -13.963  -0.863  1.00  0.00    -0.200 F 
ENDBRANCH  61  84
ENDBRANCH  35  36
ENDBRANCH  28  30
ENDBRANCH  27  28
ENDBRANCH  26  27
ENDBRANCH  25  26
ENDBRANCH  24  25
ENDBRANCH  23  24
ENDBRANCH   1  23
TORSDOF 20
