REMARK SMILES O=C(OCCOCCOC(=O)[C@@H]1C[NH2+]CCN1C(=O)N[C@@H]1CCOC1)c1ccc(-c2c3nc(c(-c4c(F)c(F)c(F)c(F)c4F)c4ccc([nH]4)c(-c4c(F)c(F)c(F)c(F)c4F)c4nc(c(-c5c(F)c(F)c(F)c(F)c5F)c5ccc2[nH]5)C=C4)C=C3)cc1
REMARK SMILES IDX 6 1 5 2 4 3 3 4 2 5 1 6 26 7 27 8 88 9 28 10 87 11 29 12
REMARK SMILES IDX 30 13 31 14 81 15 32 16 86 17 80 18 82 19 33 20 85 21 79 22
REMARK SMILES IDX 78 23 34 25 66 26 46 27 65 28 47 29 50 30 64 31 83 32 48 33
REMARK SMILES IDX 49 34 63 36 84 37 51 38 35 39 36 40 44 41 37 42 38 43 42 44
REMARK SMILES IDX 45 45 39 46 40 47 43 48 41 49 67 50 68 51 76 52 69 53 70 54
REMARK SMILES IDX 74 55 77 56 71 57 72 58 75 59 73 60 52 61 53 62 61 63 54 64
REMARK SMILES IDX 55 65 59 66 62 67 56 68 57 69 60 70 58 71 7 72 8 73 9 74
REMARK SMILES IDX 10 75 11 76 12 77 13 78 17 79 14 80 16 81 15 82 18 85 19 86
REMARK SMILES IDX 20 87 21 89 22 90 25 91 23 92 24 93
REMARK H PARENT 82 24 50 35 14 83 14 84 20 88
REMARK Flexibility Score: inf
ROOT
ATOM      1  O   UNL     1       3.366  -0.423   0.103  1.00  0.00    -0.374 OA
ENDROOT
BRANCH   1   2
ATOM      2  C   UNL     1       4.194  -0.611   1.252  1.00  0.00     0.202 C 
BRANCH   2   3
ATOM      3  C   UNL     1       4.315   0.642   2.110  1.00  0.00     0.261 C 
BRANCH   3   4
ATOM      4  O   UNL     1       3.103   1.397   2.192  1.00  0.00    -0.460 OA
BRANCH   4   5
ATOM      5  C   UNL     1       2.428   1.980   1.173  1.00  0.00     0.338 C 
ATOM      6  O   UNL     1       1.223   2.180   1.331  1.00  0.00    -0.246 OA
BRANCH   5   7
ATOM      7  C   UNL     1       3.050   2.459  -0.113  1.00  0.00     0.060 A 
ATOM      8  C   UNL     1       4.266   2.046  -0.681  1.00  0.00     0.016 A 
ATOM      9  C   UNL     1       2.284   3.395  -0.832  1.00  0.00     0.016 A 
ATOM     10  C   UNL     1       4.711   2.538  -1.906  1.00  0.00     0.010 A 
ATOM     11  C   UNL     1       2.745   3.942  -2.028  1.00  0.00     0.010 A 
ATOM     12  C   UNL     1       3.984   3.541  -2.537  1.00  0.00    -0.014 A 
BRANCH  12  13
ATOM     13  C   UNL     1       4.687   4.423  -3.480  1.00  0.00     0.031 A 
ATOM     14  C   UNL     1       5.384   5.606  -2.878  1.00  0.00     0.074 A 
ATOM     15  C   UNL     1       4.712   4.167  -4.795  1.00  0.00     0.049 A 
ATOM     16  N   UNL     1       5.934   6.637  -3.456  1.00  0.00    -0.248 NA
ATOM     17  C   UNL     1       5.467   5.626  -1.406  1.00  0.00     0.031 C 
ATOM     18  C   UNL     1       4.159   2.977  -5.435  1.00  0.00     0.029 A 
ATOM     19  N   UNL     1       5.213   4.913  -5.827  1.00  0.00    -0.354 N 
ATOM     20  C   UNL     1       6.396   7.437  -2.418  1.00  0.00     0.074 A 
ATOM     21  C   UNL     1       6.067   6.779  -1.178  1.00  0.00     0.031 C 
ATOM     22  C   UNL     1       4.320   3.089  -6.765  1.00  0.00     0.029 A 
ATOM     23  C   UNL     1       4.928   4.385  -7.060  1.00  0.00     0.049 A 
ATOM     24  H   UNL     1       5.726   5.743  -5.697  1.00  0.00     0.167 HD
ATOM     25  C   UNL     1       7.020   8.632  -2.504  1.00  0.00     0.037 A 
ATOM     26  C   UNL     1       5.093   4.934  -8.279  1.00  0.00     0.037 A 
ATOM     27  C   UNL     1       7.288   9.272  -3.760  1.00  0.00     0.049 A 
ATOM     28  C   UNL     1       5.699   6.313  -8.360  1.00  0.00     0.074 A 
ATOM     29  C   UNL     1       7.867  10.500  -4.003  1.00  0.00     0.029 A 
ATOM     30  N   UNL     1       6.964   8.721  -4.996  1.00  0.00    -0.354 N 
ATOM     31  N   UNL     1       6.102   7.096  -7.385  1.00  0.00    -0.248 NA
ATOM     32  C   UNL     1       5.864   6.891  -9.698  1.00  0.00     0.031 C 
ATOM     33  C   UNL     1       7.834  10.720  -5.384  1.00  0.00     0.029 A 
ATOM     34  C   UNL     1       7.309   9.595  -6.007  1.00  0.00     0.049 A 
ATOM     35  H   UNL     1       6.550   7.838  -5.129  1.00  0.00     0.167 HD
ATOM     36  C   UNL     1       6.599   8.243  -7.988  1.00  0.00     0.074 A 
ATOM     37  C   UNL     1       6.439   8.054  -9.418  1.00  0.00     0.031 C 
ATOM     38  C   UNL     1       7.144   9.348  -7.420  1.00  0.00     0.037 A 
BRANCH  25  39
ATOM     39  C   UNL     1       7.335   9.329  -1.212  1.00  0.00     0.064 A 
ATOM     40  C   UNL     1       8.274   8.823  -0.298  1.00  0.00     0.173 A 
ATOM     41  C   UNL     1       6.620  10.479  -0.843  1.00  0.00     0.173 A 
ATOM     42  F   UNL     1       8.962   7.706  -0.583  1.00  0.00    -0.203 F 
ATOM     43  C   UNL     1       8.445   9.410   0.955  1.00  0.00     0.198 A 
ATOM     44  C   UNL     1       6.821  11.085   0.395  1.00  0.00     0.198 A 
ATOM     45  F   UNL     1       5.703  11.000  -1.671  1.00  0.00    -0.203 F 
ATOM     46  F   UNL     1       9.278   8.854   1.845  1.00  0.00    -0.200 F 
ATOM     47  C   UNL     1       7.720  10.540   1.299  1.00  0.00     0.200 A 
ATOM     48  F   UNL     1       6.123  12.180   0.723  1.00  0.00    -0.200 F 
ATOM     49  F   UNL     1       7.872  11.093   2.510  1.00  0.00    -0.200 F 
ENDBRANCH  25  39
BRANCH  26  50
ATOM     50  C   UNL     1       4.636   4.195  -9.485  1.00  0.00     0.064 A 
ATOM     51  C   UNL     1       5.548   3.684 -10.417  1.00  0.00     0.173 A 
ATOM     52  C   UNL     1       3.272   3.942  -9.706  1.00  0.00     0.173 A 
ATOM     53  F   UNL     1       6.860   3.915 -10.266  1.00  0.00    -0.203 F 
ATOM     54  C   UNL     1       5.115   2.948 -11.521  1.00  0.00     0.198 A 
ATOM     55  C   UNL     1       2.843   3.183 -10.793  1.00  0.00     0.198 A 
ATOM     56  F   UNL     1       2.355   4.409  -8.846  1.00  0.00    -0.203 F 
ATOM     57  F   UNL     1       6.008   2.491 -12.410  1.00  0.00    -0.200 F 
ATOM     58  C   UNL     1       3.765   2.688 -11.701  1.00  0.00     0.200 A 
ATOM     59  F   UNL     1       1.538   2.923 -10.953  1.00  0.00    -0.200 F 
ATOM     60  F   UNL     1       3.352   1.965 -12.751  1.00  0.00    -0.200 F 
ENDBRANCH  26  50
BRANCH  38  61
ATOM     61  C   UNL     1       7.670  10.410  -8.339  1.00  0.00     0.064 A 
ATOM     62  C   UNL     1       6.816  11.280  -9.030  1.00  0.00     0.173 A 
ATOM     63  C   UNL     1       9.053  10.629  -8.427  1.00  0.00     0.173 A 
ATOM     64  F   UNL     1       5.487  11.103  -8.981  1.00  0.00    -0.203 F 
ATOM     65  C   UNL     1       7.331  12.330  -9.784  1.00  0.00     0.198 A 
ATOM     66  C   UNL     1       9.562  11.698  -9.155  1.00  0.00     0.198 A 
ATOM     67  F   UNL     1       9.908   9.828  -7.771  1.00  0.00    -0.203 F 
ATOM     68  F   UNL     1       6.502  13.137 -10.458  1.00  0.00    -0.200 F 
ATOM     69  C   UNL     1       8.701  12.546  -9.834  1.00  0.00     0.200 A 
ATOM     70  F   UNL     1      10.884  11.918  -9.182  1.00  0.00    -0.200 F 
ATOM     71  F   UNL     1       9.193  13.576 -10.536  1.00  0.00    -0.200 F 
ENDBRANCH  38  61
ENDBRANCH  12  13
ENDBRANCH   5   7
ENDBRANCH   4   5
ENDBRANCH   3   4
ENDBRANCH   2   3
ENDBRANCH   1   2
BRANCH   1  72
ATOM     72  C   UNL     1       2.045  -0.939   0.217  1.00  0.00     0.202 C 
BRANCH  72  73
ATOM     73  C   UNL     1       1.919  -2.297  -0.448  1.00  0.00     0.261 C 
BRANCH  73  74
ATOM     74  O   UNL     1       2.832  -3.270   0.070  1.00  0.00    -0.462 OA
BRANCH  74  75
ATOM     75  C   UNL     1       4.152  -3.240  -0.287  1.00  0.00     0.334 C 
ATOM     76  O   UNL     1       4.798  -2.348  -0.802  1.00  0.00    -0.250 OA
BRANCH  75  77
ATOM     77  C   UNL     1       4.737  -4.575   0.017  1.00  0.00     0.252 C 
ATOM     78  C   UNL     1       6.233  -4.483   0.361  1.00  0.00     0.298 C 
ATOM     79  N   UNL     1       4.543  -5.616  -0.993  1.00  0.00    -0.300 N 
ATOM     80  N   UNL     1       6.691  -5.727   1.020  1.00  0.00    -0.343 N 
ATOM     81  C   UNL     1       4.883  -6.916  -0.405  1.00  0.00     0.183 C 
ATOM     82  C   UNL     1       6.312  -6.911   0.209  1.00  0.00     0.282 C 
ATOM     83  H   UNL     1       6.259  -5.798   1.941  1.00  0.00     0.346 HD
ATOM     84  H   UNL     1       7.707  -5.699   1.110  1.00  0.00     0.346 HD
BRANCH  79  85
ATOM     85  C   UNL     1       3.704  -5.550  -2.079  1.00  0.00     0.318 C 
ATOM     86  O   UNL     1       3.053  -6.529  -2.447  1.00  0.00    -0.249 OA
ATOM     87  N   UNL     1       3.528  -4.388  -2.782  1.00  0.00    -0.333 N 
ATOM     88  H   UNL     1       2.591  -4.115  -2.915  1.00  0.00     0.165 HD
BRANCH  87  89
ATOM     89  C   UNL     1       4.544  -3.478  -3.374  1.00  0.00     0.112 C 
ATOM     90  C   UNL     1       4.166  -1.995  -3.372  1.00  0.00     0.056 C 
ATOM     91  C   UNL     1       4.650  -3.676  -4.892  1.00  0.00     0.185 C 
ATOM     92  C   UNL     1       3.336  -1.780  -4.611  1.00  0.00     0.162 C 
ATOM     93  O   UNL     1       3.634  -2.854  -5.502  1.00  0.00    -0.379 OA
ENDBRANCH  87  89
ENDBRANCH  79  85
ENDBRANCH  75  77
ENDBRANCH  74  75
ENDBRANCH  73  74
ENDBRANCH  72  73
ENDBRANCH   1  72
TORSDOF 16
