REMARK SMILES O=C(Cn1c(=O)[nH]c2ccccc2c1=O)NC[C@H]1CC[C@@H](C(=O)N2CCC(C(=O)OCCOCCOC(=O)c3ccc(-c4c5nc(c(-c6c(F)c(F)c(F)c(F)c6F)c6ccc([nH]6)c(-c6c(F)c(F)c(F)c(F)c6F)c6nc(c(-c7c(F)c(F)c(F)c(F)c7F)c7ccc4[nH]7)C=C6)C=C5)cc3)CC2)CC1
REMARK SMILES IDX 31 1 30 2 28 3 29 4 27 5 22 6 23 7 24 8 25 9 103 10 26 11
REMARK SMILES IDX 102 12 21 13 18 14 19 15 105 16 20 17 104 18 17 19 16 20
REMARK SMILES IDX 1 21 2 22 3 24 4 25 5 26 14 27 6 28 7 29 13 30 15 31 8 32
REMARK SMILES IDX 12 34 9 35 11 36 10 37 32 38 33 39 34 40 35 41 36 42 37 43
REMARK SMILES IDX 38 44 39 45 40 46 101 47 41 48 100 49 42 50 43 51 44 52
REMARK SMILES IDX 94 53 45 54 99 55 93 56 95 57 46 58 98 59 92 60 91 61 47 63
REMARK SMILES IDX 79 64 59 65 78 66 60 67 63 68 77 69 96 70 61 71 62 72 76 74
REMARK SMILES IDX 97 75 64 76 48 77 49 78 57 79 50 80 51 81 55 82 58 83 52 84
REMARK SMILES IDX 53 85 56 86 54 87 80 88 81 89 89 90 82 91 83 92 87 93 90 94
REMARK SMILES IDX 84 95 85 96 88 97 86 98 65 99 66 100 74 101 67 102 68 103
REMARK SMILES IDX 72 104 75 105 69 106 70 107 73 108 71 109
REMARK H PARENT 16 23 7 33 95 62 63 73
REMARK Flexibility Score: inf
ROOT
ATOM      1  C   UNL     1       7.407   2.497   4.247  1.00  0.00     0.261 C 
ENDROOT
BRANCH   1   2
ATOM      2  O   UNL     1       6.621   2.963   3.143  1.00  0.00    -0.463 OA
BRANCH   2   3
ATOM      3  C   UNL     1       6.042   1.959   2.443  1.00  0.00     0.309 C 
ATOM      4  O   UNL     1       6.176   0.763   2.685  1.00  0.00    -0.252 OA
BRANCH   3   5
ATOM      5  C   UNL     1       5.194   2.442   1.304  1.00  0.00     0.103 C 
ATOM      6  C   UNL     1       3.813   4.388  -2.167  1.00  0.00     0.225 C 
ATOM      7  O   UNL     1       3.524   5.581  -2.007  1.00  0.00    -0.275 OA
ATOM      8  N   UNL     1       4.154   3.619  -1.075  1.00  0.00    -0.342 N 
ATOM      9  C   UNL     1       3.480   3.876   0.206  1.00  0.00     0.120 C 
ATOM     10  C   UNL     1       5.063   2.492  -1.131  1.00  0.00     0.120 C 
ATOM     11  C   UNL     1       4.398   3.738   1.430  1.00  0.00     0.037 C 
ATOM     12  C   UNL     1       6.025   2.485   0.038  1.00  0.00     0.037 C 
BRANCH   6  13
ATOM     13  C   UNL     1       3.522   3.748  -3.548  1.00  0.00     0.078 C 
ATOM     14  C   UNL     1       2.488   0.903  -3.633  1.00  0.00     0.008 C 
ATOM     15  C   UNL     1       1.737   2.050  -2.950  1.00  0.00     0.006 C 
ATOM     16  C   UNL     1       3.984   1.180  -3.846  1.00  0.00     0.006 C 
ATOM     17  C   UNL     1       2.032   3.393  -3.608  1.00  0.00     0.014 C 
ATOM     18  C   UNL     1       4.357   2.632  -4.186  1.00  0.00     0.014 C 
BRANCH  14  19
ATOM     19  C   UNL     1       2.233  -0.459  -2.941  1.00  0.00     0.119 C 
BRANCH  19  20
ATOM     20  N   UNL     1       2.762  -0.598  -1.588  1.00  0.00    -0.354 N 
ATOM     21  O   UNL     1       0.792  -0.124  -0.537  1.00  0.00    -0.273 OA
ATOM     22  C   UNL     1       1.955  -0.524  -0.471  1.00  0.00     0.240 C 
ATOM     23  H   UNL     1       3.727  -0.749  -1.468  1.00  0.00     0.163 HD
BRANCH  22  24
ATOM     24  C   UNL     1       2.633  -0.727   0.888  1.00  0.00     0.230 C 
BRANCH  24  25
ATOM     25  N   UNL     1       3.595  -1.817   0.995  1.00  0.00    -0.250 N 
ATOM     26  C   UNL     1       3.098  -3.065   1.318  1.00  0.00     0.329 A 
ATOM     27  C   UNL     1       4.939  -1.567   0.749  1.00  0.00     0.264 A 
ATOM     28  O   UNL     1       1.901  -3.314   1.449  1.00  0.00    -0.248 OA
ATOM     29  N   UNL     1       4.010  -4.067   1.490  1.00  0.00    -0.307 N 
ATOM     30  C   UNL     1       5.896  -2.612   1.171  1.00  0.00     0.064 A 
ATOM     31  O   UNL     1       5.333  -0.586   0.123  1.00  0.00    -0.268 OA
ATOM     32  C   UNL     1       5.388  -3.873   1.460  1.00  0.00     0.055 A 
ATOM     33  H   UNL     1       3.674  -4.979   1.644  1.00  0.00     0.171 HD
ATOM     34  C   UNL     1       7.271  -2.374   1.247  1.00  0.00     0.016 A 
ATOM     35  C   UNL     1       6.250  -4.934   1.740  1.00  0.00     0.027 A 
ATOM     36  C   UNL     1       8.136  -3.426   1.560  1.00  0.00     0.001 A 
ATOM     37  C   UNL     1       7.628  -4.709   1.780  1.00  0.00     0.002 A 
ENDBRANCH  24  25
ENDBRANCH  22  24
ENDBRANCH  19  20
ENDBRANCH  14  19
ENDBRANCH   6  13
ENDBRANCH   3   5
ENDBRANCH   2   3
ENDBRANCH   1   2
BRANCH   1  38
ATOM     38  C   UNL     1       6.669   2.597   5.584  1.00  0.00     0.202 C 
BRANCH  38  39
ATOM     39  O   UNL     1       5.454   1.875   5.739  1.00  0.00    -0.374 OA
BRANCH  39  40
ATOM     40  C   UNL     1       4.263   2.344   5.108  1.00  0.00     0.202 C 
BRANCH  40  41
ATOM     41  C   UNL     1       3.757   3.756   5.436  1.00  0.00     0.261 C 
BRANCH  41  42
ATOM     42  O   UNL     1       4.609   4.781   4.890  1.00  0.00    -0.460 OA
BRANCH  42  43
ATOM     43  C   UNL     1       5.171   5.608   5.803  1.00  0.00     0.338 C 
ATOM     44  O   UNL     1       4.998   5.607   7.013  1.00  0.00    -0.246 OA
BRANCH  43  45
ATOM     45  C   UNL     1       6.233   6.398   5.159  1.00  0.00     0.060 A 
ATOM     46  C   UNL     1       5.943   7.303   4.138  1.00  0.00     0.016 A 
ATOM     47  C   UNL     1       7.539   6.267   5.650  1.00  0.00     0.016 A 
ATOM     48  C   UNL     1       6.969   8.103   3.627  1.00  0.00     0.010 A 
ATOM     49  C   UNL     1       8.560   7.060   5.134  1.00  0.00     0.010 A 
ATOM     50  C   UNL     1       8.278   8.000   4.135  1.00  0.00    -0.014 A 
BRANCH  50  51
ATOM     51  C   UNL     1       9.323   8.966   3.722  1.00  0.00     0.031 A 
ATOM     52  C   UNL     1      10.450   8.565   2.822  1.00  0.00     0.074 A 
ATOM     53  C   UNL     1       9.275  10.213   4.227  1.00  0.00     0.049 A 
ATOM     54  N   UNL     1      11.421   9.299   2.342  1.00  0.00    -0.248 NA
ATOM     55  C   UNL     1      10.504   7.153   2.421  1.00  0.00     0.031 C 
ATOM     56  C   UNL     1       8.262  10.695   5.165  1.00  0.00     0.029 A 
ATOM     57  N   UNL     1      10.093  11.296   4.029  1.00  0.00    -0.354 N 
ATOM     58  C   UNL     1      12.196   8.446   1.571  1.00  0.00     0.074 A 
ATOM     59  C   UNL     1      11.611   7.125   1.690  1.00  0.00     0.031 C 
ATOM     60  C   UNL     1       8.503  11.984   5.443  1.00  0.00     0.029 A 
ATOM     61  C   UNL     1       9.701  12.411   4.726  1.00  0.00     0.049 A 
ATOM     62  H   UNL     1      10.884  11.275   3.443  1.00  0.00     0.167 HD
ATOM     63  C   UNL     1      13.284   8.747   0.820  1.00  0.00     0.037 A 
ATOM     64  C   UNL     1      10.244  13.642   4.782  1.00  0.00     0.037 A 
ATOM     65  C   UNL     1      13.862  10.064   0.719  1.00  0.00     0.049 A 
ATOM     66  C   UNL     1      11.461  13.948   3.955  1.00  0.00     0.074 A 
ATOM     67  C   UNL     1      14.917  10.483  -0.073  1.00  0.00     0.029 A 
ATOM     68  N   UNL     1      13.451  11.171   1.450  1.00  0.00    -0.354 N 
ATOM     69  N   UNL     1      12.125  13.162   3.143  1.00  0.00    -0.248 NA
ATOM     70  C   UNL     1      11.999  15.312   4.045  1.00  0.00     0.031 C 
ATOM     71  C   UNL     1      15.189  11.821   0.230  1.00  0.00     0.029 A 
ATOM     72  C   UNL     1      14.262  12.259   1.162  1.00  0.00     0.049 A 
ATOM     73  H   UNL     1      12.695  11.182   2.080  1.00  0.00     0.167 HD
ATOM     74  C   UNL     1      13.153  13.934   2.619  1.00  0.00     0.074 A 
ATOM     75  C   UNL     1      13.008  15.259   3.186  1.00  0.00     0.031 C 
ATOM     76  C   UNL     1      14.128  13.571   1.749  1.00  0.00     0.037 A 
BRANCH  63  77
ATOM     77  C   UNL     1      13.929   7.631   0.048  1.00  0.00     0.064 A 
ATOM     78  C   UNL     1      13.290   7.026  -1.046  1.00  0.00     0.173 A 
ATOM     79  C   UNL     1      15.225   7.198   0.368  1.00  0.00     0.173 A 
ATOM     80  F   UNL     1      12.049   7.398  -1.393  1.00  0.00    -0.203 F 
ATOM     81  C   UNL     1      13.911   6.011  -1.769  1.00  0.00     0.198 A 
ATOM     82  C   UNL     1      15.856   6.205  -0.378  1.00  0.00     0.198 A 
ATOM     83  F   UNL     1      15.887   7.746   1.398  1.00  0.00    -0.203 F 
ATOM     84  F   UNL     1      13.260   5.415  -2.778  1.00  0.00    -0.200 F 
ATOM     85  C   UNL     1      15.195   5.606  -1.440  1.00  0.00     0.200 A 
ATOM     86  F   UNL     1      17.104   5.826  -0.068  1.00  0.00    -0.200 F 
ATOM     87  F   UNL     1      15.795   4.635  -2.142  1.00  0.00    -0.200 F 
ENDBRANCH  63  77
BRANCH  64  88
ATOM     88  C   UNL     1       9.598  14.674   5.630  1.00  0.00     0.064 A 
ATOM     89  C   UNL     1       8.886  15.735   5.056  1.00  0.00     0.173 A 
ATOM     90  C   UNL     1       9.614  14.578   7.030  1.00  0.00     0.173 A 
ATOM     91  F   UNL     1       8.857  15.878   3.723  1.00  0.00    -0.203 F 
ATOM     92  C   UNL     1       8.208  16.658   5.850  1.00  0.00     0.198 A 
ATOM     93  C   UNL     1       8.914  15.485   7.821  1.00  0.00     0.198 A 
ATOM     94  F   UNL     1      10.277  13.576   7.626  1.00  0.00    -0.203 F 
ATOM     95  F   UNL     1       7.548  17.674   5.277  1.00  0.00    -0.200 F 
ATOM     96  C   UNL     1       8.212  16.525   7.231  1.00  0.00     0.200 A 
ATOM     97  F   UNL     1       8.905  15.342   9.154  1.00  0.00    -0.200 F 
ATOM     98  F   UNL     1       7.538  17.398   7.992  1.00  0.00    -0.200 F 
ENDBRANCH  64  88
BRANCH  76  99
ATOM     99  C   UNL     1      15.136  14.617   1.362  1.00  0.00     0.064 A 
ATOM    100  C   UNL     1      16.099  15.079   2.272  1.00  0.00     0.173 A 
ATOM    101  C   UNL     1      15.184  15.116   0.051  1.00  0.00     0.173 A 
ATOM    102  F   UNL     1      16.090  14.645   3.542  1.00  0.00    -0.203 F 
ATOM    103  C   UNL     1      17.060  16.012   1.890  1.00  0.00     0.198 A 
ATOM    104  C   UNL     1      16.167  16.023  -0.338  1.00  0.00     0.198 A 
ATOM    105  F   UNL     1      14.293  14.704  -0.863  1.00  0.00    -0.203 F 
ATOM    106  F   UNL     1      17.944  16.467   2.788  1.00  0.00    -0.200 F 
ATOM    107  C   UNL     1      17.100  16.474   0.583  1.00  0.00     0.200 A 
ATOM    108  F   UNL     1      16.216  16.455  -1.605  1.00  0.00    -0.200 F 
ATOM    109  F   UNL     1      18.037  17.358   0.212  1.00  0.00    -0.200 F 
ENDBRANCH  76  99
ENDBRANCH  50  51
ENDBRANCH  43  45
ENDBRANCH  42  43
ENDBRANCH  41  42
ENDBRANCH  40  41
ENDBRANCH  39  40
ENDBRANCH  38  39
ENDBRANCH   1  38
TORSDOF 19
