REMARK SMILES COc1ccccc1-n1nnc(C(=O)OCCOCCOC(=O)c2ccc(-c3c4nc(c(-c5c(F)c(F)c(F)c(F)c5F)c5ccc([nH]5)c(-c5c(F)c(F)c(F)c(F)c5F)c5nc(c(-c6c(F)c(F)c(F)c(F)c6F)c6ccc3[nH]6)C=C5)C=C4)cc2)c1-c1ccc(Cl)cc1
REMARK SMILES IDX 18 1 17 2 16 3 15 4 13 5 14 6 12 7 9 8 10 9 87 10 11 11 8 12
REMARK SMILES IDX 3 13 4 14 5 15 7 16 6 17 2 18 1 19 88 20 89 21 94 22 90 23
REMARK SMILES IDX 93 24 91 25 92 26 19 27 20 28 21 29 22 30 23 31 24 32 25 33
REMARK SMILES IDX 86 34 26 35 85 36 27 37 28 38 29 39 79 40 30 41 84 42 78 43
REMARK SMILES IDX 80 44 31 45 83 46 77 47 76 48 32 50 64 51 44 52 63 53 45 54
REMARK SMILES IDX 48 55 62 56 81 57 46 58 47 59 61 61 82 62 49 63 33 64 34 65
REMARK SMILES IDX 42 66 35 67 36 68 40 69 43 70 37 71 38 72 41 73 39 74 65 75
REMARK SMILES IDX 66 76 74 77 67 78 68 79 72 80 75 81 69 82 70 83 73 84 71 85
REMARK SMILES IDX 50 86 51 87 59 88 52 89 53 90 57 91 60 92 54 93 55 94 58 95
REMARK SMILES IDX 56 96
REMARK H PARENT 80 49 48 60
REMARK Flexibility Score: inf
ROOT
ATOM      1  O   UNL     1       7.291  -2.454   2.826  1.00  0.00    -0.374 OA
ENDROOT
BRANCH   1   2
ATOM      2  C   UNL     1       6.245  -3.401   3.040  1.00  0.00     0.202 C 
BRANCH   2   3
ATOM      3  C   UNL     1       4.823  -2.867   3.182  1.00  0.00     0.261 C 
BRANCH   3   4
ATOM      4  O   UNL     1       4.359  -2.334   1.939  1.00  0.00    -0.458 OA
BRANCH   4   5
ATOM      5  C   UNL     1       4.180  -0.987   1.861  1.00  0.00     0.361 C 
ATOM      6  O   UNL     1       4.314  -0.209   2.802  1.00  0.00    -0.244 OA
BRANCH   5   7
ATOM      7  C   UNL     1       3.895  -0.561   0.504  1.00  0.00     0.198 A 
ATOM      8  N   UNL     1       3.089  -0.309  -1.487  1.00  0.00    -0.208 N 
ATOM      9  N   UNL     1       3.953   0.709  -1.276  1.00  0.00    -0.061 NA
ATOM     10  C   UNL     1       3.213  -1.258  -0.485  1.00  0.00     0.109 A 
ATOM     11  N   UNL     1       4.348   0.630  -0.012  1.00  0.00    -0.122 NA
BRANCH   8  12
ATOM     12  C   UNL     1       2.119  -0.239  -2.501  1.00  0.00     0.109 A 
ATOM     13  C   UNL     1       0.778  -0.538  -2.224  1.00  0.00     0.144 A 
ATOM     14  C   UNL     1      -0.123  -0.660  -3.280  1.00  0.00     0.049 A 
ATOM     15  C   UNL     1       0.299  -0.433  -4.592  1.00  0.00     0.004 A 
ATOM     16  C   UNL     1       2.533   0.061  -3.806  1.00  0.00     0.032 A 
ATOM     17  C   UNL     1       1.618  -0.059  -4.853  1.00  0.00     0.003 A 
BRANCH  13  18
ATOM     18  O   UNL     1       0.273  -0.780  -0.973  1.00  0.00    -0.494 OA
ATOM     19  C   UNL     1       0.305   0.358  -0.106  1.00  0.00     0.278 C 
ENDBRANCH  13  18
ENDBRANCH   8  12
BRANCH  10  20
ATOM     20  C   UNL     1       2.667  -2.614  -0.530  1.00  0.00     0.003 A 
ATOM     21  C   UNL     1       1.924  -3.120   0.545  1.00  0.00     0.012 A 
ATOM     22  C   UNL     1       2.943  -3.454  -1.617  1.00  0.00     0.012 A 
ATOM     23  C   UNL     1       1.538  -4.460   0.575  1.00  0.00     0.021 A 
ATOM     24  C   UNL     1       2.542  -4.793  -1.596  1.00  0.00     0.021 A 
ATOM     25  C   UNL     1       1.865  -5.295  -0.489  1.00  0.00     0.041 A 
ATOM     26  Cl  UNL     1       1.450  -6.963  -0.427  1.00  0.00    -0.084 Cl
ENDBRANCH  10  20
ENDBRANCH   5   7
ENDBRANCH   4   5
ENDBRANCH   3   4
ENDBRANCH   2   3
ENDBRANCH   1   2
BRANCH   1  27
ATOM     27  C   UNL     1       7.354  -1.701   1.620  1.00  0.00     0.202 C 
BRANCH  27  28
ATOM     28  C   UNL     1       7.698  -2.423   0.327  1.00  0.00     0.261 C 
BRANCH  28  29
ATOM     29  O   UNL     1       6.830  -3.512   0.056  1.00  0.00    -0.460 OA
BRANCH  29  30
ATOM     30  C   UNL     1       7.369  -4.716   0.357  1.00  0.00     0.338 C 
ATOM     31  O   UNL     1       8.299  -4.946   1.111  1.00  0.00    -0.246 OA
BRANCH  30  32
ATOM     32  C   UNL     1       6.796  -5.717  -0.543  1.00  0.00     0.060 A 
ATOM     33  C   UNL     1       7.287  -7.016  -0.416  1.00  0.00     0.016 A 
ATOM     34  C   UNL     1       6.113  -5.286  -1.689  1.00  0.00     0.016 A 
ATOM     35  C   UNL     1       7.353  -7.784  -1.555  1.00  0.00     0.010 A 
ATOM     36  C   UNL     1       6.146  -6.068  -2.812  1.00  0.00     0.010 A 
ATOM     37  C   UNL     1       6.884  -7.242  -2.760  1.00  0.00    -0.014 A 
BRANCH  37  38
ATOM     38  C   UNL     1       7.028  -8.011  -3.973  1.00  0.00     0.031 A 
ATOM     39  C   UNL     1       6.146  -9.194  -3.936  1.00  0.00     0.074 A 
ATOM     40  C   UNL     1       7.805  -7.633  -5.008  1.00  0.00     0.049 A 
ATOM     41  N   UNL     1       6.522 -10.415  -3.773  1.00  0.00    -0.248 NA
ATOM     42  C   UNL     1       4.695  -8.984  -3.790  1.00  0.00     0.031 C 
ATOM     43  C   UNL     1       8.561  -6.394  -5.208  1.00  0.00     0.029 A 
ATOM     44  N   UNL     1       8.022  -8.307  -6.174  1.00  0.00    -0.354 N 
ATOM     45  C   UNL     1       5.352 -11.158  -3.738  1.00  0.00     0.074 A 
ATOM     46  C   UNL     1       4.280 -10.224  -3.523  1.00  0.00     0.031 C 
ATOM     47  C   UNL     1       8.942  -6.302  -6.506  1.00  0.00     0.029 A 
ATOM     48  C   UNL     1       8.581  -7.527  -7.192  1.00  0.00     0.049 A 
ATOM     49  H   UNL     1       7.805  -9.260  -6.288  1.00  0.00     0.167 HD
ATOM     50  C   UNL     1       5.350 -12.435  -4.201  1.00  0.00     0.037 A 
ATOM     51  C   UNL     1       8.641  -7.896  -8.502  1.00  0.00     0.037 A 
ATOM     52  C   UNL     1       6.690 -12.970  -4.232  1.00  0.00     0.049 A 
ATOM     53  C   UNL     1       8.547  -9.387  -8.525  1.00  0.00     0.074 A 
ATOM     54  C   UNL     1       7.660 -13.167  -3.266  1.00  0.00     0.029 A 
ATOM     55  N   UNL     1       7.357 -12.956  -5.434  1.00  0.00    -0.354 N 
ATOM     56  N   UNL     1       9.482 -10.158  -8.036  1.00  0.00    -0.248 NA
ATOM     57  C   UNL     1       7.206  -9.962  -8.557  1.00  0.00     0.031 C 
ATOM     58  C   UNL     1       8.878 -12.749  -3.877  1.00  0.00     0.029 A 
ATOM     59  C   UNL     1       8.610 -12.438  -5.210  1.00  0.00     0.049 A 
ATOM     60  H   UNL     1       7.002 -13.262  -6.300  1.00  0.00     0.167 HD
ATOM     61  C   UNL     1       8.795 -11.112  -7.299  1.00  0.00     0.074 A 
ATOM     62  C   UNL     1       7.389 -10.951  -7.676  1.00  0.00     0.031 C 
ATOM     63  C   UNL     1       9.358 -11.725  -6.217  1.00  0.00     0.037 A 
BRANCH  50  64
ATOM     64  C   UNL     1       4.218 -13.008  -5.008  1.00  0.00     0.064 A 
ATOM     65  C   UNL     1       4.242 -14.376  -5.333  1.00  0.00     0.173 A 
ATOM     66  C   UNL     1       3.280 -12.226  -5.720  1.00  0.00     0.173 A 
ATOM     67  F   UNL     1       5.117 -15.202  -4.741  1.00  0.00    -0.203 F 
ATOM     68  C   UNL     1       3.433 -14.904  -6.342  1.00  0.00     0.198 A 
ATOM     69  C   UNL     1       2.437 -12.767  -6.685  1.00  0.00     0.198 A 
ATOM     70  F   UNL     1       3.216 -10.895  -5.606  1.00  0.00    -0.203 F 
ATOM     71  F   UNL     1       3.578 -16.185  -6.705  1.00  0.00    -0.200 F 
ATOM     72  C   UNL     1       2.534 -14.099  -7.019  1.00  0.00     0.200 A 
ATOM     73  F   UNL     1       1.593 -11.961  -7.346  1.00  0.00    -0.200 F 
ATOM     74  F   UNL     1       1.801 -14.591  -8.025  1.00  0.00    -0.200 F 
ENDBRANCH  50  64
BRANCH  51  75
ATOM     75  C   UNL     1       8.372  -7.062  -9.707  1.00  0.00     0.064 A 
ATOM     76  C   UNL     1       8.637  -7.533 -11.008  1.00  0.00     0.173 A 
ATOM     77  C   UNL     1       7.581  -5.899  -9.625  1.00  0.00     0.173 A 
ATOM     78  F   UNL     1       9.340  -8.661 -11.187  1.00  0.00    -0.203 F 
ATOM     79  C   UNL     1       8.124  -6.893 -12.146  1.00  0.00     0.198 A 
ATOM     80  C   UNL     1       7.070  -5.263 -10.759  1.00  0.00     0.198 A 
ATOM     81  F   UNL     1       7.204  -5.407  -8.437  1.00  0.00    -0.203 F 
ATOM     82  F   UNL     1       8.352  -7.404 -13.365  1.00  0.00    -0.200 F 
ATOM     83  C   UNL     1       7.331  -5.766 -12.020  1.00  0.00     0.200 A 
ATOM     84  F   UNL     1       6.270  -4.196 -10.617  1.00  0.00    -0.200 F 
ATOM     85  F   UNL     1       6.785  -5.189 -13.100  1.00  0.00    -0.200 F 
ENDBRANCH  51  75
BRANCH  63  86
ATOM     86  C   UNL     1      10.819 -11.492  -5.936  1.00  0.00     0.064 A 
ATOM     87  C   UNL     1      11.382 -10.240  -5.628  1.00  0.00     0.173 A 
ATOM     88  C   UNL     1      11.646 -12.615  -5.802  1.00  0.00     0.173 A 
ATOM     89  F   UNL     1      10.634  -9.130  -5.627  1.00  0.00    -0.203 F 
ATOM     90  C   UNL     1      12.719 -10.121  -5.245  1.00  0.00     0.198 A 
ATOM     91  C   UNL     1      12.967 -12.498  -5.383  1.00  0.00     0.198 A 
ATOM     92  F   UNL     1      11.149 -13.842  -6.023  1.00  0.00    -0.203 F 
ATOM     93  F   UNL     1      13.233  -8.915  -4.959  1.00  0.00    -0.200 F 
ATOM     94  C   UNL     1      13.508 -11.252  -5.116  1.00  0.00     0.200 A 
ATOM     95  F   UNL     1      13.707 -13.601  -5.207  1.00  0.00    -0.200 F 
ATOM     96  F   UNL     1      14.780 -11.145  -4.707  1.00  0.00    -0.200 F 
ENDBRANCH  63  86
ENDBRANCH  37  38
ENDBRANCH  30  32
ENDBRANCH  29  30
ENDBRANCH  28  29
ENDBRANCH  27  28
ENDBRANCH   1  27
TORSDOF 17
