REMARK SMILES CCNC(=O)c1ccc(N[C@@H]2COC[C@@]2(C)C(=O)OCCOCCOC(=O)c2ccc(-c3c4nc(c(-c5c(F)c(F)c(F)c(F)c5F)c5ccc([nH]5)c(-c5c(F)c(F)c(F)c(F)c5F)c5nc(c(-c6c(F)c(F)c(F)c(F)c6F)c6ccc3[nH]6)C=C5)C=C4)cc2)nn1
REMARK SMILES IDX 21 1 20 2 19 3 17 4 18 5 15 6 11 7 12 8 13 9 14 10 16 11
REMARK SMILES IDX 10 12 9 14 6 15 7 16 92 17 8 18 91 19 4 20 3 21 5 23 2 24
REMARK SMILES IDX 1 25 22 26 23 27 24 28 25 29 26 30 27 31 28 32 29 33 90 34
REMARK SMILES IDX 30 35 89 36 31 37 32 38 33 39 83 40 34 41 88 42 82 43 84 44
REMARK SMILES IDX 35 45 87 46 81 47 80 48 36 50 68 51 48 52 67 53 49 54 52 55
REMARK SMILES IDX 66 56 85 57 50 58 51 59 65 61 86 62 53 63 37 64 38 65 46 66
REMARK SMILES IDX 39 67 40 68 44 69 47 70 41 71 42 72 45 73 43 74 69 75 70 76
REMARK SMILES IDX 78 77 71 78 72 79 76 80 79 81 73 82 74 83 77 84 75 85 54 86
REMARK SMILES IDX 55 87 63 88 56 89 57 90 61 91 64 92 58 93 59 94 62 95 60 96
REMARK H PARENT 10 13 3 22 84 49 52 60
REMARK Flexibility Score: inf
ROOT
ATOM      1  C   UNL     1      -8.192  -5.868   3.378  1.00  0.00     0.202 C 
ENDROOT
BRANCH   1   2
ATOM      2  C   UNL     1      -8.775  -4.512   3.784  1.00  0.00     0.261 C 
BRANCH   2   3
ATOM      3  O   UNL     1      -7.872  -3.426   3.494  1.00  0.00    -0.463 OA
BRANCH   3   4
ATOM      4  C   UNL     1      -7.472  -2.699   4.572  1.00  0.00     0.316 C 
ATOM      5  O   UNL     1      -7.903  -2.869   5.708  1.00  0.00    -0.251 OA
BRANCH   4   6
ATOM      6  C   UNL     1      -6.376  -1.690   4.260  1.00  0.00     0.111 C 
ATOM      7  C   UNL     1      -6.369  -1.140   2.827  1.00  0.00     0.126 C 
ATOM      8  C   UNL     1      -6.080   0.356   2.974  1.00  0.00     0.186 C 
ATOM      9  O   UNL     1      -6.258   0.709   4.349  1.00  0.00    -0.378 OA
ATOM     10  C   UNL     1      -6.767  -0.431   5.045  1.00  0.00     0.181 C 
ATOM     11  C   UNL     1      -5.050  -2.233   4.808  1.00  0.00     0.028 C 
BRANCH   7  12
ATOM     12  N   UNL     1      -5.561  -1.841   1.817  1.00  0.00    -0.362 N 
ATOM     13  H   UNL     1      -6.044  -2.355   1.130  1.00  0.00     0.162 HD
BRANCH  12  14
ATOM     14  C   UNL     1      -4.177  -1.836   1.752  1.00  0.00     0.149 A 
ATOM     15  C   UNL     1      -1.448  -2.109   1.863  1.00  0.00     0.150 A 
ATOM     16  C   UNL     1      -2.148  -2.872   0.947  1.00  0.00     0.040 A 
ATOM     17  N   UNL     1      -2.063  -1.226   2.668  1.00  0.00    -0.143 NA
ATOM     18  C   UNL     1      -3.535  -2.723   0.893  1.00  0.00     0.051 A 
ATOM     19  N   UNL     1      -3.434  -1.094   2.595  1.00  0.00    -0.132 NA
BRANCH  15  20
ATOM     20  C   UNL     1       0.001  -2.307   2.081  1.00  0.00     0.271 C 
ATOM     21  N   UNL     1       0.899  -1.967   1.096  1.00  0.00    -0.351 N 
ATOM     22  H   UNL     1       1.831  -2.238   1.259  1.00  0.00     0.163 HD
ATOM     23  O   UNL     1       0.402  -2.813   3.126  1.00  0.00    -0.267 OA
BRANCH  21  24
ATOM     24  C   UNL     1       0.660  -1.264  -0.150  1.00  0.00     0.113 C 
ATOM     25  C   UNL     1       1.180   0.159  -0.081  1.00  0.00     0.027 C 
ENDBRANCH  21  24
ENDBRANCH  15  20
ENDBRANCH  12  14
ENDBRANCH   7  12
ENDBRANCH   4   6
ENDBRANCH   3   4
ENDBRANCH   2   3
ENDBRANCH   1   2
BRANCH   1  26
ATOM     26  O   UNL     1      -7.016  -6.306   4.054  1.00  0.00    -0.374 OA
BRANCH  26  27
ATOM     27  C   UNL     1      -5.794  -5.647   3.730  1.00  0.00     0.202 C 
BRANCH  27  28
ATOM     28  C   UNL     1      -5.097  -6.056   2.426  1.00  0.00     0.261 C 
BRANCH  28  29
ATOM     29  O   UNL     1      -5.914  -5.827   1.263  1.00  0.00    -0.460 OA
BRANCH  29  30
ATOM     30  C   UNL     1      -6.411  -6.950   0.693  1.00  0.00     0.338 C 
ATOM     31  O   UNL     1      -6.160  -8.111   0.987  1.00  0.00    -0.246 OA
BRANCH  30  32
ATOM     32  C   UNL     1      -7.478  -6.593  -0.256  1.00  0.00     0.060 A 
ATOM     33  C   UNL     1      -8.753  -7.131  -0.037  1.00  0.00     0.016 A 
ATOM     34  C   UNL     1      -7.228  -5.784  -1.365  1.00  0.00     0.016 A 
ATOM     35  C   UNL     1      -9.784  -6.876  -0.939  1.00  0.00     0.010 A 
ATOM     36  C   UNL     1      -8.258  -5.544  -2.279  1.00  0.00     0.010 A 
ATOM     37  C   UNL     1      -9.534  -6.105  -2.080  1.00  0.00    -0.014 A 
BRANCH  37  38
ATOM     38  C   UNL     1     -10.573  -5.974  -3.128  1.00  0.00     0.031 A 
ATOM     39  C   UNL     1     -10.485  -6.838  -4.354  1.00  0.00     0.074 A 
ATOM     40  C   UNL     1     -11.574  -5.088  -2.989  1.00  0.00     0.049 A 
ATOM     41  N   UNL     1     -11.215  -6.815  -5.439  1.00  0.00    -0.248 NA
ATOM     42  C   UNL     1      -9.428  -7.862  -4.359  1.00  0.00     0.031 C 
ATOM     43  C   UNL     1     -11.784  -4.229  -1.826  1.00  0.00     0.029 A 
ATOM     44  N   UNL     1     -12.590  -4.748  -3.847  1.00  0.00    -0.354 N 
ATOM     45  C   UNL     1     -10.697  -7.807  -6.262  1.00  0.00     0.074 A 
ATOM     46  C   UNL     1      -9.582  -8.404  -5.559  1.00  0.00     0.031 C 
ATOM     47  C   UNL     1     -12.845  -3.437  -2.055  1.00  0.00     0.029 A 
ATOM     48  C   UNL     1     -13.362  -3.707  -3.395  1.00  0.00     0.049 A 
ATOM     49  H   UNL     1     -12.750  -5.207  -4.704  1.00  0.00     0.167 HD
ATOM     50  C   UNL     1     -11.120  -8.183  -7.492  1.00  0.00     0.037 A 
ATOM     51  C   UNL     1     -14.346  -3.024  -4.012  1.00  0.00     0.037 A 
ATOM     52  C   UNL     1     -12.238  -7.591  -8.178  1.00  0.00     0.049 A 
ATOM     53  C   UNL     1     -14.752  -3.420  -5.409  1.00  0.00     0.074 A 
ATOM     54  C   UNL     1     -12.772  -7.931  -9.409  1.00  0.00     0.029 A 
ATOM     55  N   UNL     1     -12.986  -6.527  -7.697  1.00  0.00    -0.354 N 
ATOM     56  N   UNL     1     -14.282  -4.380  -6.168  1.00  0.00    -0.248 NA
ATOM     57  C   UNL     1     -15.824  -2.634  -6.038  1.00  0.00     0.031 C 
ATOM     58  C   UNL     1     -13.803  -7.034  -9.700  1.00  0.00     0.029 A 
ATOM     59  C   UNL     1     -13.953  -6.173  -8.625  1.00  0.00     0.049 A 
ATOM     60  H   UNL     1     -12.851  -6.089  -6.826  1.00  0.00     0.167 HD
ATOM     61  C   UNL     1     -15.013  -4.330  -7.348  1.00  0.00     0.074 A 
ATOM     62  C   UNL     1     -15.973  -3.257  -7.198  1.00  0.00     0.031 C 
ATOM     63  C   UNL     1     -14.901  -5.101  -8.457  1.00  0.00     0.037 A 
BRANCH  50  64
ATOM     64  C   UNL     1     -10.354  -9.263  -8.198  1.00  0.00     0.064 A 
ATOM     65  C   UNL     1     -10.428 -10.606  -7.800  1.00  0.00     0.173 A 
ATOM     66  C   UNL     1      -9.586  -8.955  -9.331  1.00  0.00     0.173 A 
ATOM     67  F   UNL     1     -11.138 -10.950  -6.715  1.00  0.00    -0.203 F 
ATOM     68  C   UNL     1      -9.750 -11.598  -8.504  1.00  0.00     0.198 A 
ATOM     69  C   UNL     1      -8.932  -9.953 -10.048  1.00  0.00     0.198 A 
ATOM     70  F   UNL     1      -9.484  -7.686  -9.754  1.00  0.00    -0.203 F 
ATOM     71  F   UNL     1      -9.807 -12.871  -8.086  1.00  0.00    -0.200 F 
ATOM     72  C   UNL     1      -9.012 -11.273  -9.632  1.00  0.00     0.200 A 
ATOM     73  F   UNL     1      -8.229  -9.637 -11.145  1.00  0.00    -0.200 F 
ATOM     74  F   UNL     1      -8.373 -12.232 -10.316  1.00  0.00    -0.200 F 
ENDBRANCH  50  64
BRANCH  51  75
ATOM     75  C   UNL     1     -14.988  -1.864  -3.337  1.00  0.00     0.064 A 
ATOM     76  C   UNL     1     -16.338  -1.894  -2.963  1.00  0.00     0.173 A 
ATOM     77  C   UNL     1     -14.270  -0.685  -3.085  1.00  0.00     0.173 A 
ATOM     78  F   UNL     1     -17.075  -2.989  -3.205  1.00  0.00    -0.203 F 
ATOM     79  C   UNL     1     -16.952  -0.782  -2.389  1.00  0.00     0.198 A 
ATOM     80  C   UNL     1     -14.875   0.414  -2.481  1.00  0.00     0.198 A 
ATOM     81  F   UNL     1     -12.974  -0.601  -3.424  1.00  0.00    -0.203 F 
ATOM     82  F   UNL     1     -18.259  -0.819  -2.095  1.00  0.00    -0.200 F 
ATOM     83  C   UNL     1     -16.219   0.369  -2.143  1.00  0.00     0.200 A 
ATOM     84  F   UNL     1     -14.158   1.519  -2.233  1.00  0.00    -0.200 F 
ATOM     85  F   UNL     1     -16.810   1.438  -1.592  1.00  0.00    -0.200 F 
ENDBRANCH  51  75
BRANCH  63  86
ATOM     86  C   UNL     1     -15.853  -4.829  -9.587  1.00  0.00     0.064 A 
ATOM     87  C   UNL     1     -15.745  -3.677 -10.379  1.00  0.00     0.173 A 
ATOM     88  C   UNL     1     -16.858  -5.755  -9.907  1.00  0.00     0.173 A 
ATOM     89  F   UNL     1     -14.811  -2.754 -10.105  1.00  0.00    -0.203 F 
ATOM     90  C   UNL     1     -16.624  -3.450 -11.435  1.00  0.00     0.198 A 
ATOM     91  C   UNL     1     -17.714  -5.540 -10.984  1.00  0.00     0.198 A 
ATOM     92  F   UNL     1     -16.999  -6.878  -9.186  1.00  0.00    -0.203 F 
ATOM     93  F   UNL     1     -16.533  -2.318 -12.147  1.00  0.00    -0.200 F 
ATOM     94  C   UNL     1     -17.602  -4.385 -11.741  1.00  0.00     0.200 A 
ATOM     95  F   UNL     1     -18.647  -6.453 -11.288  1.00  0.00    -0.200 F 
ATOM     96  F   UNL     1     -18.441  -4.168 -12.764  1.00  0.00    -0.200 F 
ENDBRANCH  63  86
ENDBRANCH  37  38
ENDBRANCH  30  32
ENDBRANCH  29  30
ENDBRANCH  28  29
ENDBRANCH  27  28
ENDBRANCH  26  27
ENDBRANCH   1  26
TORSDOF 18
