REMARK SMILES Cc1ccccc1NC(=S)NN1C(=O)CS[C@H]1c1ccccc1C(=O)OCCOCCOC(=O)c1ccc(-c2c3nc(c(-c4c(F)c(F)c(F)c(F)c4F)c4ccc([nH]4)c(-c4c(F)c(F)c(F)c(F)c4F)c4nc(c(-c5c(F)c(F)c(F)c(F)c5F)c5ccc2[nH]5)C=C4)C=C3)cc1
REMARK SMILES IDX 27 1 26 2 24 3 25 4 23 5 18 6 19 7 20 8 22 9 21 10 17 11
REMARK SMILES IDX 12 12 13 13 14 14 15 15 16 16 11 17 9 19 10 20 8 21 7 23
REMARK SMILES IDX 1 24 2 25 3 26 4 27 6 28 5 29 28 30 29 31 30 32 31 33 32 34
REMARK SMILES IDX 33 35 34 36 35 37 36 38 97 39 37 40 96 41 38 42 39 43 40 44
REMARK SMILES IDX 90 45 41 46 95 47 89 48 91 49 42 50 94 51 88 52 87 53 43 55
REMARK SMILES IDX 75 56 55 57 74 58 56 59 59 60 73 61 92 62 57 63 58 64 72 66
REMARK SMILES IDX 93 67 60 68 44 69 45 70 53 71 46 72 47 73 51 74 54 75 48 76
REMARK SMILES IDX 49 77 52 78 50 79 76 80 77 81 85 82 78 83 79 84 83 85 86 86
REMARK SMILES IDX 80 87 81 88 84 89 82 90 61 91 62 92 70 93 63 94 64 95 68 96
REMARK SMILES IDX 71 97 65 98 66 99 69 100 67 101
REMARK H PARENT 11 18 8 22 91 54 59 65
REMARK Flexibility Score: inf
ROOT
ATOM      1  C   UNL     1      -1.937   1.470  -0.591  1.00  0.00     0.261 C 
ENDROOT
BRANCH   1   2
ATOM      2  O   UNL     1      -2.303   2.646   0.655  1.00  0.00    -0.460 OA
BRANCH   2   3
ATOM      3  C   UNL     1      -3.026   3.804   1.121  1.00  0.00     0.338 C 
ATOM      4  O   UNL     1      -2.706   4.253   2.228  1.00  0.00    -0.246 OA
BRANCH   3   5
ATOM      5  C   UNL     1      -4.163   4.768   0.533  1.00  0.00     0.066 A 
ATOM      6  C   UNL     1      -5.195   4.449  -0.377  1.00  0.00     0.001 A 
ATOM      7  C   UNL     1      -6.430   5.132  -0.354  1.00  0.00     0.008 A 
ATOM      8  C   UNL     1      -6.496   6.396   0.196  1.00  0.00     0.000 A 
ATOM      9  C   UNL     1      -4.222   6.107   0.986  1.00  0.00     0.016 A 
ATOM     10  C   UNL     1      -5.344   6.933   0.751  1.00  0.00     0.001 A 
BRANCH   6  11
ATOM     11  C   UNL     1      -4.805   3.791  -1.688  1.00  0.00     0.197 C 
ATOM     12  N   UNL     1      -3.694   2.965  -1.389  1.00  0.00    -0.236 N 
ATOM     13  C   UNL     1      -4.383   1.875  -0.616  1.00  0.00     0.252 C 
ATOM     14  O   UNL     1      -4.348   1.522   0.555  1.00  0.00    -0.272 OA
ATOM     15  C   UNL     1      -5.346   1.228  -1.568  1.00  0.00     0.174 C 
ATOM     16  S   UNL     1      -6.068   2.658  -2.385  1.00  0.00    -0.120 SA
BRANCH  12  17
ATOM     17  N   UNL     1      -2.198   3.825  -1.292  1.00  0.00    -0.270 N 
ATOM     18  H   UNL     1      -2.385   4.755  -1.554  1.00  0.00     0.191 HD
BRANCH  17  19
ATOM     19  C   UNL     1      -0.772   3.751  -0.984  1.00  0.00     0.189 C 
ATOM     20  S   UNL     1      -0.457   5.334  -0.426  1.00  0.00    -0.039 S 
BRANCH  19  21
ATOM     21  N   UNL     1       0.302   2.725  -0.947  1.00  0.00    -0.331 N 
ATOM     22  H   UNL     1       0.952   3.039  -0.278  1.00  0.00     0.169 HD
BRANCH  21  23
ATOM     23  C   UNL     1       0.898   1.296  -1.521  1.00  0.00     0.043 A 
ATOM     24  C   UNL     1       3.000   0.631   0.047  1.00  0.00     0.046 C 
ATOM     25  C   UNL     1       1.844   0.397  -0.895  1.00  0.00    -0.028 A 
ATOM     26  C   UNL     1       1.943  -0.999  -1.299  1.00  0.00     0.005 A 
ATOM     27  C   UNL     1       1.198  -1.559  -2.300  1.00  0.00     0.000 A 
ATOM     28  C   UNL     1       0.545   0.717  -2.754  1.00  0.00     0.026 A 
ATOM     29  C   UNL     1       0.552  -0.663  -3.092  1.00  0.00     0.002 A 
ENDBRANCH  21  23
ENDBRANCH  19  21
ENDBRANCH  17  19
ENDBRANCH  12  17
ENDBRANCH   6  11
ENDBRANCH   3   5
ENDBRANCH   2   3
ENDBRANCH   1   2
BRANCH   1  30
ATOM     30  C   UNL     1      -1.990   1.702  -2.421  1.00  0.00     0.202 C 
BRANCH  30  31
ATOM     31  O   UNL     1      -1.064   2.569  -3.175  1.00  0.00    -0.374 OA
BRANCH  31  32
ATOM     32  C   UNL     1      -1.253   3.808  -3.870  1.00  0.00     0.202 C 
BRANCH  32  33
ATOM     33  C   UNL     1       0.043   4.214  -4.652  1.00  0.00     0.261 C 
BRANCH  33  34
ATOM     34  O   UNL     1       1.071   4.706  -3.738  1.00  0.00    -0.460 OA
BRANCH  34  35
ATOM     35  C   UNL     1       2.226   3.990  -3.574  1.00  0.00     0.338 C 
ATOM     36  O   UNL     1       2.586   3.049  -4.247  1.00  0.00    -0.246 OA
BRANCH  35  37
ATOM     37  C   UNL     1       2.866   4.393  -2.267  1.00  0.00     0.060 A 
ATOM     38  C   UNL     1       3.531   3.434  -1.507  1.00  0.00     0.016 A 
ATOM     39  C   UNL     1       2.587   5.596  -1.643  1.00  0.00     0.016 A 
ATOM     40  C   UNL     1       3.535   3.518  -0.090  1.00  0.00     0.010 A 
ATOM     41  C   UNL     1       2.573   5.641  -0.233  1.00  0.00     0.010 A 
ATOM     42  C   UNL     1       2.809   4.494   0.550  1.00  0.00    -0.014 A 
BRANCH  42  43
ATOM     43  C   UNL     1       2.217   4.383   1.931  1.00  0.00     0.031 A 
ATOM     44  C   UNL     1       2.678   5.410   2.947  1.00  0.00     0.074 A 
ATOM     45  C   UNL     1       1.137   3.643   2.390  1.00  0.00     0.049 A 
ATOM     46  N   UNL     1       2.322   5.449   4.200  1.00  0.00    -0.248 NA
ATOM     47  C   UNL     1       3.626   6.477   2.625  1.00  0.00     0.031 C 
ATOM     48  C   UNL     1       0.179   4.341   3.256  1.00  0.00     0.029 A 
ATOM     49  N   UNL     1       0.457   2.387   2.196  1.00  0.00    -0.354 N 
ATOM     50  C   UNL     1       2.516   6.746   4.605  1.00  0.00     0.074 A 
ATOM     51  C   UNL     1       3.544   7.236   3.723  1.00  0.00     0.031 C 
ATOM     52  C   UNL     1      -0.703   3.503   3.775  1.00  0.00     0.029 A 
ATOM     53  C   UNL     1      -0.452   2.171   3.307  1.00  0.00     0.049 A 
ATOM     54  H   UNL     1       0.588   1.776   1.435  1.00  0.00     0.167 HD
ATOM     55  C   UNL     1       1.639   7.343   5.465  1.00  0.00     0.037 A 
ATOM     56  C   UNL     1      -1.040   1.099   3.935  1.00  0.00     0.037 A 
ATOM     57  C   UNL     1       0.662   6.424   6.069  1.00  0.00     0.049 A 
ATOM     58  C   UNL     1      -1.206   1.252   5.425  1.00  0.00     0.074 A 
ATOM     59  C   UNL     1      -0.722   6.418   6.125  1.00  0.00     0.029 A 
ATOM     60  N   UNL     1       1.074   5.230   6.665  1.00  0.00    -0.354 N 
ATOM     61  N   UNL     1      -1.180   2.400   6.025  1.00  0.00    -0.248 NA
ATOM     62  C   UNL     1      -1.155   0.144   6.384  1.00  0.00     0.031 C 
ATOM     63  C   UNL     1      -1.133   5.247   6.809  1.00  0.00     0.029 A 
ATOM     64  C   UNL     1      -0.008   4.513   7.152  1.00  0.00     0.049 A 
ATOM     65  H   UNL     1       2.011   4.935   6.731  1.00  0.00     0.167 HD
ATOM     66  C   UNL     1      -0.597   2.205   7.241  1.00  0.00     0.074 A 
ATOM     67  C   UNL     1      -0.795   0.796   7.504  1.00  0.00     0.031 C 
ATOM     68  C   UNL     1       0.147   3.206   7.797  1.00  0.00     0.037 A 
BRANCH  55  69
ATOM     69  C   UNL     1       1.521   8.852   5.673  1.00  0.00     0.064 A 
ATOM     70  C   UNL     1       0.772   9.364   6.759  1.00  0.00     0.173 A 
ATOM     71  C   UNL     1       2.039   9.842   4.811  1.00  0.00     0.173 A 
ATOM     72  F   UNL     1       0.188   8.550   7.649  1.00  0.00    -0.203 F 
ATOM     73  C   UNL     1       0.587  10.735   6.973  1.00  0.00     0.198 A 
ATOM     74  C   UNL     1       1.923  11.212   5.072  1.00  0.00     0.198 A 
ATOM     75  F   UNL     1       2.620   9.543   3.644  1.00  0.00    -0.203 F 
ATOM     76  F   UNL     1      -0.184  11.154   7.986  1.00  0.00    -0.200 F 
ATOM     77  C   UNL     1       1.190  11.660   6.148  1.00  0.00     0.200 A 
ATOM     78  F   UNL     1       2.512  12.095   4.251  1.00  0.00    -0.200 F 
ATOM     79  F   UNL     1       1.049  12.973   6.374  1.00  0.00    -0.200 F 
ENDBRANCH  55  69
BRANCH  56  80
ATOM     80  C   UNL     1      -1.053  -0.214   3.302  1.00  0.00     0.064 A 
ATOM     81  C   UNL     1      -2.227  -0.684   2.702  1.00  0.00     0.173 A 
ATOM     82  C   UNL     1       0.171  -0.711   2.896  1.00  0.00     0.173 A 
ATOM     83  F   UNL     1      -3.429  -0.427   3.236  1.00  0.00    -0.203 F 
ATOM     84  C   UNL     1      -2.143  -1.346   1.490  1.00  0.00     0.198 A 
ATOM     85  C   UNL     1       0.254  -1.335   1.675  1.00  0.00     0.198 A 
ATOM     86  F   UNL     1       1.284  -0.428   3.586  1.00  0.00    -0.203 F 
ATOM     87  F   UNL     1      -3.249  -1.659   0.800  1.00  0.00    -0.200 F 
ATOM     88  C   UNL     1      -0.896  -1.563   0.928  1.00  0.00     0.200 A 
ATOM     89  F   UNL     1       1.468  -1.627   1.208  1.00  0.00    -0.200 F 
ATOM     90  F   UNL     1      -0.823  -1.931  -0.355  1.00  0.00    -0.200 F 
ENDBRANCH  56  80
BRANCH  68  91
ATOM     91  C   UNL     1       1.019   3.018   9.005  1.00  0.00     0.064 A 
ATOM     92  C   UNL     1       1.635   1.805   9.360  1.00  0.00     0.173 A 
ATOM     93  C   UNL     1       1.290   4.114   9.850  1.00  0.00     0.173 A 
ATOM     94  F   UNL     1       1.601   0.737   8.550  1.00  0.00    -0.203 F 
ATOM     95  C   UNL     1       2.345   1.661  10.553  1.00  0.00     0.198 A 
ATOM     96  C   UNL     1       2.049   3.982  11.011  1.00  0.00     0.198 A 
ATOM     97  F   UNL     1       0.828   5.340   9.568  1.00  0.00    -0.203 F 
ATOM     98  F   UNL     1       2.839   0.462  10.893  1.00  0.00    -0.200 F 
ATOM     99  C   UNL     1       2.543   2.748  11.383  1.00  0.00     0.200 A 
ATOM    100  F   UNL     1       2.292   5.058  11.772  1.00  0.00    -0.200 F 
ATOM    101  F   UNL     1       3.224   2.609  12.528  1.00  0.00    -0.200 F 
ENDBRANCH  68  91
ENDBRANCH  42  43
ENDBRANCH  35  37
ENDBRANCH  34  35
ENDBRANCH  33  34
ENDBRANCH  32  33
ENDBRANCH  31  32
ENDBRANCH  30  31
ENDBRANCH   1  30
TORSDOF 19
