REMARK SMILES O=C(CCCOc1ccc([N+](=O)[O-])cc1F)OCCOCCOC(=O)c1ccc(-c2c3nc(c(-c4c(F)c(F)c(F)c(F)c4F)c4ccc([nH]4)c(-c4c(F)c(F)c(F)c(F)c4F)c4nc(c(-c5c(F)c(F)c(F)c(F)c5F)c5ccc2[nH]5)C=C4)C=C3)cc1
REMARK SMILES IDX 18 1 17 2 2 3 1 4 3 5 4 6 5 7 6 8 7 9 8 10 15 11 9 12 14 13
REMARK SMILES IDX 16 14 10 15 11 16 12 17 13 18 19 19 20 20 21 21 22 22 23 23
REMARK SMILES IDX 24 24 25 25 26 26 27 27 88 28 28 29 87 30 29 31 30 32 31 33
REMARK SMILES IDX 81 34 32 35 86 36 80 37 82 38 33 39 85 40 79 41 78 42 34 44
REMARK SMILES IDX 66 45 46 46 65 47 47 48 50 49 64 50 83 51 48 52 49 53 63 55
REMARK SMILES IDX 84 56 51 57 35 58 36 59 44 60 37 61 38 62 42 63 45 64 39 65
REMARK SMILES IDX 40 66 43 67 41 68 67 69 68 70 76 71 69 72 70 73 74 74 77 75
REMARK SMILES IDX 71 76 72 77 75 78 73 79 52 80 53 81 61 82 54 83 55 84 59 85
REMARK SMILES IDX 62 86 56 87 57 88 60 89 58 90
REMARK H PARENT 82 43 50 54
REMARK Flexibility Score: inf
ROOT
ATOM      1  C   UNL     1       3.667   1.818   0.654  1.00  0.00     0.261 C 
ENDROOT
BRANCH   1   2
ATOM      2  O   UNL     1       2.593   1.980  -0.275  1.00  0.00    -0.463 OA
BRANCH   2   3
ATOM      3  C   UNL     1       2.169   1.094  -1.191  1.00  0.00     0.305 C 
ATOM      4  O   UNL     1       0.966   1.079  -1.459  1.00  0.00    -0.252 OA
BRANCH   3   5
ATOM      5  C   UNL     1       3.096   0.103  -1.878  1.00  0.00     0.126 C 
BRANCH   5   6
ATOM      6  C   UNL     1       4.507   0.498  -2.307  1.00  0.00     0.053 C 
BRANCH   6   7
ATOM      7  C   UNL     1       5.668   0.064  -1.395  1.00  0.00     0.230 C 
BRANCH   7   8
ATOM      8  O   UNL     1       6.112  -1.273  -1.657  1.00  0.00    -0.490 OA
BRANCH   8   9
ATOM      9  C   UNL     1       5.771  -2.163  -0.673  1.00  0.00     0.155 A 
ATOM     10  C   UNL     1       6.522  -2.284   0.500  1.00  0.00     0.056 A 
ATOM     11  C   UNL     1       4.718  -3.044  -0.917  1.00  0.00     0.171 A 
ATOM     12  C   UNL     1       6.185  -3.275   1.435  1.00  0.00     0.089 A 
ATOM     13  C   UNL     1       4.351  -4.009   0.010  1.00  0.00     0.128 A 
ATOM     14  F   UNL     1       4.026  -2.953  -2.062  1.00  0.00    -0.203 F 
ATOM     15  C   UNL     1       5.089  -4.123   1.190  1.00  0.00     0.272 A 
BRANCH  15  16
ATOM     16  N   UNL     1       4.657  -5.088   2.215  1.00  0.00     0.062 N 
ATOM     17  O   UNL     1       5.417  -5.300   3.172  1.00  0.00    -0.258 OA
ATOM     18  O   UNL     1       3.562  -5.650   2.049  1.00  0.00    -0.258 OA
ENDBRANCH  15  16
ENDBRANCH   8   9
ENDBRANCH   7   8
ENDBRANCH   6   7
ENDBRANCH   5   6
ENDBRANCH   3   5
ENDBRANCH   2   3
ENDBRANCH   1   2
BRANCH   1  19
ATOM     19  C   UNL     1       3.616   0.584   1.559  1.00  0.00     0.202 C 
BRANCH  19  20
ATOM     20  O   UNL     1       3.183  -0.626   0.950  1.00  0.00    -0.374 OA
BRANCH  20  21
ATOM     21  C   UNL     1       1.801  -0.944   1.183  1.00  0.00     0.202 C 
BRANCH  21  22
ATOM     22  C   UNL     1       1.555  -1.797   2.432  1.00  0.00     0.261 C 
BRANCH  22  23
ATOM     23  O   UNL     1       2.177  -1.221   3.591  1.00  0.00    -0.460 OA
BRANCH  23  24
ATOM     24  C   UNL     1       3.424  -1.699   3.799  1.00  0.00     0.338 C 
ATOM     25  O   UNL     1       3.973  -2.602   3.205  1.00  0.00    -0.246 OA
BRANCH  24  26
ATOM     26  C   UNL     1       4.162  -0.888   4.763  1.00  0.00     0.060 A 
ATOM     27  C   UNL     1       5.463  -0.491   4.415  1.00  0.00     0.016 A 
ATOM     28  C   UNL     1       3.632  -0.632   6.022  1.00  0.00     0.016 A 
ATOM     29  C   UNL     1       6.257   0.155   5.346  1.00  0.00     0.010 A 
ATOM     30  C   UNL     1       4.431   0.008   6.958  1.00  0.00     0.010 A 
ATOM     31  C   UNL     1       5.747   0.379   6.628  1.00  0.00    -0.014 A 
BRANCH  31  32
ATOM     32  C   UNL     1       6.619   0.913   7.684  1.00  0.00     0.031 A 
ATOM     33  C   UNL     1       7.101  -0.015   8.753  1.00  0.00     0.074 A 
ATOM     34  C   UNL     1       6.916   2.221   7.687  1.00  0.00     0.049 A 
ATOM     35  N   UNL     1       7.709   0.261   9.874  1.00  0.00    -0.248 NA
ATOM     36  C   UNL     1       6.843  -1.449   8.538  1.00  0.00     0.031 C 
ATOM     37  C   UNL     1       6.516   3.175   6.653  1.00  0.00     0.029 A 
ATOM     38  N   UNL     1       7.600   2.975   8.600  1.00  0.00    -0.354 N 
ATOM     39  C   UNL     1       7.883  -0.959  10.511  1.00  0.00     0.074 A 
ATOM     40  C   UNL     1       7.289  -1.974   9.670  1.00  0.00     0.031 C 
ATOM     41  C   UNL     1       6.952   4.397   6.998  1.00  0.00     0.029 A 
ATOM     42  C   UNL     1       7.608   4.312   8.299  1.00  0.00     0.049 A 
ATOM     43  H   UNL     1       8.041   2.595   9.394  1.00  0.00     0.167 HD
ATOM     44  C   UNL     1       8.494  -1.195  11.694  1.00  0.00     0.037 A 
ATOM     45  C   UNL     1       8.066   5.351   9.019  1.00  0.00     0.037 A 
ATOM     46  C   UNL     1       9.074  -0.155  12.503  1.00  0.00     0.049 A 
ATOM     47  C   UNL     1       8.692   5.071  10.357  1.00  0.00     0.074 A 
ATOM     48  C   UNL     1       9.724  -0.265  13.717  1.00  0.00     0.029 A 
ATOM     49  N   UNL     1       9.070   1.195  12.169  1.00  0.00    -0.354 N 
ATOM     50  N   UNL     1       8.850   3.920  10.969  1.00  0.00    -0.248 NA
ATOM     51  C   UNL     1       9.207   6.225  11.101  1.00  0.00     0.031 C 
ATOM     52  C   UNL     1      10.062   1.023  14.145  1.00  0.00     0.029 A 
ATOM     53  C   UNL     1       9.692   1.931  13.163  1.00  0.00     0.049 A 
ATOM     54  H   UNL     1       8.681   1.572  11.347  1.00  0.00     0.167 HD
ATOM     55  C   UNL     1       9.508   4.205  12.156  1.00  0.00     0.074 A 
ATOM     56  C   UNL     1       9.728   5.638  12.171  1.00  0.00     0.031 C 
ATOM     57  C   UNL     1       9.899   3.359  13.143  1.00  0.00     0.037 A 
BRANCH  44  58
ATOM     58  C   UNL     1       8.544  -2.613  12.186  1.00  0.00     0.064 A 
ATOM     59  C   UNL     1       7.840  -2.992  13.340  1.00  0.00     0.173 A 
ATOM     60  C   UNL     1       9.309  -3.595  11.538  1.00  0.00     0.173 A 
ATOM     61  F   UNL     1       7.090  -2.096  14.000  1.00  0.00    -0.203 F 
ATOM     62  C   UNL     1       7.910  -4.293  13.831  1.00  0.00     0.198 A 
ATOM     63  C   UNL     1       9.349  -4.905  12.011  1.00  0.00     0.198 A 
ATOM     64  F   UNL     1       9.988  -3.294  10.420  1.00  0.00    -0.203 F 
ATOM     65  F   UNL     1       7.252  -4.621  14.952  1.00  0.00    -0.200 F 
ATOM     66  C   UNL     1       8.658  -5.250  13.163  1.00  0.00     0.200 A 
ATOM     67  F   UNL     1      10.047  -5.835  11.345  1.00  0.00    -0.200 F 
ATOM     68  F   UNL     1       8.709  -6.507  13.625  1.00  0.00    -0.200 F 
ENDBRANCH  44  58
BRANCH  45  69
ATOM     69  C   UNL     1       7.961   6.723   8.463  1.00  0.00     0.064 A 
ATOM     70  C   UNL     1       6.718   7.349   8.283  1.00  0.00     0.173 A 
ATOM     71  C   UNL     1       9.104   7.405   8.026  1.00  0.00     0.173 A 
ATOM     72  F   UNL     1       5.592   6.732   8.671  1.00  0.00    -0.203 F 
ATOM     73  C   UNL     1       6.622   8.592   7.660  1.00  0.00     0.198 A 
ATOM     74  C   UNL     1       9.009   8.660   7.429  1.00  0.00     0.198 A 
ATOM     75  F   UNL     1      10.315   6.851   8.186  1.00  0.00    -0.203 F 
ATOM     76  F   UNL     1       5.418   9.144   7.452  1.00  0.00    -0.200 F 
ATOM     77  C   UNL     1       7.767   9.247   7.236  1.00  0.00     0.200 A 
ATOM     78  F   UNL     1      10.120   9.296   7.035  1.00  0.00    -0.200 F 
ATOM     79  F   UNL     1       7.675  10.442   6.636  1.00  0.00    -0.200 F 
ENDBRANCH  45  69
BRANCH  57  80
ATOM     80  C   UNL     1      10.643   3.954  14.303  1.00  0.00     0.064 A 
ATOM     81  C   UNL     1      11.998   3.644  14.505  1.00  0.00     0.173 A 
ATOM     82  C   UNL     1      10.006   4.765  15.252  1.00  0.00     0.173 A 
ATOM     83  F   UNL     1      12.651   2.863  13.630  1.00  0.00    -0.203 F 
ATOM     84  C   UNL     1      12.681   4.109  15.623  1.00  0.00     0.198 A 
ATOM     85  C   UNL     1      10.703   5.261  16.350  1.00  0.00     0.198 A 
ATOM     86  F   UNL     1       8.716   5.101  15.098  1.00  0.00    -0.203 F 
ATOM     87  F   UNL     1      13.961   3.764  15.816  1.00  0.00    -0.200 F 
ATOM     88  C   UNL     1      12.035   4.923  16.541  1.00  0.00     0.200 A 
ATOM     89  F   UNL     1      10.087   6.072  17.221  1.00  0.00    -0.200 F 
ATOM     90  F   UNL     1      12.698   5.385  17.610  1.00  0.00    -0.200 F 
ENDBRANCH  57  80
ENDBRANCH  31  32
ENDBRANCH  24  26
ENDBRANCH  23  24
ENDBRANCH  22  23
ENDBRANCH  21  22
ENDBRANCH  20  21
ENDBRANCH  19  20
ENDBRANCH   1  19
TORSDOF 19
