REMARK SMILES O=C(OCCOCCOC(=O)c1cc(N2C(=O)[C@H]3[C@@H]4C=C[C@@H]([C@@H]5C[C@H]45)[C@@H]3C2=O)ccc1Cl)c1ccc(-c2c3nc(c(-c4c(F)c(F)c(F)c(F)c4F)c4ccc([nH]4)c(-c4c(F)c(F)c(F)c(F)c4F)c4nc(c(-c5c(F)c(F)c(F)c(F)c5F)c5ccc2[nH]5)C=C4)C=C3)cc1
REMARK SMILES IDX 5 1 4 2 3 3 2 4 1 5 33 6 34 7 95 8 35 9 94 10 36 11 37 12
REMARK SMILES IDX 38 13 88 14 39 15 93 16 87 17 89 18 40 19 92 20 86 21 85 22
REMARK SMILES IDX 41 24 73 25 53 26 72 27 54 28 57 29 71 30 90 31 55 32 56 33
REMARK SMILES IDX 70 35 91 36 58 37 42 38 43 39 51 40 44 41 45 42 49 43 52 44
REMARK SMILES IDX 46 45 47 46 50 47 48 48 74 49 75 50 83 51 76 52 77 53 81 54
REMARK SMILES IDX 84 55 78 56 79 57 82 58 80 59 59 60 60 61 68 62 61 63 62 64
REMARK SMILES IDX 66 65 69 66 63 67 64 68 67 69 65 70 6 71 7 72 8 73 9 74
REMARK SMILES IDX 10 75 11 76 12 77 13 78 31 79 14 80 30 81 32 82 29 83 15 84
REMARK SMILES IDX 16 85 27 86 17 87 18 88 26 89 28 90 19 91 22 92 20 93 25 94
REMARK SMILES IDX 21 95 23 96 24 97
REMARK H PARENT 89 23 57 34
REMARK Flexibility Score: inf
ROOT
ATOM      1  C   UNL     1       4.444  -1.547   0.843  1.00  0.00     0.202 C 
ENDROOT
BRANCH   1   2
ATOM      2  C   UNL     1       4.167  -0.154   1.416  1.00  0.00     0.261 C 
BRANCH   2   3
ATOM      3  O   UNL     1       2.771   0.167   1.298  1.00  0.00    -0.460 OA
BRANCH   3   4
ATOM      4  C   UNL     1       2.158   0.942   0.377  1.00  0.00     0.338 C 
ATOM      5  O   UNL     1       0.938   1.085   0.448  1.00  0.00    -0.246 OA
BRANCH   4   6
ATOM      6  C   UNL     1       2.871   1.651  -0.728  1.00  0.00     0.060 A 
ATOM      7  C   UNL     1       4.051   1.219  -1.340  1.00  0.00     0.016 A 
ATOM      8  C   UNL     1       2.234   2.787  -1.256  1.00  0.00     0.016 A 
ATOM      9  C   UNL     1       4.605   1.893  -2.417  1.00  0.00     0.010 A 
ATOM     10  C   UNL     1       2.773   3.466  -2.349  1.00  0.00     0.010 A 
ATOM     11  C   UNL     1       3.968   3.018  -2.922  1.00  0.00    -0.014 A 
BRANCH  11  12
ATOM     12  C   UNL     1       4.642   3.791  -3.971  1.00  0.00     0.031 A 
ATOM     13  C   UNL     1       5.373   5.025  -3.563  1.00  0.00     0.074 A 
ATOM     14  C   UNL     1       4.645   3.340  -5.235  1.00  0.00     0.049 A 
ATOM     15  N   UNL     1       5.920   5.949  -4.302  1.00  0.00    -0.248 NA
ATOM     16  C   UNL     1       5.508   5.245  -2.113  1.00  0.00     0.031 C 
ATOM     17  C   UNL     1       4.063   2.071  -5.676  1.00  0.00     0.029 A 
ATOM     18  N   UNL     1       5.151   3.896  -6.377  1.00  0.00    -0.354 N 
ATOM     19  C   UNL     1       6.426   6.882  -3.409  1.00  0.00     0.074 A 
ATOM     20  C   UNL     1       6.130   6.411  -2.075  1.00  0.00     0.031 C 
ATOM     21  C   UNL     1       4.228   1.955  -7.003  1.00  0.00     0.029 A 
ATOM     22  C   UNL     1       4.860   3.171  -7.505  1.00  0.00     0.049 A 
ATOM     23  H   UNL     1       5.672   4.731  -6.388  1.00  0.00     0.167 HD
ATOM     24  C   UNL     1       7.060   8.041  -3.699  1.00  0.00     0.037 A 
ATOM     25  C   UNL     1       5.036   3.497  -8.799  1.00  0.00     0.037 A 
ATOM     26  C   UNL     1       7.316   8.470  -5.046  1.00  0.00     0.049 A 
ATOM     27  C   UNL     1       5.666   4.829  -9.107  1.00  0.00     0.074 A 
ATOM     28  C   UNL     1       7.900   9.639  -5.490  1.00  0.00     0.029 A 
ATOM     29  N   UNL     1       6.983   7.728  -6.176  1.00  0.00    -0.354 N 
ATOM     30  N   UNL     1       6.091   5.750  -8.272  1.00  0.00    -0.248 NA
ATOM     31  C   UNL     1       5.830   5.178 -10.521  1.00  0.00     0.031 C 
ATOM     32  C   UNL     1       7.872   9.627  -6.890  1.00  0.00     0.029 A 
ATOM     33  C   UNL     1       7.329   8.423  -7.319  1.00  0.00     0.049 A 
ATOM     34  H   UNL     1       6.562   6.838  -6.162  1.00  0.00     0.167 HD
ATOM     35  C   UNL     1       6.593   6.778  -9.055  1.00  0.00     0.074 A 
ATOM     36  C   UNL     1       6.420   6.364 -10.435  1.00  0.00     0.031 C 
ATOM     37  C   UNL     1       7.149   7.956  -8.673  1.00  0.00     0.037 A 
BRANCH  24  38
ATOM     38  C   UNL     1       7.400   8.933  -2.541  1.00  0.00     0.064 A 
ATOM     39  C   UNL     1       8.372   8.587  -1.589  1.00  0.00     0.173 A 
ATOM     40  C   UNL     1       6.678  10.119  -2.336  1.00  0.00     0.173 A 
ATOM     41  F   UNL     1       9.070   7.449  -1.719  1.00  0.00    -0.203 F 
ATOM     42  C   UNL     1       8.568   9.366  -0.449  1.00  0.00     0.198 A 
ATOM     43  C   UNL     1       6.900  10.912  -1.214  1.00  0.00     0.198 A 
ATOM     44  F   UNL     1       5.733  10.495  -3.211  1.00  0.00    -0.203 F 
ATOM     45  F   UNL     1       9.438   8.968   0.490  1.00  0.00    -0.200 F 
ATOM     46  C   UNL     1       7.832  10.526  -0.263  1.00  0.00     0.200 A 
ATOM     47  F   UNL     1       6.190  12.034  -1.038  1.00  0.00    -0.200 F 
ATOM     48  F   UNL     1       8.006  11.261   0.844  1.00  0.00    -0.200 F 
ENDBRANCH  24  38
BRANCH  25  49
ATOM     49  C   UNL     1       4.557   2.574  -9.860  1.00  0.00     0.064 A 
ATOM     50  C   UNL     1       5.452   1.889 -10.691  1.00  0.00     0.173 A 
ATOM     51  C   UNL     1       3.186   2.317 -10.030  1.00  0.00     0.173 A 
ATOM     52  F   UNL     1       6.769   2.111 -10.583  1.00  0.00    -0.203 F 
ATOM     53  C   UNL     1       4.996   0.981 -11.647  1.00  0.00     0.198 A 
ATOM     54  C   UNL     1       2.733   1.390 -10.966  1.00  0.00     0.198 A 
ATOM     55  F   UNL     1       2.284   2.945  -9.261  1.00  0.00    -0.203 F 
ATOM     56  F   UNL     1       5.872   0.355 -12.445  1.00  0.00    -0.200 F 
ATOM     57  C   UNL     1       3.639   0.724 -11.776  1.00  0.00     0.200 A 
ATOM     58  F   UNL     1       1.422   1.134 -11.074  1.00  0.00    -0.200 F 
ATOM     59  F   UNL     1       3.204  -0.163 -12.682  1.00  0.00    -0.200 F 
ENDBRANCH  25  49
BRANCH  37  60
ATOM     60  C   UNL     1       7.654   8.857  -9.758  1.00  0.00     0.064 A 
ATOM     61  C   UNL     1       6.782   9.622 -10.543  1.00  0.00     0.173 A 
ATOM     62  C   UNL     1       9.035   9.032  -9.933  1.00  0.00     0.173 A 
ATOM     63  F   UNL     1       5.454   9.476 -10.418  1.00  0.00    -0.203 F 
ATOM     64  C   UNL     1       7.277  10.534 -11.470  1.00  0.00     0.198 A 
ATOM     65  C   UNL     1       9.525   9.965 -10.840  1.00  0.00     0.198 A 
ATOM     66  F   UNL     1       9.905   8.325  -9.196  1.00  0.00    -0.203 F 
ATOM     67  F   UNL     1       6.430  11.244 -12.227  1.00  0.00    -0.200 F 
ATOM     68  C   UNL     1       8.647  10.714 -11.607  1.00  0.00     0.200 A 
ATOM     69  F   UNL     1      10.847  10.150 -10.958  1.00  0.00    -0.200 F 
ATOM     70  F   UNL     1       9.121  11.614 -12.480  1.00  0.00    -0.200 F 
ENDBRANCH  37  60
ENDBRANCH  11  12
ENDBRANCH   4   6
ENDBRANCH   3   4
ENDBRANCH   2   3
ENDBRANCH   1   2
BRANCH   1  71
ATOM     71  O   UNL     1       4.132  -1.686  -0.546  1.00  0.00    -0.374 OA
BRANCH  71  72
ATOM     72  C   UNL     1       2.773  -2.038  -0.842  1.00  0.00     0.202 C 
BRANCH  72  73
ATOM     73  C   UNL     1       2.748  -3.334  -1.649  1.00  0.00     0.261 C 
BRANCH  73  74
ATOM     74  O   UNL     1       3.345  -4.356  -0.841  1.00  0.00    -0.460 OA
BRANCH  74  75
ATOM     75  C   UNL     1       4.668  -4.568  -1.051  1.00  0.00     0.339 C 
ATOM     76  O   UNL     1       5.337  -4.206  -1.999  1.00  0.00    -0.246 OA
BRANCH  75  77
ATOM     77  C   UNL     1       5.248  -5.078   0.207  1.00  0.00     0.080 A 
ATOM     78  C   UNL     1       6.395  -4.407   0.676  1.00  0.00     0.044 A 
ATOM     79  C   UNL     1       4.670  -6.107   0.959  1.00  0.00     0.055 A 
ATOM     80  C   UNL     1       6.933  -4.747   1.913  1.00  0.00     0.053 A 
ATOM     81  C   UNL     1       5.222  -6.445   2.196  1.00  0.00     0.023 A 
ATOM     82  Cl  UNL     1       3.309  -7.029   0.429  1.00  0.00    -0.083 Cl
ATOM     83  C   UNL     1       6.344  -5.767   2.672  1.00  0.00     0.028 A 
BRANCH  80  84
ATOM     84  N   UNL     1       8.024  -4.041   2.454  1.00  0.00    -0.250 N 
ATOM     85  C   UNL     1       7.818  -3.009   3.392  1.00  0.00     0.238 C 
ATOM     86  C   UNL     1       9.259  -4.690   2.656  1.00  0.00     0.238 C 
ATOM     87  O   UNL     1       6.796  -2.404   3.665  1.00  0.00    -0.274 OA
ATOM     88  C   UNL     1       9.175  -2.797   3.987  1.00  0.00     0.100 C 
ATOM     89  C   UNL     1       9.615  -4.263   4.038  1.00  0.00     0.100 C 
ATOM     90  O   UNL     1       9.792  -5.563   1.999  1.00  0.00    -0.274 OA
ATOM     91  C   UNL     1       9.613  -2.092   5.283  1.00  0.00     0.028 C 
ATOM     92  C   UNL     1      10.822  -4.400   4.954  1.00  0.00     0.028 C 
ATOM     93  C   UNL     1      11.138  -1.988   5.026  1.00  0.00    -0.026 C 
ATOM     94  C   UNL     1       9.507  -2.929   6.570  1.00  0.00     0.001 C 
ATOM     95  C   UNL     1      11.741  -3.179   4.799  1.00  0.00    -0.026 C 
ATOM     96  C   UNL     1      10.216  -4.282   6.401  1.00  0.00     0.001 C 
ATOM     97  C   UNL     1       8.738  -4.198   6.787  1.00  0.00     0.009 C 
ENDBRANCH  80  84
ENDBRANCH  75  77
ENDBRANCH  74  75
ENDBRANCH  73  74
ENDBRANCH  72  73
ENDBRANCH  71  72
ENDBRANCH   1  71
TORSDOF 15
