REMARK SMILES Cc1ccc(C(C)(C)C)c(OCC(=O)c2nc(C)c(C(=O)OCCOCCOC(=O)c3ccc(-c4c5nc(c(-c6c(F)c(F)c(F)c(F)c6F)c6ccc([nH]6)c(-c6c(F)c(F)c(F)c(F)c6F)c6nc(c(-c7c(F)c(F)c(F)c(F)c7F)c7ccc4[nH]7)C=C6)C=C5)cc3)s2)c1
REMARK SMILES IDX 23 1 22 2 20 3 21 4 19 5 15 6 16 7 94 8 17 9 18 10 13 11
REMARK SMILES IDX 14 12 12 13 11 14 10 15 1 16 2 17 3 18 95 19 4 20 5 21 6 22
REMARK SMILES IDX 7 23 8 24 9 25 24 26 25 27 26 28 27 29 28 30 29 31 30 32
REMARK SMILES IDX 31 33 32 34 93 35 33 36 92 37 34 38 35 39 36 40 86 41 37 42
REMARK SMILES IDX 91 43 85 44 87 45 38 46 90 47 84 48 83 49 39 51 71 52 51 53
REMARK SMILES IDX 70 54 52 55 55 56 69 57 88 58 53 59 54 60 68 62 89 63 56 64
REMARK SMILES IDX 40 65 41 66 49 67 42 68 43 69 47 70 50 71 44 72 45 73 48 74
REMARK SMILES IDX 46 75 72 76 73 77 81 78 74 79 75 80 79 81 82 82 76 83 77 84
REMARK SMILES IDX 80 85 78 86 57 87 58 88 66 89 59 90 60 91 64 92 67 93 61 94
REMARK SMILES IDX 62 95 65 96 63 97
REMARK H PARENT 87 50 55 61
REMARK Flexibility Score: inf
ROOT
ATOM      1  C   UNL     1      -3.818   4.135   6.606  1.00  0.00     0.261 C 
ENDROOT
BRANCH   1   2
ATOM      2  O   UNL     1      -2.565   4.095   5.919  1.00  0.00    -0.459 OA
BRANCH   2   3
ATOM      3  C   UNL     1      -2.375   3.109   4.991  1.00  0.00     0.350 C 
ATOM      4  O   UNL     1      -2.963   2.051   4.970  1.00  0.00    -0.245 OA
BRANCH   3   5
ATOM      5  C   UNL     1      -1.424   3.603   4.025  1.00  0.00     0.136 A 
ATOM      6  C   UNL     1      -0.281   3.977   1.936  1.00  0.00     0.164 A 
ATOM      7  N   UNL     1      -0.001   4.954   2.774  1.00  0.00    -0.237 NA
ATOM      8  S   UNL     1      -1.194   2.701   2.594  1.00  0.00    -0.103 S 
ATOM      9  C   UNL     1      -0.662   4.761   3.978  1.00  0.00     0.064 A 
ATOM     10  C   UNL     1      -0.490   5.832   5.002  1.00  0.00     0.068 C 
BRANCH   6  11
ATOM     11  C   UNL     1       0.189   3.984   0.562  1.00  0.00     0.228 C 
ATOM     12  O   UNL     1       1.306   4.401   0.235  1.00  0.00    -0.288 OA
BRANCH  11  13
ATOM     13  C   UNL     1      -0.811   3.594  -0.545  1.00  0.00     0.313 C 
BRANCH  13  14
ATOM     14  O   UNL     1      -1.572   2.404  -0.519  1.00  0.00    -0.485 OA
BRANCH  14  15
ATOM     15  C   UNL     1      -0.948   1.192  -0.406  1.00  0.00     0.123 A 
ATOM     16  C   UNL     1       2.587  -0.230  -0.143  1.00  0.00     0.044 C 
ATOM     17  C   UNL     1       1.091  -0.145  -0.190  1.00  0.00    -0.047 A 
ATOM     18  C   UNL     1       0.312  -1.276   0.014  1.00  0.00     0.004 A 
ATOM     19  C   UNL     1       0.452   1.068  -0.454  1.00  0.00     0.050 A 
ATOM     20  C   UNL     1      -1.081  -1.179  -0.002  1.00  0.00     0.008 A 
ATOM     21  C   UNL     1      -1.756   0.053  -0.182  1.00  0.00    -0.000 A 
BRANCH  21  22
ATOM     22  C   UNL     1      -3.308   0.031  -0.133  1.00  0.00    -0.010 C 
ATOM     23  C   UNL     1      -3.823  -0.749  -1.365  1.00  0.00     0.016 C 
ATOM     24  C   UNL     1      -3.795  -0.686   1.153  1.00  0.00     0.016 C 
ATOM     25  C   UNL     1      -4.031   1.397  -0.142  1.00  0.00     0.016 C 
ENDBRANCH  21  22
ENDBRANCH  14  15
ENDBRANCH  13  14
ENDBRANCH  11  13
ENDBRANCH   6  11
ENDBRANCH   3   5
ENDBRANCH   2   3
ENDBRANCH   1   2
BRANCH   1  26
ATOM     26  C   UNL     1      -4.865   4.790   5.763  1.00  0.00     0.202 C 
BRANCH  26  27
ATOM     27  O   UNL     1      -5.354   3.761   4.916  1.00  0.00    -0.374 OA
BRANCH  27  28
ATOM     28  C   UNL     1      -6.459   4.118   4.105  1.00  0.00     0.202 C 
BRANCH  28  29
ATOM     29  C   UNL     1      -7.670   4.626   4.903  1.00  0.00     0.261 C 
BRANCH  29  30
ATOM     30  O   UNL     1      -8.101   3.600   5.822  1.00  0.00    -0.460 OA
BRANCH  30  31
ATOM     31  C   UNL     1      -7.846   3.818   7.142  1.00  0.00     0.338 C 
ATOM     32  O   UNL     1      -8.020   4.869   7.735  1.00  0.00    -0.246 OA
BRANCH  31  33
ATOM     33  C   UNL     1      -7.024   2.690   7.677  1.00  0.00     0.060 A 
ATOM     34  C   UNL     1      -6.350   2.831   8.908  1.00  0.00     0.016 A 
ATOM     35  C   UNL     1      -6.668   1.660   6.810  1.00  0.00     0.016 A 
ATOM     36  C   UNL     1      -5.228   2.035   9.199  1.00  0.00     0.010 A 
ATOM     37  C   UNL     1      -5.510   0.952   7.056  1.00  0.00     0.010 A 
ATOM     38  C   UNL     1      -4.760   1.147   8.232  1.00  0.00    -0.014 A 
BRANCH  38  39
ATOM     39  C   UNL     1      -3.457   0.465   8.238  1.00  0.00     0.031 A 
ATOM     40  C   UNL     1      -3.429  -1.016   8.177  1.00  0.00     0.074 A 
ATOM     41  C   UNL     1      -2.308   1.145   7.998  1.00  0.00     0.049 A 
ATOM     42  N   UNL     1      -2.378  -1.728   8.402  1.00  0.00    -0.248 NA
ATOM     43  C   UNL     1      -4.605  -1.829   7.894  1.00  0.00     0.031 C 
ATOM     44  C   UNL     1      -1.085   0.631   7.376  1.00  0.00     0.029 A 
ATOM     45  N   UNL     1      -1.997   2.491   8.235  1.00  0.00    -0.354 N 
ATOM     46  C   UNL     1      -2.640  -3.013   7.981  1.00  0.00     0.074 A 
ATOM     47  C   UNL     1      -4.066  -3.043   7.771  1.00  0.00     0.031 C 
ATOM     48  C   UNL     1      -0.101   1.538   7.492  1.00  0.00     0.029 A 
ATOM     49  C   UNL     1      -0.601   2.619   8.323  1.00  0.00     0.049 A 
ATOM     50  H   UNL     1      -2.648   3.224   8.324  1.00  0.00     0.167 HD
ATOM     51  C   UNL     1      -1.588  -3.846   7.728  1.00  0.00     0.037 A 
ATOM     52  C   UNL     1      -0.008   3.187   9.406  1.00  0.00     0.037 A 
ATOM     53  C   UNL     1      -0.314  -3.156   7.993  1.00  0.00     0.049 A 
ATOM     54  C   UNL     1       0.832   2.151  10.084  1.00  0.00     0.074 A 
ATOM     55  C   UNL     1       0.614  -2.563   7.151  1.00  0.00     0.029 A 
ATOM     56  N   UNL     1      -0.016  -2.702   9.280  1.00  0.00    -0.354 N 
ATOM     57  N   UNL     1       0.649   0.881   9.859  1.00  0.00    -0.248 NA
ATOM     58  C   UNL     1       1.929   2.409  11.005  1.00  0.00     0.031 C 
ATOM     59  C   UNL     1       1.439  -1.712   7.935  1.00  0.00     0.029 A 
ATOM     60  C   UNL     1       1.036  -1.802   9.259  1.00  0.00     0.049 A 
ATOM     61  H   UNL     1      -0.492  -2.985  10.094  1.00  0.00     0.167 HD
ATOM     62  C   UNL     1       1.563   0.160  10.544  1.00  0.00     0.074 A 
ATOM     63  C   UNL     1       2.337   1.153  11.269  1.00  0.00     0.031 C 
ATOM     64  C   UNL     1       1.559  -1.199  10.483  1.00  0.00     0.037 A 
BRANCH  51  65
ATOM     65  C   UNL     1      -1.673  -5.173   6.981  1.00  0.00     0.064 A 
ATOM     66  C   UNL     1      -0.515  -5.750   6.409  1.00  0.00     0.173 A 
ATOM     67  C   UNL     1      -2.848  -5.924   6.763  1.00  0.00     0.173 A 
ATOM     68  F   UNL     1       0.700  -5.223   6.606  1.00  0.00    -0.203 F 
ATOM     69  C   UNL     1      -0.551  -6.908   5.620  1.00  0.00     0.198 A 
ATOM     70  C   UNL     1      -2.893  -7.053   5.936  1.00  0.00     0.198 A 
ATOM     71  F   UNL     1      -3.989  -5.656   7.400  1.00  0.00    -0.203 F 
ATOM     72  F   UNL     1       0.587  -7.401   5.112  1.00  0.00    -0.200 F 
ATOM     73  C   UNL     1      -1.745  -7.544   5.359  1.00  0.00     0.200 A 
ATOM     74  F   UNL     1      -4.065  -7.671   5.723  1.00  0.00    -0.200 F 
ATOM     75  F   UNL     1      -1.785  -8.640   4.591  1.00  0.00    -0.200 F 
ENDBRANCH  51  65
BRANCH  52  76
ATOM     76  C   UNL     1      -0.870   4.234  10.027  1.00  0.00     0.064 A 
ATOM     77  C   UNL     1      -1.055   5.421   9.285  1.00  0.00     0.173 A 
ATOM     78  C   UNL     1      -1.863   3.897  10.959  1.00  0.00     0.173 A 
ATOM     79  F   UNL     1      -0.153   5.775   8.355  1.00  0.00    -0.203 F 
ATOM     80  C   UNL     1      -2.243   6.147   9.359  1.00  0.00     0.198 A 
ATOM     81  C   UNL     1      -3.056   4.625  11.024  1.00  0.00     0.198 A 
ATOM     82  F   UNL     1      -1.753   2.779  11.689  1.00  0.00    -0.203 F 
ATOM     83  F   UNL     1      -2.460   7.161   8.508  1.00  0.00    -0.200 F 
ATOM     84  C   UNL     1      -3.260   5.722  10.197  1.00  0.00     0.200 A 
ATOM     85  F   UNL     1      -4.061   4.195  11.801  1.00  0.00    -0.200 F 
ATOM     86  F   UNL     1      -4.462   6.314  10.143  1.00  0.00    -0.200 F 
ENDBRANCH  52  76
BRANCH  64  87
ATOM     87  C   UNL     1       2.142  -2.038  11.569  1.00  0.00     0.064 A 
ATOM     88  C   UNL     1       2.182  -1.611  12.909  1.00  0.00     0.173 A 
ATOM     89  C   UNL     1       2.529  -3.369  11.325  1.00  0.00     0.173 A 
ATOM     90  F   UNL     1       1.698  -0.416  13.278  1.00  0.00    -0.203 F 
ATOM     91  C   UNL     1       2.673  -2.427  13.921  1.00  0.00     0.198 A 
ATOM     92  C   UNL     1       2.957  -4.204  12.351  1.00  0.00     0.198 A 
ATOM     93  F   UNL     1       2.470  -3.901  10.095  1.00  0.00    -0.203 F 
ATOM     94  F   UNL     1       2.749  -1.953  15.172  1.00  0.00    -0.200 F 
ATOM     95  C   UNL     1       3.054  -3.725  13.644  1.00  0.00     0.200 A 
ATOM     96  F   UNL     1       3.255  -5.483  12.085  1.00  0.00    -0.200 F 
ATOM     97  F   UNL     1       3.493  -4.521  14.627  1.00  0.00    -0.200 F 
ENDBRANCH  64  87
ENDBRANCH  38  39
ENDBRANCH  31  33
ENDBRANCH  30  31
ENDBRANCH  29  30
ENDBRANCH  28  29
ENDBRANCH  27  28
ENDBRANCH  26  27
ENDBRANCH   1  26
TORSDOF 19
