REMARK SMILES O=C(OCCOCCOC(=O)c1ccc(CN2CC(=O)N3CCCC[C@@H]3C2=O)o1)c1ccc(-c2c3nc(c(-c4c(F)c(F)c(F)c(F)c4F)c4ccc([nH]4)c(-c4c(F)c(F)c(F)c(F)c4F)c4nc(c(-c5c(F)c(F)c(F)c(F)c5F)c5ccc2[nH]5)C=C4)C=C3)cc1
REMARK SMILES IDX 6 1 5 2 4 3 3 4 2 5 1 6 30 7 31 8 92 9 32 10 91 11 33 12
REMARK SMILES IDX 34 13 35 14 85 15 36 16 90 17 84 18 86 19 37 20 89 21 83 22
REMARK SMILES IDX 82 23 38 25 70 26 50 27 69 28 51 29 54 30 68 31 87 32 52 33
REMARK SMILES IDX 53 34 67 36 88 37 55 38 39 39 40 40 48 41 41 42 42 43 46 44
REMARK SMILES IDX 49 45 43 46 44 47 47 48 45 49 71 50 72 51 80 52 73 53 74 54
REMARK SMILES IDX 78 55 81 56 75 57 76 58 79 59 77 60 56 61 57 62 65 63 58 64
REMARK SMILES IDX 59 65 63 66 66 67 60 68 61 69 64 70 62 71 7 72 8 73 9 74
REMARK SMILES IDX 10 75 11 76 12 77 13 78 29 79 14 80 15 81 16 82 17 83 18 84
REMARK SMILES IDX 27 85 19 86 26 87 28 88 20 89 21 90 25 91 22 92 24 93 23 94
REMARK H PARENT 86 24 54 35
REMARK Flexibility Score: inf
ROOT
ATOM      1  O   UNL     1       3.893   1.560   1.361  1.00  0.00    -0.374 OA
ENDROOT
BRANCH   1   2
ATOM      2  C   UNL     1       3.942   2.082   0.029  1.00  0.00     0.202 C 
BRANCH   2   3
ATOM      3  C   UNL     1       3.624   1.031  -1.038  1.00  0.00     0.261 C 
BRANCH   3   4
ATOM      4  O   UNL     1       2.285   0.534  -0.840  1.00  0.00    -0.460 OA
BRANCH   4   5
ATOM      5  C   UNL     1       1.883  -0.695  -0.450  1.00  0.00     0.338 C 
ATOM      6  O   UNL     1       0.678  -0.933  -0.387  1.00  0.00    -0.246 OA
BRANCH   5   7
ATOM      7  C   UNL     1       2.821  -1.804  -0.108  1.00  0.00     0.060 A 
ATOM      8  C   UNL     1       4.038  -1.638   0.558  1.00  0.00     0.016 A 
ATOM      9  C   UNL     1       2.371  -3.113  -0.356  1.00  0.00     0.016 A 
ATOM     10  C   UNL     1       4.819  -2.743   0.907  1.00  0.00     0.010 A 
ATOM     11  C   UNL     1       3.123  -4.224   0.042  1.00  0.00     0.010 A 
ATOM     12  C   UNL     1       4.360  -4.045   0.670  1.00  0.00    -0.014 A 
BRANCH  12  13
ATOM     13  C   UNL     1       5.158  -5.205   1.130  1.00  0.00     0.031 A 
ATOM     14  C   UNL     1       5.900  -6.060   0.148  1.00  0.00     0.074 A 
ATOM     15  C   UNL     1       5.240  -5.468   2.448  1.00  0.00     0.049 A 
ATOM     16  N   UNL     1       6.655  -7.106   0.370  1.00  0.00    -0.248 NA
ATOM     17  C   UNL     1       5.781  -5.691  -1.270  1.00  0.00     0.031 C 
ATOM     18  C   UNL     1       4.574  -4.706   3.504  1.00  0.00     0.029 A 
ATOM     19  N   UNL     1       5.941  -6.435   3.123  1.00  0.00    -0.354 N 
ATOM     20  C   UNL     1       7.095  -7.526  -0.876  1.00  0.00     0.074 A 
ATOM     21  C   UNL     1       6.514  -6.630  -1.854  1.00  0.00     0.031 C 
ATOM     22  C   UNL     1       4.933  -5.206   4.697  1.00  0.00     0.029 A 
ATOM     23  C   UNL     1       5.830  -6.338   4.488  1.00  0.00     0.049 A 
ATOM     24  H   UNL     1       6.471  -7.132   2.673  1.00  0.00     0.167 HD
ATOM     25  C   UNL     1       7.913  -8.562  -1.177  1.00  0.00     0.037 A 
ATOM     26  C   UNL     1       6.395  -7.075   5.461  1.00  0.00     0.037 A 
ATOM     27  C   UNL     1       8.503  -9.451  -0.214  1.00  0.00     0.049 A 
ATOM     28  C   UNL     1       7.292  -8.222   5.099  1.00  0.00     0.074 A 
ATOM     29  C   UNL     1       9.321 -10.546  -0.432  1.00  0.00     0.029 A 
ATOM     30  N   UNL     1       8.344  -9.338   1.158  1.00  0.00    -0.354 N 
ATOM     31  N   UNL     1       7.671  -8.630   3.914  1.00  0.00    -0.248 NA
ATOM     32  C   UNL     1       7.829  -9.019   6.211  1.00  0.00     0.031 C 
ATOM     33  C   UNL     1       9.656 -11.098   0.810  1.00  0.00     0.029 A 
ATOM     34  C   UNL     1       9.052 -10.341   1.800  1.00  0.00     0.049 A 
ATOM     35  H   UNL     1       7.807  -8.647   1.610  1.00  0.00     0.167 HD
ATOM     36  C   UNL     1       8.488  -9.728   4.134  1.00  0.00     0.074 A 
ATOM     37  C   UNL     1       8.562  -9.918   5.568  1.00  0.00     0.031 C 
ATOM     38  C   UNL     1       9.113 -10.514   3.226  1.00  0.00     0.037 A 
BRANCH  25  39
ATOM     39  C   UNL     1       8.213  -8.788  -2.624  1.00  0.00     0.064 A 
ATOM     40  C   UNL     1       9.233  -8.074  -3.268  1.00  0.00     0.173 A 
ATOM     41  C   UNL     1       7.491  -9.733  -3.365  1.00  0.00     0.173 A 
ATOM     42  F   UNL     1       9.936  -7.150  -2.596  1.00  0.00    -0.203 F 
ATOM     43  C   UNL     1       9.515  -8.293  -4.614  1.00  0.00     0.198 A 
ATOM     44  C   UNL     1       7.780  -9.955  -4.708  1.00  0.00     0.198 A 
ATOM     45  F   UNL     1       6.502 -10.432  -2.787  1.00  0.00    -0.203 F 
ATOM     46  F   UNL     1      10.480  -7.586  -5.220  1.00  0.00    -0.200 F 
ATOM     47  C   UNL     1       8.790  -9.234  -5.331  1.00  0.00     0.200 A 
ATOM     48  F   UNL     1       7.079 -10.861  -5.404  1.00  0.00    -0.200 F 
ATOM     49  F   UNL     1       9.058  -9.442  -6.627  1.00  0.00    -0.200 F 
ENDBRANCH  25  39
BRANCH  26  50
ATOM     50  C   UNL     1       6.140  -6.731   6.878  1.00  0.00     0.064 A 
ATOM     51  C   UNL     1       7.082  -5.997   7.611  1.00  0.00     0.173 A 
ATOM     52  C   UNL     1       4.952  -7.111   7.515  1.00  0.00     0.173 A 
ATOM     53  F   UNL     1       8.238  -5.635   7.035  1.00  0.00    -0.203 F 
ATOM     54  C   UNL     1       6.845  -5.652   8.940  1.00  0.00     0.198 A 
ATOM     55  C   UNL     1       4.711  -6.759   8.840  1.00  0.00     0.198 A 
ATOM     56  F   UNL     1       4.031  -7.820   6.845  1.00  0.00    -0.203 F 
ATOM     57  F   UNL     1       7.764  -4.962   9.629  1.00  0.00    -0.200 F 
ATOM     58  C   UNL     1       5.657  -6.032   9.550  1.00  0.00     0.200 A 
ATOM     59  F   UNL     1       3.564  -7.123   9.433  1.00  0.00    -0.200 F 
ATOM     60  F   UNL     1       5.425  -5.699  10.827  1.00  0.00    -0.200 F 
ENDBRANCH  26  50
BRANCH  38  61
ATOM     61  C   UNL     1       9.927 -11.649   3.759  1.00  0.00     0.064 A 
ATOM     62  C   UNL     1       9.327 -12.874   4.079  1.00  0.00     0.173 A 
ATOM     63  C   UNL     1      11.312 -11.520   3.925  1.00  0.00     0.173 A 
ATOM     64  F   UNL     1       8.001 -13.030   3.947  1.00  0.00    -0.203 F 
ATOM     65  C   UNL     1      10.090 -13.936   4.555  1.00  0.00     0.198 A 
ATOM     66  C   UNL     1      12.074 -12.585   4.395  1.00  0.00     0.198 A 
ATOM     67  F   UNL     1      11.921 -10.359   3.637  1.00  0.00    -0.203 F 
ATOM     68  F   UNL     1       9.499 -15.097   4.872  1.00  0.00    -0.200 F 
ATOM     69  C   UNL     1      11.461 -13.791   4.710  1.00  0.00     0.200 A 
ATOM     70  F   UNL     1      13.398 -12.447   4.550  1.00  0.00    -0.200 F 
ATOM     71  F   UNL     1      12.194 -14.813   5.171  1.00  0.00    -0.200 F 
ENDBRANCH  38  61
ENDBRANCH  12  13
ENDBRANCH   5   7
ENDBRANCH   4   5
ENDBRANCH   3   4
ENDBRANCH   2   3
ENDBRANCH   1   2
BRANCH   1  72
ATOM     72  C   UNL     1       2.604   1.615   1.987  1.00  0.00     0.202 C 
BRANCH  72  73
ATOM     73  C   UNL     1       2.751   2.174   3.408  1.00  0.00     0.261 C 
BRANCH  73  74
ATOM     74  O   UNL     1       3.137   3.556   3.317  1.00  0.00    -0.457 OA
BRANCH  74  75
ATOM     75  C   UNL     1       4.484   3.751   3.203  1.00  0.00     0.374 C 
ATOM     76  O   UNL     1       5.342   3.001   3.652  1.00  0.00    -0.242 OA
BRANCH  75  77
ATOM     77  C   UNL     1       4.713   4.887   2.346  1.00  0.00     0.211 A 
ATOM     78  C   UNL     1       3.972   6.014   2.041  1.00  0.00     0.058 A 
ATOM     79  O   UNL     1       5.826   4.860   1.557  1.00  0.00    -0.452 OA
ATOM     80  C   UNL     1       4.663   6.693   1.003  1.00  0.00     0.048 A 
ATOM     81  C   UNL     1       5.776   5.931   0.715  1.00  0.00     0.124 A 
BRANCH  81  82
ATOM     82  C   UNL     1       6.854   6.013  -0.313  1.00  0.00     0.195 C 
BRANCH  82  83
ATOM     83  N   UNL     1       8.115   5.626   0.296  1.00  0.00    -0.324 N 
ATOM     84  C   UNL     1       9.007   6.671   0.756  1.00  0.00     0.220 C 
ATOM     85  C   UNL     1       8.523   4.301   0.260  1.00  0.00     0.246 C 
ATOM     86  C   UNL     1      10.033   6.290   1.819  1.00  0.00     0.242 C 
ATOM     87  C   UNL     1       9.476   3.915   1.417  1.00  0.00     0.174 C 
ATOM     88  O   UNL     1       7.966   3.461  -0.447  1.00  0.00    -0.272 OA
ATOM     89  O   UNL     1      10.604   7.161   2.475  1.00  0.00    -0.273 OA
ATOM     90  N   UNL     1      10.437   4.957   1.810  1.00  0.00    -0.329 N 
ATOM     91  C   UNL     1      10.173   2.590   1.075  1.00  0.00     0.035 C 
ATOM     92  C   UNL     1      11.485   4.581   2.753  1.00  0.00     0.120 C 
ATOM     93  C   UNL     1      11.171   2.172   2.148  1.00  0.00     0.004 C 
ATOM     94  C   UNL     1      12.184   3.284   2.377  1.00  0.00     0.022 C 
ENDBRANCH  82  83
ENDBRANCH  81  82
ENDBRANCH  75  77
ENDBRANCH  74  75
ENDBRANCH  73  74
ENDBRANCH  72  73
ENDBRANCH   1  72
TORSDOF 16
