REMARK SMILES Cc1cccc(-c2cccc(C(=O)OCCOCCOC(=O)c3ccc(-c4c5nc(c(-c6c(F)c(F)c(F)c(F)c6F)c6ccc([nH]6)c(-c6c(F)c(F)c(F)c(F)c6F)c6nc(c(-c7c(F)c(F)c(F)c(F)c7F)c7ccc4[nH]7)C=C6)C=C5)cc3)c2)c1
REMARK SMILES IDX 18 1 17 2 16 3 15 4 14 5 12 6 13 7 11 8 7 9 8 10 86 11 9 12
REMARK SMILES IDX 10 13 6 14 1 15 2 16 3 17 87 18 4 19 5 20 19 21 20 22 21 23
REMARK SMILES IDX 22 24 23 25 24 26 85 27 25 28 84 29 26 30 27 31 28 32 78 33
REMARK SMILES IDX 29 34 83 35 77 36 79 37 30 38 82 39 76 40 75 41 31 43 63 44
REMARK SMILES IDX 43 45 62 46 44 47 47 48 61 49 80 50 45 51 46 52 60 54 81 55
REMARK SMILES IDX 48 56 32 57 33 58 41 59 34 60 35 61 39 62 42 63 36 64 37 65
REMARK SMILES IDX 40 66 38 67 64 68 65 69 73 70 66 71 67 72 71 73 74 74 68 75
REMARK SMILES IDX 69 76 72 77 70 78 49 79 50 80 58 81 51 82 52 83 56 84 59 85
REMARK SMILES IDX 53 86 54 87 57 88 55 89
REMARK H PARENT 79 42 47 53
REMARK Flexibility Score: inf
ROOT
ATOM      1  C   UNL     1      -6.745   2.534   1.323  1.00  0.00     0.202 C 
ENDROOT
BRANCH   1   2
ATOM      2  O   UNL     1      -6.229   3.804   1.661  1.00  0.00    -0.374 OA
BRANCH   2   3
ATOM      3  C   UNL     1      -6.579   4.876   0.805  1.00  0.00     0.202 C 
BRANCH   3   4
ATOM      4  C   UNL     1      -5.710   6.043   1.200  1.00  0.00     0.261 C 
BRANCH   4   5
ATOM      5  O   UNL     1      -4.333   5.824   0.835  1.00  0.00    -0.460 OA
BRANCH   5   6
ATOM      6  C   UNL     1      -3.627   4.798   1.393  1.00  0.00     0.338 C 
ATOM      7  O   UNL     1      -3.756   4.302   2.485  1.00  0.00    -0.246 OA
BRANCH   6   8
ATOM      8  C   UNL     1      -2.722   4.265   0.359  1.00  0.00     0.060 A 
ATOM      9  C   UNL     1      -1.475   2.375  -0.480  1.00  0.00    -0.018 A 
ATOM     10  C   UNL     1      -1.294   3.071  -1.688  1.00  0.00     0.009 A 
ATOM     11  C   UNL     1      -2.202   2.982   0.545  1.00  0.00     0.024 A 
ATOM     12  C   UNL     1      -1.781   4.366  -1.856  1.00  0.00     0.002 A 
ATOM     13  C   UNL     1      -2.480   4.972  -0.824  1.00  0.00     0.016 A 
BRANCH   9  14
ATOM     14  C   UNL     1      -0.853   1.068  -0.285  1.00  0.00    -0.018 A 
ATOM     15  C   UNL     1       2.693  -0.281   0.016  1.00  0.00     0.044 C 
ATOM     16  C   UNL     1       1.197  -0.233  -0.043  1.00  0.00    -0.051 A 
ATOM     17  C   UNL     1       0.434  -1.401   0.035  1.00  0.00     0.003 A 
ATOM     18  C   UNL     1       0.545   0.991  -0.205  1.00  0.00     0.012 A 
ATOM     19  C   UNL     1      -0.960  -1.341  -0.027  1.00  0.00     0.001 A 
ATOM     20  C   UNL     1      -1.603  -0.111  -0.182  1.00  0.00     0.009 A 
ENDBRANCH   9  14
ENDBRANCH   6   8
ENDBRANCH   5   6
ENDBRANCH   4   5
ENDBRANCH   3   4
ENDBRANCH   2   3
ENDBRANCH   1   2
BRANCH   1  21
ATOM     21  C   UNL     1      -8.277   2.501   1.366  1.00  0.00     0.261 C 
BRANCH  21  22
ATOM     22  O   UNL     1      -8.754   2.724   2.714  1.00  0.00    -0.460 OA
BRANCH  22  23
ATOM     23  C   UNL     1      -9.066   4.013   3.036  1.00  0.00     0.338 C 
ATOM     24  O   UNL     1      -9.874   4.708   2.443  1.00  0.00    -0.246 OA
BRANCH  23  25
ATOM     25  C   UNL     1      -8.091   4.538   4.039  1.00  0.00     0.060 A 
ATOM     26  C   UNL     1      -7.994   5.923   4.288  1.00  0.00     0.016 A 
ATOM     27  C   UNL     1      -7.059   3.695   4.425  1.00  0.00     0.016 A 
ATOM     28  C   UNL     1      -6.792   6.476   4.765  1.00  0.00     0.010 A 
ATOM     29  C   UNL     1      -5.841   4.261   4.718  1.00  0.00     0.010 A 
ATOM     30  C   UNL     1      -5.683   5.647   4.894  1.00  0.00    -0.014 A 
BRANCH  30  31
ATOM     31  C   UNL     1      -4.302   6.042   5.192  1.00  0.00     0.031 A 
ATOM     32  C   UNL     1      -3.676   5.450   6.407  1.00  0.00     0.074 A 
ATOM     33  C   UNL     1      -3.503   6.637   4.268  1.00  0.00     0.049 A 
ATOM     34  N   UNL     1      -2.553   5.842   6.900  1.00  0.00    -0.248 NA
ATOM     35  C   UNL     1      -4.288   4.396   7.217  1.00  0.00     0.031 C 
ATOM     36  C   UNL     1      -2.054   6.444   4.130  1.00  0.00     0.029 A 
ATOM     37  N   UNL     1      -3.808   7.465   3.177  1.00  0.00    -0.354 N 
ATOM     38  C   UNL     1      -2.136   4.888   7.803  1.00  0.00     0.074 A 
ATOM     39  C   UNL     1      -3.311   4.108   8.078  1.00  0.00     0.031 C 
ATOM     40  C   UNL     1      -1.563   7.292   3.212  1.00  0.00     0.029 A 
ATOM     41  C   UNL     1      -2.643   8.170   2.813  1.00  0.00     0.049 A 
ATOM     42  H   UNL     1      -4.687   7.541   2.740  1.00  0.00     0.167 HD
ATOM     43  C   UNL     1      -0.803   4.793   8.072  1.00  0.00     0.037 A 
ATOM     44  C   UNL     1      -2.610   9.530   2.750  1.00  0.00     0.037 A 
ATOM     45  C   UNL     1      -0.066   5.807   7.308  1.00  0.00     0.049 A 
ATOM     46  C   UNL     1      -1.653  10.050   3.776  1.00  0.00     0.074 A 
ATOM     47  C   UNL     1       0.729   5.733   6.176  1.00  0.00     0.029 A 
ATOM     48  N   UNL     1      -0.348   7.156   7.503  1.00  0.00    -0.354 N 
ATOM     49  N   UNL     1      -1.316   9.335   4.813  1.00  0.00    -0.248 NA
ATOM     50  C   UNL     1      -0.957  11.329   3.728  1.00  0.00     0.031 C 
ATOM     51  C   UNL     1       0.934   7.055   5.700  1.00  0.00     0.029 A 
ATOM     52  C   UNL     1       0.275   7.932   6.549  1.00  0.00     0.049 A 
ATOM     53  H   UNL     1      -0.917   7.508   8.224  1.00  0.00     0.167 HD
ATOM     54  C   UNL     1      -0.351   9.979   5.518  1.00  0.00     0.074 A 
ATOM     55  C   UNL     1      -0.185  11.244   4.829  1.00  0.00     0.031 C 
ATOM     56  C   UNL     1       0.219   9.387   6.604  1.00  0.00     0.037 A 
BRANCH  43  57
ATOM     57  C   UNL     1      -0.086   3.671   8.810  1.00  0.00     0.064 A 
ATOM     58  C   UNL     1       1.329   3.617   8.800  1.00  0.00     0.173 A 
ATOM     59  C   UNL     1      -0.691   2.610   9.514  1.00  0.00     0.173 A 
ATOM     60  F   UNL     1       2.066   4.589   8.247  1.00  0.00    -0.203 F 
ATOM     61  C   UNL     1       2.056   2.567   9.370  1.00  0.00     0.198 A 
ATOM     62  C   UNL     1       0.036   1.556  10.080  1.00  0.00     0.198 A 
ATOM     63  F   UNL     1      -2.003   2.546   9.731  1.00  0.00    -0.203 F 
ATOM     64  F   UNL     1       3.395   2.573   9.302  1.00  0.00    -0.200 F 
ATOM     65  C   UNL     1       1.409   1.528  10.000  1.00  0.00     0.200 A 
ATOM     66  F   UNL     1      -0.616   0.569  10.712  1.00  0.00    -0.200 F 
ATOM     67  F   UNL     1       2.102   0.521  10.546  1.00  0.00    -0.200 F 
ENDBRANCH  43  57
BRANCH  44  68
ATOM     68  C   UNL     1      -3.914  10.102   2.323  1.00  0.00     0.064 A 
ATOM     69  C   UNL     1      -4.231   9.975   0.955  1.00  0.00     0.173 A 
ATOM     70  C   UNL     1      -4.982  10.181   3.231  1.00  0.00     0.173 A 
ATOM     71  F   UNL     1      -3.247   9.890   0.044  1.00  0.00    -0.203 F 
ATOM     72  C   UNL     1      -5.542   9.759   0.535  1.00  0.00     0.198 A 
ATOM     73  C   UNL     1      -6.291   9.938   2.808  1.00  0.00     0.198 A 
ATOM     74  F   UNL     1      -4.742  10.304   4.544  1.00  0.00    -0.203 F 
ATOM     75  F   UNL     1      -5.796   9.478  -0.752  1.00  0.00    -0.200 F 
ATOM     76  C   UNL     1      -6.562   9.689   1.470  1.00  0.00     0.200 A 
ATOM     77  F   UNL     1      -7.275   9.822   3.711  1.00  0.00    -0.200 F 
ATOM     78  F   UNL     1      -7.789   9.300   1.091  1.00  0.00    -0.200 F 
ENDBRANCH  44  68
BRANCH  56  79
ATOM     79  C   UNL     1       0.869  10.116   7.746  1.00  0.00     0.064 A 
ATOM     80  C   UNL     1       0.669  11.481   8.004  1.00  0.00     0.173 A 
ATOM     81  C   UNL     1       1.589   9.409   8.739  1.00  0.00     0.173 A 
ATOM     82  F   UNL     1      -0.118  12.238   7.228  1.00  0.00    -0.203 F 
ATOM     83  C   UNL     1       1.225  12.110   9.117  1.00  0.00     0.198 A 
ATOM     84  C   UNL     1       2.076  10.024   9.887  1.00  0.00     0.198 A 
ATOM     85  F   UNL     1       1.814   8.090   8.655  1.00  0.00    -0.203 F 
ATOM     86  F   UNL     1       1.055  13.429   9.282  1.00  0.00    -0.200 F 
ATOM     87  C   UNL     1       1.920  11.381  10.062  1.00  0.00     0.200 A 
ATOM     88  F   UNL     1       2.679   9.287  10.830  1.00  0.00    -0.200 F 
ATOM     89  F   UNL     1       2.417  11.982  11.150  1.00  0.00    -0.200 F 
ENDBRANCH  56  79
ENDBRANCH  30  31
ENDBRANCH  23  25
ENDBRANCH  22  23
ENDBRANCH  21  22
ENDBRANCH   1  21
TORSDOF 15
