REMARK SMILES O=C(NNS(=O)(=O)c1cccc(C(=O)OCCOCCOC(=O)c2ccc(-c3c4nc(c(-c5c(F)c(F)c(F)c(F)c5F)c5ccc([nH]5)c(-c5c(F)c(F)c(F)c(F)c5F)c5nc(c(-c6c(F)c(F)c(F)c(F)c6F)c6ccc3[nH]6)C=C5)C=C4)cc2)c1)c1ccc2c(c1)OCO2
REMARK SMILES IDX 17 1 16 2 15 3 13 4 14 5 12 6 8 7 9 8 87 9 10 10 11 11 5 12
REMARK SMILES IDX 6 13 7 14 4 15 3 17 1 18 2 19 88 21 89 22 93 23 90 24 92 25
REMARK SMILES IDX 91 26 94 27 96 28 95 29 18 30 19 31 20 32 21 33 22 34 23 35
REMARK SMILES IDX 24 36 25 37 86 38 26 39 85 40 27 41 28 42 29 43 79 44 30 45
REMARK SMILES IDX 84 46 78 47 80 48 31 49 83 50 77 51 76 52 32 54 64 55 44 56
REMARK SMILES IDX 63 57 45 58 48 59 62 60 81 61 46 62 47 63 61 65 82 66 49 67
REMARK SMILES IDX 33 68 34 69 42 70 35 71 36 72 40 73 43 74 37 75 38 76 41 77
REMARK SMILES IDX 39 78 65 79 66 80 74 81 67 82 68 83 72 84 75 85 69 86 70 87
REMARK SMILES IDX 73 88 71 89 50 90 51 91 59 92 52 93 53 94 57 95 60 96 54 97
REMARK SMILES IDX 55 98 58 99 56 100
REMARK H PARENT 4 16 3 20 80 53 48 64
REMARK Flexibility Score: inf
ROOT
ATOM      1  C   UNL     1       5.471  -9.822   1.969  1.00  0.00     0.202 C 
ENDROOT
BRANCH   1   2
ATOM      2  C   UNL     1       4.149  -9.244   1.450  1.00  0.00     0.261 C 
BRANCH   2   3
ATOM      3  O   UNL     1       4.155  -7.807   1.470  1.00  0.00    -0.460 OA
BRANCH   3   4
ATOM      4  C   UNL     1       3.234  -7.233   2.285  1.00  0.00     0.338 C 
ATOM      5  O   UNL     1       2.320  -7.788   2.870  1.00  0.00    -0.246 OA
BRANCH   4   6
ATOM      6  C   UNL     1       3.609  -5.819   2.528  1.00  0.00     0.061 A 
ATOM      7  C   UNL     1       4.574  -3.715   1.851  1.00  0.00     0.084 A 
ATOM      8  C   UNL     1       4.391  -3.198   3.138  1.00  0.00     0.022 A 
ATOM      9  C   UNL     1       4.194  -5.027   1.539  1.00  0.00     0.037 A 
ATOM     10  C   UNL     1       3.806  -3.997   4.120  1.00  0.00     0.002 A 
ATOM     11  C   UNL     1       3.408  -5.300   3.815  1.00  0.00     0.016 A 
BRANCH   7  12
ATOM     12  S   UNL     1       5.236  -2.691   0.565  1.00  0.00     0.257 S 
ATOM     13  O   UNL     1       4.889  -3.289  -0.705  1.00  0.00    -0.205 OA
ATOM     14  O   UNL     1       6.602  -2.375   0.918  1.00  0.00    -0.205 OA
BRANCH  12  15
ATOM     15  N   UNL     1       4.341  -1.262   0.684  1.00  0.00    -0.123 NA
ATOM     16  H   UNL     1       4.564  -0.850   1.590  1.00  0.00     0.167 HD
BRANCH  15  17
ATOM     17  N   UNL     1       2.905  -1.299   0.588  1.00  0.00    -0.273 N 
ATOM     18  O   UNL     1       0.921  -0.209   0.453  1.00  0.00    -0.268 OA
ATOM     19  C   UNL     1       2.126  -0.228   0.221  1.00  0.00     0.266 C 
ATOM     20  H   UNL     1       2.451  -2.147   0.798  1.00  0.00     0.186 HD
BRANCH  19  21
ATOM     21  C   UNL     1       2.733   0.874  -0.560  1.00  0.00     0.045 A 
ATOM     22  C   UNL     1       3.526   0.585  -1.696  1.00  0.00     0.018 A 
ATOM     23  C   UNL     1       2.350   2.187  -0.268  1.00  0.00     0.064 A 
ATOM     24  C   UNL     1       3.933   1.610  -2.554  1.00  0.00     0.051 A 
ATOM     25  C   UNL     1       2.745   3.168  -1.149  1.00  0.00     0.166 A 
ATOM     26  C   UNL     1       3.505   2.888  -2.264  1.00  0.00     0.165 A 
ATOM     27  O   UNL     1       2.401   4.483  -1.080  1.00  0.00    -0.454 OA
ATOM     28  O   UNL     1       3.716   3.990  -3.033  1.00  0.00    -0.454 OA
ATOM     29  C   UNL     1       2.852   4.939  -2.372  1.00  0.00     0.468 C 
ENDBRANCH  19  21
ENDBRANCH  15  17
ENDBRANCH  12  15
ENDBRANCH   7  12
ENDBRANCH   4   6
ENDBRANCH   3   4
ENDBRANCH   2   3
ENDBRANCH   1   2
BRANCH   1  30
ATOM     30  O   UNL     1       5.814  -9.537   3.324  1.00  0.00    -0.374 OA
BRANCH  30  31
ATOM     31  C   UNL     1       6.287  -8.226   3.632  1.00  0.00     0.202 C 
BRANCH  31  32
ATOM     32  C   UNL     1       7.713  -7.868   3.194  1.00  0.00     0.261 C 
BRANCH  32  33
ATOM     33  O   UNL     1       7.878  -7.877   1.765  1.00  0.00    -0.460 OA
BRANCH  33  34
ATOM     34  C   UNL     1       8.707  -8.843   1.299  1.00  0.00     0.338 C 
ATOM     35  O   UNL     1       9.345  -9.654   1.948  1.00  0.00    -0.246 OA
BRANCH  34  36
ATOM     36  C   UNL     1       8.632  -8.904  -0.171  1.00  0.00     0.060 A 
ATOM     37  C   UNL     1       8.237 -10.115  -0.754  1.00  0.00     0.016 A 
ATOM     38  C   UNL     1       9.040  -7.831  -0.965  1.00  0.00     0.016 A 
ATOM     39  C   UNL     1       8.281 -10.269  -2.138  1.00  0.00     0.010 A 
ATOM     40  C   UNL     1       9.093  -7.991  -2.353  1.00  0.00     0.010 A 
ATOM     41  C   UNL     1       8.742  -9.220  -2.943  1.00  0.00    -0.014 A 
BRANCH  41  42
ATOM     42  C   UNL     1       8.968  -9.445  -4.391  1.00  0.00     0.031 A 
ATOM     43  C   UNL     1      10.361  -9.712  -4.886  1.00  0.00     0.074 A 
ATOM     44  C   UNL     1       7.937  -9.422  -5.254  1.00  0.00     0.049 A 
ATOM     45  N   UNL     1      10.792  -9.878  -6.111  1.00  0.00    -0.248 NA
ATOM     46  C   UNL     1      11.413  -9.803  -3.861  1.00  0.00     0.031 C 
ATOM     47  C   UNL     1       6.538  -9.211  -4.889  1.00  0.00     0.029 A 
ATOM     48  N   UNL     1       7.913  -9.567  -6.619  1.00  0.00    -0.354 N 
ATOM     49  C   UNL     1      12.161 -10.084  -6.006  1.00  0.00     0.074 A 
ATOM     50  C   UNL     1      12.495  -9.998  -4.600  1.00  0.00     0.031 C 
ATOM     51  C   UNL     1       5.790  -9.225  -6.006  1.00  0.00     0.029 A 
ATOM     52  C   UNL     1       6.663  -9.412  -7.164  1.00  0.00     0.049 A 
ATOM     53  H   UNL     1       8.715  -9.764  -7.154  1.00  0.00     0.167 HD
ATOM     54  C   UNL     1      13.055 -10.331  -6.993  1.00  0.00     0.037 A 
ATOM     55  C   UNL     1       6.274  -9.395  -8.453  1.00  0.00     0.037 A 
ATOM     56  C   UNL     1      12.718 -10.417  -8.390  1.00  0.00     0.049 A 
ATOM     57  C   UNL     1       7.300  -9.599  -9.537  1.00  0.00     0.074 A 
ATOM     58  C   UNL     1      13.549 -10.686  -9.463  1.00  0.00     0.029 A 
ATOM     59  N   UNL     1      11.445 -10.226  -8.907  1.00  0.00    -0.354 N 
ATOM     60  N   UNL     1       8.588  -9.820  -9.429  1.00  0.00    -0.248 NA
ATOM     61  C   UNL     1       6.816  -9.551 -10.925  1.00  0.00     0.031 C 
ATOM     62  C   UNL     1      12.789 -10.607 -10.635  1.00  0.00     0.029 A 
ATOM     63  C   UNL     1      11.474 -10.342 -10.288  1.00  0.00     0.049 A 
ATOM     64  H   UNL     1      10.641 -10.035  -8.373  1.00  0.00     0.167 HD
ATOM     65  C   UNL     1       9.062  -9.966 -10.726  1.00  0.00     0.074 A 
ATOM     66  C   UNL     1       7.922  -9.819 -11.606  1.00  0.00     0.031 C 
ATOM     67  C   UNL     1      10.328 -10.201 -11.150  1.00  0.00     0.037 A 
BRANCH  54  68
ATOM     68  C   UNL     1      14.493 -10.501  -6.599  1.00  0.00     0.064 A 
ATOM     69  C   UNL     1      14.943 -11.644  -5.921  1.00  0.00     0.173 A 
ATOM     70  C   UNL     1      15.441  -9.524  -6.939  1.00  0.00     0.173 A 
ATOM     71  F   UNL     1      14.075 -12.602  -5.563  1.00  0.00    -0.203 F 
ATOM     72  C   UNL     1      16.285 -11.790  -5.577  1.00  0.00     0.198 A 
ATOM     73  C   UNL     1      16.786  -9.687  -6.618  1.00  0.00     0.198 A 
ATOM     74  F   UNL     1      15.065  -8.414  -7.592  1.00  0.00    -0.203 F 
ATOM     75  F   UNL     1      16.685 -12.871  -4.892  1.00  0.00    -0.200 F 
ATOM     76  C   UNL     1      17.206 -10.816  -5.932  1.00  0.00     0.200 A 
ATOM     77  F   UNL     1      17.677  -8.750  -6.972  1.00  0.00    -0.200 F 
ATOM     78  F   UNL     1      18.498 -10.963  -5.606  1.00  0.00    -0.200 F 
ENDBRANCH  54  68
BRANCH  55  79
ATOM     79  C   UNL     1       4.846  -9.162  -8.793  1.00  0.00     0.064 A 
ATOM     80  C   UNL     1       4.061 -10.179  -9.351  1.00  0.00     0.173 A 
ATOM     81  C   UNL     1       4.244  -7.913  -8.582  1.00  0.00     0.173 A 
ATOM     82  F   UNL     1       4.599 -11.382  -9.597  1.00  0.00    -0.203 F 
ATOM     83  C   UNL     1       2.731  -9.951  -9.700  1.00  0.00     0.198 A 
ATOM     84  C   UNL     1       2.906  -7.695  -8.904  1.00  0.00     0.198 A 
ATOM     85  F   UNL     1       4.954  -6.905  -8.054  1.00  0.00    -0.203 F 
ATOM     86  F   UNL     1       2.015 -10.928 -10.274  1.00  0.00    -0.200 F 
ATOM     87  C   UNL     1       2.153  -8.712  -9.470  1.00  0.00     0.200 A 
ATOM     88  F   UNL     1       2.349  -6.499  -8.671  1.00  0.00    -0.200 F 
ATOM     89  F   UNL     1       0.873  -8.495  -9.803  1.00  0.00    -0.200 F 
ENDBRANCH  55  79
BRANCH  67  90
ATOM     90  C   UNL     1      10.545 -10.352 -12.629  1.00  0.00     0.064 A 
ATOM     91  C   UNL     1      10.482  -9.255 -13.499  1.00  0.00     0.173 A 
ATOM     92  C   UNL     1      10.865 -11.605 -13.174  1.00  0.00     0.173 A 
ATOM     93  F   UNL     1      10.165  -8.038 -13.030  1.00  0.00    -0.203 F 
ATOM     94  C   UNL     1      10.709  -9.410 -14.864  1.00  0.00     0.198 A 
ATOM     95  C   UNL     1      11.121 -11.752 -14.534  1.00  0.00     0.198 A 
ATOM     96  F   UNL     1      10.945 -12.686 -12.383  1.00  0.00    -0.203 F 
ATOM     97  F   UNL     1      10.600  -8.355 -15.684  1.00  0.00    -0.200 F 
ATOM     98  C   UNL     1      11.036 -10.656 -15.379  1.00  0.00     0.200 A 
ATOM     99  F   UNL     1      11.450 -12.953 -15.027  1.00  0.00    -0.200 F 
ATOM    100  F   UNL     1      11.263 -10.801 -16.692  1.00  0.00    -0.200 F 
ENDBRANCH  67  90
ENDBRANCH  41  42
ENDBRANCH  34  36
ENDBRANCH  33  34
ENDBRANCH  32  33
ENDBRANCH  31  32
ENDBRANCH  30  31
ENDBRANCH   1  30
TORSDOF 18
