REMARK SMILES Cc1nc(-c2ccccc2)sc1C(=O)N[C@@H](CC1=c2ccccc2=NC1)C(=O)OCCOCCOC(=O)c1ccc(-c2c3nc(c(-c4c(F)c(F)c(F)c(F)c4F)c4ccc([nH]4)c(-c4c(F)c(F)c(F)c(F)c4F)c4nc(c(-c5c(F)c(F)c(F)c(F)c5F)c5ccc2[nH]5)C=C4)C=C3)cc1
REMARK SMILES IDX 31 1 30 2 29 3 27 4 28 5 16 6 15 7 13 8 14 9 12 11 1 12 2 13
REMARK SMILES IDX 3 14 4 15 11 16 5 17 6 18 10 19 7 20 9 21 8 22 17 23 18 24
REMARK SMILES IDX 19 25 26 26 20 27 24 28 25 29 21 30 23 31 22 32 32 33 33 34
REMARK SMILES IDX 34 35 35 36 36 37 37 38 38 39 39 40 100 41 40 42 99 43 41 44
REMARK SMILES IDX 42 45 43 46 93 47 44 48 98 49 92 50 94 51 45 52 97 53 91 54
REMARK SMILES IDX 90 55 46 57 78 58 58 59 77 60 59 61 62 62 76 63 95 64 60 65
REMARK SMILES IDX 61 66 75 68 96 69 63 70 47 71 48 72 56 73 49 74 50 75 54 76
REMARK SMILES IDX 57 77 51 78 52 79 55 80 53 81 79 82 80 83 88 84 81 85 82 86
REMARK SMILES IDX 86 87 89 88 83 89 84 90 87 91 85 92 64 93 65 94 73 95 66 96
REMARK SMILES IDX 67 97 71 98 74 99 68 100 69 101 72 102 70 103
REMARK H PARENT 15 10 94 56 62 67
REMARK Flexibility Score: inf
ROOT
ATOM      1  C   UNL     1      -4.656  -2.936   4.341  1.00  0.00     0.202 C 
ENDROOT
BRANCH   1   2
ATOM      2  C   UNL     1      -5.305  -3.221   2.981  1.00  0.00     0.261 C 
BRANCH   2   3
ATOM      3  O   UNL     1      -4.348  -3.229   1.910  1.00  0.00    -0.462 OA
BRANCH   3   4
ATOM      4  C   UNL     1      -4.742  -2.570   0.790  1.00  0.00     0.329 C 
ATOM      5  O   UNL     1      -5.891  -2.207   0.558  1.00  0.00    -0.250 OA
BRANCH   4   6
ATOM      6  C   UNL     1      -3.586  -2.275  -0.174  1.00  0.00     0.196 C 
BRANCH   6   7
ATOM      7  N   UNL     1      -2.240  -2.651   0.244  1.00  0.00    -0.338 N 
ATOM      8  C   UNL     1      -1.016  -2.029   0.244  1.00  0.00     0.264 C 
ATOM      9  O   UNL     1      -0.106  -2.819   0.531  1.00  0.00    -0.268 OA
ATOM     10  H   UNL     1      -2.200  -3.563   0.613  1.00  0.00     0.164 HD
BRANCH   8  11
ATOM     11  C   UNL     1      -0.753  -0.605  -0.004  1.00  0.00     0.115 A 
ATOM     12  C   UNL     1      -2.859   0.855  -0.683  1.00  0.00     0.068 C 
ATOM     13  C   UNL     1      -1.445   0.562  -0.339  1.00  0.00     0.062 A 
ATOM     14  N   UNL     1      -0.686   1.722  -0.339  1.00  0.00    -0.241 NA
ATOM     15  C   UNL     1       0.573   1.487  -0.086  1.00  0.00     0.124 A 
ATOM     16  S   UNL     1       0.950  -0.145   0.179  1.00  0.00    -0.108 S 
BRANCH  15  17
ATOM     17  C   UNL     1       1.558   2.562  -0.011  1.00  0.00     0.010 A 
ATOM     18  C   UNL     1       1.415   3.542   0.983  1.00  0.00     0.011 A 
ATOM     19  C   UNL     1       2.526   2.737  -1.008  1.00  0.00     0.011 A 
ATOM     20  C   UNL     1       2.213   4.686   0.973  1.00  0.00     0.001 A 
ATOM     21  C   UNL     1       3.319   3.889  -1.020  1.00  0.00     0.001 A 
ATOM     22  C   UNL     1       3.157   4.864  -0.035  1.00  0.00     0.000 A 
ENDBRANCH  15  17
ENDBRANCH   8  11
ENDBRANCH   6   7
BRANCH   6  23
ATOM     23  C   UNL     1      -3.898  -2.816  -1.580  1.00  0.00     0.070 C 
BRANCH  23  24
ATOM     24  C   UNL     1      -4.055  -4.306  -1.608  1.00  0.00    -0.037 C 
ATOM     25  C   UNL     1      -3.110  -5.232  -1.738  1.00  0.00     0.001 A 
ATOM     26  C   UNL     1      -5.403  -4.947  -1.446  1.00  0.00     0.174 C 
ATOM     27  C   UNL     1      -1.695  -5.219  -1.921  1.00  0.00     0.010 A 
ATOM     28  C   UNL     1      -3.858  -6.486  -1.551  1.00  0.00     0.065 A 
ATOM     29  N   UNL     1      -5.142  -6.404  -1.385  1.00  0.00    -0.280 NA
ATOM     30  C   UNL     1      -1.034  -6.387  -1.899  1.00  0.00     0.001 A 
ATOM     31  C   UNL     1      -3.060  -7.729  -1.530  1.00  0.00     0.028 A 
ATOM     32  C   UNL     1      -1.728  -7.648  -1.689  1.00  0.00     0.002 A 
ENDBRANCH  23  24
ENDBRANCH   6  23
ENDBRANCH   4   6
ENDBRANCH   3   4
ENDBRANCH   2   3
ENDBRANCH   1   2
BRANCH   1  33
ATOM     33  O   UNL     1      -3.765  -1.826   4.404  1.00  0.00    -0.374 OA
BRANCH  33  34
ATOM     34  C   UNL     1      -2.516  -1.935   3.715  1.00  0.00     0.202 C 
BRANCH  34  35
ATOM     35  C   UNL     1      -1.612  -3.126   4.065  1.00  0.00     0.261 C 
BRANCH  35  36
ATOM     36  O   UNL     1      -2.177  -4.396   3.671  1.00  0.00    -0.460 OA
BRANCH  36  37
ATOM     37  C   UNL     1      -2.124  -5.355   4.624  1.00  0.00     0.338 C 
ATOM     38  O   UNL     1      -1.605  -5.277   5.733  1.00  0.00    -0.246 OA
BRANCH  37  39
ATOM     39  C   UNL     1      -2.920  -6.530   4.238  1.00  0.00     0.060 A 
ATOM     40  C   UNL     1      -4.130  -6.759   4.905  1.00  0.00     0.016 A 
ATOM     41  C   UNL     1      -2.392  -7.492   3.376  1.00  0.00     0.016 A 
ATOM     42  C   UNL     1      -4.798  -7.973   4.741  1.00  0.00     0.010 A 
ATOM     43  C   UNL     1      -3.060  -8.713   3.220  1.00  0.00     0.010 A 
ATOM     44  C   UNL     1      -4.246  -8.973   3.930  1.00  0.00    -0.014 A 
BRANCH  44  45
ATOM     45  C   UNL     1      -4.840 -10.334   3.939  1.00  0.00     0.031 A 
ATOM     46  C   UNL     1      -4.249 -11.393   4.828  1.00  0.00     0.074 A 
ATOM     47  C   UNL     1      -5.921 -10.613   3.190  1.00  0.00     0.049 A 
ATOM     48  N   UNL     1      -4.605 -12.645   4.981  1.00  0.00    -0.248 NA
ATOM     49  C   UNL     1      -3.105 -10.988   5.658  1.00  0.00     0.031 C 
ATOM     50  C   UNL     1      -6.609  -9.666   2.317  1.00  0.00     0.029 A 
ATOM     51  N   UNL     1      -6.626 -11.782   3.046  1.00  0.00    -0.354 N 
ATOM     52  C   UNL     1      -3.730 -13.175   5.920  1.00  0.00     0.074 A 
ATOM     53  C   UNL     1      -2.810 -12.119   6.284  1.00  0.00     0.031 C 
ATOM     54  C   UNL     1      -7.638 -10.292   1.722  1.00  0.00     0.029 A 
ATOM     55  C   UNL     1      -7.663 -11.690   2.151  1.00  0.00     0.049 A 
ATOM     56  H   UNL     1      -6.409 -12.608   3.537  1.00  0.00     0.167 HD
ATOM     57  C   UNL     1      -3.701 -14.427   6.438  1.00  0.00     0.037 A 
ATOM     58  C   UNL     1      -8.521 -12.632   1.714  1.00  0.00     0.037 A 
ATOM     59  C   UNL     1      -4.613 -15.481   6.077  1.00  0.00     0.049 A 
ATOM     60  C   UNL     1      -8.423 -14.035   2.252  1.00  0.00     0.074 A 
ATOM     61  C   UNL     1      -4.673 -16.776   6.562  1.00  0.00     0.029 A 
ATOM     62  N   UNL     1      -5.622 -15.361   5.134  1.00  0.00    -0.354 N 
ATOM     63  N   UNL     1      -7.606 -14.522   3.154  1.00  0.00    -0.248 NA
ATOM     64  C   UNL     1      -9.367 -15.021   1.706  1.00  0.00     0.031 C 
ATOM     65  C   UNL     1      -5.691 -17.453   5.880  1.00  0.00     0.029 A 
ATOM     66  C   UNL     1      -6.293 -16.567   5.002  1.00  0.00     0.049 A 
ATOM     67  H   UNL     1      -5.832 -14.540   4.632  1.00  0.00     0.167 HD
ATOM     68  C   UNL     1      -7.949 -15.860   3.298  1.00  0.00     0.074 A 
ATOM     69  C   UNL     1      -9.058 -16.107   2.400  1.00  0.00     0.031 C 
ATOM     70  C   UNL     1      -7.394 -16.799   4.104  1.00  0.00     0.037 A 
BRANCH  57  71
ATOM     71  C   UNL     1      -2.626 -14.735   7.438  1.00  0.00     0.064 A 
ATOM     72  C   UNL     1      -2.677 -14.236   8.748  1.00  0.00     0.173 A 
ATOM     73  C   UNL     1      -1.550 -15.565   7.091  1.00  0.00     0.173 A 
ATOM     74  F   UNL     1      -3.680 -13.429   9.125  1.00  0.00    -0.203 F 
ATOM     75  C   UNL     1      -1.676 -14.539   9.668  1.00  0.00     0.198 A 
ATOM     76  C   UNL     1      -0.563 -15.884   8.021  1.00  0.00     0.198 A 
ATOM     77  F   UNL     1      -1.458 -16.071   5.853  1.00  0.00    -0.203 F 
ATOM     78  F   UNL     1      -1.723 -14.019  10.903  1.00  0.00    -0.200 F 
ATOM     79  C   UNL     1      -0.623 -15.366   9.305  1.00  0.00     0.200 A 
ATOM     80  F   UNL     1       0.448 -16.692   7.671  1.00  0.00    -0.200 F 
ATOM     81  F   UNL     1       0.337 -15.659  10.193  1.00  0.00    -0.200 F 
ENDBRANCH  57  71
BRANCH  58  82
ATOM     82  C   UNL     1      -9.547 -12.280   0.701  1.00  0.00     0.064 A 
ATOM     83  C   UNL     1     -10.906 -12.221   1.039  1.00  0.00     0.173 A 
ATOM     84  C   UNL     1      -9.190 -12.003  -0.627  1.00  0.00     0.173 A 
ATOM     85  F   UNL     1     -11.297 -12.507   2.289  1.00  0.00    -0.203 F 
ATOM     86  C   UNL     1     -11.870 -11.907   0.084  1.00  0.00     0.198 A 
ATOM     87  C   UNL     1     -10.153 -11.666  -1.575  1.00  0.00     0.198 A 
ATOM     88  F   UNL     1      -7.903 -12.057  -1.001  1.00  0.00    -0.203 F 
ATOM     89  F   UNL     1     -13.167 -11.896   0.423  1.00  0.00    -0.200 F 
ATOM     90  C   UNL     1     -11.493 -11.623  -1.220  1.00  0.00     0.200 A 
ATOM     91  F   UNL     1      -9.784 -11.389  -2.833  1.00  0.00    -0.200 F 
ATOM     92  F   UNL     1     -12.421 -11.319  -2.137  1.00  0.00    -0.200 F 
ENDBRANCH  58  82
BRANCH  70  93
ATOM     93  C   UNL     1      -7.990 -18.176   4.068  1.00  0.00     0.064 A 
ATOM     94  C   UNL     1      -7.772 -19.040   2.985  1.00  0.00     0.173 A 
ATOM     95  C   UNL     1      -8.752 -18.651   5.146  1.00  0.00     0.173 A 
ATOM     96  F   UNL     1      -7.062 -18.628   1.924  1.00  0.00    -0.203 F 
ATOM     97  C   UNL     1      -8.314 -20.323   2.974  1.00  0.00     0.198 A 
ATOM     98  C   UNL     1      -9.272 -19.942   5.142  1.00  0.00     0.198 A 
ATOM     99  F   UNL     1      -8.984 -17.865   6.207  1.00  0.00    -0.203 F 
ATOM    100  F   UNL     1      -8.127 -21.118   1.911  1.00  0.00    -0.200 F 
ATOM    101  C   UNL     1      -9.058 -20.775   4.054  1.00  0.00     0.200 A 
ATOM    102  F   UNL     1      -9.981 -20.381   6.191  1.00  0.00    -0.200 F 
ATOM    103  F   UNL     1      -9.574 -22.012   4.043  1.00  0.00    -0.200 F 
ENDBRANCH  70  93
ENDBRANCH  44  45
ENDBRANCH  37  39
ENDBRANCH  36  37
ENDBRANCH  35  36
ENDBRANCH  34  35
ENDBRANCH  33  34
ENDBRANCH   1  33
TORSDOF 19
