REMARK SMILES O=C(OCCOCCOC(=O)c1ccc(-c2c3nc(c(-c4c(F)c(F)c(F)c(F)c4F)c4ccc([nH]4)c(-c4c(F)c(F)c(F)c(F)c4F)c4nc(c(-c5c(F)c(F)c(F)c(F)c5F)c5ccc2[nH]5)C=C4)C=C3)cc1)C1=Cc2cc(Cl)ccc2O[C@@H]1C(F)(F)F
REMARK SMILES IDX 7 1 6 2 5 3 4 4 3 5 2 6 1 7 75 8 76 9 85 10 77 11 84 12
REMARK SMILES IDX 78 13 83 14 79 15 82 16 80 17 81 18 86 19 87 20 88 21 89 22
REMARK SMILES IDX 8 23 9 24 10 25 11 26 12 27 13 28 74 29 14 30 73 31 15 32
REMARK SMILES IDX 16 33 17 34 67 35 18 36 72 37 66 38 68 39 19 40 71 41 65 42
REMARK SMILES IDX 64 43 20 45 52 46 32 47 51 48 33 49 36 50 50 51 69 52 34 53
REMARK SMILES IDX 35 54 49 56 70 57 37 58 21 59 22 60 30 61 23 62 24 63 28 64
REMARK SMILES IDX 31 65 25 66 26 67 29 68 27 69 53 70 54 71 62 72 55 73 56 74
REMARK SMILES IDX 60 75 63 76 57 77 58 78 61 79 59 80 38 81 39 82 47 83 40 84
REMARK SMILES IDX 41 85 45 86 48 87 42 88 43 89 46 90 44 91
REMARK H PARENT 68 44 36 55
REMARK Flexibility Score: inf
ROOT
ATOM      1  C   UNL     1       2.865   1.422   2.726  1.00  0.00     0.202 C 
ENDROOT
BRANCH   1   2
ATOM      2  O   UNL     1       4.060   0.734   2.320  1.00  0.00    -0.374 OA
BRANCH   2   3
ATOM      3  C   UNL     1       4.394  -0.287   1.123  1.00  0.00     0.202 C 
BRANCH   3   4
ATOM      4  C   UNL     1       3.474  -0.572  -0.838  1.00  0.00     0.261 C 
BRANCH   4   5
ATOM      5  O   UNL     1       2.494  -1.680  -1.231  1.00  0.00    -0.460 OA
BRANCH   5   6
ATOM      6  C   UNL     1       2.678  -2.802  -0.530  1.00  0.00     0.338 C 
ATOM      7  O   UNL     1       2.034  -3.818  -0.533  1.00  0.00    -0.246 OA
BRANCH   6   8
ATOM      8  C   UNL     1       3.594  -2.233   0.437  1.00  0.00     0.087 C 
ATOM      9  C   UNL     1       4.968  -2.102  -0.115  1.00  0.00     0.027 C 
ATOM     10  C   UNL     1       2.458  -0.740   0.920  1.00  0.00     0.316 C 
ATOM     11  C   UNL     1       5.694  -0.526  -0.649  1.00  0.00     0.019 A 
ATOM     12  O   UNL     1       3.186   0.942   0.314  1.00  0.00    -0.475 OA
ATOM     13  C   UNL     1       6.872  -0.524  -1.346  1.00  0.00     0.032 A 
ATOM     14  C   UNL     1       4.810   0.964  -0.521  1.00  0.00     0.128 A 
ATOM     15  C   UNL     1       7.202   0.705  -1.945  1.00  0.00     0.041 A 
ATOM     16  C   UNL     1       5.152   2.073  -1.231  1.00  0.00     0.048 A 
ATOM     17  Cl  UNL     1       8.692   0.770  -2.832  1.00  0.00    -0.084 Cl
ATOM     18  C   UNL     1       6.380   1.910  -1.922  1.00  0.00     0.024 A 
BRANCH  10  19
ATOM     19  C   UNL     1       2.044  -1.234   2.373  1.00  0.00     0.430 C 
ATOM     20  F   UNL     1       1.168  -0.452   3.028  1.00  0.00    -0.167 F 
ATOM     21  F   UNL     1       1.397  -2.429   2.219  1.00  0.00    -0.167 F 
ATOM     22  F   UNL     1       3.080  -1.511   3.196  1.00  0.00    -0.167 F 
ENDBRANCH  10  19
ENDBRANCH   6   8
ENDBRANCH   5   6
ENDBRANCH   4   5
ENDBRANCH   3   4
ENDBRANCH   2   3
ENDBRANCH   1   2
BRANCH   1  23
ATOM     23  C   UNL     1       2.999   2.924   2.938  1.00  0.00     0.261 C 
BRANCH  23  24
ATOM     24  O   UNL     1       3.477   3.589   1.782  1.00  0.00    -0.460 OA
BRANCH  24  25
ATOM     25  C   UNL     1       4.796   3.876   1.808  1.00  0.00     0.338 C 
ATOM     26  O   UNL     1       5.639   3.500   2.601  1.00  0.00    -0.246 OA
BRANCH  25  27
ATOM     27  C   UNL     1       5.062   4.769   0.671  1.00  0.00     0.060 A 
ATOM     28  C   UNL     1       6.305   4.689   0.037  1.00  0.00     0.016 A 
ATOM     29  C   UNL     1       4.066   5.640   0.207  1.00  0.00     0.016 A 
ATOM     30  C   UNL     1       6.537   5.442  -1.108  1.00  0.00     0.010 A 
ATOM     31  C   UNL     1       4.306   6.414  -0.915  1.00  0.00     0.010 A 
ATOM     32  C   UNL     1       5.545   6.318  -1.566  1.00  0.00    -0.014 A 
BRANCH  32  33
ATOM     33  C   UNL     1       5.875   7.342  -2.565  1.00  0.00     0.031 A 
ATOM     34  C   UNL     1       6.377   8.649  -2.044  1.00  0.00     0.074 A 
ATOM     35  C   UNL     1       5.657   7.132  -3.871  1.00  0.00     0.049 A 
ATOM     36  N   UNL     1       6.613   9.762  -2.680  1.00  0.00    -0.248 NA
ATOM     37  C   UNL     1       6.628   8.709  -0.593  1.00  0.00     0.031 C 
ATOM     38  C   UNL     1       5.191   5.879  -4.459  1.00  0.00     0.029 A 
ATOM     39  N   UNL     1       5.775   7.989  -4.932  1.00  0.00    -0.354 N 
ATOM     40  C   UNL     1       7.034  10.656  -1.707  1.00  0.00     0.074 A 
ATOM     41  C   UNL     1       6.987   9.971  -0.436  1.00  0.00     0.031 C 
ATOM     42  C   UNL     1       5.034   6.058  -5.782  1.00  0.00     0.029 A 
ATOM     43  C   UNL     1       5.346   7.447  -6.116  1.00  0.00     0.049 A 
ATOM     44  H   UNL     1       6.131   8.903  -4.852  1.00  0.00     0.167 HD
ATOM     45  C   UNL     1       7.420  11.941  -1.868  1.00  0.00     0.037 A 
ATOM     46  C   UNL     1       5.189   8.033  -7.319  1.00  0.00     0.037 A 
ATOM     47  C   UNL     1       7.404  12.612  -3.138  1.00  0.00     0.049 A 
ATOM     48  C   UNL     1       5.544   9.491  -7.466  1.00  0.00     0.074 A 
ATOM     49  C   UNL     1       7.774  13.909  -3.433  1.00  0.00     0.029 A 
ATOM     50  N   UNL     1       6.958  12.037  -4.323  1.00  0.00    -0.354 N 
ATOM     51  N   UNL     1       5.979  10.333  -6.557  1.00  0.00    -0.248 NA
ATOM     52  C   UNL     1       5.389  10.081  -8.801  1.00  0.00     0.031 C 
ATOM     53  C   UNL     1       7.470  14.146  -4.777  1.00  0.00     0.029 A 
ATOM     54  C   UNL     1       7.007  12.968  -5.346  1.00  0.00     0.049 A 
ATOM     55  H   UNL     1       6.653  11.106  -4.420  1.00  0.00     0.167 HD
ATOM     56  C   UNL     1       6.185  11.539  -7.214  1.00  0.00     0.074 A 
ATOM     57  C   UNL     1       5.823  11.319  -8.600  1.00  0.00     0.031 C 
ATOM     58  C   UNL     1       6.645  12.717  -6.721  1.00  0.00     0.037 A 
BRANCH  45  59
ATOM     59  C   UNL     1       7.803  12.696  -0.628  1.00  0.00     0.064 A 
ATOM     60  C   UNL     1       8.919  12.341   0.147  1.00  0.00     0.173 A 
ATOM     61  C   UNL     1       7.004  13.756  -0.176  1.00  0.00     0.173 A 
ATOM     62  F   UNL     1       9.705  11.319  -0.226  1.00  0.00    -0.203 F 
ATOM     63  C   UNL     1       9.183  12.979   1.357  1.00  0.00     0.198 A 
ATOM     64  C   UNL     1       7.298  14.422   1.009  1.00  0.00     0.198 A 
ATOM     65  F   UNL     1       5.923  14.136  -0.874  1.00  0.00    -0.203 F 
ATOM     66  F   UNL     1      10.197  12.558   2.126  1.00  0.00    -0.200 F 
ATOM     67  C   UNL     1       8.375  14.021   1.784  1.00  0.00     0.200 A 
ATOM     68  F   UNL     1       6.523  15.438   1.414  1.00  0.00    -0.200 F 
ATOM     69  F   UNL     1       8.623  14.627   2.953  1.00  0.00    -0.200 F 
ENDBRANCH  45  59
BRANCH  46  70
ATOM     70  C   UNL     1       4.656   7.239  -8.456  1.00  0.00     0.064 A 
ATOM     71  C   UNL     1       5.465   6.902  -9.549  1.00  0.00     0.173 A 
ATOM     72  C   UNL     1       3.333   6.771  -8.456  1.00  0.00     0.173 A 
ATOM     73  F   UNL     1       6.731   7.343  -9.607  1.00  0.00    -0.203 F 
ATOM     74  C   UNL     1       4.970   6.133 -10.601  1.00  0.00     0.198 A 
ATOM     75  C   UNL     1       2.848   5.977  -9.493  1.00  0.00     0.198 A 
ATOM     76  F   UNL     1       2.517   7.062  -7.432  1.00  0.00    -0.203 F 
ATOM     77  F   UNL     1       5.755   5.852 -11.650  1.00  0.00    -0.200 F 
ATOM     78  C   UNL     1       3.666   5.662 -10.568  1.00  0.00     0.200 A 
ATOM     79  F   UNL     1       1.593   5.510  -9.446  1.00  0.00    -0.200 F 
ATOM     80  F   UNL     1       3.197   4.907 -11.570  1.00  0.00    -0.200 F 
ENDBRANCH  46  70
BRANCH  58  81
ATOM     81  C   UNL     1       6.849  13.849  -7.689  1.00  0.00     0.064 A 
ATOM     82  C   UNL     1       5.776  14.535  -8.274  1.00  0.00     0.173 A 
ATOM     83  C   UNL     1       8.149  14.311  -7.956  1.00  0.00     0.173 A 
ATOM     84  F   UNL     1       4.516  14.129  -8.060  1.00  0.00    -0.203 F 
ATOM     85  C   UNL     1       5.998  15.631  -9.105  1.00  0.00     0.198 A 
ATOM     86  C   UNL     1       8.364  15.430  -8.753  1.00  0.00     0.198 A 
ATOM     87  F   UNL     1       9.210  13.697  -7.411  1.00  0.00    -0.203 F 
ATOM     88  F   UNL     1       4.960  16.248  -9.687  1.00  0.00    -0.200 F 
ATOM     89  C   UNL     1       7.289  16.086  -9.332  1.00  0.00     0.200 A 
ATOM     90  F   UNL     1       9.610  15.881  -8.949  1.00  0.00    -0.200 F 
ATOM     91  F   UNL     1       7.497  17.156 -10.111  1.00  0.00    -0.200 F 
ENDBRANCH  58  81
ENDBRANCH  32  33
ENDBRANCH  25  27
ENDBRANCH  24  25
ENDBRANCH  23  24
ENDBRANCH   1  23
TORSDOF 15
