REMARK SMILES CC[C@@H](C)[C@@H](NC(N)=O)C(=O)N1CCC[C@H](C(=O)OCCOCCOC(=O)c2ccc(-c3c4nc(c(-c5c(F)c(F)c(F)c(F)c5F)c5ccc([nH]5)c(-c5c(F)c(F)c(F)c(F)c5F)c5nc(c(-c6c(F)c(F)c(F)c(F)c6F)c6ccc3[nH]6)C=C5)C=C4)cc2)C1
REMARK SMILES IDX 21 1 20 2 19 3 17 4 18 5 16 6 12 7 13 8 91 9 14 10 15 11
REMARK SMILES IDX 10 12 11 13 5 14 3 15 4 16 2 17 1 18 6 19 7 20 8 22 9 23
REMARK SMILES IDX 22 26 23 27 24 28 25 29 26 30 27 31 28 32 29 33 90 34 30 35
REMARK SMILES IDX 89 36 31 37 32 38 33 39 83 40 34 41 88 42 82 43 84 44 35 45
REMARK SMILES IDX 87 46 81 47 80 48 36 50 68 51 48 52 67 53 49 54 52 55 66 56
REMARK SMILES IDX 85 57 50 58 51 59 65 61 86 62 53 63 37 64 38 65 46 66 39 67
REMARK SMILES IDX 40 68 44 69 47 70 41 71 42 72 45 73 43 74 69 75 70 76 78 77
REMARK SMILES IDX 71 78 72 79 76 80 79 81 73 82 74 83 77 84 75 85 54 86 55 87
REMARK SMILES IDX 63 88 56 89 57 90 61 91 64 92 58 93 59 94 62 95 60 96
REMARK H PARENT 6 21 8 24 8 25 84 49 52 60
REMARK Flexibility Score: inf
ROOT
ATOM      1  C   UNL     1       1.632   3.879  -6.388  1.00  0.00     0.202 C 
ENDROOT
BRANCH   1   2
ATOM      2  C   UNL     1       1.459   3.496  -4.919  1.00  0.00     0.261 C 
BRANCH   2   3
ATOM      3  O   UNL     1       2.455   4.127  -4.095  1.00  0.00    -0.463 OA
BRANCH   3   4
ATOM      4  C   UNL     1       3.199   3.333  -3.286  1.00  0.00     0.310 C 
ATOM      5  O   UNL     1       3.073   2.118  -3.184  1.00  0.00    -0.252 OA
BRANCH   4   6
ATOM      6  C   UNL     1       4.207   4.114  -2.452  1.00  0.00     0.119 C 
ATOM      7  N   UNL     1       2.564   5.278  -1.090  1.00  0.00    -0.340 N 
ATOM      8  C   UNL     1       2.956   6.609  -1.531  1.00  0.00     0.119 C 
ATOM      9  C   UNL     1       3.648   4.308  -1.043  1.00  0.00     0.134 C 
ATOM     10  C   UNL     1       3.631   6.587  -2.899  1.00  0.00     0.022 C 
ATOM     11  C   UNL     1       4.668   5.465  -3.028  1.00  0.00     0.019 C 
BRANCH   7  12
ATOM     12  C   UNL     1       1.210   4.955  -1.025  1.00  0.00     0.245 C 
ATOM     13  O   UNL     1       0.405   5.455  -1.819  1.00  0.00    -0.272 OA
BRANCH  12  14
ATOM     14  C   UNL     1       0.728   3.896   0.026  1.00  0.00     0.176 C 
BRANCH  14  15
ATOM     15  C   UNL     1       0.794   2.420  -0.470  1.00  0.00     0.018 C 
ATOM     16  C   UNL     1       0.023   2.221  -1.781  1.00  0.00     0.010 C 
BRANCH  15  17
ATOM     17  C   UNL     1       0.275   1.407   0.581  1.00  0.00     0.002 C 
ATOM     18  C   UNL     1       0.714  -0.024   0.275  1.00  0.00     0.004 C 
ENDBRANCH  15  17
ENDBRANCH  14  15
BRANCH  14  19
ATOM     19  N   UNL     1       1.486   4.103   1.271  1.00  0.00    -0.326 N 
ATOM     20  C   UNL     1       1.465   5.308   1.910  1.00  0.00     0.312 C 
ATOM     21  H   UNL     1       2.014   3.362   1.648  1.00  0.00     0.166 HD
ATOM     22  N   UNL     1       2.165   5.312   3.065  1.00  0.00    -0.352 N 
ATOM     23  O   UNL     1       0.925   6.325   1.498  1.00  0.00    -0.249 OA
ATOM     24  H   UNL     1       2.594   4.485   3.384  1.00  0.00     0.161 HD
ATOM     25  H   UNL     1       2.246   6.142   3.589  1.00  0.00     0.161 HD
ENDBRANCH  14  19
ENDBRANCH  12  14
ENDBRANCH   7  12
ENDBRANCH   4   6
ENDBRANCH   3   4
ENDBRANCH   2   3
ENDBRANCH   1   2
BRANCH   1  26
ATOM     26  O   UNL     1       2.818   3.415  -7.030  1.00  0.00    -0.374 OA
BRANCH  26  27
ATOM     27  C   UNL     1       4.054   4.009  -6.640  1.00  0.00     0.202 C 
BRANCH  27  28
ATOM     28  C   UNL     1       4.337   5.427  -7.155  1.00  0.00     0.261 C 
BRANCH  28  29
ATOM     29  O   UNL     1       3.384   6.406  -6.701  1.00  0.00    -0.460 OA
BRANCH  29  30
ATOM     30  C   UNL     1       2.575   6.893  -7.676  1.00  0.00     0.338 C 
ATOM     31  O   UNL     1       2.611   6.627  -8.866  1.00  0.00    -0.246 OA
BRANCH  30  32
ATOM     32  C   UNL     1       1.494   7.718  -7.106  1.00  0.00     0.060 A 
ATOM     33  C   UNL     1       0.177   7.363  -7.427  1.00  0.00     0.016 A 
ATOM     34  C   UNL     1       1.758   8.891  -6.397  1.00  0.00     0.016 A 
ATOM     35  C   UNL     1      -0.878   8.210  -7.093  1.00  0.00     0.010 A 
ATOM     36  C   UNL     1       0.696   9.745  -6.067  1.00  0.00     0.010 A 
ATOM     37  C   UNL     1      -0.621   9.428  -6.450  1.00  0.00    -0.014 A 
BRANCH  37  38
ATOM     38  C   UNL     1      -1.714  10.426  -6.319  1.00  0.00     0.031 A 
ATOM     39  C   UNL     1      -1.771  11.584  -7.281  1.00  0.00     0.074 A 
ATOM     40  C   UNL     1      -2.668  10.283  -5.382  1.00  0.00     0.049 A 
ATOM     41  N   UNL     1      -2.613  12.586  -7.329  1.00  0.00    -0.248 NA
ATOM     42  C   UNL     1      -0.741  11.618  -8.331  1.00  0.00     0.031 C 
ATOM     43  C   UNL     1      -2.745   9.189  -4.416  1.00  0.00     0.029 A 
ATOM     44  N   UNL     1      -3.753  11.073  -5.085  1.00  0.00    -0.354 N 
ATOM     45  C   UNL     1      -2.206  13.374  -8.398  1.00  0.00     0.074 A 
ATOM     46  C   UNL     1      -1.031  12.747  -8.963  1.00  0.00     0.031 C 
ATOM     47  C   UNL     1      -3.812   9.384  -3.621  1.00  0.00     0.029 A 
ATOM     48  C   UNL     1      -4.471  10.633  -4.000  1.00  0.00     0.049 A 
ATOM     49  H   UNL     1      -3.992  11.877  -5.600  1.00  0.00     0.167 HD
ATOM     50  C   UNL     1      -2.766  14.513  -8.868  1.00  0.00     0.037 A 
ATOM     51  C   UNL     1      -5.523  11.191  -3.368  1.00  0.00     0.037 A 
ATOM     52  C   UNL     1      -3.949  15.124  -8.321  1.00  0.00     0.049 A 
ATOM     53  C   UNL     1      -6.094  12.488  -3.885  1.00  0.00     0.074 A 
ATOM     54  C   UNL     1      -4.614  16.257  -8.758  1.00  0.00     0.029 A 
ATOM     55  N   UNL     1      -4.640  14.657  -7.213  1.00  0.00    -0.354 N 
ATOM     56  N   UNL     1      -5.726  13.204  -4.920  1.00  0.00    -0.248 NA
ATOM     57  C   UNL     1      -7.233  13.053  -3.145  1.00  0.00     0.031 C 
ATOM     58  C   UNL     1      -5.674  16.508  -7.881  1.00  0.00     0.029 A 
ATOM     59  C   UNL     1      -5.706  15.497  -6.935  1.00  0.00     0.049 A 
ATOM     60  H   UNL     1      -4.407  13.848  -6.702  1.00  0.00     0.167 HD
ATOM     61  C   UNL     1      -6.604  14.280  -4.973  1.00  0.00     0.074 A 
ATOM     62  C   UNL     1      -7.533  14.116  -3.877  1.00  0.00     0.031 C 
ATOM     63  C   UNL     1      -6.636  15.312  -5.851  1.00  0.00     0.037 A 
BRANCH  50  64
ATOM     64  C   UNL     1      -2.102  15.202 -10.024  1.00  0.00     0.064 A 
ATOM     65  C   UNL     1      -2.173  14.692 -11.329  1.00  0.00     0.173 A 
ATOM     66  C   UNL     1      -1.459  16.435  -9.834  1.00  0.00     0.173 A 
ATOM     67  F   UNL     1      -2.768  13.513 -11.562  1.00  0.00    -0.203 F 
ATOM     68  C   UNL     1      -1.617  15.389 -12.399  1.00  0.00     0.198 A 
ATOM     69  C   UNL     1      -0.928  17.140 -10.910  1.00  0.00     0.198 A 
ATOM     70  F   UNL     1      -1.369  16.969  -8.606  1.00  0.00    -0.203 F 
ATOM     71  F   UNL     1      -1.673  14.872 -13.635  1.00  0.00    -0.200 F 
ATOM     72  C   UNL     1      -1.005  16.616 -12.191  1.00  0.00     0.200 A 
ATOM     73  F   UNL     1      -0.351  18.334 -10.708  1.00  0.00    -0.200 F 
ATOM     74  F   UNL     1      -0.490  17.295 -13.226  1.00  0.00    -0.200 F 
ENDBRANCH  50  64
BRANCH  51  75
ATOM     75  C   UNL     1      -6.092  10.551  -2.152  1.00  0.00     0.064 A 
ATOM     76  C   UNL     1      -7.393  10.031  -2.143  1.00  0.00     0.173 A 
ATOM     77  C   UNL     1      -5.362  10.499  -0.954  1.00  0.00     0.173 A 
ATOM     78  F   UNL     1      -8.144  10.086  -3.254  1.00  0.00    -0.203 F 
ATOM     79  C   UNL     1      -7.954   9.512  -0.978  1.00  0.00     0.198 A 
ATOM     80  C   UNL     1      -5.911   9.949   0.202  1.00  0.00     0.198 A 
ATOM     81  F   UNL     1      -4.116  10.992  -0.905  1.00  0.00    -0.203 F 
ATOM     82  F   UNL     1      -9.225   9.086  -0.981  1.00  0.00    -0.200 F 
ATOM     83  C   UNL     1      -7.211   9.468   0.193  1.00  0.00     0.200 A 
ATOM     84  F   UNL     1      -5.189   9.904   1.329  1.00  0.00    -0.200 F 
ATOM     85  F   UNL     1      -7.755   8.979   1.315  1.00  0.00    -0.200 F 
ENDBRANCH  51  75
BRANCH  63  86
ATOM     86  C   UNL     1      -7.737  16.322  -5.696  1.00  0.00     0.064 A 
ATOM     87  C   UNL     1      -7.760  17.235  -4.632  1.00  0.00     0.173 A 
ATOM     88  C   UNL     1      -8.761  16.405  -6.653  1.00  0.00     0.173 A 
ATOM     89  F   UNL     1      -6.811  17.190  -3.684  1.00  0.00    -0.203 F 
ATOM     90  C   UNL     1      -8.781  18.174  -4.516  1.00  0.00     0.198 A 
ATOM     91  C   UNL     1      -9.762  17.367  -6.552  1.00  0.00     0.198 A 
ATOM     92  F   UNL     1      -8.782  15.562  -7.697  1.00  0.00    -0.203 F 
ATOM     93  F   UNL     1      -8.809  19.004  -3.464  1.00  0.00    -0.200 F 
ATOM     94  C   UNL     1      -9.776  18.245  -5.480  1.00  0.00     0.200 A 
ATOM     95  F   UNL     1     -10.713  17.444  -7.493  1.00  0.00    -0.200 F 
ATOM     96  F   UNL     1     -10.753  19.156  -5.371  1.00  0.00    -0.200 F 
ENDBRANCH  63  86
ENDBRANCH  37  38
ENDBRANCH  30  32
ENDBRANCH  29  30
ENDBRANCH  28  29
ENDBRANCH  27  28
ENDBRANCH  26  27
ENDBRANCH   1  26
TORSDOF 19
