REMARK SMILES C[C@@]1(CN2C[C@H](C(=O)OCCOCCOC(=O)c3ccc(-c4c5nc(c(-c6c(F)c(F)c(F)c(F)c6F)c6ccc([nH]6)c(-c6c(F)c(F)c(F)c(F)c6F)c6nc(c(-c7c(F)c(F)c(F)c(F)c7F)c7ccc4[nH]7)C=C6)C=C5)cc3)CCC2=O)CCCO1
REMARK SMILES IDX 12 1 11 2 10 3 9 4 7 5 8 6 6 7 4 8 5 9 83 10 82 11 84 12
REMARK SMILES IDX 81 13 3 14 2 15 1 16 85 17 88 18 86 19 87 20 13 21 14 22
REMARK SMILES IDX 15 23 16 24 17 25 18 26 19 27 80 28 20 29 79 30 21 31 22 32
REMARK SMILES IDX 23 33 73 34 24 35 78 36 72 37 74 38 25 39 77 40 71 41 70 42
REMARK SMILES IDX 26 44 58 45 38 46 57 47 39 48 42 49 56 50 75 51 40 52 41 53
REMARK SMILES IDX 55 55 76 56 43 57 27 58 28 59 36 60 29 61 30 62 34 63 37 64
REMARK SMILES IDX 31 65 32 66 35 67 33 68 59 69 60 70 68 71 61 72 62 73 66 74
REMARK SMILES IDX 69 75 63 76 64 77 67 78 65 79 44 80 45 81 53 82 46 83 47 84
REMARK SMILES IDX 51 85 54 86 48 87 49 88 52 89 50 90
REMARK H PARENT 74 43 42 54
REMARK Flexibility Score: inf
ROOT
ATOM      1  O   UNL     1      -1.030  -0.231  -7.200  1.00  0.00    -0.374 OA
ENDROOT
BRANCH   1   2
ATOM      2  C   UNL     1      -0.359   0.941  -6.731  1.00  0.00     0.202 C 
BRANCH   2   3
ATOM      3  C   UNL     1      -1.254   1.943  -6.000  1.00  0.00     0.261 C 
BRANCH   3   4
ATOM      4  O   UNL     1      -1.531   1.488  -4.660  1.00  0.00    -0.463 OA
BRANCH   4   5
ATOM      5  C   UNL     1      -2.833   1.346  -4.304  1.00  0.00     0.310 C 
ATOM      6  O   UNL     1      -3.787   1.585  -5.032  1.00  0.00    -0.252 OA
BRANCH   5   7
ATOM      7  C   UNL     1      -2.997   0.915  -2.854  1.00  0.00     0.119 C 
ATOM      8  N   UNL     1      -0.737   0.133  -2.059  1.00  0.00    -0.339 N 
ATOM      9  C   UNL     1      -2.108  -0.236  -2.401  1.00  0.00     0.134 C 
ATOM     10  C   UNL     1      -0.318   1.438  -1.879  1.00  0.00     0.222 C 
ATOM     11  C   UNL     1      -1.371   2.532  -1.826  1.00  0.00     0.101 C 
ATOM     12  O   UNL     1       0.872   1.738  -1.760  1.00  0.00    -0.275 OA
ATOM     13  C   UNL     1      -2.821   2.083  -1.904  1.00  0.00     0.027 C 
BRANCH   8  14
ATOM     14  C   UNL     1       0.222  -0.960  -1.827  1.00  0.00     0.154 C 
BRANCH  14  15
ATOM     15  C   UNL     1       0.435  -1.354  -0.334  1.00  0.00     0.083 C 
ATOM     16  C   UNL     1       1.036  -0.226   0.507  1.00  0.00     0.044 C 
ATOM     17  C   UNL     1       1.323  -2.610  -0.231  1.00  0.00     0.039 C 
ATOM     18  O   UNL     1      -0.842  -1.720   0.249  1.00  0.00    -0.373 OA
ATOM     19  C   UNL     1       0.336  -3.724   0.019  1.00  0.00     0.031 C 
ATOM     20  C   UNL     1      -0.722  -3.021   0.832  1.00  0.00     0.161 C 
ENDBRANCH  14  15
ENDBRANCH   8  14
ENDBRANCH   5   7
ENDBRANCH   4   5
ENDBRANCH   3   4
ENDBRANCH   2   3
ENDBRANCH   1   2
BRANCH   1  21
ATOM     21  C   UNL     1      -1.340  -1.220  -6.223  1.00  0.00     0.202 C 
BRANCH  21  22
ATOM     22  C   UNL     1      -0.215  -2.216  -5.924  1.00  0.00     0.261 C 
BRANCH  22  23
ATOM     23  O   UNL     1       0.935  -1.574  -5.342  1.00  0.00    -0.460 OA
BRANCH  23  24
ATOM     24  C   UNL     1       1.993  -1.458  -6.178  1.00  0.00     0.338 C 
ATOM     25  O   UNL     1       2.097  -1.920  -7.306  1.00  0.00    -0.246 OA
BRANCH  24  26
ATOM     26  C   UNL     1       3.017  -0.560  -5.611  1.00  0.00     0.060 A 
ATOM     27  C   UNL     1       3.557   0.411  -6.462  1.00  0.00     0.016 A 
ATOM     28  C   UNL     1       3.517  -0.722  -4.316  1.00  0.00     0.016 A 
ATOM     29  C   UNL     1       4.643   1.177  -6.048  1.00  0.00     0.010 A 
ATOM     30  C   UNL     1       4.608   0.051  -3.899  1.00  0.00     0.010 A 
ATOM     31  C   UNL     1       5.205   0.969  -4.781  1.00  0.00    -0.014 A 
BRANCH  31  32
ATOM     32  C   UNL     1       6.514   1.593  -4.465  1.00  0.00     0.031 A 
ATOM     33  C   UNL     1       7.767   0.773  -4.616  1.00  0.00     0.074 A 
ATOM     34  C   UNL     1       6.596   2.887  -4.111  1.00  0.00     0.049 A 
ATOM     35  N   UNL     1       9.016   1.117  -4.427  1.00  0.00    -0.248 NA
ATOM     36  C   UNL     1       7.588  -0.625  -5.039  1.00  0.00     0.031 C 
ATOM     37  C   UNL     1       5.460   3.792  -3.957  1.00  0.00     0.029 A 
ATOM     38  N   UNL     1       7.690   3.663  -3.820  1.00  0.00    -0.354 N 
ATOM     39  C   UNL     1       9.767  -0.017  -4.703  1.00  0.00     0.074 A 
ATOM     40  C   UNL     1       8.835  -1.071  -5.043  1.00  0.00     0.031 C 
ATOM     41  C   UNL     1       5.916   5.005  -3.599  1.00  0.00     0.029 A 
ATOM     42  C   UNL     1       7.372   4.953  -3.475  1.00  0.00     0.049 A 
ATOM     43  H   UNL     1       8.614   3.326  -3.855  1.00  0.00     0.167 HD
ATOM     44  C   UNL     1      11.113  -0.165  -4.688  1.00  0.00     0.037 A 
ATOM     45  C   UNL     1       8.168   5.970  -3.092  1.00  0.00     0.037 A 
ATOM     46  C   UNL     1      12.043   0.882  -4.360  1.00  0.00     0.049 A 
ATOM     47  C   UNL     1       9.660   5.767  -3.038  1.00  0.00     0.074 A 
ATOM     48  C   UNL     1      13.426   0.835  -4.338  1.00  0.00     0.029 A 
ATOM     49  N   UNL     1      11.681   2.169  -3.990  1.00  0.00    -0.354 N 
ATOM     50  N   UNL     1      10.363   4.700  -3.331  1.00  0.00    -0.248 NA
ATOM     51  C   UNL     1      10.469   6.915  -2.604  1.00  0.00     0.031 C 
ATOM     52  C   UNL     1      13.900   2.080  -3.913  1.00  0.00     0.029 A 
ATOM     53  C   UNL     1      12.814   2.918  -3.716  1.00  0.00     0.049 A 
ATOM     54  H   UNL     1      10.756   2.501  -3.930  1.00  0.00     0.167 HD
ATOM     55  C   UNL     1      11.693   5.054  -3.144  1.00  0.00     0.074 A 
ATOM     56  C   UNL     1      11.701   6.439  -2.724  1.00  0.00     0.031 C 
ATOM     57  C   UNL     1      12.807   4.299  -3.306  1.00  0.00     0.037 A 
BRANCH  44  58
ATOM     58  C   UNL     1      11.663  -1.521  -5.020  1.00  0.00     0.064 A 
ATOM     59  C   UNL     1      11.649  -2.021  -6.330  1.00  0.00     0.173 A 
ATOM     60  C   UNL     1      12.241  -2.316  -4.018  1.00  0.00     0.173 A 
ATOM     61  F   UNL     1      11.095  -1.306  -7.320  1.00  0.00    -0.203 F 
ATOM     62  C   UNL     1      12.174  -3.278  -6.622  1.00  0.00     0.198 A 
ATOM     63  C   UNL     1      12.787  -3.561  -4.318  1.00  0.00     0.198 A 
ATOM     64  F   UNL     1      12.281  -1.882  -2.750  1.00  0.00    -0.203 F 
ATOM     65  F   UNL     1      12.112  -3.754  -7.873  1.00  0.00    -0.200 F 
ATOM     66  C   UNL     1      12.748  -4.043  -5.617  1.00  0.00     0.200 A 
ATOM     67  F   UNL     1      13.350  -4.295  -3.348  1.00  0.00    -0.200 F 
ATOM     68  F   UNL     1      13.257  -5.250  -5.901  1.00  0.00    -0.200 F 
ENDBRANCH  44  58
BRANCH  45  69
ATOM     69  C   UNL     1       7.569   7.279  -2.726  1.00  0.00     0.064 A 
ATOM     70  C   UNL     1       7.748   8.410  -3.534  1.00  0.00     0.173 A 
ATOM     71  C   UNL     1       6.818   7.429  -1.551  1.00  0.00     0.173 A 
ATOM     72  F   UNL     1       8.483   8.324  -4.653  1.00  0.00    -0.203 F 
ATOM     73  C   UNL     1       7.213   9.645  -3.173  1.00  0.00     0.198 A 
ATOM     74  C   UNL     1       6.261   8.657  -1.204  1.00  0.00     0.198 A 
ATOM     75  F   UNL     1       6.623   6.378  -0.740  1.00  0.00    -0.203 F 
ATOM     76  F   UNL     1       7.437  10.720  -3.939  1.00  0.00    -0.200 F 
ATOM     77  C   UNL     1       6.464   9.766  -2.011  1.00  0.00     0.200 A 
ATOM     78  F   UNL     1       5.533   8.768  -0.084  1.00  0.00    -0.200 F 
ATOM     79  F   UNL     1       5.949  10.953  -1.665  1.00  0.00    -0.200 F 
ENDBRANCH  45  69
BRANCH  57  80
ATOM     80  C   UNL     1      14.131   4.962  -3.062  1.00  0.00     0.064 A 
ATOM     81  C   UNL     1      14.568   5.277  -1.767  1.00  0.00     0.173 A 
ATOM     82  C   UNL     1      14.991   5.247  -4.134  1.00  0.00     0.173 A 
ATOM     83  F   UNL     1      13.778   5.036  -0.710  1.00  0.00    -0.203 F 
ATOM     84  C   UNL     1      15.807   5.878  -1.557  1.00  0.00     0.198 A 
ATOM     85  C   UNL     1      16.240   5.822  -3.918  1.00  0.00     0.198 A 
ATOM     86  F   UNL     1      14.623   4.958  -5.391  1.00  0.00    -0.203 F 
ATOM     87  F   UNL     1      16.186   6.212  -0.315  1.00  0.00    -0.200 F 
ATOM     88  C   UNL     1      16.644   6.144  -2.631  1.00  0.00     0.200 A 
ATOM     89  F   UNL     1      17.052   6.067  -4.955  1.00  0.00    -0.200 F 
ATOM     90  F   UNL     1      17.838   6.716  -2.426  1.00  0.00    -0.200 F 
ENDBRANCH  57  80
ENDBRANCH  31  32
ENDBRANCH  24  26
ENDBRANCH  23  24
ENDBRANCH  22  23
ENDBRANCH  21  22
ENDBRANCH   1  21
TORSDOF 16
