REMARK SMILES CS(=O)(=O)c1ccc(N2N=C(C(=O)OCCOCCOC(=O)c3ccc(-c4c5nc(c(-c6c(F)c(F)c(F)c(F)c6F)c6ccc([nH]6)c(-c6c(F)c(F)c(F)c(F)c6F)c6nc(c(-c7c(F)c(F)c(F)c(F)c7F)c7ccc4[nH]7)C=C6)C=C5)cc3)C[C@H]2c2cccs2)cc1
REMARK SMILES IDX 17 1 16 2 15 3 14 4 12 5 13 6 11 7 9 8 10 9 87 10 86 11 8 12
REMARK SMILES IDX 5 13 6 14 94 15 7 16 93 17 2 18 1 19 3 20 4 21 88 22 89 23
REMARK SMILES IDX 92 24 90 25 91 26 18 27 19 28 20 29 21 30 22 31 23 32 24 33
REMARK SMILES IDX 85 34 25 35 84 36 26 37 27 38 28 39 78 40 29 41 83 42 77 43
REMARK SMILES IDX 79 44 30 45 82 46 76 47 75 48 31 50 63 51 43 52 62 53 44 54
REMARK SMILES IDX 47 55 61 56 80 57 45 58 46 59 60 61 81 62 48 63 32 64 33 65
REMARK SMILES IDX 41 66 34 67 35 68 39 69 42 70 36 71 37 72 40 73 38 74 64 75
REMARK SMILES IDX 65 76 73 77 66 78 67 79 71 80 74 81 68 82 69 83 72 84 70 85
REMARK SMILES IDX 49 86 50 87 58 88 51 89 52 90 56 91 59 92 53 93 54 94 57 95
REMARK SMILES IDX 55 96
REMARK H PARENT 79 49 47 60
REMARK Flexibility Score: inf
ROOT
ATOM      1  O   UNL     1       1.945   4.591 -11.264  1.00  0.00    -0.374 OA
ENDROOT
BRANCH   1   2
ATOM      2  C   UNL     1       1.825   6.012 -11.337  1.00  0.00     0.202 C 
BRANCH   2   3
ATOM      3  C   UNL     1       0.852   6.618 -10.326  1.00  0.00     0.261 C 
BRANCH   3   4
ATOM      4  O   UNL     1       1.376   6.433  -9.003  1.00  0.00    -0.459 OA
BRANCH   4   5
ATOM      5  C   UNL     1       0.483   5.988  -8.100  1.00  0.00     0.354 C 
ATOM      6  O   UNL     1      -0.731   5.983  -8.189  1.00  0.00    -0.245 OA
BRANCH   5   7
ATOM      7  C   UNL     1       1.224   5.359  -6.952  1.00  0.00     0.148 C 
ATOM      8  N   UNL     1       1.737   4.026  -5.391  1.00  0.00    -0.256 N 
ATOM      9  N   UNL     1       0.852   4.240  -6.410  1.00  0.00    -0.169 NA
ATOM     10  C   UNL     1       2.465   5.261  -5.041  1.00  0.00     0.154 C 
ATOM     11  C   UNL     1       2.492   5.950  -6.415  1.00  0.00     0.099 C 
BRANCH   8  12
ATOM     12  C   UNL     1       1.453   3.013  -4.485  1.00  0.00     0.060 A 
ATOM     13  C   UNL     1       0.831   0.892  -2.760  1.00  0.00     0.067 A 
ATOM     14  C   UNL     1       1.925   0.784  -3.619  1.00  0.00     0.022 A 
ATOM     15  C   UNL     1       0.033   2.037  -2.764  1.00  0.00     0.022 A 
ATOM     16  C   UNL     1       2.236   1.850  -4.469  1.00  0.00     0.029 A 
ATOM     17  C   UNL     1       0.344   3.085  -3.632  1.00  0.00     0.029 A 
BRANCH  13  18
ATOM     18  S   UNL     1       0.395  -0.461  -1.695  1.00  0.00     0.175 S 
ATOM     19  C   UNL     1       1.038   0.040  -0.120  1.00  0.00     0.163 C 
ATOM     20  O   UNL     1       1.141  -1.627  -2.128  1.00  0.00    -0.224 OA
ATOM     21  O   UNL     1      -1.052  -0.494  -1.601  1.00  0.00    -0.224 OA
ENDBRANCH  13  18
ENDBRANCH   8  12
BRANCH  10  22
ATOM     22  C   UNL     1       1.844   6.114  -3.934  1.00  0.00     0.030 A 
ATOM     23  C   UNL     1       1.972   5.922  -2.567  1.00  0.00     0.017 A 
ATOM     24  S   UNL     1       0.819   7.460  -4.254  1.00  0.00    -0.147 S 
ATOM     25  C   UNL     1       1.230   6.868  -1.801  1.00  0.00     0.012 A 
ATOM     26  C   UNL     1       0.575   7.776  -2.598  1.00  0.00     0.065 A 
ENDBRANCH  10  22
ENDBRANCH   5   7
ENDBRANCH   4   5
ENDBRANCH   3   4
ENDBRANCH   2   3
ENDBRANCH   1   2
BRANCH   1  27
ATOM     27  C   UNL     1       2.795   4.056 -10.247  1.00  0.00     0.202 C 
BRANCH  27  28
ATOM     28  C   UNL     1       4.291   4.056 -10.580  1.00  0.00     0.261 C 
BRANCH  28  29
ATOM     29  O   UNL     1       4.826   5.393 -10.625  1.00  0.00    -0.460 OA
BRANCH  29  30
ATOM     30  C   UNL     1       5.186   5.820 -11.860  1.00  0.00     0.338 C 
ATOM     31  O   UNL     1       5.185   5.177 -12.896  1.00  0.00    -0.246 OA
BRANCH  30  32
ATOM     32  C   UNL     1       5.445   7.274 -11.839  1.00  0.00     0.060 A 
ATOM     33  C   UNL     1       4.830   8.052 -12.829  1.00  0.00     0.016 A 
ATOM     34  C   UNL     1       6.329   7.856 -10.928  1.00  0.00     0.016 A 
ATOM     35  C   UNL     1       5.136   9.407 -12.945  1.00  0.00     0.010 A 
ATOM     36  C   UNL     1       6.643   9.215 -11.052  1.00  0.00     0.010 A 
ATOM     37  C   UNL     1       6.076   9.986 -12.083  1.00  0.00    -0.014 A 
BRANCH  37  38
ATOM     38  C   UNL     1       6.582  11.352 -12.362  1.00  0.00     0.031 A 
ATOM     39  C   UNL     1       7.876  11.509 -13.112  1.00  0.00     0.074 A 
ATOM     40  C   UNL     1       5.888  12.439 -11.981  1.00  0.00     0.049 A 
ATOM     41  N   UNL     1       8.528  12.599 -13.428  1.00  0.00    -0.248 NA
ATOM     42  C   UNL     1       8.522  10.267 -13.568  1.00  0.00     0.031 C 
ATOM     43  C   UNL     1       4.601  12.420 -11.292  1.00  0.00     0.029 A 
ATOM     44  N   UNL     1       6.179  13.774 -12.120  1.00  0.00    -0.354 N 
ATOM     45  C   UNL     1       9.658  12.175 -14.116  1.00  0.00     0.074 A 
ATOM     46  C   UNL     1       9.620  10.729 -14.148  1.00  0.00     0.031 C 
ATOM     47  C   UNL     1       4.215  13.687 -11.056  1.00  0.00     0.029 A 
ATOM     48  C   UNL     1       5.242  14.601 -11.552  1.00  0.00     0.049 A 
ATOM     49  H   UNL     1       6.982  14.106 -12.582  1.00  0.00     0.167 HD
ATOM     50  C   UNL     1      10.635  12.925 -14.679  1.00  0.00     0.037 A 
ATOM     51  C   UNL     1       5.229  15.943 -11.432  1.00  0.00     0.037 A 
ATOM     52  C   UNL     1      10.676  14.363 -14.649  1.00  0.00     0.049 A 
ATOM     53  C   UNL     1       6.366  16.751 -12.002  1.00  0.00     0.074 A 
ATOM     54  C   UNL     1      11.626  15.212 -15.191  1.00  0.00     0.029 A 
ATOM     55  N   UNL     1       9.723  15.165 -14.040  1.00  0.00    -0.354 N 
ATOM     56  N   UNL     1       7.425  16.344 -12.658  1.00  0.00    -0.248 NA
ATOM     57  C   UNL     1       6.304  18.209 -11.813  1.00  0.00     0.031 C 
ATOM     58  C   UNL     1      11.267  16.527 -14.877  1.00  0.00     0.029 A 
ATOM     59  C   UNL     1      10.072  16.498 -14.177  1.00  0.00     0.049 A 
ATOM     60  H   UNL     1       8.919  14.835 -13.578  1.00  0.00     0.167 HD
ATOM     61  C   UNL     1       8.136  17.491 -12.988  1.00  0.00     0.074 A 
ATOM     62  C   UNL     1       7.386  18.613 -12.465  1.00  0.00     0.031 C 
ATOM     63  C   UNL     1       9.304  17.604 -13.665  1.00  0.00     0.037 A 
BRANCH  50  64
ATOM     64  C   UNL     1      11.755  12.200 -15.362  1.00  0.00     0.064 A 
ATOM     65  C   UNL     1      11.574  11.576 -16.605  1.00  0.00     0.173 A 
ATOM     66  C   UNL     1      13.032  12.158 -14.784  1.00  0.00     0.173 A 
ATOM     67  F   UNL     1      10.367  11.575 -17.191  1.00  0.00    -0.203 F 
ATOM     68  C   UNL     1      12.628  10.920 -17.236  1.00  0.00     0.198 A 
ATOM     69  C   UNL     1      14.090  11.523 -15.429  1.00  0.00     0.198 A 
ATOM     70  F   UNL     1      13.257  12.742 -13.597  1.00  0.00    -0.203 F 
ATOM     71  F   UNL     1      12.424  10.298 -18.406  1.00  0.00    -0.200 F 
ATOM     72  C   UNL     1      13.886  10.900 -16.651  1.00  0.00     0.200 A 
ATOM     73  F   UNL     1      15.306  11.511 -14.867  1.00  0.00    -0.200 F 
ATOM     74  F   UNL     1      14.900  10.273 -17.263  1.00  0.00    -0.200 F 
ENDBRANCH  50  64
BRANCH  51  75
ATOM     75  C   UNL     1       4.105  16.616 -10.731  1.00  0.00     0.064 A 
ATOM     76  C   UNL     1       3.190  17.414 -11.432  1.00  0.00     0.173 A 
ATOM     77  C   UNL     1       3.940  16.498  -9.343  1.00  0.00     0.173 A 
ATOM     78  F   UNL     1       3.324  17.579 -12.756  1.00  0.00    -0.203 F 
ATOM     79  C   UNL     1       2.164  18.084 -10.769  1.00  0.00     0.198 A 
ATOM     80  C   UNL     1       2.898  17.147  -8.685  1.00  0.00     0.198 A 
ATOM     81  F   UNL     1       4.791  15.749  -8.627  1.00  0.00    -0.203 F 
ATOM     82  F   UNL     1       1.331  18.878 -11.456  1.00  0.00    -0.200 F 
ATOM     83  C   UNL     1       2.016  17.946  -9.396  1.00  0.00     0.200 A 
ATOM     84  F   UNL     1       2.754  17.005  -7.360  1.00  0.00    -0.200 F 
ATOM     85  F   UNL     1       1.030  18.591  -8.759  1.00  0.00    -0.200 F 
ENDBRANCH  51  75
BRANCH  63  86
ATOM     86  C   UNL     1       9.824  18.988 -13.920  1.00  0.00     0.064 A 
ATOM     87  C   UNL     1      10.402  19.757 -12.900  1.00  0.00     0.173 A 
ATOM     88  C   UNL     1       9.786  19.532 -15.213  1.00  0.00     0.173 A 
ATOM     89  F   UNL     1      10.448  19.286 -11.644  1.00  0.00    -0.203 F 
ATOM     90  C   UNL     1      10.905  21.028 -13.161  1.00  0.00     0.198 A 
ATOM     91  C   UNL     1      10.313  20.793 -15.476  1.00  0.00     0.198 A 
ATOM     92  F   UNL     1       9.249  18.833 -16.225  1.00  0.00    -0.203 F 
ATOM     93  F   UNL     1      11.418  21.762 -12.164  1.00  0.00    -0.200 F 
ATOM     94  C   UNL     1      10.867  21.542 -14.449  1.00  0.00     0.200 A 
ATOM     95  F   UNL     1      10.286  21.283 -16.723  1.00  0.00    -0.200 F 
ATOM     96  F   UNL     1      11.359  22.763 -14.700  1.00  0.00    -0.200 F 
ENDBRANCH  63  86
ENDBRANCH  37  38
ENDBRANCH  30  32
ENDBRANCH  29  30
ENDBRANCH  28  29
ENDBRANCH  27  28
ENDBRANCH   1  27
TORSDOF 17
