REMARK SMILES [NH3+][C@@H](Cc1cccc(O)c1)C(=O)OCCOCCOC(=O)c1ccc(-c2c3nc(c(-c4c(F)c(F)c(F)c(F)c4F)c4ccc([nH]4)c(-c4c(F)c(F)c(F)c(F)c4F)c4nc(c(-c5c(F)c(F)c(F)c(F)c5F)c5ccc2[nH]5)C=C4)C=C3)cc1
REMARK SMILES IDX 15 1 14 2 13 3 11 4 12 5 2 6 1 7 3 11 4 12 5 13 10 14 6 15
REMARK SMILES IDX 8 16 7 17 9 18 16 20 17 21 18 22 19 23 20 24 21 25 22 26
REMARK SMILES IDX 23 27 84 28 24 29 83 30 25 31 26 32 27 33 77 34 28 35 82 36
REMARK SMILES IDX 76 37 78 38 29 39 81 40 75 41 74 42 30 44 62 45 42 46 61 47
REMARK SMILES IDX 43 48 46 49 60 50 79 51 44 52 45 53 59 55 80 56 47 57 31 58
REMARK SMILES IDX 32 59 40 60 33 61 34 62 38 63 41 64 35 65 36 66 39 67 37 68
REMARK SMILES IDX 63 69 64 70 72 71 65 72 66 73 70 74 73 75 67 76 68 77 71 78
REMARK SMILES IDX 69 79 48 80 49 81 57 82 50 83 51 84 55 85 58 86 52 87 53 88
REMARK SMILES IDX 56 89 54 90
REMARK H PARENT 1 8 1 9 1 10 9 19 78 43 46 54
REMARK Flexibility Score: inf
ROOT
ATOM      1  C   UNL     1      -3.785  -0.038   0.749  1.00  0.00     0.202 C 
ENDROOT
BRANCH   1   2
ATOM      2  C   UNL     1      -3.021   0.897   1.686  1.00  0.00     0.261 C 
BRANCH   2   3
ATOM      3  O   UNL     1      -1.638   0.952   1.296  1.00  0.00    -0.459 OA
BRANCH   3   4
ATOM      4  C   UNL     1      -0.732   0.921   2.311  1.00  0.00     0.365 C 
ATOM      5  O   UNL     1      -1.014   0.985   3.502  1.00  0.00    -0.245 OA
BRANCH   4   6
ATOM      6  C   UNL     1       0.708   0.840   1.796  1.00  0.00     0.296 C 
BRANCH   6   7
ATOM      7  N   UNL     1       0.896  -0.119   0.681  1.00  0.00    -0.346 N 
ATOM      8  H   UNL     1       1.874  -0.119   0.393  1.00  0.00     0.345 HD
ATOM      9  H   UNL     1       0.309   0.155  -0.107  1.00  0.00     0.345 HD
ATOM     10  H   UNL     1       0.633  -1.055   0.990  1.00  0.00     0.345 HD
ENDBRANCH   6   7
BRANCH   6  11
ATOM     11  C   UNL     1       1.298   2.243   1.578  1.00  0.00     0.113 C 
BRANCH  11  12
ATOM     12  C   UNL     1       0.723   3.225   0.574  1.00  0.00    -0.038 A 
ATOM     13  C   UNL     1       0.986   4.591   0.790  1.00  0.00     0.004 A 
ATOM     14  C   UNL     1       0.029   2.876  -0.590  1.00  0.00     0.050 A 
ATOM     15  C   UNL     1       0.561   5.569  -0.114  1.00  0.00     0.004 A 
ATOM     16  C   UNL     1      -0.391   3.857  -1.491  1.00  0.00     0.115 A 
ATOM     17  C   UNL     1      -0.131   5.202  -1.264  1.00  0.00     0.046 A 
BRANCH  16  18
ATOM     18  O   UNL     1      -1.054   3.447  -2.611  1.00  0.00    -0.508 OA
ATOM     19  H   UNL     1      -1.350   4.077  -3.237  1.00  0.00     0.293 HD
ENDBRANCH  16  18
ENDBRANCH  11  12
ENDBRANCH   6  11
ENDBRANCH   4   6
ENDBRANCH   3   4
ENDBRANCH   2   3
ENDBRANCH   1   2
BRANCH   1  20
ATOM     20  O   UNL     1      -3.508  -1.431   0.914  1.00  0.00    -0.374 OA
BRANCH  20  21
ATOM     21  C   UNL     1      -2.248  -1.899   0.434  1.00  0.00     0.202 C 
BRANCH  21  22
ATOM     22  C   UNL     1      -2.176  -2.193  -1.070  1.00  0.00     0.261 C 
BRANCH  22  23
ATOM     23  O   UNL     1      -2.436  -1.033  -1.882  1.00  0.00    -0.460 OA
BRANCH  23  24
ATOM     24  C   UNL     1      -3.634  -1.036  -2.512  1.00  0.00     0.338 C 
ATOM     25  O   UNL     1      -4.474  -1.928  -2.517  1.00  0.00    -0.246 OA
BRANCH  24  26
ATOM     26  C   UNL     1      -3.896   0.285  -3.109  1.00  0.00     0.060 A 
ATOM     27  C   UNL     1      -5.054   0.966  -2.713  1.00  0.00     0.016 A 
ATOM     28  C   UNL     1      -3.061   0.819  -4.092  1.00  0.00     0.016 A 
ATOM     29  C   UNL     1      -5.388   2.184  -3.306  1.00  0.00     0.010 A 
ATOM     30  C   UNL     1      -3.407   2.032  -4.698  1.00  0.00     0.010 A 
ATOM     31  C   UNL     1      -4.576   2.715  -4.318  1.00  0.00    -0.014 A 
BRANCH  31  32
ATOM     32  C   UNL     1      -4.979   3.952  -5.029  1.00  0.00     0.031 A 
ATOM     33  C   UNL     1      -5.643   3.853  -6.372  1.00  0.00     0.074 A 
ATOM     34  C   UNL     1      -4.731   5.156  -4.483  1.00  0.00     0.049 A 
ATOM     35  N   UNL     1      -5.981   4.808  -7.202  1.00  0.00    -0.248 NA
ATOM     36  C   UNL     1      -5.970   2.499  -6.846  1.00  0.00     0.031 C 
ATOM     37  C   UNL     1      -4.130   5.380  -3.168  1.00  0.00     0.029 A 
ATOM     38  N   UNL     1      -4.938   6.420  -4.978  1.00  0.00    -0.354 N 
ATOM     39  C   UNL     1      -6.548   4.172  -8.298  1.00  0.00     0.074 A 
ATOM     40  C   UNL     1      -6.498   2.749  -8.037  1.00  0.00     0.031 C 
ATOM     41  C   UNL     1      -3.990   6.703  -2.973  1.00  0.00     0.029 A 
ATOM     42  C   UNL     1      -4.457   7.415  -4.162  1.00  0.00     0.049 A 
ATOM     43  H   UNL     1      -5.387   6.596  -5.836  1.00  0.00     0.167 HD
ATOM     44  C   UNL     1      -7.063   4.728  -9.420  1.00  0.00     0.037 A 
ATOM     45  C   UNL     1      -4.372   8.744  -4.369  1.00  0.00     0.037 A 
ATOM     46  C   UNL     1      -7.129   6.144  -9.670  1.00  0.00     0.049 A 
ATOM     47  C   UNL     1      -4.887   9.328  -5.661  1.00  0.00     0.074 A 
ATOM     48  C   UNL     1      -7.693   6.803 -10.749  1.00  0.00     0.029 A 
ATOM     49  N   UNL     1      -6.602   7.118  -8.837  1.00  0.00    -0.354 N 
ATOM     50  N   UNL     1      -5.464   8.724  -6.671  1.00  0.00    -0.248 NA
ATOM     51  C   UNL     1      -4.731  10.779  -5.845  1.00  0.00     0.031 C 
ATOM     52  C   UNL     1      -7.458   8.173 -10.596  1.00  0.00     0.029 A 
ATOM     53  C   UNL     1      -6.788   8.370  -9.399  1.00  0.00     0.049 A 
ATOM     54  H   UNL     1      -6.162   6.946  -7.973  1.00  0.00     0.167 HD
ATOM     55  C   UNL     1      -5.755   9.718  -7.597  1.00  0.00     0.074 A 
ATOM     56  C   UNL     1      -5.309  10.969  -7.023  1.00  0.00     0.031 C 
ATOM     57  C   UNL     1      -6.336   9.606  -8.816  1.00  0.00     0.037 A 
BRANCH  44  58
ATOM     58  C   UNL     1      -7.584   3.813 -10.486  1.00  0.00     0.064 A 
ATOM     59  C   UNL     1      -8.813   3.152 -10.355  1.00  0.00     0.173 A 
ATOM     60  C   UNL     1      -6.882   3.668 -11.693  1.00  0.00     0.173 A 
ATOM     61  F   UNL     1      -9.516   3.255  -9.218  1.00  0.00    -0.203 F 
ATOM     62  C   UNL     1      -9.319   2.374 -11.393  1.00  0.00     0.198 A 
ATOM     63  C   UNL     1      -7.401   2.907 -12.736  1.00  0.00     0.198 A 
ATOM     64  F   UNL     1      -5.704   4.285 -11.868  1.00  0.00    -0.203 F 
ATOM     65  F   UNL     1     -10.488   1.736 -11.242  1.00  0.00    -0.200 F 
ATOM     66  C   UNL     1      -8.618   2.260 -12.585  1.00  0.00     0.200 A 
ATOM     67  F   UNL     1      -6.728   2.808 -13.891  1.00  0.00    -0.200 F 
ATOM     68  F   UNL     1      -9.117   1.527 -13.590  1.00  0.00    -0.200 F 
ENDBRANCH  44  58
BRANCH  45  69
ATOM     69  C   UNL     1      -3.723   9.617  -3.355  1.00  0.00     0.064 A 
ATOM     70  C   UNL     1      -4.453  10.588  -2.656  1.00  0.00     0.173 A 
ATOM     71  C   UNL     1      -2.346   9.526  -3.099  1.00  0.00     0.173 A 
ATOM     72  F   UNL     1      -5.767  10.731  -2.885  1.00  0.00    -0.203 F 
ATOM     73  C   UNL     1      -3.826  11.454  -1.762  1.00  0.00     0.198 A 
ATOM     74  C   UNL     1      -1.726  10.372  -2.183  1.00  0.00     0.198 A 
ATOM     75  F   UNL     1      -1.601   8.611  -3.737  1.00  0.00    -0.203 F 
ATOM     76  F   UNL     1      -4.537  12.412  -1.151  1.00  0.00    -0.200 F 
ATOM     77  C   UNL     1      -2.464  11.343  -1.524  1.00  0.00     0.200 A 
ATOM     78  F   UNL     1      -0.413  10.250  -1.946  1.00  0.00    -0.200 F 
ATOM     79  F   UNL     1      -1.861  12.179  -0.668  1.00  0.00    -0.200 F 
ENDBRANCH  45  69
BRANCH  57  80
ATOM     80  C   UNL     1      -6.530  10.865  -9.610  1.00  0.00     0.064 A 
ATOM     81  C   UNL     1      -5.449  11.515 -10.223  1.00  0.00     0.173 A 
ATOM     82  C   UNL     1      -7.814  11.396  -9.804  1.00  0.00     0.173 A 
ATOM     83  F   UNL     1      -4.201  11.055 -10.053  1.00  0.00    -0.203 F 
ATOM     84  C   UNL     1      -5.645  12.662 -10.987  1.00  0.00     0.198 A 
ATOM     85  C   UNL     1      -8.009  12.528 -10.592  1.00  0.00     0.198 A 
ATOM     86  F   UNL     1      -8.882  10.808  -9.245  1.00  0.00    -0.203 F 
ATOM     87  F   UNL     1      -4.593  13.290 -11.531  1.00  0.00    -0.200 F 
ATOM     88  C   UNL     1      -6.925  13.162 -11.178  1.00  0.00     0.200 A 
ATOM     89  F   UNL     1      -9.247  13.002 -10.786  1.00  0.00    -0.200 F 
ATOM     90  F   UNL     1      -7.112  14.261 -11.923  1.00  0.00    -0.200 F 
ENDBRANCH  57  80
ENDBRANCH  31  32
ENDBRANCH  24  26
ENDBRANCH  23  24
ENDBRANCH  22  23
ENDBRANCH  21  22
ENDBRANCH  20  21
ENDBRANCH   1  20
TORSDOF 18
