REMARK SMILES Cc1ccc(-c2ncccc2C(=O)OCCOCCOC(=O)c2ccc(-c3c4nc(c(-c5c(F)c(F)c(F)c(F)c5F)c5ccc([nH]5)c(-c5c(F)c(F)c(F)c(F)c5F)c5nc(c(-c6c(F)c(F)c(F)c(F)c6F)c6ccc3[nH]6)C=C5)C=C4)cc2)c(C)c1
REMARK SMILES IDX 18 1 17 2 16 3 15 4 14 5 12 6 13 7 11 8 6 9 7 10 8 11 10 12
REMARK SMILES IDX 9 13 5 14 1 15 2 16 3 17 88 18 4 19 86 20 87 21 19 22 20 23
REMARK SMILES IDX 21 24 22 25 23 26 24 27 85 28 25 29 84 30 26 31 27 32 28 33
REMARK SMILES IDX 78 34 29 35 83 36 77 37 79 38 30 39 82 40 76 41 75 42 31 44
REMARK SMILES IDX 63 45 43 46 62 47 44 48 47 49 61 50 80 51 45 52 46 53 60 55
REMARK SMILES IDX 81 56 48 57 32 58 33 59 41 60 34 61 35 62 39 63 42 64 36 65
REMARK SMILES IDX 37 66 40 67 38 68 64 69 65 70 73 71 66 72 67 73 71 74 74 75
REMARK SMILES IDX 68 76 69 77 72 78 70 79 49 80 50 81 58 82 51 83 52 84 56 85
REMARK SMILES IDX 59 86 53 87 54 88 57 89 55 90
REMARK H PARENT 79 43 47 54
REMARK Flexibility Score: inf
ROOT
ATOM      1  C   UNL     1       0.532  -3.716   1.915  1.00  0.00     0.202 C 
ENDROOT
BRANCH   1   2
ATOM      2  O   UNL     1       0.840  -3.700   3.306  1.00  0.00    -0.374 OA
BRANCH   2   3
ATOM      3  C   UNL     1      -0.251  -3.854   4.219  1.00  0.00     0.202 C 
BRANCH   3   4
ATOM      4  C   UNL     1      -1.305  -2.744   4.209  1.00  0.00     0.261 C 
BRANCH   4   5
ATOM      5  O   UNL     1      -2.166  -2.903   3.063  1.00  0.00    -0.460 OA
BRANCH   5   6
ATOM      6  C   UNL     1      -2.499  -1.756   2.421  1.00  0.00     0.340 C 
ATOM      7  O   UNL     1      -2.283  -0.618   2.804  1.00  0.00    -0.246 OA
BRANCH   6   8
ATOM      8  C   UNL     1      -3.148  -2.100   1.143  1.00  0.00     0.086 A 
ATOM      9  C   UNL     1      -2.684  -1.594  -0.078  1.00  0.00     0.085 A 
ATOM     10  N   UNL     1      -3.303  -1.883  -1.256  1.00  0.00    -0.255 NA
ATOM     11  C   UNL     1      -4.401  -2.669  -1.214  1.00  0.00     0.112 A 
ATOM     12  C   UNL     1      -4.265  -2.942   1.148  1.00  0.00     0.019 A 
ATOM     13  C   UNL     1      -4.907  -3.228  -0.052  1.00  0.00     0.021 A 
BRANCH   9  14
ATOM     14  C   UNL     1      -1.442  -0.816  -0.220  1.00  0.00     0.004 A 
ATOM     15  C   UNL     1       2.398   1.187  -0.161  1.00  0.00     0.044 C 
ATOM     16  C   UNL     1       1.070   0.494  -0.229  1.00  0.00    -0.051 A 
ATOM     17  C   UNL     1       0.981  -0.854  -0.572  1.00  0.00     0.004 A 
ATOM     18  C   UNL     1      -0.110   1.206   0.019  1.00  0.00     0.007 A 
ATOM     19  C   UNL     1      -0.260  -1.494  -0.577  1.00  0.00     0.011 A 
ATOM     20  C   UNL     1      -1.366   0.570   0.021  1.00  0.00    -0.041 A 
ATOM     21  C   UNL     1      -2.585   1.423   0.248  1.00  0.00     0.045 C 
ENDBRANCH   9  14
ENDBRANCH   6   8
ENDBRANCH   5   6
ENDBRANCH   4   5
ENDBRANCH   3   4
ENDBRANCH   2   3
ENDBRANCH   1   2
BRANCH   1  22
ATOM     22  C   UNL     1       0.384  -5.089   1.245  1.00  0.00     0.261 C 
BRANCH  22  23
ATOM     23  O   UNL     1      -0.284  -6.050   2.067  1.00  0.00    -0.460 OA
BRANCH  23  24
ATOM     24  C   UNL     1       0.570  -6.800   2.804  1.00  0.00     0.338 C 
ATOM     25  O   UNL     1       1.788  -6.827   2.737  1.00  0.00    -0.246 OA
BRANCH  24  26
ATOM     26  C   UNL     1      -0.176  -7.521   3.848  1.00  0.00     0.060 A 
ATOM     27  C   UNL     1       0.312  -7.428   5.156  1.00  0.00     0.016 A 
ATOM     28  C   UNL     1      -1.272  -8.333   3.547  1.00  0.00     0.016 A 
ATOM     29  C   UNL     1      -0.243  -8.215   6.157  1.00  0.00     0.010 A 
ATOM     30  C   UNL     1      -1.829  -9.126   4.554  1.00  0.00     0.010 A 
ATOM     31  C   UNL     1      -1.278  -9.108   5.848  1.00  0.00    -0.014 A 
BRANCH  31  32
ATOM     32  C   UNL     1      -1.613 -10.162   6.834  1.00  0.00     0.031 A 
ATOM     33  C   UNL     1      -0.984 -11.520   6.669  1.00  0.00     0.074 A 
ATOM     34  C   UNL     1      -2.375  -9.886   7.905  1.00  0.00     0.049 A 
ATOM     35  N   UNL     1      -1.062 -12.573   7.442  1.00  0.00    -0.248 NA
ATOM     36  C   UNL     1      -0.148 -11.715   5.473  1.00  0.00     0.031 C 
ATOM     37  C   UNL     1      -2.999  -8.595   8.188  1.00  0.00     0.029 A 
ATOM     38  N   UNL     1      -2.737 -10.677   8.966  1.00  0.00    -0.354 N 
ATOM     39  C   UNL     1      -0.277 -13.545   6.834  1.00  0.00     0.074 A 
ATOM     40  C   UNL     1       0.228 -12.978   5.604  1.00  0.00     0.031 C 
ATOM     41  C   UNL     1      -3.662  -8.679   9.355  1.00  0.00     0.029 A 
ATOM     42  C   UNL     1      -3.522 -10.032   9.889  1.00  0.00     0.049 A 
ATOM     43  H   UNL     1      -2.459 -11.617   9.056  1.00  0.00     0.167 HD
ATOM     44  C   UNL     1       0.018 -14.790   7.275  1.00  0.00     0.037 A 
ATOM     45  C   UNL     1      -4.063 -10.491  11.033  1.00  0.00     0.037 A 
ATOM     46  C   UNL     1      -0.489 -15.354   8.497  1.00  0.00     0.049 A 
ATOM     47  C   UNL     1      -3.780 -11.910  11.460  1.00  0.00     0.074 A 
ATOM     48  C   UNL     1      -0.268 -16.613   9.027  1.00  0.00     0.029 A 
ATOM     49  N   UNL     1      -1.323 -14.687   9.382  1.00  0.00    -0.354 N 
ATOM     50  N   UNL     1      -3.021 -12.814  10.889  1.00  0.00    -0.248 NA
ATOM     51  C   UNL     1      -4.423 -12.365  12.700  1.00  0.00     0.031 C 
ATOM     52  C   UNL     1      -1.000 -16.721  10.214  1.00  0.00     0.029 A 
ATOM     53  C   UNL     1      -1.638 -15.513  10.448  1.00  0.00     0.049 A 
ATOM     54  H   UNL     1      -1.643 -13.762   9.270  1.00  0.00     0.167 HD
ATOM     55  C   UNL     1      -3.070 -13.931  11.715  1.00  0.00     0.074 A 
ATOM     56  C   UNL     1      -3.916 -13.582  12.836  1.00  0.00     0.031 C 
ATOM     57  C   UNL     1      -2.473 -15.139  11.560  1.00  0.00     0.037 A 
BRANCH  44  58
ATOM     58  C   UNL     1       0.924 -15.628   6.422  1.00  0.00     0.064 A 
ATOM     59  C   UNL     1       2.296 -15.348   6.315  1.00  0.00     0.173 A 
ATOM     60  C   UNL     1       0.425 -16.738   5.726  1.00  0.00     0.173 A 
ATOM     61  F   UNL     1       2.819 -14.286   6.947  1.00  0.00    -0.203 F 
ATOM     62  C   UNL     1       3.129 -16.136   5.526  1.00  0.00     0.198 A 
ATOM     63  C   UNL     1       1.267 -17.541   4.959  1.00  0.00     0.198 A 
ATOM     64  F   UNL     1      -0.878 -17.049   5.793  1.00  0.00    -0.203 F 
ATOM     65  F   UNL     1       4.427 -15.824   5.404  1.00  0.00    -0.200 F 
ATOM     66  C   UNL     1       2.616 -17.236   4.855  1.00  0.00     0.200 A 
ATOM     67  F   UNL     1       0.771 -18.608   4.318  1.00  0.00    -0.200 F 
ATOM     68  F   UNL     1       3.420 -17.998   4.102  1.00  0.00    -0.200 F 
ENDBRANCH  44  58
BRANCH  45  69
ATOM     69  C   UNL     1      -4.923  -9.610  11.866  1.00  0.00     0.064 A 
ATOM     70  C   UNL     1      -4.522  -9.206  13.148  1.00  0.00     0.173 A 
ATOM     71  C   UNL     1      -6.187  -9.197  11.419  1.00  0.00     0.173 A 
ATOM     72  F   UNL     1      -3.333  -9.595  13.631  1.00  0.00    -0.203 F 
ATOM     73  C   UNL     1      -5.364  -8.450  13.961  1.00  0.00     0.198 A 
ATOM     74  C   UNL     1      -7.016  -8.416  12.222  1.00  0.00     0.198 A 
ATOM     75  F   UNL     1      -6.620  -9.557  10.202  1.00  0.00    -0.203 F 
ATOM     76  F   UNL     1      -4.981  -8.130  15.205  1.00  0.00    -0.200 F 
ATOM     77  C   UNL     1      -6.609  -8.053  13.497  1.00  0.00     0.200 A 
ATOM     78  F   UNL     1      -8.213  -8.026  11.764  1.00  0.00    -0.200 F 
ATOM     79  F   UNL     1      -7.422  -7.334  14.282  1.00  0.00    -0.200 F 
ENDBRANCH  45  69
BRANCH  57  80
ATOM     80  C   UNL     1      -2.685 -16.151  12.649  1.00  0.00     0.064 A 
ATOM     81  C   UNL     1      -3.925 -16.776  12.841  1.00  0.00     0.173 A 
ATOM     82  C   UNL     1      -1.628 -16.511  13.499  1.00  0.00     0.173 A 
ATOM     83  F   UNL     1      -4.971 -16.456  12.063  1.00  0.00    -0.203 F 
ATOM     84  C   UNL     1      -4.110 -17.697  13.868  1.00  0.00     0.198 A 
ATOM     85  C   UNL     1      -1.808 -17.456  14.504  1.00  0.00     0.198 A 
ATOM     86  F   UNL     1      -0.419 -15.949  13.351  1.00  0.00    -0.203 F 
ATOM     87  F   UNL     1      -5.320 -18.237  14.071  1.00  0.00    -0.200 F 
ATOM     88  C   UNL     1      -3.051 -18.040  14.695  1.00  0.00     0.200 A 
ATOM     89  F   UNL     1      -0.779 -17.797  15.293  1.00  0.00    -0.200 F 
ATOM     90  F   UNL     1      -3.231 -18.927  15.684  1.00  0.00    -0.200 F 
ENDBRANCH  57  80
ENDBRANCH  31  32
ENDBRANCH  24  26
ENDBRANCH  23  24
ENDBRANCH  22  23
ENDBRANCH   1  22
TORSDOF 15
