REMARK SMILES O=C(COc1nc(Nc2ccc(Cl)cc2Cl)nc2c1C[N@H+](Cc1ccccc1)CC2)OCCOCCOC(=O)c1ccc(-c2c3nc(c(-c4c(F)c(F)c(F)c(F)c4F)c4ccc([nH]4)c(-c4c(F)c(F)c(F)c(F)c4F)c4nc(c(-c5c(F)c(F)c(F)c(F)c5F)c5ccc2[nH]5)C=C4)C=C3)cc1
REMARK SMILES IDX 33 1 32 2 31 3 2 4 1 5 3 6 4 7 5 8 6 9 19 10 7 11 18 12
REMARK SMILES IDX 20 13 17 14 30 15 21 16 29 17 8 19 9 21 10 22 15 23 11 24
REMARK SMILES IDX 14 25 16 26 12 27 13 28 22 29 23 30 24 31 28 32 25 33 27 34
REMARK SMILES IDX 26 35 34 36 35 37 36 38 37 39 38 40 39 41 40 42 41 43 102 44
REMARK SMILES IDX 42 45 101 46 43 47 44 48 45 49 95 50 46 51 100 52 94 53
REMARK SMILES IDX 96 54 47 55 99 56 93 57 92 58 48 60 80 61 60 62 79 63 61 64
REMARK SMILES IDX 64 65 78 66 97 67 62 68 63 69 77 71 98 72 65 73 49 74 50 75
REMARK SMILES IDX 58 76 51 77 52 78 56 79 59 80 53 81 54 82 57 83 55 84 81 85
REMARK SMILES IDX 82 86 90 87 83 88 84 89 88 90 91 91 85 92 86 93 89 94 87 95
REMARK SMILES IDX 66 96 67 97 75 98 68 99 69 100 73 101 76 102 70 103 71 104
REMARK SMILES IDX 74 105 72 106
REMARK H PARENT 21 18 8 20 96 59 64 70
REMARK Flexibility Score: inf
ROOT
ATOM      1  C   UNL     1       4.836   0.962   0.504  1.00  0.00     0.202 C 
ENDROOT
BRANCH   1   2
ATOM      2  C   UNL     1       4.185   0.274  -0.696  1.00  0.00     0.261 C 
BRANCH   2   3
ATOM      3  O   UNL     1       2.759   0.415  -0.741  1.00  0.00    -0.461 OA
BRANCH   3   4
ATOM      4  C   UNL     1       1.895  -0.405  -0.092  1.00  0.00     0.344 C 
ATOM      5  O   UNL     1       0.691  -0.145  -0.090  1.00  0.00    -0.248 OA
BRANCH   4   6
ATOM      6  C   UNL     1       2.445  -1.548   0.764  1.00  0.00     0.353 C 
BRANCH   6   7
ATOM      7  O   UNL     1       3.507  -2.337   0.270  1.00  0.00    -0.465 OA
BRANCH   7   8
ATOM      8  C   UNL     1       3.015  -3.167  -0.705  1.00  0.00     0.228 A 
ATOM      9  N   UNL     1       2.219  -2.627  -1.621  1.00  0.00    -0.177 NA
ATOM     10  C   UNL     1       3.351  -4.481  -0.642  1.00  0.00     0.090 A 
ATOM     11  C   UNL     1       1.636  -3.450  -2.490  1.00  0.00     0.230 A 
ATOM     12  C   UNL     1       2.722  -5.278  -1.565  1.00  0.00     0.064 A 
ATOM     13  C   UNL     1       4.406  -4.940   0.298  1.00  0.00     0.307 C 
ATOM     14  N   UNL     1       1.827  -4.785  -2.470  1.00  0.00    -0.217 NA
ATOM     15  C   UNL     1       2.982  -6.763  -1.489  1.00  0.00     0.118 C 
ATOM     16  N   UNL     1       4.481  -6.387   0.472  1.00  0.00    -0.327 N 
ATOM     17  C   UNL     1       4.340  -7.087  -0.812  1.00  0.00     0.269 C 
ATOM     18  H   UNL     1       3.685  -6.705   1.026  1.00  0.00     0.348 HD
BRANCH  11  19
ATOM     19  N   UNL     1       0.709  -2.880  -3.369  1.00  0.00    -0.323 N 
ATOM     20  H   UNL     1       0.220  -3.492  -3.965  1.00  0.00     0.170 HD
BRANCH  19  21
ATOM     21  C   UNL     1       0.414  -1.502  -3.475  1.00  0.00     0.060 A 
ATOM     22  C   UNL     1      -0.861  -1.050  -3.093  1.00  0.00     0.029 A 
ATOM     23  C   UNL     1       1.383  -0.523  -3.801  1.00  0.00     0.066 A 
ATOM     24  C   UNL     1      -1.155   0.320  -3.026  1.00  0.00     0.023 A 
ATOM     25  C   UNL     1       1.087   0.845  -3.744  1.00  0.00     0.043 A 
ATOM     26  Cl  UNL     1       2.969  -0.954  -4.355  1.00  0.00    -0.082 Cl
ATOM     27  C   UNL     1      -0.178   1.259  -3.346  1.00  0.00     0.042 A 
ATOM     28  Cl  UNL     1      -0.534   2.941  -3.247  1.00  0.00    -0.084 Cl
ENDBRANCH  19  21
ENDBRANCH  11  19
BRANCH  16  29
ATOM     29  C   UNL     1       5.675  -6.758   1.262  1.00  0.00     0.299 C 
BRANCH  29  30
ATOM     30  C   UNL     1       7.030  -6.528   0.615  1.00  0.00     0.006 A 
ATOM     31  C   UNL     1       7.715  -7.600   0.027  1.00  0.00     0.009 A 
ATOM     32  C   UNL     1       7.625  -5.254   0.569  1.00  0.00     0.009 A 
ATOM     33  C   UNL     1       8.927  -7.394  -0.636  1.00  0.00     0.001 A 
ATOM     34  C   UNL     1       8.815  -5.041  -0.129  1.00  0.00     0.001 A 
ATOM     35  C   UNL     1       9.463  -6.112  -0.736  1.00  0.00     0.000 A 
ENDBRANCH  29  30
ENDBRANCH  16  29
ENDBRANCH   7   8
ENDBRANCH   6   7
ENDBRANCH   4   6
ENDBRANCH   3   4
ENDBRANCH   2   3
ENDBRANCH   1   2
BRANCH   1  36
ATOM     36  O   UNL     1       4.314   0.730   1.808  1.00  0.00    -0.374 OA
BRANCH  36  37
ATOM     37  C   UNL     1       3.120   1.416   2.201  1.00  0.00     0.202 C 
BRANCH  37  38
ATOM     38  C   UNL     1       3.181   2.909   2.521  1.00  0.00     0.261 C 
BRANCH  38  39
ATOM     39  O   UNL     1       3.526   3.686   1.368  1.00  0.00    -0.460 OA
BRANCH  39  40
ATOM     40  C   UNL     1       4.802   4.125   1.359  1.00  0.00     0.338 C 
ATOM     41  O   UNL     1       5.636   4.010   2.249  1.00  0.00    -0.246 OA
BRANCH  40  42
ATOM     42  C   UNL     1       5.150   4.585   0.007  1.00  0.00     0.060 A 
ATOM     43  C   UNL     1       6.352   4.114  -0.543  1.00  0.00     0.016 A 
ATOM     44  C   UNL     1       4.355   5.503  -0.680  1.00  0.00     0.016 A 
ATOM     45  C   UNL     1       6.817   4.636  -1.741  1.00  0.00     0.010 A 
ATOM     46  C   UNL     1       4.832   6.046  -1.870  1.00  0.00     0.010 A 
ATOM     47  C   UNL     1       6.093   5.660  -2.362  1.00  0.00    -0.014 A 
BRANCH  47  48
ATOM     48  C   UNL     1       6.782   6.523  -3.341  1.00  0.00     0.031 A 
ATOM     49  C   UNL     1       7.393   7.800  -2.831  1.00  0.00     0.074 A 
ATOM     50  C   UNL     1       6.904   6.158  -4.626  1.00  0.00     0.049 A 
ATOM     51  N   UNL     1       7.952   8.778  -3.493  1.00  0.00    -0.248 NA
ATOM     52  C   UNL     1       7.372   8.001  -1.369  1.00  0.00     0.031 C 
ATOM     53  C   UNL     1       6.428   4.901  -5.198  1.00  0.00     0.029 A 
ATOM     54  N   UNL     1       7.467   6.823  -5.683  1.00  0.00    -0.354 N 
ATOM     55  C   UNL     1       8.340   9.705  -2.534  1.00  0.00     0.074 A 
ATOM     56  C   UNL     1       7.932   9.194  -1.247  1.00  0.00     0.031 C 
ATOM     57  C   UNL     1       6.709   4.891  -6.513  1.00  0.00     0.029 A 
ATOM     58  C   UNL     1       7.341   6.157  -6.876  1.00  0.00     0.049 A 
ATOM     59  H   UNL     1       7.918   7.693  -5.595  1.00  0.00     0.167 HD
ATOM     60  C   UNL     1       8.992  10.874  -2.719  1.00  0.00     0.037 A 
ATOM     61  C   UNL     1       7.673   6.554  -8.119  1.00  0.00     0.037 A 
ATOM     62  C   UNL     1       9.397  11.369  -4.006  1.00  0.00     0.049 A 
ATOM     63  C   UNL     1       8.296   7.916  -8.303  1.00  0.00     0.074 A 
ATOM     64  C   UNL     1      10.039  12.554  -4.312  1.00  0.00     0.029 A 
ATOM     65  N   UNL     1       9.200  10.695  -5.202  1.00  0.00    -0.354 N 
ATOM     66  N   UNL     1       8.637   8.805  -7.401  1.00  0.00    -0.248 NA
ATOM     67  C   UNL     1       8.577   8.329  -9.685  1.00  0.00     0.031 C 
ATOM     68  C   UNL     1      10.195  12.617  -5.699  1.00  0.00     0.029 A 
ATOM     69  C   UNL     1       9.697  11.447  -6.252  1.00  0.00     0.049 A 
ATOM     70  H   UNL     1       8.772   9.813  -5.291  1.00  0.00     0.167 HD
ATOM     71  C   UNL     1       9.194   9.868  -8.101  1.00  0.00     0.074 A 
ATOM     72  C   UNL     1       9.173   9.498  -9.501  1.00  0.00     0.031 C 
ATOM     73  C   UNL     1       9.670  11.050  -7.635  1.00  0.00     0.037 A 
BRANCH  60  74
ATOM     74  C   UNL     1       9.308  11.705  -1.511  1.00  0.00     0.064 A 
ATOM     75  C   UNL     1      10.323  11.336  -0.616  1.00  0.00     0.173 A 
ATOM     76  C   UNL     1       8.652  12.926  -1.297  1.00  0.00     0.173 A 
ATOM     77  F   UNL     1      10.963  10.167  -0.765  1.00  0.00    -0.203 F 
ATOM     78  C   UNL     1      10.674  12.164   0.447  1.00  0.00     0.198 A 
ATOM     79  C   UNL     1       9.023  13.763  -0.248  1.00  0.00     0.198 A 
ATOM     80  F   UNL     1       7.671  13.320  -2.122  1.00  0.00    -0.203 F 
ATOM     81  F   UNL     1      11.635  11.785   1.301  1.00  0.00    -0.200 F 
ATOM     82  C   UNL     1      10.035  13.383   0.621  1.00  0.00     0.200 A 
ATOM     83  F   UNL     1       8.413  14.945  -0.088  1.00  0.00    -0.200 F 
ATOM     84  F   UNL     1      10.395  14.193   1.626  1.00  0.00    -0.200 F 
ENDBRANCH  60  74
BRANCH  61  85
ATOM     85  C   UNL     1       7.408   5.675  -9.288  1.00  0.00     0.064 A 
ATOM     86  C   UNL     1       8.463   5.162 -10.056  1.00  0.00     0.173 A 
ATOM     87  C   UNL     1       6.100   5.366  -9.691  1.00  0.00     0.173 A 
ATOM     88  F   UNL     1       9.731   5.451  -9.728  1.00  0.00    -0.203 F 
ATOM     89  C   UNL     1       8.221   4.399 -11.196  1.00  0.00     0.198 A 
ATOM     90  C   UNL     1       5.859   4.574 -10.812  1.00  0.00     0.198 A 
ATOM     91  F   UNL     1       5.053   5.835  -8.997  1.00  0.00    -0.203 F 
ATOM     92  F   UNL     1       9.247   3.976 -11.946  1.00  0.00    -0.200 F 
ATOM     93  C   UNL     1       6.919   4.101 -11.571  1.00  0.00     0.200 A 
ATOM     94  F   UNL     1       4.601   4.280 -11.164  1.00  0.00    -0.200 F 
ATOM     95  F   UNL     1       6.687   3.371 -12.670  1.00  0.00    -0.200 F 
ENDBRANCH  61  85
BRANCH  73  96
ATOM     96  C   UNL     1      10.227  12.011  -8.646  1.00  0.00     0.064 A 
ATOM     97  C   UNL     1       9.397  12.672  -9.563  1.00  0.00     0.173 A 
ATOM     98  C   UNL     1      11.600  12.299  -8.674  1.00  0.00     0.173 A 
ATOM     99  F   UNL     1       8.079  12.424  -9.582  1.00  0.00    -0.203 F 
ATOM    100  C   UNL     1       9.927  13.558 -10.497  1.00  0.00     0.198 A 
ATOM    101  C   UNL     1      12.121  13.214  -9.584  1.00  0.00     0.198 A 
ATOM    102  F   UNL     1      12.435  11.705  -7.808  1.00  0.00    -0.203 F 
ATOM    103  F   UNL     1       9.124  14.130 -11.404  1.00  0.00    -0.200 F 
ATOM    104  C   UNL     1      11.286  13.833 -10.502  1.00  0.00     0.200 A 
ATOM    105  F   UNL     1      13.431  13.495  -9.574  1.00  0.00    -0.200 F 
ATOM    106  F   UNL     1      11.793  14.690 -11.399  1.00  0.00    -0.200 F 
ENDBRANCH  73  96
ENDBRANCH  47  48
ENDBRANCH  40  42
ENDBRANCH  39  40
ENDBRANCH  38  39
ENDBRANCH  37  38
ENDBRANCH  36  37
ENDBRANCH   1  36
TORSDOF 20
