REMARK SMILES CS(=O)(=O)c1ccc(-n2nc(C(F)(F)F)cc2-c2ccc(CC(=O)OCCOCCOC(=O)c3ccc(-c4c5nc(c(-c6c(F)c(F)c(F)c(F)c6F)c6ccc([nH]6)c(-c6c(F)c(F)c(F)c(F)c6F)c6nc(c(-c7c(F)c(F)c(F)c(F)c7F)c7ccc4[nH]7)C=C6)C=C5)cc3)cc2)cc1
REMARK SMILES IDX 27 1 26 2 25 3 23 4 24 5 22 6 21 7 18 8 19 9 98 10 20 11
REMARK SMILES IDX 97 12 17 13 9 14 10 15 11 16 16 17 8 18 5 19 6 20 100 21
REMARK SMILES IDX 7 22 99 23 2 24 1 25 3 26 4 27 12 28 13 29 14 30 15 31 28 32
REMARK SMILES IDX 29 33 30 34 31 35 32 36 33 37 34 38 35 39 96 40 36 41 95 42
REMARK SMILES IDX 37 43 38 44 39 45 89 46 40 47 94 48 88 49 90 50 41 51 93 52
REMARK SMILES IDX 87 53 86 54 42 56 74 57 54 58 73 59 55 60 58 61 72 62 91 63
REMARK SMILES IDX 56 64 57 65 71 67 92 68 59 69 43 70 44 71 52 72 45 73 46 74
REMARK SMILES IDX 50 75 53 76 47 77 48 78 51 79 49 80 75 81 76 82 84 83 77 84
REMARK SMILES IDX 78 85 82 86 85 87 79 88 80 89 83 90 81 91 60 92 61 93 69 94
REMARK SMILES IDX 62 95 63 96 67 97 70 98 64 99 65 100 68 101 66 102
REMARK H PARENT 90 55 58 66
REMARK Flexibility Score: inf
ROOT
ATOM      1  C   UNL     1       6.151  -1.916  -0.043  1.00  0.00     0.202 C 
ENDROOT
BRANCH   1   2
ATOM      2  C   UNL     1       6.310  -2.888   1.134  1.00  0.00     0.261 C 
BRANCH   2   3
ATOM      3  O   UNL     1       6.317  -2.304   2.449  1.00  0.00    -0.463 OA
BRANCH   3   4
ATOM      4  C   UNL     1       7.561  -2.142   2.982  1.00  0.00     0.310 C 
ATOM      5  O   UNL     1       8.605  -2.389   2.387  1.00  0.00    -0.252 OA
BRANCH   4   6
ATOM      6  C   UNL     1       7.567  -1.743   4.437  1.00  0.00     0.158 C 
BRANCH   6   7
ATOM      7  C   UNL     1       6.484  -0.833   4.967  1.00  0.00    -0.037 A 
ATOM      8  C   UNL     1       4.657   0.912   6.237  1.00  0.00     0.000 A 
ATOM      9  C   UNL     1       5.667   1.411   5.403  1.00  0.00     0.010 A 
ATOM     10  C   UNL     1       4.567  -0.471   6.428  1.00  0.00     0.010 A 
ATOM     11  C   UNL     1       6.560   0.550   4.764  1.00  0.00     0.005 A 
ATOM     12  C   UNL     1       5.469  -1.335   5.794  1.00  0.00     0.005 A 
BRANCH   8  13
ATOM     13  C   UNL     1       3.734   1.831   6.910  1.00  0.00     0.075 A 
ATOM     14  N   UNL     1       3.112   2.942   6.334  1.00  0.00    -0.233 N 
ATOM     15  N   UNL     1       2.546   3.741   7.280  1.00  0.00    -0.163 NA
ATOM     16  C   UNL     1       2.626   3.045   8.430  1.00  0.00     0.167 A 
ATOM     17  C   UNL     1       3.363   1.852   8.241  1.00  0.00     0.064 A 
BRANCH  14  18
ATOM     18  C   UNL     1       2.924   3.249   4.949  1.00  0.00     0.065 A 
ATOM     19  C   UNL     1       2.122   3.759   2.297  1.00  0.00     0.067 A 
ATOM     20  C   UNL     1       2.496   2.481   2.684  1.00  0.00     0.022 A 
ATOM     21  C   UNL     1       2.226   4.811   3.212  1.00  0.00     0.022 A 
ATOM     22  C   UNL     1       2.905   2.224   3.997  1.00  0.00     0.030 A 
ATOM     23  C   UNL     1       2.609   4.554   4.540  1.00  0.00     0.030 A 
BRANCH  19  24
ATOM     24  S   UNL     1       1.284   4.043   0.749  1.00  0.00     0.175 S 
ATOM     25  C   UNL     1       1.696   2.740  -0.376  1.00  0.00     0.163 C 
ATOM     26  O   UNL     1       1.830   5.263   0.201  1.00  0.00    -0.224 OA
ATOM     27  O   UNL     1      -0.133   3.906   1.048  1.00  0.00    -0.224 OA
ENDBRANCH  19  24
ENDBRANCH  14  18
BRANCH  16  28
ATOM     28  C   UNL     1       2.035   3.510   9.738  1.00  0.00     0.435 C 
ATOM     29  F   UNL     1       1.849   4.853   9.800  1.00  0.00    -0.164 F 
ATOM     30  F   UNL     1       0.835   2.918   9.986  1.00  0.00    -0.164 F 
ATOM     31  F   UNL     1       2.839   3.181  10.788  1.00  0.00    -0.164 F 
ENDBRANCH  16  28
ENDBRANCH   8  13
ENDBRANCH   6   7
ENDBRANCH   4   6
ENDBRANCH   3   4
ENDBRANCH   2   3
ENDBRANCH   1   2
BRANCH   1  32
ATOM     32  O   UNL     1       6.822  -0.668   0.021  1.00  0.00    -0.374 OA
BRANCH  32  33
ATOM     33  C   UNL     1       6.347   0.288   0.959  1.00  0.00     0.202 C 
BRANCH  33  34
ATOM     34  C   UNL     1       4.865   0.634   0.915  1.00  0.00     0.261 C 
BRANCH  34  35
ATOM     35  O   UNL     1       4.015  -0.388   1.470  1.00  0.00    -0.460 OA
BRANCH  35  36
ATOM     36  C   UNL     1       3.013  -0.823   0.649  1.00  0.00     0.338 C 
ATOM     37  O   UNL     1       3.007  -0.797  -0.555  1.00  0.00    -0.246 OA
BRANCH  36  38
ATOM     38  C   UNL     1       1.774  -0.931   1.461  1.00  0.00     0.060 A 
ATOM     39  C   UNL     1       0.605  -0.552   0.795  1.00  0.00     0.016 A 
ATOM     40  C   UNL     1       1.810  -1.008   2.860  1.00  0.00     0.016 A 
ATOM     41  C   UNL     1      -0.440  -0.018   1.529  1.00  0.00     0.010 A 
ATOM     42  C   UNL     1       0.743  -0.494   3.595  1.00  0.00     0.010 A 
ATOM     43  C   UNL     1      -0.342   0.076   2.925  1.00  0.00    -0.014 A 
BRANCH  43  44
ATOM     44  C   UNL     1      -1.507   0.611   3.629  1.00  0.00     0.031 A 
ATOM     45  C   UNL     1      -2.637  -0.322   3.616  1.00  0.00     0.074 A 
ATOM     46  C   UNL     1      -1.636   1.794   4.266  1.00  0.00     0.049 A 
ATOM     47  N   UNL     1      -3.731  -0.184   2.949  1.00  0.00    -0.248 NA
ATOM     48  C   UNL     1      -2.491  -1.601   4.323  1.00  0.00     0.031 C 
ATOM     49  C   UNL     1      -0.560   2.717   4.552  1.00  0.00     0.029 A 
ATOM     50  N   UNL     1      -2.722   2.408   4.847  1.00  0.00    -0.354 N 
ATOM     51  C   UNL     1      -4.524  -1.231   3.370  1.00  0.00     0.074 A 
ATOM     52  C   UNL     1      -3.667  -2.169   4.054  1.00  0.00     0.031 C 
ATOM     53  C   UNL     1      -0.970   3.685   5.391  1.00  0.00     0.029 A 
ATOM     54  C   UNL     1      -2.395   3.528   5.609  1.00  0.00     0.049 A 
ATOM     55  H   UNL     1      -3.646   2.086   4.734  1.00  0.00     0.167 HD
ATOM     56  C   UNL     1      -5.864  -1.055   3.458  1.00  0.00     0.037 A 
ATOM     57  C   UNL     1      -3.193   4.329   6.356  1.00  0.00     0.037 A 
ATOM     58  C   UNL     1      -6.340   0.074   2.707  1.00  0.00     0.049 A 
ATOM     59  C   UNL     1      -4.571   4.247   5.831  1.00  0.00     0.074 A 
ATOM     60  C   UNL     1      -6.662   0.350   1.397  1.00  0.00     0.029 A 
ATOM     61  N   UNL     1      -6.232   1.275   3.350  1.00  0.00    -0.354 N 
ATOM     62  N   UNL     1      -4.949   4.793   4.710  1.00  0.00    -0.248 NA
ATOM     63  C   UNL     1      -5.529   3.326   6.436  1.00  0.00     0.031 C 
ATOM     64  C   UNL     1      -6.721   1.771   1.270  1.00  0.00     0.029 A 
ATOM     65  C   UNL     1      -6.427   2.336   2.503  1.00  0.00     0.049 A 
ATOM     66  H   UNL     1      -6.037   1.368   4.311  1.00  0.00     0.167 HD
ATOM     67  C   UNL     1      -5.957   3.968   4.267  1.00  0.00     0.074 A 
ATOM     68  C   UNL     1      -6.402   3.220   5.432  1.00  0.00     0.031 C 
ATOM     69  C   UNL     1      -6.071   3.662   2.946  1.00  0.00     0.037 A 
BRANCH  56  70
ATOM     70  C   UNL     1      -6.641  -1.602   4.616  1.00  0.00     0.064 A 
ATOM     71  C   UNL     1      -8.023  -1.793   4.498  1.00  0.00     0.173 A 
ATOM     72  C   UNL     1      -6.103  -1.690   5.920  1.00  0.00     0.173 A 
ATOM     73  F   UNL     1      -8.627  -1.650   3.310  1.00  0.00    -0.203 F 
ATOM     74  C   UNL     1      -8.813  -2.071   5.614  1.00  0.00     0.198 A 
ATOM     75  C   UNL     1      -6.882  -2.029   7.020  1.00  0.00     0.198 A 
ATOM     76  F   UNL     1      -4.833  -1.348   6.183  1.00  0.00    -0.203 F 
ATOM     77  F   UNL     1     -10.143  -2.165   5.480  1.00  0.00    -0.200 F 
ATOM     78  C   UNL     1      -8.241  -2.204   6.870  1.00  0.00     0.200 A 
ATOM     79  F   UNL     1      -6.313  -2.119   8.231  1.00  0.00    -0.200 F 
ATOM     80  F   UNL     1      -9.004  -2.452   7.942  1.00  0.00    -0.200 F 
ENDBRANCH  56  70
BRANCH  57  81
ATOM     81  C   UNL     1      -2.846   5.194   7.509  1.00  0.00     0.064 A 
ATOM     82  C   UNL     1      -3.677   6.255   7.909  1.00  0.00     0.173 A 
ATOM     83  C   UNL     1      -1.811   4.844   8.398  1.00  0.00     0.173 A 
ATOM     84  F   UNL     1      -4.717   6.629   7.149  1.00  0.00    -0.203 F 
ATOM     85  C   UNL     1      -3.501   6.907   9.133  1.00  0.00     0.198 A 
ATOM     86  C   UNL     1      -1.631   5.503   9.616  1.00  0.00     0.198 A 
ATOM     87  F   UNL     1      -1.015   3.795   8.145  1.00  0.00    -0.203 F 
ATOM     88  F   UNL     1      -4.358   7.867   9.508  1.00  0.00    -0.200 F 
ATOM     89  C   UNL     1      -2.482   6.525   9.988  1.00  0.00     0.200 A 
ATOM     90  F   UNL     1      -0.672   5.098  10.459  1.00  0.00    -0.200 F 
ATOM     91  F   UNL     1      -2.351   7.108  11.188  1.00  0.00    -0.200 F 
ENDBRANCH  57  81
BRANCH  69  92
ATOM     92  C   UNL     1      -5.630   4.694   1.960  1.00  0.00     0.064 A 
ATOM     93  C   UNL     1      -4.302   5.116   1.789  1.00  0.00     0.173 A 
ATOM     94  C   UNL     1      -6.610   5.284   1.149  1.00  0.00     0.173 A 
ATOM     95  F   UNL     1      -3.309   4.558   2.497  1.00  0.00    -0.203 F 
ATOM     96  C   UNL     1      -3.981   6.116   0.870  1.00  0.00     0.198 A 
ATOM     97  C   UNL     1      -6.283   6.258   0.211  1.00  0.00     0.198 A 
ATOM     98  F   UNL     1      -7.893   4.903   1.259  1.00  0.00    -0.203 F 
ATOM     99  F   UNL     1      -2.714   6.536   0.743  1.00  0.00    -0.200 F 
ATOM    100  C   UNL     1      -4.971   6.682   0.080  1.00  0.00     0.200 A 
ATOM    101  F   UNL     1      -7.241   6.784  -0.566  1.00  0.00    -0.200 F 
ATOM    102  F   UNL     1      -4.662   7.631  -0.815  1.00  0.00    -0.200 F 
ENDBRANCH  69  92
ENDBRANCH  43  44
ENDBRANCH  36  38
ENDBRANCH  35  36
ENDBRANCH  34  35
ENDBRANCH  33  34
ENDBRANCH  32  33
ENDBRANCH   1  32
TORSDOF 19
