REMARK SMILES Cc1ccc2[nH]cc([C@@H](C(=O)OCCOCCOC(=O)c3ccc(-c4c5nc(c(-c6c(F)c(F)c(F)c(F)c6F)c6ccc([nH]6)c(-c6c(F)c(F)c(F)c(F)c6F)c6nc(c(-c7c(F)c(F)c(F)c(F)c7F)c7ccc4[nH]7)C=C6)C=C5)cc3)[NH+]3CCN(c4cccc(Cl)c4)CC3)c2c1
REMARK SMILES IDX 15 1 14 2 13 3 12 4 10 5 11 6 9 7 8 8 1 9 2 10 3 11 98 12
REMARK SMILES IDX 4 13 97 14 5 15 6 16 7 17 84 19 85 20 96 21 86 23 95 24
REMARK SMILES IDX 87 25 88 26 89 27 94 28 90 29 92 30 91 31 93 32 16 33 17 34
REMARK SMILES IDX 18 35 19 36 20 37 21 38 22 39 83 40 23 41 82 42 24 43 25 44
REMARK SMILES IDX 26 45 76 46 27 47 81 48 75 49 77 50 28 51 80 52 74 53 73 54
REMARK SMILES IDX 29 56 61 57 41 58 60 59 42 60 45 61 59 62 78 63 43 64 44 65
REMARK SMILES IDX 58 67 79 68 46 69 30 70 31 71 39 72 32 73 33 74 37 75 40 76
REMARK SMILES IDX 34 77 35 78 38 79 36 80 62 81 63 82 71 83 64 84 65 85 69 86
REMARK SMILES IDX 72 87 66 88 67 89 70 90 68 91 47 92 48 93 56 94 49 95 50 96
REMARK SMILES IDX 54 97 57 98 51 99 52 100 55 101 53 102
REMARK H PARENT 6 18 84 22 77 55 45 66
REMARK Flexibility Score: inf
ROOT
ATOM      1  O   UNL     1      -5.216  -3.553   3.251  1.00  0.00    -0.374 OA
ENDROOT
BRANCH   1   2
ATOM      2  C   UNL     1      -4.001  -3.547   4.000  1.00  0.00     0.202 C 
BRANCH   2   3
ATOM      3  C   UNL     1      -2.748  -4.068   3.288  1.00  0.00     0.261 C 
BRANCH   3   4
ATOM      4  O   UNL     1      -2.268  -3.186   2.250  1.00  0.00    -0.459 OA
BRANCH   4   5
ATOM      5  C   UNL     1      -2.207  -3.734   1.000  1.00  0.00     0.370 C 
ATOM      6  O   UNL     1      -2.577  -4.882   0.756  1.00  0.00    -0.245 OA
BRANCH   5   7
ATOM      7  C   UNL     1      -1.577  -2.822  -0.076  1.00  0.00     0.328 C 
BRANCH   7   8
ATOM      8  C   UNL     1      -1.347  -1.364   0.251  1.00  0.00     0.046 A 
ATOM      9  C   UNL     1       3.740  -0.755  -0.083  1.00  0.00     0.044 C 
ATOM     10  C   UNL     1       2.333  -0.246   0.039  1.00  0.00    -0.050 A 
ATOM     11  C   UNL     1       2.069   1.121   0.138  1.00  0.00     0.005 A 
ATOM     12  C   UNL     1       1.269  -1.164   0.067  1.00  0.00     0.014 A 
ATOM     13  C   UNL     1       0.765   1.599   0.307  1.00  0.00     0.027 A 
ATOM     14  C   UNL     1      -0.058  -0.712   0.235  1.00  0.00     0.009 A 
ATOM     15  C   UNL     1      -0.269   0.659   0.379  1.00  0.00     0.046 A 
ATOM     16  N   UNL     1      -1.616   0.837   0.576  1.00  0.00    -0.361 N 
ATOM     17  C   UNL     1      -2.260  -0.373   0.564  1.00  0.00     0.094 A 
ATOM     18  H   UNL     1      -2.055   1.708   0.708  1.00  0.00     0.166 HD
ENDBRANCH   7   8
BRANCH   7  19
ATOM     19  N   UNL     1      -2.233  -3.025  -1.389  1.00  0.00    -0.316 N 
ATOM     20  C   UNL     1      -3.666  -2.751  -1.535  1.00  0.00     0.284 C 
ATOM     21  C   UNL     1      -1.474  -2.612  -2.574  1.00  0.00     0.284 C 
ATOM     22  H   UNL     1      -2.205  -4.044  -1.354  1.00  0.00     0.349 HD
ATOM     23  C   UNL     1      -4.073  -1.381  -2.128  1.00  0.00     0.178 C 
ATOM     24  C   UNL     1      -1.793  -1.203  -3.120  1.00  0.00     0.178 C 
ATOM     25  N   UNL     1      -3.245  -1.018  -3.282  1.00  0.00    -0.360 N 
BRANCH  25  26
ATOM     26  C   UNL     1      -3.610   0.125  -3.992  1.00  0.00     0.038 A 
ATOM     27  C   UNL     1      -3.802   1.369  -3.375  1.00  0.00     0.026 A 
ATOM     28  C   UNL     1      -3.770   0.037  -5.379  1.00  0.00     0.046 A 
ATOM     29  C   UNL     1      -4.161   2.495  -4.121  1.00  0.00     0.004 A 
ATOM     30  C   UNL     1      -4.135   1.159  -6.123  1.00  0.00     0.043 A 
ATOM     31  C   UNL     1      -4.332   2.388  -5.499  1.00  0.00     0.020 A 
ATOM     32  Cl  UNL     1      -4.345   1.022  -7.825  1.00  0.00    -0.084 Cl
ENDBRANCH  25  26
ENDBRANCH   7  19
ENDBRANCH   5   7
ENDBRANCH   4   5
ENDBRANCH   3   4
ENDBRANCH   2   3
ENDBRANCH   1   2
BRANCH   1  33
ATOM     33  C   UNL     1      -5.316  -2.637   2.163  1.00  0.00     0.202 C 
BRANCH  33  34
ATOM     34  C   UNL     1      -5.519  -1.171   2.551  1.00  0.00     0.261 C 
BRANCH  34  35
ATOM     35  O   UNL     1      -4.384  -0.674   3.282  1.00  0.00    -0.460 OA
BRANCH  35  36
ATOM     36  C   UNL     1      -4.703   0.052   4.373  1.00  0.00     0.338 C 
ATOM     37  O   UNL     1      -5.799   0.521   4.659  1.00  0.00    -0.246 OA
BRANCH  36  38
ATOM     38  C   UNL     1      -3.577   0.073   5.317  1.00  0.00     0.060 A 
ATOM     39  C   UNL     1      -3.729  -0.638   6.514  1.00  0.00     0.016 A 
ATOM     40  C   UNL     1      -2.456   0.877   5.103  1.00  0.00     0.016 A 
ATOM     41  C   UNL     1      -2.794  -0.488   7.534  1.00  0.00     0.010 A 
ATOM     42  C   UNL     1      -1.521   1.034   6.135  1.00  0.00     0.010 A 
ATOM     43  C   UNL     1      -1.715   0.392   7.372  1.00  0.00    -0.014 A 
BRANCH  43  44
ATOM     44  C   UNL     1      -0.922   0.767   8.569  1.00  0.00     0.031 A 
ATOM     45  C   UNL     1      -1.288   2.019   9.320  1.00  0.00     0.074 A 
ATOM     46  C   UNL     1       0.050  -0.036   9.036  1.00  0.00     0.049 A 
ATOM     47  N   UNL     1      -0.794   2.496  10.435  1.00  0.00    -0.248 NA
ATOM     48  C   UNL     1      -2.361   2.841   8.740  1.00  0.00     0.031 C 
ATOM     49  C   UNL     1       0.475  -1.290   8.420  1.00  0.00     0.029 A 
ATOM     50  N   UNL     1       0.845   0.083  10.148  1.00  0.00    -0.354 N 
ATOM     51  C   UNL     1      -1.499   3.665  10.692  1.00  0.00     0.074 A 
ATOM     52  C   UNL     1      -2.430   3.847   9.600  1.00  0.00     0.031 C 
ATOM     53  C   UNL     1       1.455  -1.830   9.166  1.00  0.00     0.029 A 
ATOM     54  C   UNL     1       1.735  -0.951  10.301  1.00  0.00     0.049 A 
ATOM     55  H   UNL     1       0.783   0.838  10.777  1.00  0.00     0.167 HD
ATOM     56  C   UNL     1      -1.393   4.503  11.751  1.00  0.00     0.037 A 
ATOM     57  C   UNL     1       2.669  -1.160  11.249  1.00  0.00     0.037 A 
ATOM     58  C   UNL     1      -0.468   4.327  12.839  1.00  0.00     0.049 A 
ATOM     59  C   UNL     1       2.806  -0.182  12.387  1.00  0.00     0.074 A 
ATOM     60  C   UNL     1      -0.293   5.119  13.961  1.00  0.00     0.029 A 
ATOM     61  N   UNL     1       0.444   3.288  12.937  1.00  0.00    -0.354 N 
ATOM     62  N   UNL     1       2.111   0.900  12.639  1.00  0.00    -0.248 NA
ATOM     63  C   UNL     1       3.853  -0.464  13.380  1.00  0.00     0.031 C 
ATOM     64  C   UNL     1       0.755   4.582  14.716  1.00  0.00     0.029 A 
ATOM     65  C   UNL     1       1.200   3.429  14.089  1.00  0.00     0.049 A 
ATOM     66  H   UNL     1       0.540   2.557  12.284  1.00  0.00     0.167 HD
ATOM     67  C   UNL     1       2.615   1.411  13.829  1.00  0.00     0.074 A 
ATOM     68  C   UNL     1       3.666   0.512  14.257  1.00  0.00     0.031 C 
ATOM     69  C   UNL     1       2.239   2.523  14.507  1.00  0.00     0.037 A 
BRANCH  56  70
ATOM     70  C   UNL     1      -2.291   5.705  11.772  1.00  0.00     0.064 A 
ATOM     71  C   UNL     1      -3.664   5.591  12.035  1.00  0.00     0.173 A 
ATOM     72  C   UNL     1      -1.766   6.988  11.558  1.00  0.00     0.173 A 
ATOM     73  F   UNL     1      -4.216   4.384  12.232  1.00  0.00    -0.203 F 
ATOM     74  C   UNL     1      -4.483   6.717  12.062  1.00  0.00     0.198 A 
ATOM     75  C   UNL     1      -2.583   8.114  11.611  1.00  0.00     0.198 A 
ATOM     76  F   UNL     1      -0.459   7.150  11.305  1.00  0.00    -0.203 F 
ATOM     77  F   UNL     1      -5.800   6.582  12.273  1.00  0.00    -0.200 F 
ATOM     78  C   UNL     1      -3.941   7.977  11.856  1.00  0.00     0.200 A 
ATOM     79  F   UNL     1      -2.056   9.331  11.421  1.00  0.00    -0.200 F 
ATOM     80  F   UNL     1      -4.729   9.061  11.886  1.00  0.00    -0.200 F 
ENDBRANCH  56  70
BRANCH  57  81
ATOM     81  C   UNL     1       3.552  -2.353  11.167  1.00  0.00     0.064 A 
ATOM     82  C   UNL     1       3.444  -3.401  12.091  1.00  0.00     0.173 A 
ATOM     83  C   UNL     1       4.536  -2.456  10.172  1.00  0.00     0.173 A 
ATOM     84  F   UNL     1       2.537  -3.334  13.076  1.00  0.00    -0.203 F 
ATOM     85  C   UNL     1       4.299  -4.500  12.034  1.00  0.00     0.198 A 
ATOM     86  C   UNL     1       5.372  -3.567  10.101  1.00  0.00     0.198 A 
ATOM     87  F   UNL     1       4.681  -1.477   9.267  1.00  0.00    -0.203 F 
ATOM     88  F   UNL     1       4.206  -5.467  12.957  1.00  0.00    -0.200 F 
ATOM     89  C   UNL     1       5.258  -4.585  11.036  1.00  0.00     0.200 A 
ATOM     90  F   UNL     1       6.291  -3.650   9.129  1.00  0.00    -0.200 F 
ATOM     91  F   UNL     1       6.079  -5.642  10.981  1.00  0.00    -0.200 F 
ENDBRANCH  57  81
BRANCH  69  92
ATOM     92  C   UNL     1       2.945   2.815  15.799  1.00  0.00     0.064 A 
ATOM     93  C   UNL     1       4.271   3.272  15.827  1.00  0.00     0.173 A 
ATOM     94  C   UNL     1       2.274   2.670  17.023  1.00  0.00     0.173 A 
ATOM     95  F   UNL     1       4.960   3.414  14.685  1.00  0.00    -0.203 F 
ATOM     96  C   UNL     1       4.908   3.546  17.035  1.00  0.00     0.198 A 
ATOM     97  C   UNL     1       2.905   2.972  18.227  1.00  0.00     0.198 A 
ATOM     98  F   UNL     1       1.002   2.245  17.051  1.00  0.00    -0.203 F 
ATOM     99  F   UNL     1       6.190   3.936  17.041  1.00  0.00    -0.200 F 
ATOM    100  C   UNL     1       4.223   3.402  18.233  1.00  0.00     0.200 A 
ATOM    101  F   UNL     1       2.237   2.845  19.382  1.00  0.00    -0.200 F 
ATOM    102  F   UNL     1       4.836   3.670  19.393  1.00  0.00    -0.200 F 
ENDBRANCH  69  92
ENDBRANCH  43  44
ENDBRANCH  36  38
ENDBRANCH  35  36
ENDBRANCH  34  35
ENDBRANCH  33  34
ENDBRANCH   1  33
TORSDOF 17
