REMARK SMILES CCOc1cc2c(cc1OCC)[C@@H](C(=O)OCCOCCOC(=O)c1ccc(-c3c4nc(c(-c5c(F)c(F)c(F)c(F)c5F)c5ccc([nH]5)c(-c5c(F)c(F)c(F)c(F)c5F)c5nc(c(-c6c(F)c(F)c(F)c(F)c6F)c6ccc3[nH]6)C=C5)C=C4)cc1)[C@H](c1ccc(F)cc1Cl)N(C)C2=O
REMARK SMILES IDX 19 1 18 2 17 3 16 4 14 5 15 6 13 7 4 8 5 9 9 10 6 11 8 12
REMARK SMILES IDX 7 13 99 14 97 15 100 16 88 17 98 18 3 19 2 20 1 21 10 22
REMARK SMILES IDX 11 23 12 24 89 25 90 26 95 27 91 28 94 29 96 30 92 31 93 32
REMARK SMILES IDX 20 33 21 34 22 35 23 36 24 37 25 38 26 39 87 40 27 41 86 42
REMARK SMILES IDX 28 43 29 44 30 45 80 46 31 47 85 48 79 49 81 50 32 51 84 52
REMARK SMILES IDX 78 53 77 54 33 56 65 57 45 58 64 59 46 60 49 61 63 62 82 63
REMARK SMILES IDX 47 64 48 65 62 67 83 68 50 69 34 70 35 71 43 72 36 73 37 74
REMARK SMILES IDX 41 75 44 76 38 77 39 78 42 79 40 80 66 81 67 82 75 83 68 84
REMARK SMILES IDX 69 85 73 86 76 87 70 88 71 89 74 90 72 91 51 92 52 93 60 94
REMARK SMILES IDX 53 95 54 96 58 97 61 98 55 99 56 100 59 101 57 102
REMARK H PARENT 81 55 49 66
REMARK Flexibility Score: inf
ROOT
ATOM      1  O   UNL     1       9.885  -0.778   3.563  1.00  0.00    -0.374 OA
ENDROOT
BRANCH   1   2
ATOM      2  C   UNL     1       9.059  -1.694   2.850  1.00  0.00     0.202 C 
BRANCH   2   3
ATOM      3  C   UNL     1       7.554  -1.597   3.099  1.00  0.00     0.261 C 
BRANCH   3   4
ATOM      4  O   UNL     1       7.002  -0.366   2.601  1.00  0.00    -0.463 OA
BRANCH   4   5
ATOM      5  C   UNL     1       6.756   0.591   3.531  1.00  0.00     0.316 C 
ATOM      6  O   UNL     1       7.022   0.489   4.725  1.00  0.00    -0.251 OA
BRANCH   5   7
ATOM      7  C   UNL     1       6.040   1.806   2.969  1.00  0.00     0.157 C 
ATOM      8  C   UNL     1       1.922   0.899   2.190  1.00  0.00     0.161 A 
ATOM      9  C   UNL     1       2.879   0.826   1.166  1.00  0.00     0.064 A 
ATOM     10  C   UNL     1       2.315   1.248   3.492  1.00  0.00     0.161 A 
ATOM     11  C   UNL     1       4.219   1.067   1.431  1.00  0.00     0.048 A 
ATOM     12  C   UNL     1       3.661   1.529   3.735  1.00  0.00     0.056 A 
ATOM     13  C   UNL     1       4.604   1.463   2.709  1.00  0.00    -0.015 A 
ATOM     14  C   UNL     1       5.234   0.912   0.352  1.00  0.00     0.254 C 
ATOM     15  N   UNL     1       6.433   1.602   0.531  1.00  0.00    -0.333 N 
ATOM     16  O   UNL     1       4.992   0.202  -0.618  1.00  0.00    -0.269 OA
ATOM     17  C   UNL     1       6.647   2.467   1.692  1.00  0.00     0.135 C 
ATOM     18  C   UNL     1       7.454   1.494  -0.495  1.00  0.00     0.147 C 
BRANCH   8  19
ATOM     19  O   UNL     1       0.604   0.736   1.863  1.00  0.00    -0.490 OA
BRANCH  19  20
ATOM     20  C   UNL     1       0.294  -0.542   1.290  1.00  0.00     0.226 C 
ATOM     21  C   UNL     1       0.280  -0.499  -0.231  1.00  0.00     0.049 C 
ENDBRANCH  19  20
ENDBRANCH   8  19
BRANCH  10  22
ATOM     22  O   UNL     1       1.580   1.373   4.634  1.00  0.00    -0.490 OA
BRANCH  22  23
ATOM     23  C   UNL     1       0.176   1.168   4.625  1.00  0.00     0.226 C 
ATOM     24  C   UNL     1      -0.540   2.444   4.226  1.00  0.00     0.049 C 
ENDBRANCH  22  23
ENDBRANCH  10  22
BRANCH  17  25
ATOM     25  C   UNL     1       6.134   3.928   1.546  1.00  0.00    -0.005 A 
ATOM     26  C   UNL     1       6.458   4.795   2.625  1.00  0.00     0.010 A 
ATOM     27  C   UNL     1       5.331   4.480   0.520  1.00  0.00     0.049 A 
ATOM     28  C   UNL     1       5.930   6.084   2.730  1.00  0.00     0.040 A 
ATOM     29  C   UNL     1       4.813   5.781   0.629  1.00  0.00     0.060 A 
ATOM     30  Cl  UNL     1       4.895   3.707  -0.959  1.00  0.00    -0.084 Cl
ATOM     31  C   UNL     1       5.097   6.559   1.736  1.00  0.00     0.124 A 
ATOM     32  F   UNL     1       4.568   7.784   1.838  1.00  0.00    -0.207 F 
ENDBRANCH  17  25
ENDBRANCH   5   7
ENDBRANCH   4   5
ENDBRANCH   3   4
ENDBRANCH   2   3
ENDBRANCH   1   2
BRANCH   1  33
ATOM     33  C   UNL     1       9.979   0.556   3.068  1.00  0.00     0.202 C 
BRANCH  33  34
ATOM     34  C   UNL     1      10.887   0.779   1.855  1.00  0.00     0.261 C 
BRANCH  34  35
ATOM     35  O   UNL     1      10.335   0.198   0.659  1.00  0.00    -0.460 OA
BRANCH  35  36
ATOM     36  C   UNL     1      10.979  -0.904   0.209  1.00  0.00     0.338 C 
ATOM     37  O   UNL     1      11.996  -1.408   0.669  1.00  0.00    -0.246 OA
BRANCH  36  38
ATOM     38  C   UNL     1      10.180  -1.558  -0.842  1.00  0.00     0.060 A 
ATOM     39  C   UNL     1       9.893  -2.922  -0.696  1.00  0.00     0.016 A 
ATOM     40  C   UNL     1       9.776  -0.867  -1.985  1.00  0.00     0.016 A 
ATOM     41  C   UNL     1       9.244  -3.615  -1.717  1.00  0.00     0.010 A 
ATOM     42  C   UNL     1       9.119  -1.560  -3.005  1.00  0.00     0.010 A 
ATOM     43  C   UNL     1       8.890  -2.945  -2.894  1.00  0.00    -0.014 A 
BRANCH  43  44
ATOM     44  C   UNL     1       8.459  -3.708  -4.091  1.00  0.00     0.031 A 
ATOM     45  C   UNL     1       9.452  -3.914  -5.201  1.00  0.00     0.074 A 
ATOM     46  C   UNL     1       7.213  -4.200  -4.199  1.00  0.00     0.049 A 
ATOM     47  N   UNL     1       9.275  -4.407  -6.400  1.00  0.00    -0.248 NA
ATOM     48  C   UNL     1      10.835  -3.492  -4.923  1.00  0.00     0.031 C 
ATOM     49  C   UNL     1       6.178  -4.114  -3.172  1.00  0.00     0.029 A 
ATOM     50  N   UNL     1       6.603  -4.853  -5.242  1.00  0.00    -0.354 N 
ATOM     51  C   UNL     1      10.512  -4.330  -7.024  1.00  0.00     0.074 A 
ATOM     52  C   UNL     1      11.428  -3.723  -6.084  1.00  0.00     0.031 C 
ATOM     53  C   UNL     1       5.051  -4.676  -3.644  1.00  0.00     0.029 A 
ATOM     54  C   UNL     1       5.272  -5.112  -5.022  1.00  0.00     0.049 A 
ATOM     55  H   UNL     1       7.074  -5.110  -6.068  1.00  0.00     0.167 HD
ATOM     56  C   UNL     1      10.853  -4.732  -8.271  1.00  0.00     0.037 A 
ATOM     57  C   UNL     1       4.335  -5.606  -5.855  1.00  0.00     0.037 A 
ATOM     58  C   UNL     1       9.941  -5.348  -9.197  1.00  0.00     0.049 A 
ATOM     59  C   UNL     1       4.719  -5.974  -7.267  1.00  0.00     0.074 A 
ATOM     60  C   UNL     1      10.192  -5.811 -10.476  1.00  0.00     0.029 A 
ATOM     61  N   UNL     1       8.597  -5.580  -8.942  1.00  0.00    -0.354 N 
ATOM     62  N   UNL     1       5.891  -5.909  -7.852  1.00  0.00    -0.248 NA
ATOM     63  C   UNL     1       3.647  -6.480  -8.138  1.00  0.00     0.031 C 
ATOM     64  C   UNL     1       8.988  -6.273 -11.016  1.00  0.00     0.029 A 
ATOM     65  C   UNL     1       8.000  -6.156 -10.050  1.00  0.00     0.049 A 
ATOM     66  H   UNL     1       8.136  -5.367  -8.098  1.00  0.00     0.167 HD
ATOM     67  C   UNL     1       5.706  -6.396  -9.140  1.00  0.00     0.074 A 
ATOM     68  C   UNL     1       4.309  -6.758  -9.253  1.00  0.00     0.031 C 
ATOM     69  C   UNL     1       6.613  -6.535 -10.137  1.00  0.00     0.037 A 
BRANCH  56  70
ATOM     70  C   UNL     1      12.265  -4.490  -8.720  1.00  0.00     0.064 A 
ATOM     71  C   UNL     1      13.346  -5.208  -8.187  1.00  0.00     0.173 A 
ATOM     72  C   UNL     1      12.535  -3.548  -9.725  1.00  0.00     0.173 A 
ATOM     73  F   UNL     1      13.144  -6.110  -7.214  1.00  0.00    -0.203 F 
ATOM     74  C   UNL     1      14.647  -4.974  -8.625  1.00  0.00     0.198 A 
ATOM     75  C   UNL     1      13.832  -3.339 -10.182  1.00  0.00     0.198 A 
ATOM     76  F   UNL     1      11.537  -2.837 -10.271  1.00  0.00    -0.203 F 
ATOM     77  F   UNL     1      15.669  -5.636  -8.067  1.00  0.00    -0.200 F 
ATOM     78  C   UNL     1      14.888  -4.046  -9.627  1.00  0.00     0.200 A 
ATOM     79  F   UNL     1      14.061  -2.452 -11.161  1.00  0.00    -0.200 F 
ATOM     80  F   UNL     1      16.140  -3.828 -10.054  1.00  0.00    -0.200 F 
ENDBRANCH  56  70
BRANCH  57  81
ATOM     81  C   UNL     1       2.931  -5.758  -5.388  1.00  0.00     0.064 A 
ATOM     82  C   UNL     1       2.355  -7.026  -5.234  1.00  0.00     0.173 A 
ATOM     83  C   UNL     1       2.131  -4.641  -5.106  1.00  0.00     0.173 A 
ATOM     84  F   UNL     1       3.069  -8.125  -5.518  1.00  0.00    -0.203 F 
ATOM     85  C   UNL     1       1.028  -7.171  -4.833  1.00  0.00     0.198 A 
ATOM     86  C   UNL     1       0.814  -4.787  -4.675  1.00  0.00     0.198 A 
ATOM     87  F   UNL     1       2.630  -3.404  -5.245  1.00  0.00    -0.203 F 
ATOM     88  F   UNL     1       0.487  -8.394  -4.742  1.00  0.00    -0.200 F 
ATOM     89  C   UNL     1       0.261  -6.051  -4.547  1.00  0.00     0.200 A 
ATOM     90  F   UNL     1       0.080  -3.703  -4.388  1.00  0.00    -0.200 F 
ATOM     91  F   UNL     1      -1.014  -6.191  -4.158  1.00  0.00    -0.200 F 
ENDBRANCH  57  81
BRANCH  69  92
ATOM     92  C   UNL     1       6.152  -7.159 -11.423  1.00  0.00     0.064 A 
ATOM     93  C   UNL     1       5.339  -6.467 -12.331  1.00  0.00     0.173 A 
ATOM     94  C   UNL     1       6.606  -8.437 -11.788  1.00  0.00     0.173 A 
ATOM     95  F   UNL     1       4.869  -5.249 -12.025  1.00  0.00    -0.203 F 
ATOM     96  C   UNL     1       4.987  -7.037 -13.553  1.00  0.00     0.198 A 
ATOM     97  C   UNL     1       6.277  -8.990 -13.021  1.00  0.00     0.198 A 
ATOM     98  F   UNL     1       7.394  -9.136 -10.957  1.00  0.00    -0.203 F 
ATOM     99  F   UNL     1       4.183  -6.371 -14.393  1.00  0.00    -0.200 F 
ATOM    100  C   UNL     1       5.466  -8.291 -13.902  1.00  0.00     0.200 A 
ATOM    101  F   UNL     1       6.755 -10.195 -13.363  1.00  0.00    -0.200 F 
ATOM    102  F   UNL     1       5.143  -8.828 -15.086  1.00  0.00    -0.200 F 
ENDBRANCH  69  92
ENDBRANCH  43  44
ENDBRANCH  36  38
ENDBRANCH  35  36
ENDBRANCH  34  35
ENDBRANCH  33  34
ENDBRANCH   1  33
TORSDOF 19
