REMARK SMILES CCc1n[nH]c(C(=O)N[C@@]2(C(=O)OCCOCCOC(=O)c3ccc(-c4c5nc(c(-c6c(F)c(F)c(F)c(F)c6F)c6ccc([nH]6)c(-c6c(F)c(F)c(F)c(F)c6F)c6nc(c(-c7c(F)c(F)c(F)c(F)c7F)c7ccc4[nH]7)C=C6)C=C5)cc3)CCCC[C@H]2C)n1
REMARK SMILES IDX 15 1 14 2 13 3 11 4 12 5 10 6 85 7 89 8 86 9 88 10 90 11
REMARK SMILES IDX 87 12 9 13 7 14 8 15 6 17 3 18 4 19 91 20 5 21 2 23 1 24
REMARK SMILES IDX 16 25 17 26 18 27 19 28 20 29 21 30 22 31 23 32 84 33 24 34
REMARK SMILES IDX 83 35 25 36 26 37 27 38 77 39 28 40 82 41 76 42 78 43 29 44
REMARK SMILES IDX 81 45 75 46 74 47 30 49 62 50 42 51 61 52 43 53 46 54 60 55
REMARK SMILES IDX 79 56 44 57 45 58 59 60 80 61 47 62 31 63 32 64 40 65 33 66
REMARK SMILES IDX 34 67 38 68 41 69 35 70 36 71 39 72 37 73 63 74 64 75 72 76
REMARK SMILES IDX 65 77 66 78 70 79 73 80 67 81 68 82 71 83 69 84 48 85 49 86
REMARK SMILES IDX 57 87 50 88 51 89 55 90 58 91 52 92 53 93 56 94 54 95
REMARK H PARENT 9 16 5 22 78 48 46 59
REMARK Flexibility Score: inf
ROOT
ATOM      1  C   UNL     1      -2.067   4.366  -3.664  1.00  0.00     0.202 C 
ENDROOT
BRANCH   1   2
ATOM      2  C   UNL     1      -0.956   3.551  -2.986  1.00  0.00     0.261 C 
BRANCH   2   3
ATOM      3  O   UNL     1       0.383   4.020  -3.251  1.00  0.00    -0.461 OA
BRANCH   3   4
ATOM      4  C   UNL     1       1.022   3.358  -4.256  1.00  0.00     0.332 C 
ATOM      5  O   UNL     1       0.442   2.626  -5.057  1.00  0.00    -0.249 OA
BRANCH   4   6
ATOM      6  C   UNL     1       2.547   3.695  -4.360  1.00  0.00     0.141 C 
ATOM      7  C   UNL     1       3.257   3.790  -2.986  1.00  0.00     0.041 C 
ATOM      8  C   UNL     1       2.664   5.101  -5.071  1.00  0.00     0.023 C 
ATOM      9  C   UNL     1       4.702   4.270  -3.102  1.00  0.00     0.003 C 
ATOM     10  C   UNL     1       4.081   5.715  -5.038  1.00  0.00     0.006 C 
ATOM     11  C   UNL     1       2.197   5.124  -6.537  1.00  0.00     0.011 C 
ATOM     12  C   UNL     1       4.743   5.673  -3.672  1.00  0.00     0.000 C 
BRANCH   6  13
ATOM     13  N   UNL     1       3.153   2.625  -5.201  1.00  0.00    -0.333 N 
ATOM     14  C   UNL     1       3.025   1.246  -5.101  1.00  0.00     0.289 C 
ATOM     15  O   UNL     1       3.532   0.572  -6.000  1.00  0.00    -0.266 OA
ATOM     16  H   UNL     1       3.728   2.941  -5.935  1.00  0.00     0.165 HD
BRANCH  14  17
ATOM     17  C   UNL     1       2.260   0.635  -4.030  1.00  0.00     0.214 A 
ATOM     18  C   UNL     1       1.136   0.241  -2.275  1.00  0.00     0.151 A 
ATOM     19  N   UNL     1       0.921  -0.855  -3.009  1.00  0.00    -0.158 NA
ATOM     20  N   UNL     1       1.960   1.160  -2.858  1.00  0.00    -0.207 NA
ATOM     21  N   UNL     1       1.649  -0.584  -4.115  1.00  0.00    -0.255 N 
ATOM     22  H   UNL     1       1.729  -1.190  -4.886  1.00  0.00     0.192 HD
BRANCH  18  23
ATOM     23  C   UNL     1       0.478   0.523  -0.974  1.00  0.00     0.076 C 
ATOM     24  C   UNL     1       1.021  -0.310   0.171  1.00  0.00     0.012 C 
ENDBRANCH  18  23
ENDBRANCH  14  17
ENDBRANCH   6  13
ENDBRANCH   4   6
ENDBRANCH   3   4
ENDBRANCH   2   3
ENDBRANCH   1   2
BRANCH   1  25
ATOM     25  O   UNL     1      -2.256   4.179  -5.068  1.00  0.00    -0.374 OA
BRANCH  25  26
ATOM     26  C   UNL     1      -1.319   4.836  -5.918  1.00  0.00     0.202 C 
BRANCH  26  27
ATOM     27  C   UNL     1      -1.694   6.245  -6.370  1.00  0.00     0.261 C 
BRANCH  27  28
ATOM     28  O   UNL     1      -1.845   7.101  -5.229  1.00  0.00    -0.460 OA
BRANCH  28  29
ATOM     29  C   UNL     1      -3.136   7.334  -4.902  1.00  0.00     0.338 C 
ATOM     30  O   UNL     1      -4.125   7.077  -5.566  1.00  0.00    -0.246 OA
BRANCH  29  31
ATOM     31  C   UNL     1      -3.226   7.820  -3.513  1.00  0.00     0.060 A 
ATOM     32  C   UNL     1      -4.276   7.305  -2.746  1.00  0.00     0.016 A 
ATOM     33  C   UNL     1      -2.363   8.786  -2.987  1.00  0.00     0.016 A 
ATOM     34  C   UNL     1      -4.536   7.833  -1.490  1.00  0.00     0.010 A 
ATOM     35  C   UNL     1      -2.623   9.316  -1.719  1.00  0.00     0.010 A 
ATOM     36  C   UNL     1      -3.748   8.881  -0.997  1.00  0.00    -0.014 A 
BRANCH  36  37
ATOM     37  C   UNL     1      -4.257   9.631   0.173  1.00  0.00     0.031 A 
ATOM     38  C   UNL     1      -5.039  10.893  -0.071  1.00  0.00     0.074 A 
ATOM     39  C   UNL     1      -4.144   9.114   1.408  1.00  0.00     0.049 A 
ATOM     40  N   UNL     1      -5.699  11.639   0.778  1.00  0.00    -0.248 NA
ATOM     41  C   UNL     1      -5.096  11.375  -1.462  1.00  0.00     0.031 C 
ATOM     42  C   UNL     1      -3.441   7.878   1.744  1.00  0.00     0.029 A 
ATOM     43  N   UNL     1      -4.646   9.554   2.606  1.00  0.00    -0.354 N 
ATOM     44  C   UNL     1      -6.266  12.658   0.022  1.00  0.00     0.074 A 
ATOM     45  C   UNL     1      -5.832  12.470  -1.344  1.00  0.00     0.031 C 
ATOM     46  C   UNL     1      -3.567   7.648   3.062  1.00  0.00     0.029 A 
ATOM     47  C   UNL     1      -4.348   8.728   3.661  1.00  0.00     0.049 A 
ATOM     48  H   UNL     1      -5.169  10.383   2.700  1.00  0.00     0.167 HD
ATOM     49  C   UNL     1      -7.096  13.646   0.429  1.00  0.00     0.037 A 
ATOM     50  C   UNL     1      -4.679   8.837   4.962  1.00  0.00     0.037 A 
ATOM     51  C   UNL     1      -7.515  13.833   1.792  1.00  0.00     0.049 A 
ATOM     52  C   UNL     1      -5.553   9.986   5.394  1.00  0.00     0.074 A 
ATOM     53  C   UNL     1      -8.322  14.823   2.323  1.00  0.00     0.029 A 
ATOM     54  N   UNL     1      -7.155  13.002   2.843  1.00  0.00    -0.354 N 
ATOM     55  N   UNL     1      -6.094  10.936   4.670  1.00  0.00    -0.248 NA
ATOM     56  C   UNL     1      -5.875  10.067   6.825  1.00  0.00     0.031 C 
ATOM     57  C   UNL     1      -8.423  14.609   3.702  1.00  0.00     0.029 A 
ATOM     58  C   UNL     1      -7.717  13.461   4.022  1.00  0.00     0.049 A 
ATOM     59  H   UNL     1      -6.584  12.203   2.762  1.00  0.00     0.167 HD
ATOM     60  C   UNL     1      -6.840  11.709   5.549  1.00  0.00     0.074 A 
ATOM     61  C   UNL     1      -6.703  11.100   6.856  1.00  0.00     0.031 C 
ATOM     62  C   UNL     1      -7.568  12.827   5.306  1.00  0.00     0.037 A 
BRANCH  49  63
ATOM     63  C   UNL     1      -7.602  14.601  -0.612  1.00  0.00     0.064 A 
ATOM     64  C   UNL     1      -8.564  14.211  -1.556  1.00  0.00     0.173 A 
ATOM     65  C   UNL     1      -7.154  15.930  -0.643  1.00  0.00     0.173 A 
ATOM     66  F   UNL     1      -9.010  12.946  -1.581  1.00  0.00    -0.203 F 
ATOM     67  C   UNL     1      -9.049  15.112  -2.501  1.00  0.00     0.198 A 
ATOM     68  C   UNL     1      -7.660  16.835  -1.573  1.00  0.00     0.198 A 
ATOM     69  F   UNL     1      -6.234  16.354   0.236  1.00  0.00    -0.203 F 
ATOM     70  F   UNL     1      -9.942  14.708  -3.415  1.00  0.00    -0.200 F 
ATOM     71  C   UNL     1      -8.603  16.425  -2.503  1.00  0.00     0.200 A 
ATOM     72  F   UNL     1      -7.234  18.106  -1.568  1.00  0.00    -0.200 F 
ATOM     73  F   UNL     1      -9.079  17.295  -3.405  1.00  0.00    -0.200 F 
ENDBRANCH  49  63
BRANCH  50  74
ATOM     74  C   UNL     1      -4.192   7.837   5.948  1.00  0.00     0.064 A 
ATOM     75  C   UNL     1      -5.078   6.985   6.623  1.00  0.00     0.173 A 
ATOM     76  C   UNL     1      -2.829   7.744   6.270  1.00  0.00     0.173 A 
ATOM     77  F   UNL     1      -6.393   7.048   6.366  1.00  0.00    -0.203 F 
ATOM     78  C   UNL     1      -4.626   6.105   7.604  1.00  0.00     0.198 A 
ATOM     79  C   UNL     1      -2.374   6.841   7.229  1.00  0.00     0.198 A 
ATOM     80  F   UNL     1      -1.938   8.534   5.654  1.00  0.00    -0.203 F 
ATOM     81  F   UNL     1      -5.503   5.348   8.277  1.00  0.00    -0.200 F 
ATOM     82  C   UNL     1      -3.274   6.032   7.904  1.00  0.00     0.200 A 
ATOM     83  F   UNL     1      -1.065   6.765   7.505  1.00  0.00    -0.200 F 
ATOM     84  F   UNL     1      -2.840   5.190   8.852  1.00  0.00    -0.200 F 
ENDBRANCH  50  74
BRANCH  62  85
ATOM     85  C   UNL     1      -8.291  13.434   6.473  1.00  0.00     0.064 A 
ATOM     86  C   UNL     1      -7.600  14.090   7.503  1.00  0.00     0.173 A 
ATOM     87  C   UNL     1      -9.689  13.365   6.557  1.00  0.00     0.173 A 
ATOM     88  F   UNL     1      -6.261  14.170   7.474  1.00  0.00    -0.203 F 
ATOM     89  C   UNL     1      -8.281  14.618   8.596  1.00  0.00     0.198 A 
ATOM     90  C   UNL     1     -10.369  13.922   7.635  1.00  0.00     0.198 A 
ATOM     91  F   UNL     1     -10.396  12.757   5.592  1.00  0.00    -0.203 F 
ATOM     92  F   UNL     1      -7.597  15.183   9.600  1.00  0.00    -0.200 F 
ATOM     93  C   UNL     1      -9.665  14.537   8.659  1.00  0.00     0.200 A 
ATOM     94  F   UNL     1     -11.707  13.855   7.689  1.00  0.00    -0.200 F 
ATOM     95  F   UNL     1     -10.318  15.042   9.715  1.00  0.00    -0.200 F 
ENDBRANCH  62  85
ENDBRANCH  36  37
ENDBRANCH  29  31
ENDBRANCH  28  29
ENDBRANCH  27  28
ENDBRANCH  26  27
ENDBRANCH  25  26
ENDBRANCH   1  25
TORSDOF 17
