REMARK SMILES O=C(OCCOCCOC(=O)c1ccc(-c2c3nc(c(-c4c(F)c(F)c(F)c(F)c4F)c4ccc([nH]4)c(-c4c(F)c(F)c(F)c(F)c4F)c4nc(c(-c5c(F)c(F)c(F)c(F)c5F)c5ccc2[nH]5)C=C4)C=C3)cc1)C1=Cc2cc(S(F)(F)(F)(F)F)ccc2O[C@@H]1C(F)(F)F
REMARK SMILES IDX 7 1 6 2 5 3 4 4 3 5 2 6 1 7 75 8 76 9 90 10 77 11 89 12
REMARK SMILES IDX 78 13 88 14 79 15 87 16 86 17 91 18 92 19 93 20 94 21 80 22
REMARK SMILES IDX 81 23 82 24 83 25 84 26 85 27 8 28 9 29 10 30 11 31 12 32
REMARK SMILES IDX 13 33 74 34 14 35 73 36 15 37 16 38 17 39 67 40 18 41 72 42
REMARK SMILES IDX 66 43 68 44 19 45 71 46 65 47 64 48 20 50 52 51 32 52 51 53
REMARK SMILES IDX 33 54 36 55 50 56 69 57 34 58 35 59 49 61 70 62 37 63 21 64
REMARK SMILES IDX 22 65 30 66 23 67 24 68 28 69 31 70 25 71 26 72 29 73 27 74
REMARK SMILES IDX 53 75 54 76 62 77 55 78 56 79 60 80 63 81 57 82 58 83 61 84
REMARK SMILES IDX 59 85 38 86 39 87 47 88 40 89 41 90 45 91 48 92 42 93 43 94
REMARK SMILES IDX 46 95 44 96
REMARK H PARENT 68 49 36 60
REMARK Flexibility Score: inf
ROOT
ATOM      1  C   UNL     1       3.092   1.225   0.775  1.00  0.00     0.202 C 
ENDROOT
BRANCH   1   2
ATOM      2  O   UNL     1       4.512   1.225   0.775  1.00  0.00    -0.374 OA
BRANCH   2   3
ATOM      3  C   UNL     1       4.985   1.151  -0.562  1.00  0.00     0.202 C 
BRANCH   3   4
ATOM      4  C   UNL     1       4.479  -0.128  -1.209  1.00  0.00     0.261 C 
BRANCH   4   5
ATOM      5  O   UNL     1       3.059  -0.128  -1.209  1.00  0.00    -0.460 OA
BRANCH   5   6
ATOM      6  C   UNL     1       2.349  -0.060   0.019  1.00  0.00     0.338 C 
ATOM      7  O   UNL     1       1.078  -0.060   0.019  1.00  0.00    -0.246 OA
BRANCH   6   8
ATOM      8  C   UNL     1       3.109   0.013   1.333  1.00  0.00     0.087 C 
ATOM      9  C   UNL     1       4.469   0.013   1.333  1.00  0.00     0.027 C 
ATOM     10  C   UNL     1       2.349   0.085   2.648  1.00  0.00     0.316 C 
ATOM     11  C   UNL     1       5.229  -0.060   0.019  1.00  0.00     0.019 A 
ATOM     12  O   UNL     1       3.645   1.455  -0.900  1.00  0.00    -0.475 OA
ATOM     13  C   UNL     1       6.306  -0.923  -0.096  1.00  0.00     0.036 A 
ATOM     14  C   UNL     1       4.846   0.703  -0.998  1.00  0.00     0.128 A 
ATOM     15  C   UNL     1       7.102  -0.697  -1.244  1.00  0.00     0.107 A 
ATOM     16  C   UNL     1       5.602   0.772  -2.144  1.00  0.00     0.048 A 
ATOM     17  C   UNL     1       6.713  -0.009  -2.302  1.00  0.00     0.028 A 
BRANCH  10  18
ATOM     18  C   UNL     1       2.716   1.368   3.375  1.00  0.00     0.430 C 
ATOM     19  F   UNL     1       2.394   2.414   2.619  1.00  0.00    -0.167 F 
ATOM     20  F   UNL     1       2.051   1.432   4.525  1.00  0.00    -0.167 F 
ATOM     21  F   UNL     1       4.023   1.382   3.618  1.00  0.00    -0.167 F 
ENDBRANCH  10  18
BRANCH  15  22
ATOM     22  S   UNL     1       8.770  -1.399  -1.263  1.00  0.00     0.310 S 
ATOM     23  F   UNL     1       8.854  -1.404   0.321  1.00  0.00    -0.094 F 
ATOM     24  F   UNL     1       9.355   0.063  -1.221  1.00  0.00    -0.094 F 
ATOM     25  F   UNL     1      10.203  -2.002  -1.280  1.00  0.00    -0.094 F 
ATOM     26  F   UNL     1       8.168  -2.855  -1.164  1.00  0.00    -0.094 F 
ATOM     27  F   UNL     1       7.312  -0.802  -1.133  1.00  0.00    -0.094 F 
ENDBRANCH  15  22
ENDBRANCH   6   8
ENDBRANCH   5   6
ENDBRANCH   4   5
ENDBRANCH   3   4
ENDBRANCH   2   3
ENDBRANCH   1   2
BRANCH   1  28
ATOM     28  C   UNL     1       2.585   2.424  -0.009  1.00  0.00     0.261 C 
BRANCH  28  29
ATOM     29  O   UNL     1       3.059   2.350  -1.346  1.00  0.00    -0.460 OA
BRANCH  29  30
ATOM     30  C   UNL     1       4.455   2.336  -1.605  1.00  0.00     0.338 C 
ATOM     31  O   UNL     1       5.280   2.389  -0.640  1.00  0.00    -0.246 OA
BRANCH  30  32
ATOM     32  C   UNL     1       4.961   2.257  -3.036  1.00  0.00     0.060 A 
ATOM     33  C   UNL     1       5.989   1.382  -3.345  1.00  0.00     0.016 A 
ATOM     34  C   UNL     1       4.407   3.025  -3.967  1.00  0.00     0.016 A 
ATOM     35  C   UNL     1       6.564   1.599  -4.619  1.00  0.00     0.010 A 
ATOM     36  C   UNL     1       4.940   3.086  -5.231  1.00  0.00     0.010 A 
ATOM     37  C   UNL     1       5.994   2.291  -5.589  1.00  0.00    -0.014 A 
BRANCH  37  38
ATOM     38  C   UNL     1       6.484   2.210  -7.026  1.00  0.00     0.031 A 
ATOM     39  C   UNL     1       6.932   3.384  -7.633  1.00  0.00     0.074 A 
ATOM     40  C   UNL     1       6.455   0.976  -7.653  1.00  0.00     0.049 A 
ATOM     41  N   UNL     1       7.425   3.526  -8.864  1.00  0.00    -0.248 NA
ATOM     42  C   UNL     1       6.932   4.702  -6.980  1.00  0.00     0.031 C 
ATOM     43  C   UNL     1       6.013  -0.214  -7.044  1.00  0.00     0.029 A 
ATOM     44  N   UNL     1       6.833   0.675  -8.943  1.00  0.00    -0.354 N 
ATOM     45  C   UNL     1       7.764   4.799  -9.081  1.00  0.00     0.074 A 
ATOM     46  C   UNL     1       7.447   5.574  -7.874  1.00  0.00     0.031 C 
ATOM     47  C   UNL     1       6.113  -1.217  -7.957  1.00  0.00     0.029 A 
ATOM     48  C   UNL     1       6.619  -0.670  -9.151  1.00  0.00     0.049 A 
ATOM     49  H   UNL     1       7.195   1.311  -9.602  1.00  0.00     0.167 HD
ATOM     50  C   UNL     1       8.328   5.343 -10.237  1.00  0.00     0.037 A 
ATOM     51  C   UNL     1       6.844  -1.395 -10.310  1.00  0.00     0.037 A 
ATOM     52  C   UNL     1       8.594   4.608 -11.381  1.00  0.00     0.049 A 
ATOM     53  C   UNL     1       7.354  -0.840 -11.486  1.00  0.00     0.074 A 
ATOM     54  C   UNL     1       9.168   5.138 -12.552  1.00  0.00     0.029 A 
ATOM     55  N   UNL     1       8.356   3.268 -11.597  1.00  0.00    -0.354 N 
ATOM     56  N   UNL     1       7.730   0.424 -11.689  1.00  0.00    -0.248 NA
ATOM     57  C   UNL     1       7.566  -1.592 -12.729  1.00  0.00     0.031 C 
ATOM     58  C   UNL     1       9.268   4.136 -13.465  1.00  0.00     0.029 A 
ATOM     59  C   UNL     1       8.756   2.962 -12.879  1.00  0.00     0.049 A 
ATOM     60  H   UNL     1       7.968   2.639 -10.948  1.00  0.00     0.167 HD
ATOM     61  C   UNL     1       8.184   0.574 -12.934  1.00  0.00     0.074 A 
ATOM     62  C   UNL     1       8.079  -0.719 -13.624  1.00  0.00     0.031 C 
ATOM     63  C   UNL     1       8.686   1.736 -13.523  1.00  0.00     0.037 A 
BRANCH  50  64
ATOM     64  C   UNL     1       8.669   6.824 -10.240  1.00  0.00     0.064 A 
ATOM     65  C   UNL     1       9.587   7.283  -9.309  1.00  0.00     0.173 A 
ATOM     66  C   UNL     1       8.110   7.646 -11.120  1.00  0.00     0.173 A 
ATOM     67  F   UNL     1      10.354   6.473  -8.585  1.00  0.00    -0.203 F 
ATOM     68  C   UNL     1       9.633   8.693  -9.198  1.00  0.00     0.198 A 
ATOM     69  C   UNL     1       8.309   9.003 -11.034  1.00  0.00     0.198 A 
ATOM     70  F   UNL     1       7.351   7.151 -12.094  1.00  0.00    -0.203 F 
ATOM     71  F   UNL     1      10.197   9.210  -8.111  1.00  0.00    -0.200 F 
ATOM     72  C   UNL     1       9.156   9.531 -10.101  1.00  0.00     0.200 A 
ATOM     73  F   UNL     1       7.668   9.813 -11.871  1.00  0.00    -0.200 F 
ATOM     74  F   UNL     1       9.482  10.821 -10.101  1.00  0.00    -0.200 F 
ENDBRANCH  50  64
BRANCH  51  75
ATOM     75  C   UNL     1       6.518  -2.880 -10.301  1.00  0.00     0.064 A 
ATOM     76  C   UNL     1       7.548  -3.775 -10.538  1.00  0.00     0.173 A 
ATOM     77  C   UNL     1       5.283  -3.301 -10.057  1.00  0.00     0.173 A 
ATOM     78  F   UNL     1       8.831  -3.422 -10.535  1.00  0.00    -0.203 F 
ATOM     79  C   UNL     1       7.113  -5.098 -10.785  1.00  0.00     0.198 A 
ATOM     80  C   UNL     1       4.958  -4.630 -10.186  1.00  0.00     0.198 A 
ATOM     81  F   UNL     1       4.350  -2.428  -9.686  1.00  0.00    -0.203 F 
ATOM     82  F   UNL     1       7.969  -5.933 -11.367  1.00  0.00    -0.200 F 
ATOM     83  C   UNL     1       5.915  -5.562 -10.477  1.00  0.00     0.200 A 
ATOM     84  F   UNL     1       3.696  -5.015 -10.025  1.00  0.00    -0.200 F 
ATOM     85  F   UNL     1       5.654  -6.866 -10.452  1.00  0.00    -0.200 F 
ENDBRANCH  51  75
BRANCH  63  86
ATOM     86  C   UNL     1       9.186   1.652 -14.956  1.00  0.00     0.064 A 
ATOM     87  C   UNL     1       8.311   1.270 -15.959  1.00  0.00     0.173 A 
ATOM     88  C   UNL     1      10.452   1.952 -15.223  1.00  0.00     0.173 A 
ATOM     89  F   UNL     1       6.993   1.208 -15.787  1.00  0.00    -0.203 F 
ATOM     90  C   UNL     1       8.945   0.953 -17.183  1.00  0.00     0.198 A 
ATOM     91  C   UNL     1      10.970   1.743 -16.478  1.00  0.00     0.198 A 
ATOM     92  F   UNL     1      11.225   2.458 -14.267  1.00  0.00    -0.203 F 
ATOM     93  F   UNL     1       8.255   0.246 -18.073  1.00  0.00    -0.200 F 
ATOM     94  C   UNL     1      10.176   1.310 -17.504  1.00  0.00     0.200 A 
ATOM     95  F   UNL     1      12.262   1.965 -16.699  1.00  0.00    -0.200 F 
ATOM     96  F   UNL     1      10.618   1.252 -18.756  1.00  0.00    -0.200 F 
ENDBRANCH  63  86
ENDBRANCH  37  38
ENDBRANCH  30  32
ENDBRANCH  29  30
ENDBRANCH  28  29
ENDBRANCH   1  28
TORSDOF 16
