REMARK SMILES CC(C)[C@H](C)n1c(SCC(=O)OCCOCCOC(=O)c2ccc(-c3c4nc(c(-c5c(F)c(F)c(F)c(F)c5F)c5ccc([nH]5)c(-c5c(F)c(F)c(F)c(F)c5F)c5nc(c(-c6c(F)c(F)c(F)c(F)c6F)c6ccc3[nH]6)C=C5)C=C4)cc2)nc2cc(Br)cnc21
REMARK SMILES IDX 14 1 13 2 12 3 10 4 11 5 9 6 8 7 7 8 6 9 91 10 84 11 85 12
REMARK SMILES IDX 90 13 86 14 89 15 87 16 88 17 4 18 5 19 2 20 1 21 3 22 15 23
REMARK SMILES IDX 16 24 17 25 18 26 19 27 20 28 21 29 22 30 83 31 23 32 82 33
REMARK SMILES IDX 24 34 25 35 26 36 76 37 27 38 81 39 75 40 77 41 28 42 80 43
REMARK SMILES IDX 74 44 73 45 29 47 61 48 41 49 60 50 42 51 45 52 59 53 78 54
REMARK SMILES IDX 43 55 44 56 58 58 79 59 46 60 30 61 31 62 39 63 32 64 33 65
REMARK SMILES IDX 37 66 40 67 34 68 35 69 38 70 36 71 62 72 63 73 71 74 64 75
REMARK SMILES IDX 65 76 69 77 72 78 66 79 67 80 70 81 68 82 47 83 48 84 56 85
REMARK SMILES IDX 49 86 50 87 54 88 57 89 51 90 52 91 55 92 53 93
REMARK H PARENT 77 46 45 57
REMARK Flexibility Score: inf
ROOT
ATOM      1  C   UNL     1      -4.531  -1.856  -0.699  1.00  0.00     0.202 C 
ENDROOT
BRANCH   1   2
ATOM      2  C   UNL     1      -3.393  -2.835  -1.136  1.00  0.00     0.261 C 
BRANCH   2   3
ATOM      3  O   UNL     1      -2.732  -3.477   0.036  1.00  0.00    -0.463 OA
BRANCH   3   4
ATOM      4  C   UNL     1      -1.470  -3.942  -0.194  1.00  0.00     0.316 C 
ATOM      5  O   UNL     1      -1.091  -4.163  -1.349  1.00  0.00    -0.251 OA
BRANCH   4   6
ATOM      6  C   UNL     1      -0.474  -4.191   0.957  1.00  0.00     0.200 C 
BRANCH   6   7
ATOM      7  S   UNL     1      -0.483  -3.794   2.704  1.00  0.00    -0.076 SA
BRANCH   7   8
ATOM      8  C   UNL     1      -0.610  -2.217   3.468  1.00  0.00     0.171 A 
ATOM      9  N   UNL     1      -0.252  -0.897   3.152  1.00  0.00    -0.301 N 
ATOM     10  C   UNL     1      -0.885  -0.088   4.105  1.00  0.00     0.161 A 
ATOM     11  N   UNL     1      -1.223  -2.238   4.650  1.00  0.00    -0.221 NA
ATOM     12  C   UNL     1      -1.469  -0.945   5.011  1.00  0.00     0.110 A 
ATOM     13  N   UNL     1      -1.002   1.261   4.067  1.00  0.00    -0.235 NA
ATOM     14  C   UNL     1      -2.239  -0.389   6.043  1.00  0.00     0.049 A 
ATOM     15  C   UNL     1      -1.812   1.754   5.031  1.00  0.00     0.129 A 
ATOM     16  C   UNL     1      -2.428   0.996   6.018  1.00  0.00     0.038 A 
ATOM     17  Br  UNL     1      -3.553   1.831   7.283  1.00  0.00    -0.049 Br
BRANCH   9  18
ATOM     18  C   UNL     1       0.253  -0.208   1.961  1.00  0.00     0.091 C 
ATOM     19  C   UNL     1       1.745   0.068   1.933  1.00  0.00     0.032 C 
BRANCH  18  20
ATOM     20  C   UNL     1      -0.390  -0.595   0.641  1.00  0.00     0.006 C 
ATOM     21  C   UNL     1       0.496  -1.366  -0.319  1.00  0.00     0.009 C 
ATOM     22  C   UNL     1      -1.746  -1.155   0.947  1.00  0.00     0.009 C 
ENDBRANCH  18  20
ENDBRANCH   9  18
ENDBRANCH   7   8
ENDBRANCH   6   7
ENDBRANCH   4   6
ENDBRANCH   3   4
ENDBRANCH   2   3
ENDBRANCH   1   2
BRANCH   1  23
ATOM     23  O   UNL     1      -4.438  -0.454  -1.019  1.00  0.00    -0.374 OA
BRANCH  23  24
ATOM     24  C   UNL     1      -3.897   0.581  -0.185  1.00  0.00     0.202 C 
BRANCH  24  25
ATOM     25  C   UNL     1      -4.256   0.771   1.302  1.00  0.00     0.261 C 
BRANCH  25  26
ATOM     26  O   UNL     1      -4.685  -0.403   1.956  1.00  0.00    -0.460 OA
BRANCH  26  27
ATOM     27  C   UNL     1      -6.005  -0.625   1.752  1.00  0.00     0.338 C 
ATOM     28  O   UNL     1      -6.739  -0.037   0.996  1.00  0.00    -0.246 OA
BRANCH  27  29
ATOM     29  C   UNL     1      -6.447  -1.593   2.760  1.00  0.00     0.060 A 
ATOM     30  C   UNL     1      -7.818  -1.578   2.987  1.00  0.00     0.016 A 
ATOM     31  C   UNL     1      -5.548  -2.275   3.600  1.00  0.00     0.016 A 
ATOM     32  C   UNL     1      -8.270  -2.051   4.189  1.00  0.00     0.010 A 
ATOM     33  C   UNL     1      -6.010  -2.777   4.797  1.00  0.00     0.010 A 
ATOM     34  C   UNL     1      -7.352  -2.585   5.107  1.00  0.00    -0.014 A 
BRANCH  34  35
ATOM     35  C   UNL     1      -7.931  -3.135   6.313  1.00  0.00     0.031 A 
ATOM     36  C   UNL     1      -8.788  -4.290   5.977  1.00  0.00     0.074 A 
ATOM     37  C   UNL     1      -7.738  -2.622   7.541  1.00  0.00     0.049 A 
ATOM     38  N   UNL     1     -10.078  -4.293   5.949  1.00  0.00    -0.248 NA
ATOM     39  C   UNL     1      -8.169  -5.468   5.344  1.00  0.00     0.031 C 
ATOM     40  C   UNL     1      -6.750  -1.623   7.951  1.00  0.00     0.029 A 
ATOM     41  N   UNL     1      -8.351  -2.954   8.714  1.00  0.00    -0.354 N 
ATOM     42  C   UNL     1     -10.430  -5.569   5.534  1.00  0.00     0.074 A 
ATOM     43  C   UNL     1      -9.247  -6.165   4.976  1.00  0.00     0.031 C 
ATOM     44  C   UNL     1      -6.665  -1.611   9.302  1.00  0.00     0.029 A 
ATOM     45  C   UNL     1      -7.687  -2.488   9.846  1.00  0.00     0.049 A 
ATOM     46  H   UNL     1      -9.186  -3.475   8.757  1.00  0.00     0.167 HD
ATOM     47  C   UNL     1     -11.557  -6.135   6.039  1.00  0.00     0.037 A 
ATOM     48  C   UNL     1      -7.937  -2.883  11.120  1.00  0.00     0.037 A 
ATOM     49  C   UNL     1     -12.429  -5.131   6.592  1.00  0.00     0.049 A 
ATOM     50  C   UNL     1      -9.332  -3.385  11.150  1.00  0.00     0.074 A 
ATOM     51  C   UNL     1     -13.284  -4.168   6.104  1.00  0.00     0.029 A 
ATOM     52  N   UNL     1     -12.092  -4.770   7.869  1.00  0.00    -0.354 N 
ATOM     53  N   UNL     1     -10.373  -2.614  10.991  1.00  0.00    -0.248 NA
ATOM     54  C   UNL     1      -9.581  -4.815  10.989  1.00  0.00     0.031 C 
ATOM     55  C   UNL     1     -13.357  -3.152   7.105  1.00  0.00     0.029 A 
ATOM     56  C   UNL     1     -12.589  -3.542   8.200  1.00  0.00     0.049 A 
ATOM     57  H   UNL     1     -11.555  -5.328   8.476  1.00  0.00     0.167 HD
ATOM     58  C   UNL     1     -11.273  -3.399  10.299  1.00  0.00     0.074 A 
ATOM     59  C   UNL     1     -10.815  -4.771  10.480  1.00  0.00     0.031 C 
ATOM     60  C   UNL     1     -12.099  -2.844   9.367  1.00  0.00     0.037 A 
BRANCH  47  61
ATOM     61  C   UNL     1     -11.584  -7.555   6.552  1.00  0.00     0.064 A 
ATOM     62  C   UNL     1     -12.812  -8.126   6.931  1.00  0.00     0.173 A 
ATOM     63  C   UNL     1     -10.430  -8.252   6.982  1.00  0.00     0.173 A 
ATOM     64  F   UNL     1     -13.967  -7.511   6.637  1.00  0.00    -0.203 F 
ATOM     65  C   UNL     1     -12.874  -9.294   7.697  1.00  0.00     0.198 A 
ATOM     66  C   UNL     1     -10.497  -9.445   7.694  1.00  0.00     0.198 A 
ATOM     67  F   UNL     1      -9.199  -7.747   6.850  1.00  0.00    -0.203 F 
ATOM     68  F   UNL     1     -14.060  -9.746   8.128  1.00  0.00    -0.200 F 
ATOM     69  C   UNL     1     -11.717  -9.957   8.070  1.00  0.00     0.200 A 
ATOM     70  F   UNL     1      -9.361 -10.043   8.080  1.00  0.00    -0.200 F 
ATOM     71  F   UNL     1     -11.773 -11.053   8.837  1.00  0.00    -0.200 F 
ENDBRANCH  47  61
BRANCH  48  72
ATOM     72  C   UNL     1      -6.972  -3.183  12.210  1.00  0.00     0.064 A 
ATOM     73  C   UNL     1      -7.429  -3.456  13.513  1.00  0.00     0.173 A 
ATOM     74  C   UNL     1      -5.633  -3.522  11.938  1.00  0.00     0.173 A 
ATOM     75  F   UNL     1      -8.699  -3.188  13.854  1.00  0.00    -0.203 F 
ATOM     76  C   UNL     1      -6.619  -4.090  14.460  1.00  0.00     0.198 A 
ATOM     77  C   UNL     1      -4.824  -4.149  12.887  1.00  0.00     0.198 A 
ATOM     78  F   UNL     1      -5.111  -3.346  10.717  1.00  0.00    -0.203 F 
ATOM     79  F   UNL     1      -7.119  -4.411  15.662  1.00  0.00    -0.200 F 
ATOM     80  C   UNL     1      -5.322  -4.454  14.139  1.00  0.00     0.200 A 
ATOM     81  F   UNL     1      -3.580  -4.523  12.554  1.00  0.00    -0.200 F 
ATOM     82  F   UNL     1      -4.572  -5.134  15.017  1.00  0.00    -0.200 F 
ENDBRANCH  48  72
BRANCH  60  83
ATOM     83  C   UNL     1     -12.403  -1.386   9.485  1.00  0.00     0.064 A 
ATOM     84  C   UNL     1     -11.474  -0.355   9.280  1.00  0.00     0.173 A 
ATOM     85  C   UNL     1     -13.739  -1.027   9.711  1.00  0.00     0.173 A 
ATOM     86  F   UNL     1     -10.193  -0.627   8.991  1.00  0.00    -0.203 F 
ATOM     87  C   UNL     1     -11.871   0.981   9.321  1.00  0.00     0.198 A 
ATOM     88  C   UNL     1     -14.139   0.303   9.713  1.00  0.00     0.198 A 
ATOM     89  F   UNL     1     -14.670  -1.980   9.881  1.00  0.00    -0.203 F 
ATOM     90  F   UNL     1     -10.972   1.957   9.130  1.00  0.00    -0.200 F 
ATOM     91  C   UNL     1     -13.204   1.307   9.525  1.00  0.00     0.200 A 
ATOM     92  F   UNL     1     -15.434   0.607   9.869  1.00  0.00    -0.200 F 
ATOM     93  F   UNL     1     -13.594   2.590   9.517  1.00  0.00    -0.200 F 
ENDBRANCH  60  83
ENDBRANCH  34  35
ENDBRANCH  27  29
ENDBRANCH  26  27
ENDBRANCH  25  26
ENDBRANCH  24  25
ENDBRANCH  23  24
ENDBRANCH   1  23
TORSDOF 18
