REMARK SMILES CC(C)n1c2c(c3ccccc31)[C@@H](c1ccccc1)N(CC(=O)OCCOCCOC(=O)c1ccc(-c3c4nc(c(-c5c(F)c(F)c(F)c(F)c5F)c5ccc([nH]5)c(-c5c(F)c(F)c(F)c(F)c5F)c5nc(c(-c6c(F)c(F)c(F)c(F)c6F)c6ccc3[nH]6)C=C5)C=C4)cc1)C2=O
REMARK SMILES IDX 27 1 26 2 25 3 24 4 22 5 23 6 21 7 20 8 4 9 5 10 12 11 6 12
REMARK SMILES IDX 96 13 7 14 11 15 13 16 97 17 8 18 10 19 9 20 2 21 1 22 3 23
REMARK SMILES IDX 14 24 15 25 19 26 16 27 18 28 17 29 28 30 29 31 30 32 31 33
REMARK SMILES IDX 32 34 33 35 34 36 95 37 35 38 94 39 36 40 37 41 38 42 88 43
REMARK SMILES IDX 39 44 93 45 87 46 89 47 40 48 92 49 86 50 85 51 41 53 73 54
REMARK SMILES IDX 53 55 72 56 54 57 57 58 71 59 90 60 55 61 56 62 70 64 91 65
REMARK SMILES IDX 58 66 42 67 43 68 51 69 44 70 45 71 49 72 52 73 46 74 47 75
REMARK SMILES IDX 50 76 48 77 74 78 75 79 83 80 76 81 77 82 81 83 84 84 78 85
REMARK SMILES IDX 79 86 82 87 80 88 59 89 60 90 68 91 61 92 62 93 66 94 69 95
REMARK SMILES IDX 63 96 64 97 67 98 65 99
REMARK H PARENT 89 52 57 63
REMARK Flexibility Score: inf
ROOT
ATOM      1  O   UNL     1      -7.293  -2.843   5.089  1.00  0.00    -0.374 OA
ENDROOT
BRANCH   1   2
ATOM      2  C   UNL     1      -6.168  -2.910   5.950  1.00  0.00     0.202 C 
BRANCH   2   3
ATOM      3  C   UNL     1      -4.936  -3.705   5.497  1.00  0.00     0.261 C 
BRANCH   3   4
ATOM      4  O   UNL     1      -4.380  -3.285   4.227  1.00  0.00    -0.462 OA
BRANCH   4   5
ATOM      5  C   UNL     1      -4.242  -4.285   3.314  1.00  0.00     0.325 C 
ATOM      6  O   UNL     1      -4.583  -5.449   3.522  1.00  0.00    -0.250 OA
BRANCH   5   7
ATOM      7  C   UNL     1      -3.641  -3.892   1.958  1.00  0.00     0.243 C 
BRANCH   7   8
ATOM      8  N   UNL     1      -3.283  -2.529   1.592  1.00  0.00    -0.315 N 
ATOM      9  N   UNL     1      -1.299   0.465   1.404  1.00  0.00    -0.334 N 
ATOM     10  C   UNL     1      -2.095  -0.645   1.446  1.00  0.00     0.114 A 
ATOM     11  C   UNL     1      -2.148   1.577   1.364  1.00  0.00     0.049 A 
ATOM     12  C   UNL     1      -3.396  -0.301   1.212  1.00  0.00     0.018 A 
ATOM     13  C   UNL     1      -1.978  -2.041   1.702  1.00  0.00     0.272 C 
ATOM     14  C   UNL     1      -3.477   1.097   1.259  1.00  0.00     0.006 A 
ATOM     15  C   UNL     1      -1.915   2.963   1.440  1.00  0.00     0.027 A 
ATOM     16  C   UNL     1      -4.268  -1.502   1.164  1.00  0.00     0.150 C 
ATOM     17  O   UNL     1      -0.973  -2.666   2.023  1.00  0.00    -0.267 OA
ATOM     18  C   UNL     1      -4.555   2.003   1.251  1.00  0.00     0.011 A 
ATOM     19  C   UNL     1      -3.007   3.840   1.464  1.00  0.00     0.002 A 
ATOM     20  C   UNL     1      -4.309   3.369   1.376  1.00  0.00     0.001 A 
BRANCH   9  21
ATOM     21  C   UNL     1       0.165   0.385   1.417  1.00  0.00     0.082 C 
ATOM     22  C   UNL     1       0.699  -0.070   0.052  1.00  0.00     0.031 C 
ATOM     23  C   UNL     1       0.930   1.633   1.862  1.00  0.00     0.031 C 
ENDBRANCH   9  21
BRANCH  16  24
ATOM     24  C   UNL     1      -4.845  -1.679  -0.243  1.00  0.00    -0.021 A 
ATOM     25  C   UNL     1      -5.835  -2.665  -0.439  1.00  0.00     0.006 A 
ATOM     26  C   UNL     1      -4.523  -0.885  -1.364  1.00  0.00     0.006 A 
ATOM     27  C   UNL     1      -6.460  -2.855  -1.679  1.00  0.00     0.000 A 
ATOM     28  C   UNL     1      -5.169  -1.054  -2.599  1.00  0.00     0.000 A 
ATOM     29  C   UNL     1      -6.135  -2.041  -2.757  1.00  0.00     0.000 A 
ENDBRANCH  16  24
ENDBRANCH   7   8
ENDBRANCH   5   7
ENDBRANCH   4   5
ENDBRANCH   3   4
ENDBRANCH   2   3
ENDBRANCH   1   2
BRANCH   1  30
ATOM     30  C   UNL     1      -7.116  -2.163   3.850  1.00  0.00     0.202 C 
BRANCH  30  31
ATOM     31  C   UNL     1      -6.672  -0.684   3.896  1.00  0.00     0.261 C 
BRANCH  31  32
ATOM     32  O   UNL     1      -5.365  -0.524   4.477  1.00  0.00    -0.460 OA
BRANCH  32  33
ATOM     33  C   UNL     1      -5.211   0.612   5.216  1.00  0.00     0.338 C 
ATOM     34  O   UNL     1      -5.794   1.670   5.060  1.00  0.00    -0.246 OA
BRANCH  33  35
ATOM     35  C   UNL     1      -4.616   0.169   6.498  1.00  0.00     0.060 A 
ATOM     36  C   UNL     1      -3.430  -0.568   6.542  1.00  0.00     0.016 A 
ATOM     37  C   UNL     1      -5.491   0.192   7.598  1.00  0.00     0.016 A 
ATOM     38  C   UNL     1      -3.183  -1.379   7.652  1.00  0.00     0.010 A 
ATOM     39  C   UNL     1      -5.270  -0.664   8.671  1.00  0.00     0.010 A 
ATOM     40  C   UNL     1      -4.142  -1.490   8.677  1.00  0.00    -0.014 A 
BRANCH  40  41
ATOM     41  C   UNL     1      -3.830  -2.292   9.869  1.00  0.00     0.031 A 
ATOM     42  C   UNL     1      -2.798  -1.630  10.719  1.00  0.00     0.074 A 
ATOM     43  C   UNL     1      -4.487  -3.401  10.286  1.00  0.00     0.049 A 
ATOM     44  N   UNL     1      -1.644  -2.090  11.075  1.00  0.00    -0.248 NA
ATOM     45  C   UNL     1      -3.023  -0.221  11.095  1.00  0.00     0.031 C 
ATOM     46  C   UNL     1      -5.676  -4.024   9.709  1.00  0.00     0.029 A 
ATOM     47  N   UNL     1      -4.274  -4.180  11.394  1.00  0.00    -0.354 N 
ATOM     48  C   UNL     1      -1.066  -1.093  11.856  1.00  0.00     0.074 A 
ATOM     49  C   UNL     1      -1.875   0.084  11.697  1.00  0.00     0.031 C 
ATOM     50  C   UNL     1      -6.208  -4.915  10.578  1.00  0.00     0.029 A 
ATOM     51  C   UNL     1      -5.338  -5.022  11.731  1.00  0.00     0.049 A 
ATOM     52  H   UNL     1      -3.437  -4.149  11.912  1.00  0.00     0.167 HD
ATOM     53  C   UNL     1      -0.094  -1.374  12.764  1.00  0.00     0.037 A 
ATOM     54  C   UNL     1      -5.513  -5.711  12.893  1.00  0.00     0.037 A 
ATOM     55  C   UNL     1       0.542  -2.630  12.482  1.00  0.00     0.049 A 
ATOM     56  C   UNL     1      -4.194  -5.791  13.561  1.00  0.00     0.074 A 
ATOM     57  C   UNL     1       1.284  -3.123  11.426  1.00  0.00     0.029 A 
ATOM     58  N   UNL     1       0.151  -3.726  13.206  1.00  0.00    -0.354 N 
ATOM     59  N   UNL     1      -3.198  -6.502  13.117  1.00  0.00    -0.248 NA
ATOM     60  C   UNL     1      -3.848  -4.709  14.468  1.00  0.00     0.031 C 
ATOM     61  C   UNL     1       0.884  -4.484  11.297  1.00  0.00     0.029 A 
ATOM     62  C   UNL     1      -0.018  -4.761  12.323  1.00  0.00     0.049 A 
ATOM     63  H   UNL     1       0.016  -3.764  14.180  1.00  0.00     0.167 HD
ATOM     64  C   UNL     1      -2.091  -5.693  13.311  1.00  0.00     0.074 A 
ATOM     65  C   UNL     1      -2.544  -4.625  14.200  1.00  0.00     0.031 C 
ATOM     66  C   UNL     1      -0.999  -5.801  12.503  1.00  0.00     0.037 A 
BRANCH  53  67
ATOM     67  C   UNL     1       0.015  -0.687  14.101  1.00  0.00     0.064 A 
ATOM     68  C   UNL     1       1.149  -0.912  14.904  1.00  0.00     0.173 A 
ATOM     69  C   UNL     1      -1.073  -0.056  14.744  1.00  0.00     0.173 A 
ATOM     70  F   UNL     1       2.225  -1.540  14.405  1.00  0.00    -0.203 F 
ATOM     71  C   UNL     1       1.167  -0.580  16.261  1.00  0.00     0.198 A 
ATOM     72  C   UNL     1      -1.030   0.326  16.082  1.00  0.00     0.198 A 
ATOM     73  F   UNL     1      -2.257   0.111  14.143  1.00  0.00    -0.203 F 
ATOM     74  F   UNL     1       2.220  -0.922  17.015  1.00  0.00    -0.200 F 
ATOM     75  C   UNL     1       0.078   0.038  16.849  1.00  0.00     0.200 A 
ATOM     76  F   UNL     1      -2.107   0.899  16.638  1.00  0.00    -0.200 F 
ATOM     77  F   UNL     1       0.073   0.308  18.161  1.00  0.00    -0.200 F 
ENDBRANCH  53  67
BRANCH  54  78
ATOM     78  C   UNL     1      -6.765  -5.980  13.658  1.00  0.00     0.064 A 
ATOM     79  C   UNL     1      -6.771  -6.882  14.742  1.00  0.00     0.173 A 
ATOM     80  C   UNL     1      -7.877  -5.122  13.564  1.00  0.00     0.173 A 
ATOM     81  F   UNL     1      -5.736  -7.713  14.934  1.00  0.00    -0.203 F 
ATOM     82  C   UNL     1      -7.796  -6.886  15.696  1.00  0.00     0.198 A 
ATOM     83  C   UNL     1      -8.902  -5.131  14.514  1.00  0.00     0.198 A 
ATOM     84  F   UNL     1      -7.941  -4.185  12.608  1.00  0.00    -0.203 F 
ATOM     85  F   UNL     1      -7.724  -7.705  16.756  1.00  0.00    -0.200 F 
ATOM     86  C   UNL     1      -8.852  -5.998  15.590  1.00  0.00     0.200 A 
ATOM     87  F   UNL     1      -9.900  -4.240  14.421  1.00  0.00    -0.200 F 
ATOM     88  F   UNL     1      -9.793  -5.944  16.543  1.00  0.00    -0.200 F 
ENDBRANCH  54  78
BRANCH  66  89
ATOM     89  C   UNL     1      -0.915  -6.986  11.583  1.00  0.00     0.064 A 
ATOM     90  C   UNL     1      -1.828  -7.256  10.548  1.00  0.00     0.173 A 
ATOM     91  C   UNL     1       0.222  -7.800  11.671  1.00  0.00     0.173 A 
ATOM     92  F   UNL     1      -2.891  -6.468  10.338  1.00  0.00    -0.203 F 
ATOM     93  C   UNL     1      -1.624  -8.320   9.668  1.00  0.00     0.198 A 
ATOM     94  C   UNL     1       0.442  -8.835  10.768  1.00  0.00     0.198 A 
ATOM     95  F   UNL     1       1.150  -7.558  12.610  1.00  0.00    -0.203 F 
ATOM     96  F   UNL     1      -2.513  -8.568   8.694  1.00  0.00    -0.200 F 
ATOM     97  C   UNL     1      -0.484  -9.101   9.774  1.00  0.00     0.200 A 
ATOM     98  F   UNL     1       1.570  -9.554  10.845  1.00  0.00    -0.200 F 
ATOM     99  F   UNL     1      -0.265 -10.095   8.902  1.00  0.00    -0.200 F 
ENDBRANCH  66  89
ENDBRANCH  40  41
ENDBRANCH  33  35
ENDBRANCH  32  33
ENDBRANCH  31  32
ENDBRANCH  30  31
ENDBRANCH   1  30
TORSDOF 17
