REMARK SMILES CC[C@@H](C(=O)OCCOCCOC(=O)c1ccc(-c2c3nc(c(-c4c(F)c(F)c(F)c(F)c4F)c4ccc([nH]4)c(-c4c(F)c(F)c(F)c(F)c4F)c4nc(c(-c5c(F)c(F)c(F)c(F)c5F)c5ccc2[nH]5)C=C4)C=C3)cc1)N1C(=O)/C(=C/c2ccccc2[N+](=O)[O-])SC1=S
REMARK SMILES IDX 8 1 7 2 6 3 4 4 5 5 3 6 2 7 1 8 78 9 79 10 93 11 80 12 81 13
REMARK SMILES IDX 92 14 94 15 82 16 83 17 84 18 88 19 85 20 87 21 86 22 89 23
REMARK SMILES IDX 90 24 91 25 9 26 10 27 11 28 12 29 13 30 14 31 15 32 16 33
REMARK SMILES IDX 77 34 17 35 76 36 18 37 19 38 20 39 70 40 21 41 75 42 69 43
REMARK SMILES IDX 71 44 22 45 74 46 68 47 67 48 23 50 55 51 35 52 54 53 36 54
REMARK SMILES IDX 39 55 53 56 72 57 37 58 38 59 52 61 73 62 40 63 24 64 25 65
REMARK SMILES IDX 33 66 26 67 27 68 31 69 34 70 28 71 29 72 32 73 30 74 56 75
REMARK SMILES IDX 57 76 65 77 58 78 59 79 63 80 66 81 60 82 61 83 64 84 62 85
REMARK SMILES IDX 41 86 42 87 50 88 43 89 44 90 48 91 51 92 45 93 46 94 49 95
REMARK SMILES IDX 47 96
REMARK H PARENT 71 49 39 60
REMARK Flexibility Score: inf
ROOT
ATOM      1  C   UNL     1      -0.760   4.250   0.612  1.00  0.00     0.202 C 
ENDROOT
BRANCH   1   2
ATOM      2  C   UNL     1       0.703   3.986   0.993  1.00  0.00     0.261 C 
BRANCH   2   3
ATOM      3  O   UNL     1       0.901   2.579   1.177  1.00  0.00    -0.462 OA
BRANCH   3   4
ATOM      4  C   UNL     1       1.871   2.186   2.044  1.00  0.00     0.329 C 
ATOM      5  O   UNL     1       2.774   2.904   2.454  1.00  0.00    -0.250 OA
BRANCH   4   6
ATOM      6  C   UNL     1       1.596   0.761   2.562  1.00  0.00     0.201 C 
BRANCH   6   7
ATOM      7  C   UNL     1       0.842  -0.157   1.550  1.00  0.00     0.034 C 
ATOM      8  C   UNL     1       1.298  -0.065   0.095  1.00  0.00     0.007 C 
ENDBRANCH   6   7
BRANCH   6   9
ATOM      9  N   UNL     1       1.047   0.641   3.962  1.00  0.00    -0.278 N 
ATOM     10  C   UNL     1       1.053  -0.631   4.527  1.00  0.00     0.267 C 
ATOM     11  C   UNL     1       0.517   1.629   4.781  1.00  0.00     0.149 C 
ATOM     12  O   UNL     1       1.575  -1.633   4.057  1.00  0.00    -0.268 OA
ATOM     13  C   UNL     1       0.336  -0.647   5.827  1.00  0.00     0.081 C 
ATOM     14  S   UNL     1       0.033   0.950   6.337  1.00  0.00    -0.054 SA
ATOM     15  S   UNL     1       0.285   3.261   4.564  1.00  0.00    -0.052 S 
ATOM     16  C   UNL     1      -0.027  -1.776   6.451  1.00  0.00     0.036 C 
BRANCH  16  17
ATOM     17  C   UNL     1      -0.719  -1.846   7.751  1.00  0.00     0.054 A 
ATOM     18  C   UNL     1       0.047  -2.351   8.816  1.00  0.00     0.015 A 
ATOM     19  C   UNL     1      -2.034  -1.421   8.030  1.00  0.00     0.276 A 
ATOM     20  C   UNL     1      -0.466  -2.407  10.114  1.00  0.00     0.001 A 
ATOM     21  C   UNL     1      -2.547  -1.469   9.340  1.00  0.00     0.086 A 
ATOM     22  C   UNL     1      -1.758  -1.959  10.379  1.00  0.00     0.007 A 
BRANCH  19  23
ATOM     23  N   UNL     1      -2.927  -0.924   6.979  1.00  0.00     0.063 N 
ATOM     24  O   UNL     1      -3.765  -0.069   7.301  1.00  0.00    -0.258 OA
ATOM     25  O   UNL     1      -2.813  -1.399   5.840  1.00  0.00    -0.258 OA
ENDBRANCH  19  23
ENDBRANCH  16  17
ENDBRANCH   6   9
ENDBRANCH   4   6
ENDBRANCH   3   4
ENDBRANCH   2   3
ENDBRANCH   1   2
BRANCH   1  26
ATOM     26  O   UNL     1      -1.774   3.817   1.520  1.00  0.00    -0.374 OA
BRANCH  26  27
ATOM     27  C   UNL     1      -1.988   2.416   1.687  1.00  0.00     0.202 C 
BRANCH  27  28
ATOM     28  C   UNL     1      -2.708   1.666   0.560  1.00  0.00     0.261 C 
BRANCH  28  29
ATOM     29  O   UNL     1      -1.999   1.713  -0.690  1.00  0.00    -0.460 OA
BRANCH  29  30
ATOM     30  C   UNL     1      -2.598   2.461  -1.645  1.00  0.00     0.338 C 
ATOM     31  O   UNL     1      -3.678   3.036  -1.576  1.00  0.00    -0.246 OA
BRANCH  30  32
ATOM     32  C   UNL     1      -1.685   2.660  -2.782  1.00  0.00     0.060 A 
ATOM     33  C   UNL     1      -1.379   3.979  -3.143  1.00  0.00     0.016 A 
ATOM     34  C   UNL     1      -1.215   1.587  -3.539  1.00  0.00     0.016 A 
ATOM     35  C   UNL     1      -0.635   4.233  -4.291  1.00  0.00     0.010 A 
ATOM     36  C   UNL     1      -0.476   1.844  -4.699  1.00  0.00     0.010 A 
ATOM     37  C   UNL     1      -0.213   3.169  -5.098  1.00  0.00    -0.014 A 
BRANCH  37  38
ATOM     38  C   UNL     1       0.374   3.450  -6.430  1.00  0.00     0.031 A 
ATOM     39  C   UNL     1      -0.490   3.307  -7.652  1.00  0.00     0.074 A 
ATOM     40  C   UNL     1       1.650   3.855  -6.547  1.00  0.00     0.049 A 
ATOM     41  N   UNL     1      -0.175   3.447  -8.915  1.00  0.00    -0.248 NA
ATOM     42  C   UNL     1      -1.899   2.955  -7.419  1.00  0.00     0.031 C 
ATOM     43  C   UNL     1       2.569   4.077  -5.433  1.00  0.00     0.029 A 
ATOM     44  N   UNL     1       2.395   4.145  -7.663  1.00  0.00    -0.354 N 
ATOM     45  C   UNL     1      -1.341   3.192  -9.625  1.00  0.00     0.074 A 
ATOM     46  C   UNL     1      -2.363   2.859  -8.656  1.00  0.00     0.031 C 
ATOM     47  C   UNL     1       3.762   4.456  -5.922  1.00  0.00     0.029 A 
ATOM     48  C   UNL     1       3.700   4.465  -7.383  1.00  0.00     0.049 A 
ATOM     49  H   UNL     1       2.028   4.124  -8.576  1.00  0.00     0.167 HD
ATOM     50  C   UNL     1      -1.541   3.240 -10.963  1.00  0.00     0.037 A 
ATOM     51  C   UNL     1       4.731   4.710  -8.214  1.00  0.00     0.037 A 
ATOM     52  C   UNL     1      -0.521   3.577 -11.922  1.00  0.00     0.049 A 
ATOM     53  C   UNL     1       4.501   4.680  -9.704  1.00  0.00     0.074 A 
ATOM     54  C   UNL     1      -0.629   3.674 -13.298  1.00  0.00     0.029 A 
ATOM     55  N   UNL     1       0.798   3.864 -11.603  1.00  0.00    -0.354 N 
ATOM     56  N   UNL     1       3.392   4.461 -10.368  1.00  0.00    -0.248 NA
ATOM     57  C   UNL     1       5.668   4.935 -10.560  1.00  0.00     0.031 C 
ATOM     58  C   UNL     1       0.638   3.960 -13.817  1.00  0.00     0.029 A 
ATOM     59  C   UNL     1       1.522   4.107 -12.760  1.00  0.00     0.049 A 
ATOM     60  H   UNL     1       1.166   3.891 -10.691  1.00  0.00     0.167 HD
ATOM     61  C   UNL     1       3.719   4.582 -11.713  1.00  0.00     0.074 A 
ATOM     62  C   UNL     1       5.128   4.907 -11.771  1.00  0.00     0.031 C 
ATOM     63  C   UNL     1       2.923   4.440 -12.802  1.00  0.00     0.037 A 
BRANCH  50  64
ATOM     64  C   UNL     1      -2.909   2.890 -11.476  1.00  0.00     0.064 A 
ATOM     65  C   UNL     1      -4.013   3.732 -11.276  1.00  0.00     0.173 A 
ATOM     66  C   UNL     1      -3.107   1.714 -12.215  1.00  0.00     0.173 A 
ATOM     67  F   UNL     1      -3.881   4.863 -10.566  1.00  0.00    -0.203 F 
ATOM     68  C   UNL     1      -5.270   3.396 -11.773  1.00  0.00     0.198 A 
ATOM     69  C   UNL     1      -4.358   1.396 -12.737  1.00  0.00     0.198 A 
ATOM     70  F   UNL     1      -2.084   0.875 -12.440  1.00  0.00    -0.203 F 
ATOM     71  F   UNL     1      -6.321   4.191 -11.529  1.00  0.00    -0.200 F 
ATOM     72  C   UNL     1      -5.440   2.233 -12.510  1.00  0.00     0.200 A 
ATOM     73  F   UNL     1      -4.516   0.280 -13.461  1.00  0.00    -0.200 F 
ATOM     74  F   UNL     1      -6.648   1.916 -12.996  1.00  0.00    -0.200 F 
ENDBRANCH  50  64
BRANCH  51  75
ATOM     75  C   UNL     1       6.083   4.987  -7.660  1.00  0.00     0.064 A 
ATOM     76  C   UNL     1       6.683   6.245  -7.806  1.00  0.00     0.173 A 
ATOM     77  C   UNL     1       6.812   3.990  -6.994  1.00  0.00     0.173 A 
ATOM     78  F   UNL     1       6.038   7.223  -8.458  1.00  0.00    -0.203 F 
ATOM     79  C   UNL     1       7.968   6.489  -7.325  1.00  0.00     0.198 A 
ATOM     80  C   UNL     1       8.084   4.245  -6.486  1.00  0.00     0.198 A 
ATOM     81  F   UNL     1       6.285   2.768  -6.829  1.00  0.00    -0.203 F 
ATOM     82  F   UNL     1       8.539   7.685  -7.525  1.00  0.00    -0.200 F 
ATOM     83  C   UNL     1       8.665   5.492  -6.660  1.00  0.00     0.200 A 
ATOM     84  F   UNL     1       8.748   3.282  -5.833  1.00  0.00    -0.200 F 
ATOM     85  F   UNL     1       9.900   5.728  -6.197  1.00  0.00    -0.200 F 
ENDBRANCH  51  75
BRANCH  63  86
ATOM     86  C   UNL     1       3.543   4.678 -14.150  1.00  0.00     0.064 A 
ATOM     87  C   UNL     1       4.464   3.781 -14.710  1.00  0.00     0.173 A 
ATOM     88  C   UNL     1       3.171   5.797 -14.912  1.00  0.00     0.173 A 
ATOM     89  F   UNL     1       4.863   2.703 -14.018  1.00  0.00    -0.203 F 
ATOM     90  C   UNL     1       5.008   4.008 -15.972  1.00  0.00     0.198 A 
ATOM     91  C   UNL     1       3.692   6.003 -16.186  1.00  0.00     0.198 A 
ATOM     92  F   UNL     1       2.288   6.683 -14.427  1.00  0.00    -0.203 F 
ATOM     93  F   UNL     1       5.923   3.163 -16.466  1.00  0.00    -0.200 F 
ATOM     94  C   UNL     1       4.616   5.113 -16.712  1.00  0.00     0.200 A 
ATOM     95  F   UNL     1       3.299   7.063 -16.906  1.00  0.00    -0.200 F 
ATOM     96  F   UNL     1       5.133   5.324 -17.930  1.00  0.00    -0.200 F 
ENDBRANCH  63  86
ENDBRANCH  37  38
ENDBRANCH  30  32
ENDBRANCH  29  30
ENDBRANCH  28  29
ENDBRANCH  27  28
ENDBRANCH  26  27
ENDBRANCH   1  26
TORSDOF 18
