REMARK SMILES CC(=O)N[C@@H](C)C(=O)N1CCC[C@H]1C(=O)OCCOCCOC(=O)c1ccc(-c2c3nc(c(-c4c(F)c(F)c(F)c(F)c4F)c4ccc([nH]4)c(-c4c(F)c(F)c(F)c(F)c4F)c4nc(c(-c5c(F)c(F)c(F)c(F)c5F)c5ccc2[nH]5)C=C4)C=C3)cc1
REMARK SMILES IDX 18 1 17 2 16 3 14 4 15 5 13 6 9 7 10 8 11 9 12 10 7 11 8 12
REMARK SMILES IDX 5 13 6 14 4 15 1 16 2 17 3 18 19 20 20 21 21 22 22 23 23 24
REMARK SMILES IDX 24 25 25 26 26 27 87 28 27 29 86 30 28 31 29 32 30 33 80 34
REMARK SMILES IDX 31 35 85 36 79 37 81 38 32 39 84 40 78 41 77 42 33 44 65 45
REMARK SMILES IDX 45 46 64 47 46 48 49 49 63 50 82 51 47 52 48 53 62 55 83 56
REMARK SMILES IDX 50 57 34 58 35 59 43 60 36 61 37 62 41 63 44 64 38 65 39 66
REMARK SMILES IDX 42 67 40 68 66 69 67 70 75 71 68 72 69 73 73 74 76 75 70 76
REMARK SMILES IDX 71 77 74 78 72 79 51 80 52 81 60 82 53 83 54 84 58 85 61 86
REMARK SMILES IDX 55 87 56 88 59 89 57 90
REMARK H PARENT 4 19 81 43 49 54
REMARK Flexibility Score: inf
ROOT
ATOM      1  C   UNL     1      -2.334  -8.564   0.546  1.00  0.00     0.202 C 
ENDROOT
BRANCH   1   2
ATOM      2  C   UNL     1      -0.819  -8.678   0.374  1.00  0.00     0.261 C 
BRANCH   2   3
ATOM      3  O   UNL     1      -0.165  -7.967   1.438  1.00  0.00    -0.462 OA
BRANCH   3   4
ATOM      4  C   UNL     1       0.847  -7.136   1.059  1.00  0.00     0.328 C 
ATOM      5  O   UNL     1       1.357  -7.165  -0.052  1.00  0.00    -0.250 OA
BRANCH   4   6
ATOM      6  C   UNL     1       1.241  -6.153   2.192  1.00  0.00     0.195 C 
ATOM      7  N   UNL     1       0.862  -4.719   2.094  1.00  0.00    -0.327 N 
ATOM      8  C   UNL     1       0.281  -4.255   3.344  1.00  0.00     0.120 C 
ATOM      9  C   UNL     1       0.712  -5.280   4.375  1.00  0.00     0.024 C 
ATOM     10  C   UNL     1       0.724  -6.574   3.583  1.00  0.00     0.039 C 
BRANCH   7  11
ATOM     11  C   UNL     1       1.325  -3.953   1.042  1.00  0.00     0.245 C 
ATOM     12  O   UNL     1       1.645  -4.486  -0.024  1.00  0.00    -0.272 OA
BRANCH  11  13
ATOM     13  C   UNL     1       1.735  -2.472   1.241  1.00  0.00     0.168 C 
ATOM     14  C   UNL     1       3.025  -2.462   2.064  1.00  0.00     0.041 C 
BRANCH  13  15
ATOM     15  N   UNL     1       0.772  -1.521   1.790  1.00  0.00    -0.345 N 
ATOM     16  C   UNL     1       0.820   0.041  -0.128  1.00  0.00     0.114 C 
ATOM     17  C   UNL     1       0.353  -0.342   1.249  1.00  0.00     0.217 C 
ATOM     18  O   UNL     1      -0.394   0.378   1.909  1.00  0.00    -0.275 OA
ATOM     19  H   UNL     1       0.377  -1.761   2.659  1.00  0.00     0.164 HD
ENDBRANCH  13  15
ENDBRANCH  11  13
ENDBRANCH   7  11
ENDBRANCH   4   6
ENDBRANCH   3   4
ENDBRANCH   2   3
ENDBRANCH   1   2
BRANCH   1  20
ATOM     20  O   UNL     1      -2.881  -7.261   0.337  1.00  0.00    -0.374 OA
BRANCH  20  21
ATOM     21  C   UNL     1      -2.664  -6.281   1.351  1.00  0.00     0.202 C 
BRANCH  21  22
ATOM     22  C   UNL     1      -3.595  -6.361   2.567  1.00  0.00     0.261 C 
BRANCH  22  23
ATOM     23  O   UNL     1      -3.426  -7.587   3.303  1.00  0.00    -0.460 OA
BRANCH  23  24
ATOM     24  C   UNL     1      -4.463  -8.448   3.202  1.00  0.00     0.338 C 
ATOM     25  O   UNL     1      -5.538  -8.253   2.643  1.00  0.00    -0.246 OA
BRANCH  24  26
ATOM     26  C   UNL     1      -4.099  -9.772   3.735  1.00  0.00     0.060 A 
ATOM     27  C   UNL     1      -4.384 -10.886   2.934  1.00  0.00     0.016 A 
ATOM     28  C   UNL     1      -3.587  -9.939   5.025  1.00  0.00     0.016 A 
ATOM     29  C   UNL     1      -4.228 -12.171   3.444  1.00  0.00     0.010 A 
ATOM     30  C   UNL     1      -3.436 -11.232   5.538  1.00  0.00     0.010 A 
ATOM     31  C   UNL     1      -3.803 -12.351   4.766  1.00  0.00    -0.014 A 
BRANCH  31  32
ATOM     32  C   UNL     1      -3.934 -13.692   5.386  1.00  0.00     0.031 A 
ATOM     33  C   UNL     1      -5.150 -13.987   6.221  1.00  0.00     0.074 A 
ATOM     34  C   UNL     1      -3.019 -14.651   5.162  1.00  0.00     0.049 A 
ATOM     35  N   UNL     1      -5.495 -15.094   6.830  1.00  0.00    -0.248 NA
ATOM     36  C   UNL     1      -6.108 -12.883   6.393  1.00  0.00     0.031 C 
ATOM     37  C   UNL     1      -1.823 -14.501   4.338  1.00  0.00     0.029 A 
ATOM     38  N   UNL     1      -2.965 -15.949   5.606  1.00  0.00    -0.354 N 
ATOM     39  C   UNL     1      -6.701 -14.816   7.461  1.00  0.00     0.074 A 
ATOM     40  C   UNL     1      -7.014 -13.431   7.188  1.00  0.00     0.031 C 
ATOM     41  C   UNL     1      -1.153 -15.666   4.329  1.00  0.00     0.029 A 
ATOM     42  C   UNL     1      -1.861 -16.634   5.164  1.00  0.00     0.049 A 
ATOM     43  H   UNL     1      -3.652 -16.349   6.186  1.00  0.00     0.167 HD
ATOM     44  C   UNL     1      -7.483 -15.645   8.194  1.00  0.00     0.037 A 
ATOM     45  C   UNL     1      -1.470 -17.899   5.412  1.00  0.00     0.037 A 
ATOM     46  C   UNL     1      -7.178 -17.027   8.454  1.00  0.00     0.049 A 
ATOM     47  C   UNL     1      -2.328 -18.784   6.279  1.00  0.00     0.074 A 
ATOM     48  C   UNL     1      -7.924 -17.959   9.154  1.00  0.00     0.029 A 
ATOM     49  N   UNL     1      -6.027 -17.673   8.027  1.00  0.00    -0.354 N 
ATOM     50  N   UNL     1      -3.484 -18.526   6.840  1.00  0.00    -0.248 NA
ATOM     51  C   UNL     1      -1.825 -20.140   6.542  1.00  0.00     0.031 C 
ATOM     52  C   UNL     1      -7.200 -19.157   9.192  1.00  0.00     0.029 A 
ATOM     53  C   UNL     1      -6.028 -18.984   8.474  1.00  0.00     0.049 A 
ATOM     54  H   UNL     1      -5.315 -17.260   7.486  1.00  0.00     0.167 HD
ATOM     55  C   UNL     1      -3.864 -19.693   7.490  1.00  0.00     0.074 A 
ATOM     56  C   UNL     1      -2.815 -20.663   7.251  1.00  0.00     0.031 C 
ATOM     57  C   UNL     1      -4.982 -19.941   8.216  1.00  0.00     0.037 A 
BRANCH  44  58
ATOM     58  C   UNL     1      -8.730 -15.064   8.792  1.00  0.00     0.064 A 
ATOM     59  C   UNL     1      -9.841 -14.726   8.005  1.00  0.00     0.173 A 
ATOM     60  C   UNL     1      -8.817 -14.853  10.177  1.00  0.00     0.173 A 
ATOM     61  F   UNL     1      -9.803 -14.894   6.675  1.00  0.00    -0.203 F 
ATOM     62  C   UNL     1     -10.981 -14.169   8.579  1.00  0.00     0.198 A 
ATOM     63  C   UNL     1      -9.969 -14.322  10.750  1.00  0.00     0.198 A 
ATOM     64  F   UNL     1      -7.783 -15.162  10.974  1.00  0.00    -0.203 F 
ATOM     65  F   UNL     1     -12.011 -13.804   7.802  1.00  0.00    -0.200 F 
ATOM     66  C   UNL     1     -11.046 -13.972   9.950  1.00  0.00     0.200 A 
ATOM     67  F   UNL     1     -10.032 -14.140  12.076  1.00  0.00    -0.200 F 
ATOM     68  F   UNL     1     -12.143 -13.434  10.501  1.00  0.00    -0.200 F 
ENDBRANCH  44  58
BRANCH  45  69
ATOM     69  C   UNL     1      -0.211 -18.416   4.816  1.00  0.00     0.064 A 
ATOM     70  C   UNL     1      -0.238 -19.390   3.808  1.00  0.00     0.173 A 
ATOM     71  C   UNL     1       1.041 -17.956   5.248  1.00  0.00     0.173 A 
ATOM     72  F   UNL     1      -1.412 -19.878   3.382  1.00  0.00    -0.203 F 
ATOM     73  C   UNL     1       0.941 -19.894   3.263  1.00  0.00     0.198 A 
ATOM     74  C   UNL     1       2.219 -18.444   4.685  1.00  0.00     0.198 A 
ATOM     75  F   UNL     1       1.121 -17.028   6.212  1.00  0.00    -0.203 F 
ATOM     76  F   UNL     1       0.887 -20.853   2.329  1.00  0.00    -0.200 F 
ATOM     77  C   UNL     1       2.168 -19.416   3.698  1.00  0.00     0.200 A 
ATOM     78  F   UNL     1       3.402 -17.973   5.101  1.00  0.00    -0.200 F 
ATOM     79  F   UNL     1       3.301 -19.899   3.171  1.00  0.00    -0.200 F 
ENDBRANCH  45  69
BRANCH  57  80
ATOM     80  C   UNL     1      -5.155 -21.328   8.765  1.00  0.00     0.064 A 
ATOM     81  C   UNL     1      -4.389 -21.796   9.842  1.00  0.00     0.173 A 
ATOM     82  C   UNL     1      -6.129 -22.185   8.229  1.00  0.00     0.173 A 
ATOM     83  F   UNL     1      -3.435 -21.020  10.379  1.00  0.00    -0.203 F 
ATOM     84  C   UNL     1      -4.574 -23.080  10.347  1.00  0.00     0.198 A 
ATOM     85  C   UNL     1      -6.331 -23.458   8.755  1.00  0.00     0.198 A 
ATOM     86  F   UNL     1      -6.893 -21.782   7.203  1.00  0.00    -0.203 F 
ATOM     87  F   UNL     1      -3.799 -23.523  11.347  1.00  0.00    -0.200 F 
ATOM     88  C   UNL     1      -5.549 -23.907   9.808  1.00  0.00     0.200 A 
ATOM     89  F   UNL     1      -7.282 -24.250   8.241  1.00  0.00    -0.200 F 
ATOM     90  F   UNL     1      -5.729 -25.141  10.299  1.00  0.00    -0.200 F 
ENDBRANCH  57  80
ENDBRANCH  31  32
ENDBRANCH  24  26
ENDBRANCH  23  24
ENDBRANCH  22  23
ENDBRANCH  21  22
ENDBRANCH  20  21
ENDBRANCH   1  20
TORSDOF 17
