REMARK SMILES O=C(CCOc1cc(-c2ccncc2)nc(-c2ccc(C(F)(F)F)cc2)n1)OCCOCCOC(=O)c1ccc(-c2c3nc(c(-c4c(F)c(F)c(F)c(F)c4F)c4ccc([nH]4)c(-c4c(F)c(F)c(F)c(F)c4F)c4nc(c(-c5c(F)c(F)c(F)c(F)c5F)c5ccc2[nH]5)C=C4)C=C3)cc1
REMARK SMILES IDX 29 1 28 2 2 3 1 4 3 5 4 6 5 7 6 8 7 9 27 10 8 11 16 12 15 13
REMARK SMILES IDX 9 14 10 15 14 16 11 17 13 18 12 19 17 20 18 21 26 22 19 23
REMARK SMILES IDX 25 24 20 25 21 26 22 27 23 28 24 29 30 30 31 31 32 32 33 33
REMARK SMILES IDX 34 34 35 35 36 36 37 37 38 38 99 39 39 40 98 41 40 42 41 43
REMARK SMILES IDX 42 44 92 45 43 46 97 47 91 48 93 49 44 50 96 51 90 52 89 53
REMARK SMILES IDX 45 55 77 56 57 57 76 58 58 59 61 60 75 61 94 62 59 63 60 64
REMARK SMILES IDX 74 66 95 67 62 68 46 69 47 70 55 71 48 72 49 73 53 74 56 75
REMARK SMILES IDX 50 76 51 77 54 78 52 79 78 80 79 81 87 82 80 83 81 84 85 85
REMARK SMILES IDX 88 86 82 87 83 88 86 89 84 90 63 91 64 92 72 93 65 94 66 95
REMARK SMILES IDX 70 96 73 97 67 98 68 99 71 100 69 101
REMARK H PARENT 93 54 61 65
REMARK Flexibility Score: inf
ROOT
ATOM      1  C   UNL     1       4.639   0.066   0.515  1.00  0.00     0.261 C 
ENDROOT
BRANCH   1   2
ATOM      2  O   UNL     1       3.207   0.015   0.508  1.00  0.00    -0.463 OA
BRANCH   2   3
ATOM      3  C   UNL     1       2.478  -0.909  -0.160  1.00  0.00     0.309 C 
ATOM      4  O   UNL     1       1.257  -0.946  -0.013  1.00  0.00    -0.252 OA
BRANCH   3   5
ATOM      5  C   UNL     1       3.146  -1.789  -1.172  1.00  0.00     0.164 C 
BRANCH   5   6
ATOM      6  C   UNL     1       2.879  -1.262  -2.579  1.00  0.00     0.243 C 
BRANCH   6   7
ATOM      7  O   UNL     1       3.764  -0.215  -2.980  1.00  0.00    -0.477 OA
BRANCH   7   8
ATOM      8  C   UNL     1       3.502   1.079  -2.638  1.00  0.00     0.217 A 
ATOM      9  C   UNL     1       2.389   1.525  -1.971  1.00  0.00     0.097 A 
ATOM     10  N   UNL     1       4.511   1.898  -2.953  1.00  0.00    -0.193 NA
ATOM     11  C   UNL     1       2.469   2.791  -1.422  1.00  0.00     0.078 A 
ATOM     12  C   UNL     1       4.428   3.164  -2.514  1.00  0.00     0.163 A 
ATOM     13  N   UNL     1       3.486   3.634  -1.681  1.00  0.00    -0.228 NA
BRANCH  11  14
ATOM     14  C   UNL     1       1.504   3.214  -0.405  1.00  0.00     0.003 A 
ATOM     15  C   UNL     1       1.857   3.159   0.948  1.00  0.00     0.030 A 
ATOM     16  C   UNL     1       0.196   3.582  -0.729  1.00  0.00     0.030 A 
ATOM     17  C   UNL     1       0.901   3.450   1.905  1.00  0.00     0.111 A 
ATOM     18  C   UNL     1      -0.687   3.867   0.302  1.00  0.00     0.111 A 
ATOM     19  N   UNL     1      -0.365   3.807   1.611  1.00  0.00    -0.265 NA
ENDBRANCH  11  14
BRANCH  12  20
ATOM     20  C   UNL     1       5.272   4.147  -3.190  1.00  0.00     0.019 A 
ATOM     21  C   UNL     1       5.154   4.301  -4.583  1.00  0.00     0.012 A 
ATOM     22  C   UNL     1       6.161   4.984  -2.504  1.00  0.00     0.012 A 
ATOM     23  C   UNL     1       5.861   5.290  -5.264  1.00  0.00     0.014 A 
ATOM     24  C   UNL     1       6.884   5.970  -3.187  1.00  0.00     0.014 A 
ATOM     25  C   UNL     1       6.722   6.146  -4.569  1.00  0.00     0.056 A 
BRANCH  25  26
ATOM     26  C   UNL     1       7.433   7.244  -5.316  1.00  0.00     0.416 C 
ATOM     27  F   UNL     1       8.296   6.780  -6.257  1.00  0.00    -0.166 F 
ATOM     28  F   UNL     1       6.559   8.061  -5.970  1.00  0.00    -0.166 F 
ATOM     29  F   UNL     1       8.155   8.063  -4.503  1.00  0.00    -0.166 F 
ENDBRANCH  25  26
ENDBRANCH  12  20
ENDBRANCH   7   8
ENDBRANCH   6   7
ENDBRANCH   5   6
ENDBRANCH   3   5
ENDBRANCH   2   3
ENDBRANCH   1   2
BRANCH   1  30
ATOM     30  C   UNL     1       5.280  -0.723   1.663  1.00  0.00     0.202 C 
BRANCH  30  31
ATOM     31  O   UNL     1       4.527  -1.767   2.259  1.00  0.00    -0.374 OA
BRANCH  31  32
ATOM     32  C   UNL     1       3.324  -1.457   2.966  1.00  0.00     0.202 C 
BRANCH  32  33
ATOM     33  C   UNL     1       3.294  -0.323   3.999  1.00  0.00     0.261 C 
BRANCH  33  34
ATOM     34  O   UNL     1       3.642   0.976   3.483  1.00  0.00    -0.460 OA
BRANCH  34  35
ATOM     35  C   UNL     1       4.712   1.549   4.088  1.00  0.00     0.338 C 
ATOM     36  O   UNL     1       5.445   1.057   4.926  1.00  0.00    -0.246 OA
BRANCH  35  37
ATOM     37  C   UNL     1       4.963   2.888   3.535  1.00  0.00     0.060 A 
ATOM     38  C   UNL     1       6.136   3.103   2.804  1.00  0.00     0.016 A 
ATOM     39  C   UNL     1       4.143   3.956   3.903  1.00  0.00     0.016 A 
ATOM     40  C   UNL     1       6.520   4.405   2.481  1.00  0.00     0.010 A 
ATOM     41  C   UNL     1       4.527   5.258   3.575  1.00  0.00     0.010 A 
ATOM     42  C   UNL     1       5.741   5.492   2.906  1.00  0.00    -0.014 A 
BRANCH  42  43
ATOM     43  C   UNL     1       6.285   6.870   2.815  1.00  0.00     0.031 A 
ATOM     44  C   UNL     1       6.933   7.478   4.028  1.00  0.00     0.074 A 
ATOM     45  C   UNL     1       6.204   7.571   1.671  1.00  0.00     0.049 A 
ATOM     46  N   UNL     1       7.444   8.672   4.189  1.00  0.00    -0.248 NA
ATOM     47  C   UNL     1       6.990   6.633   5.232  1.00  0.00     0.031 C 
ATOM     48  C   UNL     1       5.570   7.098   0.445  1.00  0.00     0.029 A 
ATOM     49  N   UNL     1       6.655   8.828   1.356  1.00  0.00    -0.354 N 
ATOM     50  C   UNL     1       7.843   8.736   5.517  1.00  0.00     0.074 A 
ATOM     51  C   UNL     1       7.516   7.463   6.121  1.00  0.00     0.031 C 
ATOM     52  C   UNL     1       5.701   8.042  -0.503  1.00  0.00     0.029 A 
ATOM     53  C   UNL     1       6.402   9.195   0.056  1.00  0.00     0.049 A 
ATOM     54  H   UNL     1       7.116   9.412   2.001  1.00  0.00     0.167 HD
ATOM     55  C   UNL     1       8.421   9.769   6.176  1.00  0.00     0.037 A 
ATOM     56  C   UNL     1       6.700  10.336  -0.598  1.00  0.00     0.037 A 
ATOM     57  C   UNL     1       8.758  11.030   5.569  1.00  0.00     0.049 A 
ATOM     58  C   UNL     1       7.377  11.456   0.155  1.00  0.00     0.074 A 
ATOM     59  C   UNL     1       9.365  12.132   6.146  1.00  0.00     0.029 A 
ATOM     60  N   UNL     1       8.513  11.356   4.244  1.00  0.00    -0.354 N 
ATOM     61  N   UNL     1       7.788  11.491   1.400  1.00  0.00    -0.248 NA
ATOM     62  C   UNL     1       7.612  12.704  -0.586  1.00  0.00     0.031 C 
ATOM     63  C   UNL     1       9.449  13.140   5.180  1.00  0.00     0.029 A 
ATOM     64  C   UNL     1       8.939  12.650   3.989  1.00  0.00     0.049 A 
ATOM     65  H   UNL     1       8.098  10.757   3.582  1.00  0.00     0.167 HD
ATOM     66  C   UNL     1       8.333  12.755   1.587  1.00  0.00     0.074 A 
ATOM     67  C   UNL     1       8.241  13.443   0.317  1.00  0.00     0.031 C 
ATOM     68  C   UNL     1       8.844  13.310   2.714  1.00  0.00     0.037 A 
BRANCH  55  69
ATOM     69  C   UNL     1       8.688   9.591   7.641  1.00  0.00     0.064 A 
ATOM     70  C   UNL     1       9.702   8.744   8.113  1.00  0.00     0.173 A 
ATOM     71  C   UNL     1       7.929  10.297   8.588  1.00  0.00     0.173 A 
ATOM     72  F   UNL     1      10.445   8.035   7.249  1.00  0.00    -0.203 F 
ATOM     73  C   UNL     1       9.927   8.589   9.478  1.00  0.00     0.198 A 
ATOM     74  C   UNL     1       8.176  10.161   9.951  1.00  0.00     0.198 A 
ATOM     75  F   UNL     1       6.950  11.123   8.190  1.00  0.00    -0.203 F 
ATOM     76  F   UNL     1      10.868   7.736   9.908  1.00  0.00    -0.200 F 
ATOM     77  C   UNL     1       9.168   9.301  10.396  1.00  0.00     0.200 A 
ATOM     78  F   UNL     1       7.449  10.858  10.835  1.00  0.00    -0.200 F 
ATOM     79  F   UNL     1       9.389   9.153  11.709  1.00  0.00    -0.200 F 
ENDBRANCH  55  69
BRANCH  56  80
ATOM     80  C   UNL     1       6.376  10.493  -2.044  1.00  0.00     0.064 A 
ATOM     81  C   UNL     1       7.398  10.660  -2.991  1.00  0.00     0.173 A 
ATOM     82  C   UNL     1       5.054  10.528  -2.509  1.00  0.00     0.173 A 
ATOM     83  F   UNL     1       8.681  10.653  -2.597  1.00  0.00    -0.203 F 
ATOM     84  C   UNL     1       7.110  10.888  -4.335  1.00  0.00     0.198 A 
ATOM     85  C   UNL     1       4.767  10.711  -3.861  1.00  0.00     0.198 A 
ATOM     86  F   UNL     1       4.035  10.384  -1.648  1.00  0.00    -0.203 F 
ATOM     87  F   UNL     1       8.107  11.100  -5.205  1.00  0.00    -0.200 F 
ATOM     88  C   UNL     1       5.795  10.904  -4.771  1.00  0.00     0.200 A 
ATOM     89  F   UNL     1       3.494  10.712  -4.279  1.00  0.00    -0.200 F 
ATOM     90  F   UNL     1       5.517  11.113  -6.065  1.00  0.00    -0.200 F 
ENDBRANCH  56  80
BRANCH  68  91
ATOM     91  C   UNL     1       9.350  14.720   2.616  1.00  0.00     0.064 A 
ATOM     92  C   UNL     1       8.471  15.806   2.487  1.00  0.00     0.173 A 
ATOM     93  C   UNL     1      10.725  14.992   2.689  1.00  0.00     0.173 A 
ATOM     94  F   UNL     1       7.149  15.597   2.399  1.00  0.00    -0.203 F 
ATOM     95  C   UNL     1       8.951  17.110   2.408  1.00  0.00     0.198 A 
ATOM     96  C   UNL     1      11.199  16.300   2.639  1.00  0.00     0.198 A 
ATOM     97  F   UNL     1      11.606  13.990   2.820  1.00  0.00    -0.203 F 
ATOM     98  F   UNL     1       8.096  18.128   2.238  1.00  0.00    -0.200 F 
ATOM     99  C   UNL     1      10.314  17.357   2.491  1.00  0.00     0.200 A 
ATOM    100  F   UNL     1      12.515  16.538   2.732  1.00  0.00    -0.200 F 
ATOM    101  F   UNL     1      10.774  18.613   2.421  1.00  0.00    -0.200 F 
ENDBRANCH  68  91
ENDBRANCH  42  43
ENDBRANCH  35  37
ENDBRANCH  34  35
ENDBRANCH  33  34
ENDBRANCH  32  33
ENDBRANCH  31  32
ENDBRANCH  30  31
ENDBRANCH   1  30
TORSDOF 20
