REMARK SMILES CCCCCCNC(=O)Oc1cccc(-c2ccc([C@H](C)C(=O)OCCOCCOC(=O)c3ccc(-c4c5nc(c(-c6c(F)c(F)c(F)c(F)c6F)c6ccc([nH]6)c(-c6c(F)c(F)c(F)c(F)c6F)c6nc(c(-c7c(F)c(F)c(F)c(F)c7F)c7ccc4[nH]7)C=C6)C=C5)cc3)cc2F)c1
REMARK SMILES IDX 22 1 23 2 20 3 21 4 19 5 16 6 17 7 97 8 18 9 96 10 98 11
REMARK SMILES IDX 15 12 11 13 12 14 99 15 13 16 14 17 10 18 8 19 7 20 9 22
REMARK SMILES IDX 6 23 5 24 4 25 3 26 2 27 1 28 24 29 25 30 26 31 27 32 28 33
REMARK SMILES IDX 29 34 30 35 31 36 32 37 33 38 34 39 95 40 35 41 94 42 36 43
REMARK SMILES IDX 37 44 38 45 88 46 39 47 93 48 87 49 89 50 40 51 92 52 86 53
REMARK SMILES IDX 85 54 41 56 73 57 53 58 72 59 54 60 57 61 71 62 90 63 55 64
REMARK SMILES IDX 56 65 70 67 91 68 58 69 42 70 43 71 51 72 44 73 45 74 49 75
REMARK SMILES IDX 52 76 46 77 47 78 50 79 48 80 74 81 75 82 83 83 76 84 77 85
REMARK SMILES IDX 81 86 84 87 78 88 79 89 82 90 80 91 59 92 60 93 68 94 61 95
REMARK SMILES IDX 62 96 66 97 69 98 63 99 64 100 67 101 65 102
REMARK H PARENT 7 21 89 55 57 66
REMARK Flexibility Score: inf
ROOT
ATOM      1  C   UNL     1      -3.674  -4.433  14.169  1.00  0.00     0.313 C 
ATOM      2  O   UNL     1      -3.250  -3.797  15.126  1.00  0.00    -0.252 OA
ENDROOT
BRANCH   1   3
ATOM      3  C   UNL     1      -4.832  -3.956  13.300  1.00  0.00     0.126 C 
ATOM      4  C   UNL     1      -4.758  -4.394  11.837  1.00  0.00     0.025 C 
BRANCH   3   5
ATOM      5  C   UNL     1      -6.167  -4.321  13.911  1.00  0.00    -0.031 A 
ATOM      6  C   UNL     1      -8.643  -4.910  15.124  1.00  0.00     0.018 A 
ATOM      7  C   UNL     1      -7.570  -5.802  15.227  1.00  0.00     0.012 A 
ATOM      8  C   UNL     1      -8.467  -3.743  14.369  1.00  0.00     0.131 A 
ATOM      9  C   UNL     1      -6.351  -5.520  14.616  1.00  0.00     0.005 A 
ATOM     10  C   UNL     1      -7.249  -3.445  13.771  1.00  0.00     0.044 A 
ATOM     11  F   UNL     1      -9.477  -2.873  14.215  1.00  0.00    -0.206 F 
BRANCH   6  12
ATOM     12  C   UNL     1      -9.913  -5.222  15.774  1.00  0.00    -0.012 A 
ATOM     13  C   UNL     1     -12.272  -5.716  15.625  1.00  0.00     0.133 A 
ATOM     14  C   UNL     1     -12.353  -5.877  17.006  1.00  0.00     0.047 A 
ATOM     15  C   UNL     1     -11.073  -5.370  15.009  1.00  0.00     0.056 A 
ATOM     16  C   UNL     1     -11.205  -5.722  17.779  1.00  0.00     0.004 A 
ATOM     17  C   UNL     1      -9.992  -5.401  17.166  1.00  0.00     0.009 A 
BRANCH  13  18
ATOM     18  O   UNL     1     -13.465  -5.784  14.895  1.00  0.00    -0.410 OA
BRANCH  18  19
ATOM     19  C   UNL     1     -13.461  -6.468  13.691  1.00  0.00     0.412 C 
ATOM     20  N   UNL     1     -14.559  -6.205  12.928  1.00  0.00    -0.321 N 
ATOM     21  H   UNL     1     -14.640  -6.695  12.077  1.00  0.00     0.167 HD
ATOM     22  O   UNL     1     -12.588  -7.242  13.297  1.00  0.00    -0.224 OA
BRANCH  20  23
ATOM     23  C   UNL     1     -15.618  -5.272  13.253  1.00  0.00     0.119 C 
BRANCH  23  24
ATOM     24  C   UNL     1     -15.805  -4.221  12.160  1.00  0.00     0.021 C 
BRANCH  24  25
ATOM     25  C   UNL     1     -16.249  -4.780  10.804  1.00  0.00     0.002 C 
BRANCH  25  26
ATOM     26  C   UNL     1     -17.534  -5.613  10.829  1.00  0.00    -0.000 C 
BRANCH  26  27
ATOM     27  C   UNL     1     -18.765  -4.898  11.389  1.00  0.00    -0.003 C 
ATOM     28  C   UNL     1     -19.180  -3.687  10.568  1.00  0.00     0.004 C 
ENDBRANCH  26  27
ENDBRANCH  25  26
ENDBRANCH  24  25
ENDBRANCH  23  24
ENDBRANCH  20  23
ENDBRANCH  18  19
ENDBRANCH  13  18
ENDBRANCH   6  12
ENDBRANCH   3   5
ENDBRANCH   1   3
BRANCH   1  29
ATOM     29  O   UNL     1      -3.225  -5.665  13.790  1.00  0.00    -0.463 OA
BRANCH  29  30
ATOM     30  C   UNL     1      -2.178  -6.216  14.600  1.00  0.00     0.261 C 
BRANCH  30  31
ATOM     31  C   UNL     1      -0.834  -6.255  13.873  1.00  0.00     0.202 C 
BRANCH  31  32
ATOM     32  O   UNL     1      -0.288  -5.023  13.415  1.00  0.00    -0.374 OA
BRANCH  32  33
ATOM     33  C   UNL     1      -0.913  -4.360  12.320  1.00  0.00     0.202 C 
BRANCH  33  34
ATOM     34  C   UNL     1      -0.834  -5.015  10.934  1.00  0.00     0.261 C 
BRANCH  34  35
ATOM     35  O   UNL     1      -1.487  -6.296  10.866  1.00  0.00    -0.460 OA
BRANCH  35  36
ATOM     36  C   UNL     1      -0.644  -7.337  10.656  1.00  0.00     0.338 C 
ATOM     37  O   UNL     1       0.565  -7.293  10.502  1.00  0.00    -0.246 OA
BRANCH  36  38
ATOM     38  C   UNL     1      -1.353  -8.621  10.794  1.00  0.00     0.060 A 
ATOM     39  C   UNL     1      -0.883  -9.520  11.760  1.00  0.00     0.016 A 
ATOM     40  C   UNL     1      -2.346  -9.001   9.890  1.00  0.00     0.016 A 
ATOM     41  C   UNL     1      -1.360 -10.827  11.788  1.00  0.00     0.010 A 
ATOM     42  C   UNL     1      -2.820 -10.318   9.915  1.00  0.00     0.010 A 
ATOM     43  C   UNL     1      -2.295 -11.247  10.833  1.00  0.00    -0.014 A 
BRANCH  43  44
ATOM     44  C   UNL     1      -2.586 -12.694  10.687  1.00  0.00     0.031 A 
ATOM     45  C   UNL     1      -1.917 -13.463   9.580  1.00  0.00     0.074 A 
ATOM     46  C   UNL     1      -3.405 -13.323  11.547  1.00  0.00     0.049 A 
ATOM     47  N   UNL     1      -2.062 -14.716   9.229  1.00  0.00    -0.248 NA
ATOM     48  C   UNL     1      -0.951 -12.717   8.757  1.00  0.00     0.031 C 
ATOM     49  C   UNL     1      -4.068 -12.698  12.689  1.00  0.00     0.029 A 
ATOM     50  N   UNL     1      -3.822 -14.629  11.586  1.00  0.00    -0.354 N 
ATOM     51  C   UNL     1      -1.220 -14.903   8.140  1.00  0.00     0.074 A 
ATOM     52  C   UNL     1      -0.587 -13.631   7.870  1.00  0.00     0.031 C 
ATOM     53  C   UNL     1      -4.823 -13.620  13.311  1.00  0.00     0.029 A 
ATOM     54  C   UNL     1      -4.724 -14.886  12.588  1.00  0.00     0.049 A 
ATOM     55  H   UNL     1      -3.506 -15.316  10.956  1.00  0.00     0.167 HD
ATOM     56  C   UNL     1      -0.991 -16.037   7.436  1.00  0.00     0.037 A 
ATOM     57  C   UNL     1      -5.412 -16.010  12.870  1.00  0.00     0.037 A 
ATOM     58  C   UNL     1      -1.620 -17.302   7.713  1.00  0.00     0.049 A 
ATOM     59  C   UNL     1      -5.197 -17.239  12.023  1.00  0.00     0.074 A 
ATOM     60  C   UNL     1      -1.445 -18.513   7.067  1.00  0.00     0.029 A 
ATOM     61  N   UNL     1      -2.551 -17.516   8.719  1.00  0.00    -0.354 N 
ATOM     62  N   UNL     1      -4.390 -17.414  11.005  1.00  0.00    -0.248 NA
ATOM     63  C   UNL     1      -5.989 -18.428  12.368  1.00  0.00     0.031 C 
ATOM     64  C   UNL     1      -2.311 -19.446   7.645  1.00  0.00     0.029 A 
ATOM     65  C   UNL     1      -2.979 -18.834   8.693  1.00  0.00     0.049 A 
ATOM     66  H   UNL     1      -2.862 -16.833   9.356  1.00  0.00     0.167 HD
ATOM     67  C   UNL     1      -4.549 -18.737  10.611  1.00  0.00     0.074 A 
ATOM     68  C   UNL     1      -5.524 -19.322  11.507  1.00  0.00     0.031 C 
ATOM     69  C   UNL     1      -3.939 -19.407   9.602  1.00  0.00     0.037 A 
BRANCH  56  70
ATOM     70  C   UNL     1      -0.043 -15.954   6.274  1.00  0.00     0.064 A 
ATOM     71  C   UNL     1       1.337 -15.784   6.454  1.00  0.00     0.173 A 
ATOM     72  C   UNL     1      -0.521 -16.084   4.960  1.00  0.00     0.173 A 
ATOM     73  F   UNL     1       1.845 -15.642   7.688  1.00  0.00    -0.203 F 
ATOM     74  C   UNL     1       2.200 -15.720   5.362  1.00  0.00     0.198 A 
ATOM     75  C   UNL     1       0.348 -16.050   3.873  1.00  0.00     0.198 A 
ATOM     76  F   UNL     1      -1.832 -16.253   4.731  1.00  0.00    -0.203 F 
ATOM     77  F   UNL     1       3.510 -15.508   5.557  1.00  0.00    -0.200 F 
ATOM     78  C   UNL     1       1.706 -15.861   4.074  1.00  0.00     0.200 A 
ATOM     79  F   UNL     1      -0.130 -16.201   2.630  1.00  0.00    -0.200 F 
ATOM     80  F   UNL     1       2.539 -15.807   3.026  1.00  0.00    -0.200 F 
ENDBRANCH  56  70
BRANCH  57  81
ATOM     81  C   UNL     1      -6.381 -16.024  13.996  1.00  0.00     0.064 A 
ATOM     82  C   UNL     1      -6.151 -16.799  15.142  1.00  0.00     0.173 A 
ATOM     83  C   UNL     1      -7.568 -15.278  13.942  1.00  0.00     0.173 A 
ATOM     84  F   UNL     1      -5.043 -17.549  15.230  1.00  0.00    -0.203 F 
ATOM     85  C   UNL     1      -7.079 -16.841  16.181  1.00  0.00     0.198 A 
ATOM     86  C   UNL     1      -8.481 -15.298  14.995  1.00  0.00     0.198 A 
ATOM     87  F   UNL     1      -7.838 -14.523  12.867  1.00  0.00    -0.203 F 
ATOM     88  F   UNL     1      -6.856 -17.629  17.242  1.00  0.00    -0.200 F 
ATOM     89  C   UNL     1      -8.240 -16.086  16.109  1.00  0.00     0.200 A 
ATOM     90  F   UNL     1      -9.595 -14.557  14.926  1.00  0.00    -0.200 F 
ATOM     91  F   UNL     1      -9.130 -16.126  17.110  1.00  0.00    -0.200 F 
ENDBRANCH  57  81
BRANCH  69  92
ATOM     92  C   UNL     1      -4.265 -20.865   9.442  1.00  0.00     0.064 A 
ATOM     93  C   UNL     1      -5.509 -21.298   8.962  1.00  0.00     0.173 A 
ATOM     94  C   UNL     1      -3.295 -21.840   9.727  1.00  0.00     0.173 A 
ATOM     95  F   UNL     1      -6.474 -20.408   8.687  1.00  0.00    -0.203 F 
ATOM     96  C   UNL     1      -5.779 -22.655   8.797  1.00  0.00     0.198 A 
ATOM     97  C   UNL     1      -3.558 -23.192   9.530  1.00  0.00     0.198 A 
ATOM     98  F   UNL     1      -2.086 -21.479  10.181  1.00  0.00    -0.203 F 
ATOM     99  F   UNL     1      -6.991 -23.049   8.382  1.00  0.00    -0.200 F 
ATOM    100  C   UNL     1      -4.802 -23.599   9.073  1.00  0.00     0.200 A 
ATOM    101  F   UNL     1      -2.606 -24.102   9.781  1.00  0.00    -0.200 F 
ATOM    102  F   UNL     1      -5.061 -24.903   8.903  1.00  0.00    -0.200 F 
ENDBRANCH  69  92
ENDBRANCH  43  44
ENDBRANCH  36  38
ENDBRANCH  35  36
ENDBRANCH  34  35
ENDBRANCH  33  34
ENDBRANCH  32  33
ENDBRANCH  31  32
ENDBRANCH  30  31
ENDBRANCH  29  30
ENDBRANCH   1  29
TORSDOF 23
