REMARK SMILES C[NH2+][C@]1(C(=O)OCCOCCOC(=O)c2ccc(-c3c4nc(c(-c5c(F)c(F)c(F)c(F)c5F)c5ccc([nH]5)c(-c5c(F)c(F)c(F)c(F)c5F)c5nc(c(-c6c(F)c(F)c(F)c(F)c6F)c6ccc3[nH]6)C=C5)C=C4)cc2)CCC[C@@H]1CCn1nc(C)c(Cl)c1C
REMARK SMILES IDX 8 1 7 2 6 3 4 4 5 5 3 6 78 7 81 8 79 9 80 10 2 11 1 12 82 15
REMARK SMILES IDX 83 16 84 17 85 18 90 19 86 20 88 21 91 22 87 23 89 24 9 25
REMARK SMILES IDX 10 26 11 27 12 28 13 29 14 30 15 31 16 32 77 33 17 34 76 35
REMARK SMILES IDX 18 36 19 37 20 38 70 39 21 40 75 41 69 42 71 43 22 44 74 45
REMARK SMILES IDX 68 46 67 47 23 49 55 50 35 51 54 52 36 53 39 54 53 55 72 56
REMARK SMILES IDX 37 57 38 58 52 60 73 61 40 62 24 63 25 64 33 65 26 66 27 67
REMARK SMILES IDX 31 68 34 69 28 70 29 71 32 72 30 73 56 74 57 75 65 76 58 77
REMARK SMILES IDX 59 78 63 79 66 80 60 81 61 82 64 83 62 84 41 85 42 86 50 87
REMARK SMILES IDX 43 88 44 89 48 90 51 91 45 92 46 93 49 94 47 95
REMARK H PARENT 2 13 2 14 71 48 39 59
REMARK Flexibility Score: inf
ROOT
ATOM      1  C   UNL     1       3.356   0.860  -1.648  1.00  0.00     0.202 C 
ENDROOT
BRANCH   1   2
ATOM      2  C   UNL     1       2.580  -0.442  -1.871  1.00  0.00     0.261 C 
BRANCH   2   3
ATOM      3  O   UNL     1       1.164  -0.232  -1.946  1.00  0.00    -0.459 OA
BRANCH   3   4
ATOM      4  C   UNL     1       0.461  -0.678  -0.867  1.00  0.00     0.368 C 
ATOM      5  O   UNL     1       0.949  -1.313   0.063  1.00  0.00    -0.245 OA
BRANCH   4   6
ATOM      6  C   UNL     1      -1.051  -0.342  -0.969  1.00  0.00     0.197 C 
ATOM      7  C   UNL     1      -1.435   0.929  -1.760  1.00  0.00     0.081 C 
ATOM      8  C   UNL     1      -1.700  -1.411  -1.889  1.00  0.00     0.064 C 
ATOM      9  C   UNL     1      -2.866   0.687  -2.254  1.00  0.00     0.008 C 
ATOM     10  C   UNL     1      -3.081  -0.828  -2.212  1.00  0.00     0.011 C 
BRANCH   6  11
ATOM     11  N   UNL     1      -1.704  -0.317   0.375  1.00  0.00    -0.334 N 
ATOM     12  C   UNL     1      -1.042   0.561   1.341  1.00  0.00     0.331 C 
ATOM     13  H   UNL     1      -2.666   0.002   0.258  1.00  0.00     0.347 HD
ATOM     14  H   UNL     1      -1.647  -1.264   0.749  1.00  0.00     0.347 HD
ENDBRANCH   6  11
BRANCH   8  15
ATOM     15  C   UNL     1      -1.725  -2.841  -1.326  1.00  0.00     0.034 C 
BRANCH  15  16
ATOM     16  C   UNL     1      -1.831  -3.938  -2.390  1.00  0.00     0.145 C 
BRANCH  16  17
ATOM     17  N   UNL     1      -0.743  -3.933  -3.358  1.00  0.00    -0.268 N 
ATOM     18  N   UNL     1       0.436  -4.484  -2.999  1.00  0.00    -0.176 NA
ATOM     19  C   UNL     1      -0.734  -3.421  -4.634  1.00  0.00     0.054 A 
ATOM     20  C   UNL     1       1.216  -4.340  -4.079  1.00  0.00     0.078 A 
ATOM     21  C   UNL     1       0.536  -3.665  -5.115  1.00  0.00     0.084 A 
ATOM     22  C   UNL     1      -1.874  -2.731  -5.287  1.00  0.00     0.068 C 
ATOM     23  C   UNL     1       2.602  -4.870  -4.064  1.00  0.00     0.070 C 
ATOM     24  Cl  UNL     1       1.163  -3.244  -6.636  1.00  0.00    -0.080 Cl
ENDBRANCH  16  17
ENDBRANCH  15  16
ENDBRANCH   8  15
ENDBRANCH   4   6
ENDBRANCH   3   4
ENDBRANCH   2   3
ENDBRANCH   1   2
BRANCH   1  25
ATOM     25  O   UNL     1       2.980   1.679  -0.544  1.00  0.00    -0.374 OA
BRANCH  25  26
ATOM     26  C   UNL     1       1.778   2.440  -0.650  1.00  0.00     0.202 C 
BRANCH  26  27
ATOM     27  C   UNL     1       1.773   3.643  -1.601  1.00  0.00     0.261 C 
BRANCH  27  28
ATOM     28  O   UNL     1       1.946   3.255  -2.975  1.00  0.00    -0.460 OA
BRANCH  28  29
ATOM     29  C   UNL     1       3.080   3.724  -3.550  1.00  0.00     0.338 C 
ATOM     30  O   UNL     1       3.893   4.494  -3.070  1.00  0.00    -0.246 OA
BRANCH  29  31
ATOM     31  C   UNL     1       3.325   3.026  -4.824  1.00  0.00     0.060 A 
ATOM     32  C   UNL     1       4.553   2.368  -4.968  1.00  0.00     0.016 A 
ATOM     33  C   UNL     1       2.422   3.094  -5.886  1.00  0.00     0.016 A 
ATOM     34  C   UNL     1       4.911   1.824  -6.197  1.00  0.00     0.010 A 
ATOM     35  C   UNL     1       2.788   2.558  -7.125  1.00  0.00     0.010 A 
ATOM     36  C   UNL     1       4.050   1.959  -7.294  1.00  0.00    -0.014 A 
BRANCH  36  37
ATOM     37  C   UNL     1       4.554   1.630  -8.647  1.00  0.00     0.031 A 
ATOM     38  C   UNL     1       5.099   2.739  -9.504  1.00  0.00     0.074 A 
ATOM     39  C   UNL     1       4.569   0.360  -9.084  1.00  0.00     0.049 A 
ATOM     40  N   UNL     1       5.584   2.690 -10.719  1.00  0.00    -0.248 NA
ATOM     41  C   UNL     1       5.098   4.085  -8.910  1.00  0.00     0.031 C 
ATOM     42  C   UNL     1       4.106  -0.798  -8.324  1.00  0.00     0.029 A 
ATOM     43  N   UNL     1       4.991  -0.164 -10.279  1.00  0.00    -0.354 N 
ATOM     44  C   UNL     1       5.941   3.995 -11.033  1.00  0.00     0.074 A 
ATOM     45  C   UNL     1       5.593   4.818  -9.896  1.00  0.00     0.031 C 
ATOM     46  C   UNL     1       4.259  -1.901  -9.077  1.00  0.00     0.029 A 
ATOM     47  C   UNL     1       4.806  -1.520 -10.378  1.00  0.00     0.049 A 
ATOM     48  H   UNL     1       5.388   0.380 -10.997  1.00  0.00     0.167 HD
ATOM     49  C   UNL     1       6.517   4.461 -12.166  1.00  0.00     0.037 A 
ATOM     50  C   UNL     1       5.036  -2.352 -11.413  1.00  0.00     0.037 A 
ATOM     51  C   UNL     1       6.862   3.638 -13.295  1.00  0.00     0.049 A 
ATOM     52  C   UNL     1       5.617  -1.797 -12.688  1.00  0.00     0.074 A 
ATOM     53  C   UNL     1       7.460   4.010 -14.486  1.00  0.00     0.029 A 
ATOM     54  N   UNL     1       6.630   2.272 -13.371  1.00  0.00    -0.354 N 
ATOM     55  N   UNL     1       5.973  -0.567 -12.970  1.00  0.00    -0.248 NA
ATOM     56  C   UNL     1       5.831  -2.749 -13.787  1.00  0.00     0.031 C 
ATOM     57  C   UNL     1       7.548   2.877 -15.302  1.00  0.00     0.029 A 
ATOM     58  C   UNL     1       7.051   1.790 -14.600  1.00  0.00     0.049 A 
ATOM     59  H   UNL     1       6.227   1.727 -12.658  1.00  0.00     0.167 HD
ATOM     60  C   UNL     1       6.475  -0.601 -14.265  1.00  0.00     0.074 A 
ATOM     61  C   UNL     1       6.389  -1.977 -14.709  1.00  0.00     0.031 C 
ATOM     62  C   UNL     1       6.963   0.415 -15.019  1.00  0.00     0.037 A 
BRANCH  49  63
ATOM     63  C   UNL     1       6.786   5.935 -12.250  1.00  0.00     0.064 A 
ATOM     64  C   UNL     1       7.806   6.542 -11.503  1.00  0.00     0.173 A 
ATOM     65  C   UNL     1       6.029   6.746 -13.110  1.00  0.00     0.173 A 
ATOM     66  F   UNL     1       8.547   5.813 -10.655  1.00  0.00    -0.203 F 
ATOM     67  C   UNL     1       8.043   7.912 -11.595  1.00  0.00     0.198 A 
ATOM     68  C   UNL     1       6.287   8.110 -13.220  1.00  0.00     0.198 A 
ATOM     69  F   UNL     1       5.043   6.214 -13.847  1.00  0.00    -0.203 F 
ATOM     70  F   UNL     1       8.994   8.478 -10.839  1.00  0.00    -0.200 F 
ATOM     71  C   UNL     1       7.289   8.692 -12.458  1.00  0.00     0.200 A 
ATOM     72  F   UNL     1       5.563   8.861 -14.061  1.00  0.00    -0.200 F 
ATOM     73  F   UNL     1       7.521  10.009 -12.550  1.00  0.00    -0.200 F 
ENDBRANCH  49  63
BRANCH  50  74
ATOM     74  C   UNL     1       4.706  -3.795 -11.289  1.00  0.00     0.064 A 
ATOM     75  C   UNL     1       5.714  -4.767 -11.251  1.00  0.00     0.173 A 
ATOM     76  C   UNL     1       3.375  -4.231 -11.217  1.00  0.00     0.173 A 
ATOM     77  F   UNL     1       7.001  -4.401 -11.343  1.00  0.00    -0.203 F 
ATOM     78  C   UNL     1       5.403  -6.123 -11.161  1.00  0.00     0.198 A 
ATOM     79  C   UNL     1       3.066  -5.584 -11.100  1.00  0.00     0.198 A 
ATOM     80  F   UNL     1       2.373  -3.340 -11.255  1.00  0.00    -0.203 F 
ATOM     81  F   UNL     1       6.385  -7.035 -11.172  1.00  0.00    -0.200 F 
ATOM     82  C   UNL     1       4.080  -6.530 -11.080  1.00  0.00     0.200 A 
ATOM     83  F   UNL     1       1.786  -5.972 -11.014  1.00  0.00    -0.200 F 
ATOM     84  F   UNL     1       3.782  -7.833 -10.992  1.00  0.00    -0.200 F 
ENDBRANCH  50  74
BRANCH  62  85
ATOM     85  C   UNL     1       7.471   0.072 -16.389  1.00  0.00     0.064 A 
ATOM     86  C   UNL     1       6.598  -0.249 -17.439  1.00  0.00     0.173 A 
ATOM     87  C   UNL     1       8.847   0.111 -16.666  1.00  0.00     0.173 A 
ATOM     88  F   UNL     1       5.276  -0.312 -17.221  1.00  0.00    -0.203 F 
ATOM     89  C   UNL     1       7.086  -0.541 -18.710  1.00  0.00     0.198 A 
ATOM     90  C   UNL     1       9.328  -0.154 -17.944  1.00  0.00     0.198 A 
ATOM     91  F   UNL     1       9.722   0.421 -15.698  1.00  0.00    -0.203 F 
ATOM     92  F   UNL     1       6.237  -0.887 -19.687  1.00  0.00    -0.200 F 
ATOM     93  C   UNL     1       8.448  -0.486 -18.963  1.00  0.00     0.200 A 
ATOM     94  F   UNL     1      10.644  -0.087 -18.191  1.00  0.00    -0.200 F 
ATOM     95  F   UNL     1       8.915  -0.760 -20.189  1.00  0.00    -0.200 F 
ENDBRANCH  62  85
ENDBRANCH  36  37
ENDBRANCH  29  31
ENDBRANCH  28  29
ENDBRANCH  27  28
ENDBRANCH  26  27
ENDBRANCH  25  26
ENDBRANCH   1  25
TORSDOF 18
