REMARK SMILES Cc1ccc(S(=O)(=O)n2cc(C(=O)C(=O)NCC(=O)OCCOCCOC(=O)c3ccc(-c4c5nc(c(-c6c(F)c(F)c(F)c(F)c6F)c6ccc([nH]6)c(-c6c(F)c(F)c(F)c(F)c6F)c6nc(c(-c7c(F)c(F)c(F)c(F)c7F)c7ccc4[nH]7)C=C6)C=C5)cc3)c3ccccc32)cc1
REMARK SMILES IDX 21 1 20 2 18 3 19 4 17 5 16 6 14 7 15 8 12 10 13 11 11 12
REMARK SMILES IDX 9 13 10 14 97 15 92 16 96 17 93 18 95 19 94 20 6 21 7 22
REMARK SMILES IDX 8 23 5 24 1 25 2 26 3 27 99 28 4 29 98 30 22 31 23 32 24 33
REMARK SMILES IDX 25 34 26 35 27 36 28 37 29 38 30 39 91 40 31 41 90 42 32 43
REMARK SMILES IDX 33 44 34 45 84 46 35 47 89 48 83 49 85 50 36 51 88 52 82 53
REMARK SMILES IDX 81 54 37 56 69 57 49 58 68 59 50 60 53 61 67 62 86 63 51 64
REMARK SMILES IDX 52 65 66 67 87 68 54 69 38 70 39 71 47 72 40 73 41 74 45 75
REMARK SMILES IDX 48 76 42 77 43 78 46 79 44 80 70 81 71 82 79 83 72 84 73 85
REMARK SMILES IDX 77 86 80 87 74 88 75 89 78 90 76 91 55 92 56 93 64 94 57 95
REMARK SMILES IDX 58 96 62 97 65 98 59 99 60 100 63 101 61 102
REMARK H PARENT 16 9 85 55 53 66
REMARK Flexibility Score: inf
ROOT
ATOM      1  C   UNL     1      -9.737   4.861   2.039  1.00  0.00     0.261 C 
ENDROOT
BRANCH   1   2
ATOM      2  O   UNL     1      -8.402   5.379   2.016  1.00  0.00    -0.462 OA
BRANCH   2   3
ATOM      3  C   UNL     1      -8.123   6.547   2.677  1.00  0.00     0.325 C 
ATOM      4  O   UNL     1      -8.826   7.546   2.690  1.00  0.00    -0.250 OA
BRANCH   3   5
ATOM      5  C   UNL     1      -6.762   6.456   3.364  1.00  0.00     0.239 C 
BRANCH   5   6
ATOM      6  N   UNL     1      -6.460   5.065   3.692  1.00  0.00    -0.338 N 
ATOM      7  C   UNL     1      -6.125   4.056   2.813  1.00  0.00     0.292 C 
ATOM      8  O   UNL     1      -6.226   2.895   3.196  1.00  0.00    -0.265 OA
ATOM      9  H   UNL     1      -6.500   4.821   4.645  1.00  0.00     0.164 HD
BRANCH   7  10
ATOM     10  C   UNL     1      -5.681   4.400   1.363  1.00  0.00     0.252 C 
ATOM     11  O   UNL     1      -5.861   5.541   0.945  1.00  0.00    -0.283 OA
BRANCH  10  12
ATOM     12  C   UNL     1      -5.021   3.408   0.515  1.00  0.00     0.054 A 
ATOM     13  N   UNL     1      -4.120   1.519  -0.247  1.00  0.00    -0.240 N 
ATOM     14  C   UNL     1      -4.811   2.073   0.797  1.00  0.00     0.117 A 
ATOM     15  C   UNL     1      -3.861   2.453  -1.227  1.00  0.00     0.065 A 
ATOM     16  C   UNL     1      -4.425   3.652  -0.771  1.00  0.00     0.012 A 
ATOM     17  C   UNL     1      -3.156   2.383  -2.442  1.00  0.00     0.028 A 
ATOM     18  C   UNL     1      -4.291   4.808  -1.572  1.00  0.00     0.011 A 
ATOM     19  C   UNL     1      -3.014   3.553  -3.194  1.00  0.00     0.002 A 
ATOM     20  C   UNL     1      -3.577   4.749  -2.770  1.00  0.00     0.001 A 
BRANCH  13  21
ATOM     21  S   UNL     1      -3.527  -0.074  -0.217  1.00  0.00     0.268 S 
ATOM     22  O   UNL     1      -3.816  -0.610  -1.539  1.00  0.00    -0.201 OA
ATOM     23  O   UNL     1      -4.054  -0.676   0.987  1.00  0.00    -0.201 OA
BRANCH  21  24
ATOM     24  C   UNL     1      -1.765   0.009  -0.040  1.00  0.00     0.088 A 
ATOM     25  C   UNL     1       2.532  -0.043   0.031  1.00  0.00     0.044 C 
ATOM     26  C   UNL     1       1.032  -0.019   0.040  1.00  0.00    -0.051 A 
ATOM     27  C   UNL     1       0.317  -1.220  -0.045  1.00  0.00     0.005 A 
ATOM     28  C   UNL     1       0.332   1.190   0.127  1.00  0.00     0.005 A 
ATOM     29  C   UNL     1      -1.077  -1.208  -0.090  1.00  0.00     0.022 A 
ATOM     30  C   UNL     1      -1.065   1.208   0.101  1.00  0.00     0.022 A 
ENDBRANCH  21  24
ENDBRANCH  13  21
ENDBRANCH  10  12
ENDBRANCH   7  10
ENDBRANCH   5   6
ENDBRANCH   3   5
ENDBRANCH   2   3
ENDBRANCH   1   2
BRANCH   1  31
ATOM     31  C   UNL     1     -10.058   4.280   3.388  1.00  0.00     0.202 C 
BRANCH  31  32
ATOM     32  O   UNL     1     -10.152   5.391   4.271  1.00  0.00    -0.374 OA
BRANCH  32  33
ATOM     33  C   UNL     1     -10.343   5.084   5.639  1.00  0.00     0.202 C 
BRANCH  33  34
ATOM     34  C   UNL     1     -11.555   4.182   5.921  1.00  0.00     0.261 C 
BRANCH  34  35
ATOM     35  O   UNL     1     -12.778   4.877   5.597  1.00  0.00    -0.460 OA
BRANCH  35  36
ATOM     36  C   UNL     1     -13.380   4.521   4.427  1.00  0.00     0.338 C 
ATOM     37  O   UNL     1     -13.685   3.385   4.108  1.00  0.00    -0.246 OA
BRANCH  36  38
ATOM     38  C   UNL     1     -13.344   5.674   3.480  1.00  0.00     0.060 A 
ATOM     39  C   UNL     1     -13.636   5.489   2.115  1.00  0.00     0.016 A 
ATOM     40  C   UNL     1     -12.692   6.828   3.896  1.00  0.00     0.016 A 
ATOM     41  C   UNL     1     -13.131   6.385   1.157  1.00  0.00     0.010 A 
ATOM     42  C   UNL     1     -12.070   7.605   2.948  1.00  0.00     0.010 A 
ATOM     43  C   UNL     1     -12.265   7.390   1.572  1.00  0.00    -0.014 A 
BRANCH  43  44
ATOM     44  C   UNL     1     -11.465   8.286   0.731  1.00  0.00     0.031 A 
ATOM     45  C   UNL     1     -11.700   9.744   0.910  1.00  0.00     0.074 A 
ATOM     46  C   UNL     1     -10.332   7.861   0.109  1.00  0.00     0.049 A 
ATOM     47  N   UNL     1     -11.084  10.660   0.257  1.00  0.00    -0.248 NA
ATOM     48  C   UNL     1     -12.666  10.304   1.854  1.00  0.00     0.031 C 
ATOM     49  C   UNL     1      -9.141   8.660  -0.206  1.00  0.00     0.029 A 
ATOM     50  N   UNL     1      -9.965   6.589  -0.370  1.00  0.00    -0.354 N 
ATOM     51  C   UNL     1     -11.294  11.865   0.886  1.00  0.00     0.074 A 
ATOM     52  C   UNL     1     -12.348  11.601   1.829  1.00  0.00     0.031 C 
ATOM     53  C   UNL     1      -8.364   7.995  -1.078  1.00  0.00     0.029 A 
ATOM     54  C   UNL     1      -9.098   6.808  -1.463  1.00  0.00     0.049 A 
ATOM     55  H   UNL     1     -10.255   5.718  -0.014  1.00  0.00     0.167 HD
ATOM     56  C   UNL     1     -10.451  12.891   0.570  1.00  0.00     0.037 A 
ATOM     57  C   UNL     1      -9.424   6.415  -2.723  1.00  0.00     0.037 A 
ATOM     58  C   UNL     1      -9.558  12.479  -0.523  1.00  0.00     0.049 A 
ATOM     59  C   UNL     1      -9.477   7.619  -3.617  1.00  0.00     0.074 A 
ATOM     60  C   UNL     1      -8.227  12.099  -0.586  1.00  0.00     0.029 A 
ATOM     61  N   UNL     1     -10.130  12.084  -1.731  1.00  0.00    -0.354 N 
ATOM     62  N   UNL     1      -9.710   8.820  -3.162  1.00  0.00    -0.248 NA
ATOM     63  C   UNL     1      -9.168   7.604  -5.039  1.00  0.00     0.031 C 
ATOM     64  C   UNL     1      -8.011  11.469  -1.846  1.00  0.00     0.029 A 
ATOM     65  C   UNL     1      -9.204  11.480  -2.554  1.00  0.00     0.049 A 
ATOM     66  H   UNL     1     -11.076  12.218  -1.966  1.00  0.00     0.167 HD
ATOM     67  C   UNL     1      -9.497   9.732  -4.153  1.00  0.00     0.074 A 
ATOM     68  C   UNL     1      -9.195   8.921  -5.319  1.00  0.00     0.031 C 
ATOM     69  C   UNL     1      -9.563  11.074  -3.911  1.00  0.00     0.037 A 
BRANCH  56  70
ATOM     70  C   UNL     1     -10.288  14.207   1.311  1.00  0.00     0.064 A 
ATOM     71  C   UNL     1      -9.172  15.037   1.048  1.00  0.00     0.173 A 
ATOM     72  C   UNL     1     -11.155  14.713   2.300  1.00  0.00     0.173 A 
ATOM     73  F   UNL     1      -8.271  14.726   0.107  1.00  0.00    -0.203 F 
ATOM     74  C   UNL     1      -8.928  16.229   1.740  1.00  0.00     0.198 A 
ATOM     75  C   UNL     1     -10.902  15.896   3.006  1.00  0.00     0.198 A 
ATOM     76  F   UNL     1     -12.307  14.122   2.611  1.00  0.00    -0.203 F 
ATOM     77  F   UNL     1      -7.846  16.962   1.442  1.00  0.00    -0.200 F 
ATOM     78  C   UNL     1      -9.788  16.654   2.729  1.00  0.00     0.200 A 
ATOM     79  F   UNL     1     -11.762  16.296   3.955  1.00  0.00    -0.200 F 
ATOM     80  F   UNL     1      -9.555  17.791   3.397  1.00  0.00    -0.200 F 
ENDBRANCH  56  70
BRANCH  57  81
ATOM     81  C   UNL     1     -10.294   5.204  -2.704  1.00  0.00     0.064 A 
ATOM     82  C   UNL     1      -9.702   4.024  -2.197  1.00  0.00     0.173 A 
ATOM     83  C   UNL     1     -11.687   5.319  -2.600  1.00  0.00     0.173 A 
ATOM     84  F   UNL     1      -8.371   3.860  -2.269  1.00  0.00    -0.203 F 
ATOM     85  C   UNL     1     -10.438   3.109  -1.446  1.00  0.00     0.198 A 
ATOM     86  C   UNL     1     -12.423   4.385  -1.863  1.00  0.00     0.198 A 
ATOM     87  F   UNL     1     -12.312   6.410  -3.065  1.00  0.00    -0.203 F 
ATOM     88  F   UNL     1      -9.814   2.103  -0.815  1.00  0.00    -0.200 F 
ATOM     89  C   UNL     1     -11.790   3.317  -1.241  1.00  0.00     0.200 A 
ATOM     90  F   UNL     1     -13.734   4.581  -1.654  1.00  0.00    -0.200 F 
ATOM     91  F   UNL     1     -12.469   2.530  -0.392  1.00  0.00    -0.200 F 
ENDBRANCH  57  81
BRANCH  69  92
ATOM     92  C   UNL     1      -9.902  12.139  -4.932  1.00  0.00     0.064 A 
ATOM     93  C   UNL     1     -10.381  11.870  -6.224  1.00  0.00     0.173 A 
ATOM     94  C   UNL     1      -9.925  13.511  -4.565  1.00  0.00     0.173 A 
ATOM     95  F   UNL     1     -10.546  10.622  -6.675  1.00  0.00    -0.203 F 
ATOM     96  C   UNL     1     -10.781  12.884  -7.097  1.00  0.00     0.198 A 
ATOM     97  C   UNL     1     -10.403  14.510  -5.408  1.00  0.00     0.198 A 
ATOM     98  F   UNL     1      -9.525  13.939  -3.360  1.00  0.00    -0.203 F 
ATOM     99  F   UNL     1     -11.176  12.565  -8.337  1.00  0.00    -0.200 F 
ATOM    100  C   UNL     1     -10.810  14.200  -6.684  1.00  0.00     0.200 A 
ATOM    101  F   UNL     1     -10.490  15.771  -4.959  1.00  0.00    -0.200 F 
ATOM    102  F   UNL     1     -11.250  15.161  -7.506  1.00  0.00    -0.200 F 
ENDBRANCH  69  92
ENDBRANCH  43  44
ENDBRANCH  36  38
ENDBRANCH  35  36
ENDBRANCH  34  35
ENDBRANCH  33  34
ENDBRANCH  32  33
ENDBRANCH  31  32
ENDBRANCH   1  31
TORSDOF 19
