REMARK SMILES COc1ccccc1[C@@H]1CN(C(=O)c2cnn3ccccc23)C[C@H]1C(=O)OCCOCCOC(=O)c1ccc(-c2c3nc(c(-c4c(F)c(F)c(F)c(F)c4F)c4ccc([nH]4)c(-c4c(F)c(F)c(F)c(F)c4F)c4nc(c(-c5c(F)c(F)c(F)c(F)c5F)c5ccc2[nH]5)C=C4)C=C3)cc1
REMARK SMILES IDX 30 1 29 2 28 3 27 4 25 5 26 6 24 7 9 8 10 9 11 10 23 11 8 12
REMARK SMILES IDX 3 13 4 14 5 15 7 16 6 17 2 18 1 19 12 20 13 21 14 22 15 23
REMARK SMILES IDX 22 24 16 25 17 26 21 27 18 28 20 29 19 30 31 31 32 32 33 33
REMARK SMILES IDX 34 34 35 35 36 36 37 37 98 38 38 39 97 40 39 41 40 42 41 43
REMARK SMILES IDX 91 44 42 45 96 46 90 47 92 48 43 49 95 50 89 51 88 52 44 54
REMARK SMILES IDX 76 55 56 56 75 57 57 58 60 59 74 60 93 61 58 62 59 63 73 65
REMARK SMILES IDX 94 66 61 67 45 68 46 69 54 70 47 71 48 72 52 73 55 74 49 75
REMARK SMILES IDX 50 76 53 77 51 78 77 79 78 80 86 81 79 82 80 83 84 84 87 85
REMARK SMILES IDX 81 86 82 87 85 88 83 89 62 90 63 91 71 92 64 93 65 94 69 95
REMARK SMILES IDX 72 96 66 97 67 98 70 99 68 100
REMARK H PARENT 92 53 60 64
REMARK Flexibility Score: inf
ROOT
ATOM      1  O   UNL     1       2.344   5.066   1.480  1.00  0.00    -0.374 OA
ENDROOT
BRANCH   1   2
ATOM      2  C   UNL     1       3.755   4.989   1.639  1.00  0.00     0.202 C 
BRANCH   2   3
ATOM      3  C   UNL     1       4.406   3.621   1.870  1.00  0.00     0.261 C 
BRANCH   3   4
ATOM      4  O   UNL     1       4.094   2.628   0.866  1.00  0.00    -0.463 OA
BRANCH   4   5
ATOM      5  C   UNL     1       3.291   1.641   1.324  1.00  0.00     0.311 C 
ATOM      6  O   UNL     1       2.868   1.576   2.478  1.00  0.00    -0.252 OA
BRANCH   5   7
ATOM      7  C   UNL     1       2.905   0.565   0.342  1.00  0.00     0.128 C 
ATOM      8  C   UNL     1       3.199   0.570  -1.177  1.00  0.00     0.058 C 
ATOM      9  C   UNL     1       3.444  -0.914  -1.478  1.00  0.00     0.129 C 
ATOM     10  N   UNL     1       4.101  -1.393  -0.282  1.00  0.00    -0.337 N 
ATOM     11  C   UNL     1       3.590  -0.697   0.875  1.00  0.00     0.135 C 
BRANCH   8  12
ATOM     12  C   UNL     1       2.163   1.126  -2.147  1.00  0.00    -0.000 A 
ATOM     13  C   UNL     1       0.804   0.763  -2.190  1.00  0.00     0.122 A 
ATOM     14  C   UNL     1      -0.079   1.383  -3.089  1.00  0.00     0.047 A 
ATOM     15  C   UNL     1       0.390   2.309  -4.022  1.00  0.00     0.004 A 
ATOM     16  C   UNL     1       2.618   1.978  -3.174  1.00  0.00     0.008 A 
ATOM     17  C   UNL     1       1.750   2.568  -4.097  1.00  0.00     0.001 A 
BRANCH  13  18
ATOM     18  O   UNL     1       0.384  -0.430  -1.659  1.00  0.00    -0.496 OA
ATOM     19  C   UNL     1      -0.217  -0.364  -0.375  1.00  0.00     0.278 C 
ENDBRANCH  13  18
ENDBRANCH   8  12
BRANCH  10  20
ATOM     20  C   UNL     1       4.920  -2.493  -0.119  1.00  0.00     0.257 C 
ATOM     21  O   UNL     1       5.161  -2.952   0.995  1.00  0.00    -0.269 OA
BRANCH  20  22
ATOM     22  C   UNL     1       5.481  -3.103  -1.301  1.00  0.00     0.085 A 
ATOM     23  C   UNL     1       5.545  -4.483  -1.572  1.00  0.00     0.150 A 
ATOM     24  C   UNL     1       6.159  -2.523  -2.358  1.00  0.00     0.079 A 
ATOM     25  N   UNL     1       6.121  -4.764  -2.741  1.00  0.00    -0.176 NA
ATOM     26  N   UNL     1       6.492  -3.558  -3.238  1.00  0.00    -0.240 N 
ATOM     27  C   UNL     1       6.554  -1.196  -2.714  1.00  0.00     0.029 A 
ATOM     28  C   UNL     1       7.122  -3.313  -4.459  1.00  0.00     0.113 A 
ATOM     29  C   UNL     1       7.144  -0.972  -3.903  1.00  0.00     0.004 A 
ATOM     30  C   UNL     1       7.438  -2.059  -4.820  1.00  0.00     0.020 A 
ENDBRANCH  20  22
ENDBRANCH  10  20
ENDBRANCH   5   7
ENDBRANCH   4   5
ENDBRANCH   3   4
ENDBRANCH   2   3
ENDBRANCH   1   2
BRANCH   1  31
ATOM     31  C   UNL     1       1.699   4.394   0.405  1.00  0.00     0.202 C 
BRANCH  31  32
ATOM     32  C   UNL     1       2.066   4.788  -1.019  1.00  0.00     0.261 C 
BRANCH  32  33
ATOM     33  O   UNL     1       3.431   4.506  -1.316  1.00  0.00    -0.460 OA
BRANCH  33  34
ATOM     34  C   UNL     1       4.211   5.607  -1.411  1.00  0.00     0.338 C 
ATOM     35  O   UNL     1       3.892   6.755  -1.169  1.00  0.00    -0.246 OA
BRANCH  34  36
ATOM     36  C   UNL     1       5.513   5.246  -1.990  1.00  0.00     0.060 A 
ATOM     37  C   UNL     1       6.321   6.330  -2.327  1.00  0.00     0.016 A 
ATOM     38  C   UNL     1       5.718   3.973  -2.531  1.00  0.00     0.016 A 
ATOM     39  C   UNL     1       7.089   6.223  -3.458  1.00  0.00     0.010 A 
ATOM     40  C   UNL     1       6.470   3.867  -3.676  1.00  0.00     0.010 A 
ATOM     41  C   UNL     1       7.043   5.028  -4.182  1.00  0.00    -0.014 A 
BRANCH  41  42
ATOM     42  C   UNL     1       7.678   5.015  -5.477  1.00  0.00     0.031 A 
ATOM     43  C   UNL     1       9.149   5.027  -5.382  1.00  0.00     0.074 A 
ATOM     44  C   UNL     1       6.980   4.966  -6.625  1.00  0.00     0.049 A 
ATOM     45  N   UNL     1       9.936   6.003  -5.685  1.00  0.00    -0.248 NA
ATOM     46  C   UNL     1       9.799   3.914  -4.676  1.00  0.00     0.031 C 
ATOM     47  C   UNL     1       5.545   4.763  -6.831  1.00  0.00     0.029 A 
ATOM     48  N   UNL     1       7.468   5.016  -7.892  1.00  0.00    -0.354 N 
ATOM     49  C   UNL     1      11.212   5.555  -5.378  1.00  0.00     0.074 A 
ATOM     50  C   UNL     1      11.052   4.359  -4.593  1.00  0.00     0.031 C 
ATOM     51  C   UNL     1       5.321   4.474  -8.135  1.00  0.00     0.029 A 
ATOM     52  C   UNL     1       6.570   4.595  -8.865  1.00  0.00     0.049 A 
ATOM     53  H   UNL     1       8.380   5.323  -8.103  1.00  0.00     0.167 HD
ATOM     54  C   UNL     1      12.300   6.066  -6.012  1.00  0.00     0.037 A 
ATOM     55  C   UNL     1       6.906   4.276 -10.141  1.00  0.00     0.037 A 
ATOM     56  C   UNL     1      11.996   7.317  -6.657  1.00  0.00     0.049 A 
ATOM     57  C   UNL     1       8.197   4.964 -10.437  1.00  0.00     0.074 A 
ATOM     58  C   UNL     1      11.575   8.553  -6.206  1.00  0.00     0.029 A 
ATOM     59  N   UNL     1      11.726   7.298  -8.004  1.00  0.00    -0.354 N 
ATOM     60  N   UNL     1       8.300   6.264 -10.530  1.00  0.00    -0.248 NA
ATOM     61  C   UNL     1       9.433   4.266 -10.103  1.00  0.00     0.031 C 
ATOM     62  C   UNL     1      10.641   9.005  -7.184  1.00  0.00     0.029 A 
ATOM     63  C   UNL     1      10.601   8.057  -8.206  1.00  0.00     0.049 A 
ATOM     64  H   UNL     1      12.243   6.826  -8.697  1.00  0.00     0.167 HD
ATOM     65  C   UNL     1       9.473   6.577  -9.858  1.00  0.00     0.074 A 
ATOM     66  C   UNL     1      10.160   5.301  -9.668  1.00  0.00     0.031 C 
ATOM     67  C   UNL     1       9.637   7.788  -9.246  1.00  0.00     0.037 A 
BRANCH  54  68
ATOM     68  C   UNL     1      13.506   5.245  -6.370  1.00  0.00     0.064 A 
ATOM     69  C   UNL     1      14.658   5.896  -6.846  1.00  0.00     0.173 A 
ATOM     70  C   UNL     1      13.467   3.846  -6.555  1.00  0.00     0.173 A 
ATOM     71  F   UNL     1      14.783   7.227  -6.738  1.00  0.00    -0.203 F 
ATOM     72  C   UNL     1      15.659   5.203  -7.529  1.00  0.00     0.198 A 
ATOM     73  C   UNL     1      14.494   3.151  -7.185  1.00  0.00     0.198 A 
ATOM     74  F   UNL     1      12.390   3.112  -6.248  1.00  0.00    -0.203 F 
ATOM     75  F   UNL     1      16.675   5.878  -8.081  1.00  0.00    -0.200 F 
ATOM     76  C   UNL     1      15.573   3.833  -7.703  1.00  0.00     0.200 A 
ATOM     77  F   UNL     1      14.379   1.827  -7.360  1.00  0.00    -0.200 F 
ATOM     78  F   UNL     1      16.498   3.176  -8.414  1.00  0.00    -0.200 F 
ENDBRANCH  54  68
BRANCH  55  79
ATOM     79  C   UNL     1       6.381   3.142 -10.942  1.00  0.00     0.064 A 
ATOM     80  C   UNL     1       6.601   3.051 -12.325  1.00  0.00     0.173 A 
ATOM     81  C   UNL     1       5.862   1.987 -10.319  1.00  0.00     0.173 A 
ATOM     82  F   UNL     1       7.146   4.081 -12.990  1.00  0.00    -0.203 F 
ATOM     83  C   UNL     1       6.325   1.877 -13.039  1.00  0.00     0.198 A 
ATOM     84  C   UNL     1       5.580   0.821 -11.031  1.00  0.00     0.198 A 
ATOM     85  F   UNL     1       5.703   1.931  -8.989  1.00  0.00    -0.203 F 
ATOM     86  F   UNL     1       6.596   1.810 -14.350  1.00  0.00    -0.200 F 
ATOM     87  C   UNL     1       5.821   0.761 -12.390  1.00  0.00     0.200 A 
ATOM     88  F   UNL     1       5.132  -0.262 -10.379  1.00  0.00    -0.200 F 
ATOM     89  F   UNL     1       5.606  -0.379 -13.060  1.00  0.00    -0.200 F 
ENDBRANCH  55  79
BRANCH  67  90
ATOM     90  C   UNL     1       8.596   8.844  -9.491  1.00  0.00     0.064 A 
ATOM     91  C   UNL     1       7.252   8.720  -9.094  1.00  0.00     0.173 A 
ATOM     92  C   UNL     1       9.004  10.084  -9.997  1.00  0.00     0.173 A 
ATOM     93  F   UNL     1       6.812   7.607  -8.495  1.00  0.00    -0.203 F 
ATOM     94  C   UNL     1       6.351   9.772  -9.246  1.00  0.00     0.198 A 
ATOM     95  C   UNL     1       8.111  11.146 -10.113  1.00  0.00     0.198 A 
ATOM     96  F   UNL     1      10.289  10.282 -10.329  1.00  0.00    -0.203 F 
ATOM     97  F   UNL     1       5.072   9.622  -8.868  1.00  0.00    -0.200 F 
ATOM     98  C   UNL     1       6.783  10.986  -9.751  1.00  0.00     0.200 A 
ATOM     99  F   UNL     1       8.546  12.336 -10.549  1.00  0.00    -0.200 F 
ATOM    100  F   UNL     1       5.928  12.013  -9.859  1.00  0.00    -0.200 F 
ENDBRANCH  67  90
ENDBRANCH  41  42
ENDBRANCH  34  36
ENDBRANCH  33  34
ENDBRANCH  32  33
ENDBRANCH  31  32
ENDBRANCH   1  31
TORSDOF 18
