REMARK SMILES C[C@@](O)(CNC(=O)Cc1ccc(F)cc1F)C(=O)OCCOCCOC(=O)c1ccc(-c2c3nc(c(-c4c(F)c(F)c(F)c(F)c4F)c4ccc([nH]4)c(-c4c(F)c(F)c(F)c(F)c4F)c4nc(c(-c5c(F)c(F)c(F)c(F)c5F)c5ccc2[nH]5)C=C4)C=C3)cc1
REMARK SMILES IDX 21 1 20 2 19 3 17 4 18 5 2 6 1 7 3 8 4 10 5 11 6 12 7 14
REMARK SMILES IDX 8 15 9 16 10 17 15 18 11 19 14 20 16 21 12 22 13 23 22 24
REMARK SMILES IDX 23 25 24 26 25 27 26 28 27 29 28 30 29 31 90 32 30 33 89 34
REMARK SMILES IDX 31 35 32 36 33 37 83 38 34 39 88 40 82 41 84 42 35 43 87 44
REMARK SMILES IDX 81 45 80 46 36 48 68 49 48 50 67 51 49 52 52 53 66 54 85 55
REMARK SMILES IDX 50 56 51 57 65 59 86 60 53 61 37 62 38 63 46 64 39 65 40 66
REMARK SMILES IDX 44 67 47 68 41 69 42 70 45 71 43 72 69 73 70 74 78 75 71 76
REMARK SMILES IDX 72 77 76 78 79 79 73 80 74 81 77 82 75 83 54 84 55 85 63 86
REMARK SMILES IDX 56 87 57 88 61 89 64 90 58 91 59 92 62 93 60 94
REMARK H PARENT 3 9 5 13 84 47 52 58
REMARK Flexibility Score: inf
ROOT
ATOM      1  C   UNL     1       1.734  -1.801  -4.630  1.00  0.00     0.202 C 
ENDROOT
BRANCH   1   2
ATOM      2  C   UNL     1       2.575  -2.061  -3.367  1.00  0.00     0.261 C 
BRANCH   2   3
ATOM      3  O   UNL     1       1.804  -2.107  -2.140  1.00  0.00    -0.461 OA
BRANCH   3   4
ATOM      4  C   UNL     1       1.762  -0.963  -1.408  1.00  0.00     0.339 C 
ATOM      5  O   UNL     1       2.345   0.067  -1.732  1.00  0.00    -0.249 OA
BRANCH   4   6
ATOM      6  C   UNL     1       1.003  -1.110  -0.059  1.00  0.00     0.176 C 
ATOM      7  C   UNL     1       1.069   0.245   0.661  1.00  0.00     0.057 C 
BRANCH   6   8
ATOM      8  O   UNL     1       1.692  -2.067   0.768  1.00  0.00    -0.377 OA
ATOM      9  H   UNL     1       1.223  -2.163   1.612  1.00  0.00     0.212 HD
ENDBRANCH   6   8
BRANCH   6  10
ATOM     10  C   UNL     1      -0.473  -1.588  -0.136  1.00  0.00     0.162 C 
BRANCH  10  11
ATOM     11  N   UNL     1      -1.382  -0.823  -0.978  1.00  0.00    -0.352 N 
ATOM     12  C   UNL     1      -2.500  -1.212  -1.659  1.00  0.00     0.224 C 
ATOM     13  H   UNL     1      -1.154   0.130  -1.070  1.00  0.00     0.163 HD
ATOM     14  O   UNL     1      -3.133  -0.314  -2.229  1.00  0.00    -0.275 OA
BRANCH  12  15
ATOM     15  C   UNL     1      -3.056  -2.634  -1.640  1.00  0.00     0.138 C 
BRANCH  15  16
ATOM     16  C   UNL     1      -2.188  -3.815  -2.008  1.00  0.00    -0.003 A 
ATOM     17  C   UNL     1      -2.633  -5.121  -1.758  1.00  0.00     0.010 A 
ATOM     18  C   UNL     1      -0.948  -3.674  -2.622  1.00  0.00     0.129 A 
ATOM     19  C   UNL     1      -1.803  -6.216  -2.025  1.00  0.00     0.040 A 
ATOM     20  C   UNL     1      -0.097  -4.742  -2.861  1.00  0.00     0.078 A 
ATOM     21  F   UNL     1      -0.537  -2.457  -2.960  1.00  0.00    -0.207 F 
ATOM     22  C   UNL     1      -0.527  -6.010  -2.535  1.00  0.00     0.126 A 
ATOM     23  F   UNL     1       0.291  -7.050  -2.739  1.00  0.00    -0.207 F 
ENDBRANCH  15  16
ENDBRANCH  12  15
ENDBRANCH  10  11
ENDBRANCH   6  10
ENDBRANCH   4   6
ENDBRANCH   3   4
ENDBRANCH   2   3
ENDBRANCH   1   2
BRANCH   1  24
ATOM     24  O   UNL     1       1.432  -0.429  -4.880  1.00  0.00    -0.374 OA
BRANCH  24  25
ATOM     25  C   UNL     1       0.296   0.106  -4.202  1.00  0.00     0.202 C 
BRANCH  25  26
ATOM     26  C   UNL     1      -1.024   0.028  -4.981  1.00  0.00     0.261 C 
BRANCH  26  27
ATOM     27  O   UNL     1      -1.572  -1.306  -5.025  1.00  0.00    -0.460 OA
BRANCH  27  28
ATOM     28  C   UNL     1      -1.319  -2.009  -6.151  1.00  0.00     0.338 C 
ATOM     29  O   UNL     1      -0.706  -1.625  -7.132  1.00  0.00    -0.246 OA
BRANCH  28  30
ATOM     30  C   UNL     1      -1.794  -3.408  -6.014  1.00  0.00     0.060 A 
ATOM     31  C   UNL     1      -1.001  -4.415  -6.576  1.00  0.00     0.016 A 
ATOM     32  C   UNL     1      -3.010  -3.743  -5.412  1.00  0.00     0.016 A 
ATOM     33  C   UNL     1      -1.446  -5.740  -6.600  1.00  0.00     0.010 A 
ATOM     34  C   UNL     1      -3.440  -5.081  -5.407  1.00  0.00     0.010 A 
ATOM     35  C   UNL     1      -2.687  -6.085  -6.047  1.00  0.00    -0.014 A 
BRANCH  35  36
ATOM     36  C   UNL     1      -3.258  -7.448  -6.282  1.00  0.00     0.031 A 
ATOM     37  C   UNL     1      -4.457  -7.601  -7.184  1.00  0.00     0.074 A 
ATOM     38  C   UNL     1      -2.708  -8.558  -5.751  1.00  0.00     0.049 A 
ATOM     39  N   UNL     1      -5.113  -8.685  -7.519  1.00  0.00    -0.248 NA
ATOM     40  C   UNL     1      -4.988  -6.371  -7.790  1.00  0.00     0.031 C 
ATOM     41  C   UNL     1      -1.520  -8.585  -4.909  1.00  0.00     0.029 A 
ATOM     42  N   UNL     1      -3.077  -9.881  -5.841  1.00  0.00    -0.354 N 
ATOM     43  C   UNL     1      -6.130  -8.266  -8.366  1.00  0.00     0.074 A 
ATOM     44  C   UNL     1      -6.044  -6.824  -8.447  1.00  0.00     0.031 C 
ATOM     45  C   UNL     1      -1.268  -9.848  -4.531  1.00  0.00     0.029 A 
ATOM     46  C   UNL     1      -2.280 -10.730  -5.110  1.00  0.00     0.049 A 
ATOM     47  H   UNL     1      -3.841 -10.191  -6.380  1.00  0.00     0.167 HD
ATOM     48  C   UNL     1      -7.036  -9.011  -9.043  1.00  0.00     0.037 A 
ATOM     49  C   UNL     1      -2.347 -12.064  -4.924  1.00  0.00     0.037 A 
ATOM     50  C   UNL     1      -7.110 -10.447  -9.004  1.00  0.00     0.049 A 
ATOM     51  C   UNL     1      -3.400 -12.869  -5.637  1.00  0.00     0.074 A 
ATOM     52  C   UNL     1      -7.962 -11.281  -9.707  1.00  0.00     0.029 A 
ATOM     53  N   UNL     1      -6.310 -11.263  -8.220  1.00  0.00    -0.354 N 
ATOM     54  N   UNL     1      -4.327 -12.463  -6.470  1.00  0.00    -0.248 NA
ATOM     55  C   UNL     1      -3.408 -14.321  -5.399  1.00  0.00     0.031 C 
ATOM     56  C   UNL     1      -7.721 -12.597  -9.302  1.00  0.00     0.029 A 
ATOM     57  C   UNL     1      -6.676 -12.590  -8.393  1.00  0.00     0.049 A 
ATOM     58  H   UNL     1      -5.589 -10.948  -7.628  1.00  0.00     0.167 HD
ATOM     59  C   UNL     1      -5.008 -13.604  -6.873  1.00  0.00     0.074 A 
ATOM     60  C   UNL     1      -4.381 -14.724  -6.205  1.00  0.00     0.031 C 
ATOM     61  C   UNL     1      -6.058 -13.707  -7.725  1.00  0.00     0.037 A 
BRANCH  48  62
ATOM     62  C   UNL     1      -8.036  -8.282  -9.895  1.00  0.00     0.064 A 
ATOM     63  C   UNL     1      -9.394  -8.279  -9.544  1.00  0.00     0.173 A 
ATOM     64  C   UNL     1      -7.662  -7.632 -11.081  1.00  0.00     0.173 A 
ATOM     65  F   UNL     1      -9.806  -8.892  -8.424  1.00  0.00    -0.203 F 
ATOM     66  C   UNL     1     -10.341  -7.658 -10.353  1.00  0.00     0.198 A 
ATOM     67  C   UNL     1      -8.607  -6.982 -11.869  1.00  0.00     0.198 A 
ATOM     68  F   UNL     1      -6.374  -7.596 -11.455  1.00  0.00    -0.203 F 
ATOM     69  F   UNL     1     -11.637  -7.694 -10.013  1.00  0.00    -0.200 F 
ATOM     70  C   UNL     1      -9.947  -7.003 -11.510  1.00  0.00     0.200 A 
ATOM     71  F   UNL     1      -8.221  -6.326 -12.972  1.00  0.00    -0.200 F 
ATOM     72  F   UNL     1     -10.858  -6.390 -12.277  1.00  0.00    -0.200 F 
ENDBRANCH  48  62
BRANCH  49  73
ATOM     73  C   UNL     1      -1.360 -12.727  -4.031  1.00  0.00     0.064 A 
ATOM     74  C   UNL     1      -1.391 -12.529  -2.642  1.00  0.00     0.173 A 
ATOM     75  C   UNL     1      -0.357 -13.559  -4.548  1.00  0.00     0.173 A 
ATOM     76  F   UNL     1      -2.334 -11.746  -2.097  1.00  0.00    -0.203 F 
ATOM     77  C   UNL     1      -0.444 -13.120  -1.808  1.00  0.00     0.198 A 
ATOM     78  C   UNL     1       0.574 -14.170  -3.710  1.00  0.00     0.198 A 
ATOM     79  F   UNL     1      -0.303 -13.802  -5.865  1.00  0.00    -0.203 F 
ATOM     80  F   UNL     1      -0.479 -12.889  -0.488  1.00  0.00    -0.200 F 
ATOM     81  C   UNL     1       0.536 -13.942  -2.342  1.00  0.00     0.200 A 
ATOM     82  F   UNL     1       1.503 -14.986  -4.226  1.00  0.00    -0.200 F 
ATOM     83  F   UNL     1       1.440 -14.519  -1.539  1.00  0.00    -0.200 F 
ENDBRANCH  49  73
BRANCH  61  84
ATOM     84  C   UNL     1      -6.609 -15.078  -8.003  1.00  0.00     0.064 A 
ATOM     85  C   UNL     1      -6.483 -15.653  -9.278  1.00  0.00     0.173 A 
ATOM     86  C   UNL     1      -7.334 -15.788  -7.035  1.00  0.00     0.173 A 
ATOM     87  F   UNL     1      -5.807 -15.014 -10.245  1.00  0.00    -0.203 F 
ATOM     88  C   UNL     1      -7.078 -16.876  -9.577  1.00  0.00     0.198 A 
ATOM     89  C   UNL     1      -7.901 -17.026  -7.328  1.00  0.00     0.198 A 
ATOM     90  F   UNL     1      -7.476 -15.289  -5.797  1.00  0.00    -0.203 F 
ATOM     91  F   UNL     1      -6.978 -17.385 -10.813  1.00  0.00    -0.200 F 
ATOM     92  C   UNL     1      -7.782 -17.564  -8.601  1.00  0.00     0.200 A 
ATOM     93  F   UNL     1      -8.560 -17.701  -6.376  1.00  0.00    -0.200 F 
ATOM     94  F   UNL     1      -8.346 -18.746  -8.886  1.00  0.00    -0.200 F 
ENDBRANCH  61  84
ENDBRANCH  35  36
ENDBRANCH  28  30
ENDBRANCH  27  28
ENDBRANCH  26  27
ENDBRANCH  25  26
ENDBRANCH  24  25
ENDBRANCH   1  24
TORSDOF 19
