REMARK SMILES CC(C)CCc1cc2c(cc1Cl)C=C(C(=O)OCCOCCOC(=O)c1ccc(-c3c4nc(c(-c5c(F)c(F)c(F)c(F)c5F)c5ccc([nH]5)c(-c5c(F)c(F)c(F)c(F)c5F)c5nc(c(-c6c(F)c(F)c(F)c(F)c6F)c6ccc3[nH]6)C=C5)C=C4)cc1)[C@@H](C(F)(F)F)O2
REMARK SMILES IDX 19 1 18 2 17 3 15 4 16 5 14 6 6 7 7 8 11 9 8 10 10 11 12 12
REMARK SMILES IDX 9 13 94 14 13 15 89 16 5 17 4 18 2 19 1 20 3 21 90 22 91 23
REMARK SMILES IDX 92 24 93 25 20 26 21 27 22 28 23 29 24 30 25 31 26 32 27 33
REMARK SMILES IDX 88 34 28 35 87 36 29 37 30 38 31 39 81 40 32 41 86 42 80 43
REMARK SMILES IDX 82 44 33 45 85 46 79 47 78 48 34 50 66 51 46 52 65 53 47 54
REMARK SMILES IDX 50 55 64 56 83 57 48 58 49 59 63 61 84 62 51 63 35 64 36 65
REMARK SMILES IDX 44 66 37 67 38 68 42 69 45 70 39 71 40 72 43 73 41 74 67 75
REMARK SMILES IDX 68 76 76 77 69 78 70 79 74 80 77 81 71 82 72 83 75 84 73 85
REMARK SMILES IDX 52 86 53 87 61 88 54 89 55 90 59 91 62 92 56 93 57 94 60 95
REMARK SMILES IDX 58 96
REMARK H PARENT 82 49 50 60
REMARK Flexibility Score: inf
ROOT
ATOM      1  C   UNL     1       1.248  -9.700   6.483  1.00  0.00     0.202 C 
ENDROOT
BRANCH   1   2
ATOM      2  C   UNL     1       2.382  -9.051   5.683  1.00  0.00     0.261 C 
BRANCH   2   3
ATOM      3  O   UNL     1       2.046  -7.723   5.261  1.00  0.00    -0.460 OA
BRANCH   3   4
ATOM      4  C   UNL     1       1.837  -7.597   3.928  1.00  0.00     0.338 C 
ATOM      5  O   UNL     1       2.039  -8.443   3.073  1.00  0.00    -0.246 OA
BRANCH   4   6
ATOM      6  C   UNL     1       1.186  -6.303   3.652  1.00  0.00     0.087 C 
ATOM      7  C   UNL     1      -1.238  -2.538   1.404  1.00  0.00    -0.026 A 
ATOM      8  C   UNL     1      -0.474  -2.654   2.578  1.00  0.00     0.052 A 
ATOM      9  C   UNL     1      -1.648  -3.728   0.773  1.00  0.00     0.045 A 
ATOM     10  C   UNL     1       0.002  -3.893   3.011  1.00  0.00     0.128 A 
ATOM     11  C   UNL     1      -1.215  -4.974   1.235  1.00  0.00     0.032 A 
ATOM     12  Cl  UNL     1      -2.685  -3.719  -0.612  1.00  0.00    -0.084 Cl
ATOM     13  C   UNL     1      -0.348  -5.052   2.325  1.00  0.00     0.019 A 
ATOM     14  O   UNL     1       0.813  -3.880   4.110  1.00  0.00    -0.475 OA
ATOM     15  C   UNL     1       0.234  -6.321   2.711  1.00  0.00     0.027 C 
ATOM     16  C   UNL     1       1.606  -5.066   4.398  1.00  0.00     0.316 C 
BRANCH   7  17
ATOM     17  C   UNL     1      -1.603  -1.192   0.806  1.00  0.00     0.037 C 
BRANCH  17  18
ATOM     18  C   UNL     1      -0.959   0.075   1.392  1.00  0.00     0.008 C 
BRANCH  18  19
ATOM     19  C   UNL     1       0.575   0.195   1.244  1.00  0.00    -0.017 C 
ATOM     20  C   UNL     1       1.026   0.300  -0.212  1.00  0.00     0.007 C 
ATOM     21  C   UNL     1       1.068   1.408   2.037  1.00  0.00     0.007 C 
ENDBRANCH  18  19
ENDBRANCH  17  18
ENDBRANCH   7  17
BRANCH  16  22
ATOM     22  C   UNL     1       3.094  -4.746   4.196  1.00  0.00     0.430 C 
ATOM     23  F   UNL     1       3.437  -3.586   4.806  1.00  0.00    -0.167 F 
ATOM     24  F   UNL     1       3.886  -5.709   4.727  1.00  0.00    -0.167 F 
ATOM     25  F   UNL     1       3.419  -4.630   2.889  1.00  0.00    -0.167 F 
ENDBRANCH  16  22
ENDBRANCH   4   6
ENDBRANCH   3   4
ENDBRANCH   2   3
ENDBRANCH   1   2
BRANCH   1  26
ATOM     26  O   UNL     1      -0.037  -9.777   5.875  1.00  0.00    -0.374 OA
BRANCH  26  27
ATOM     27  C   UNL     1      -0.830  -8.594   5.792  1.00  0.00     0.202 C 
BRANCH  27  28
ATOM     28  C   UNL     1      -1.436  -8.024   7.081  1.00  0.00     0.261 C 
BRANCH  28  29
ATOM     29  O   UNL     1      -0.441  -7.575   8.017  1.00  0.00    -0.460 OA
BRANCH  29  30
ATOM     30  C   UNL     1      -0.315  -8.344   9.127  1.00  0.00     0.338 C 
ATOM     31  O   UNL     1      -0.960  -9.339   9.419  1.00  0.00    -0.246 OA
BRANCH  30  32
ATOM     32  C   UNL     1       0.881  -7.920   9.877  1.00  0.00     0.060 A 
ATOM     33  C   UNL     1       1.030  -6.604  10.312  1.00  0.00     0.016 A 
ATOM     34  C   UNL     1       1.850  -8.886  10.178  1.00  0.00     0.016 A 
ATOM     35  C   UNL     1       2.148  -6.261  11.075  1.00  0.00     0.010 A 
ATOM     36  C   UNL     1       2.966  -8.542  10.941  1.00  0.00     0.010 A 
ATOM     37  C   UNL     1       3.114  -7.230  11.411  1.00  0.00    -0.014 A 
BRANCH  37  38
ATOM     38  C   UNL     1       4.210  -6.888  12.350  1.00  0.00     0.031 A 
ATOM     39  C   UNL     1       5.623  -6.724  11.879  1.00  0.00     0.074 A 
ATOM     40  C   UNL     1       3.910  -6.726  13.653  1.00  0.00     0.049 A 
ATOM     41  N   UNL     1       6.675  -6.338  12.556  1.00  0.00    -0.248 NA
ATOM     42  C   UNL     1       5.896  -7.040  10.470  1.00  0.00     0.031 C 
ATOM     43  C   UNL     1       2.578  -6.906  14.232  1.00  0.00     0.029 A 
ATOM     44  N   UNL     1       4.692  -6.363  14.720  1.00  0.00    -0.354 N 
ATOM     45  C   UNL     1       7.729  -6.338  11.654  1.00  0.00     0.074 A 
ATOM     46  C   UNL     1       7.203  -6.821  10.393  1.00  0.00     0.031 C 
ATOM     47  C   UNL     1       2.626  -6.611  15.540  1.00  0.00     0.029 A 
ATOM     48  C   UNL     1       3.996  -6.253  15.898  1.00  0.00     0.049 A 
ATOM     49  H   UNL     1       5.660  -6.198  14.647  1.00  0.00     0.167 HD
ATOM     50  C   UNL     1       9.009  -5.946  11.857  1.00  0.00     0.037 A 
ATOM     51  C   UNL     1       4.411  -5.895  17.128  1.00  0.00     0.037 A 
ATOM     52  C   UNL     1       9.527  -5.479  13.119  1.00  0.00     0.049 A 
ATOM     53  C   UNL     1       5.851  -5.514  17.336  1.00  0.00     0.074 A 
ATOM     54  C   UNL     1      10.801  -5.023  13.410  1.00  0.00     0.029 A 
ATOM     55  N   UNL     1       8.804  -5.423  14.302  1.00  0.00    -0.354 N 
ATOM     56  N   UNL     1       6.819  -5.431  16.455  1.00  0.00    -0.248 NA
ATOM     57  C   UNL     1       6.257  -5.174  18.707  1.00  0.00     0.031 C 
ATOM     58  C   UNL     1      10.866  -4.747  14.779  1.00  0.00     0.029 A 
ATOM     59  C   UNL     1       9.616  -4.974  15.332  1.00  0.00     0.049 A 
ATOM     60  H   UNL     1       7.854  -5.666  14.396  1.00  0.00     0.167 HD
ATOM     61  C   UNL     1       7.940  -5.013  17.158  1.00  0.00     0.074 A 
ATOM     62  C   UNL     1       7.528  -4.836  18.535  1.00  0.00     0.031 C 
ATOM     63  C   UNL     1       9.198  -4.801  16.701  1.00  0.00     0.037 A 
BRANCH  50  64
ATOM     64  C   UNL     1       9.951  -5.982  10.687  1.00  0.00     0.064 A 
ATOM     65  C   UNL     1       9.828  -5.072   9.626  1.00  0.00     0.173 A 
ATOM     66  C   UNL     1      11.039  -6.868  10.668  1.00  0.00     0.173 A 
ATOM     67  F   UNL     1       8.804  -4.207   9.594  1.00  0.00    -0.203 F 
ATOM     68  C   UNL     1      10.751  -5.058   8.584  1.00  0.00     0.198 A 
ATOM     69  C   UNL     1      11.977  -6.831   9.639  1.00  0.00     0.198 A 
ATOM     70  F   UNL     1      11.210  -7.751  11.664  1.00  0.00    -0.203 F 
ATOM     71  F   UNL     1      10.596  -4.199   7.566  1.00  0.00    -0.200 F 
ATOM     72  C   UNL     1      11.830  -5.929   8.596  1.00  0.00     0.200 A 
ATOM     73  F   UNL     1      13.029  -7.660   9.663  1.00  0.00    -0.200 F 
ATOM     74  F   UNL     1      12.729  -5.898   7.603  1.00  0.00    -0.200 F 
ENDBRANCH  50  64
BRANCH  51  75
ATOM     75  C   UNL     1       3.434  -5.844  18.247  1.00  0.00     0.064 A 
ATOM     76  C   UNL     1       3.059  -4.620  18.819  1.00  0.00     0.173 A 
ATOM     77  C   UNL     1       2.838  -7.010  18.751  1.00  0.00     0.173 A 
ATOM     78  F   UNL     1       3.615  -3.480  18.384  1.00  0.00    -0.203 F 
ATOM     79  C   UNL     1       2.133  -4.566  19.858  1.00  0.00     0.198 A 
ATOM     80  C   UNL     1       1.889  -6.951  19.769  1.00  0.00     0.198 A 
ATOM     81  F   UNL     1       3.160  -8.205  18.235  1.00  0.00    -0.203 F 
ATOM     82  F   UNL     1       1.819  -3.386  20.411  1.00  0.00    -0.200 F 
ATOM     83  C   UNL     1       1.542  -5.730  20.326  1.00  0.00     0.200 A 
ATOM     84  F   UNL     1       1.308  -8.076  20.205  1.00  0.00    -0.200 F 
ATOM     85  F   UNL     1       0.641  -5.675  21.316  1.00  0.00    -0.200 F 
ENDBRANCH  51  75
BRANCH  63  86
ATOM     86  C   UNL     1      10.235  -4.348  17.690  1.00  0.00     0.064 A 
ATOM     87  C   UNL     1      10.744  -5.218  18.665  1.00  0.00     0.173 A 
ATOM     88  C   UNL     1      10.787  -3.060  17.608  1.00  0.00     0.173 A 
ATOM     89  F   UNL     1      10.241  -6.455  18.796  1.00  0.00    -0.203 F 
ATOM     90  C   UNL     1      11.760  -4.813  19.527  1.00  0.00     0.198 A 
ATOM     91  C   UNL     1      11.825  -2.669  18.450  1.00  0.00     0.198 A 
ATOM     92  F   UNL     1      10.341  -2.190  16.689  1.00  0.00    -0.203 F 
ATOM     93  F   UNL     1      12.209  -5.651  20.472  1.00  0.00    -0.200 F 
ATOM     94  C   UNL     1      12.308  -3.545  19.410  1.00  0.00     0.200 A 
ATOM     95  F   UNL     1      12.366  -1.450  18.323  1.00  0.00    -0.200 F 
ATOM     96  F   UNL     1      13.303  -3.165  20.224  1.00  0.00    -0.200 F 
ENDBRANCH  63  86
ENDBRANCH  37  38
ENDBRANCH  30  32
ENDBRANCH  29  30
ENDBRANCH  28  29
ENDBRANCH  27  28
ENDBRANCH  26  27
ENDBRANCH   1  26
TORSDOF 18
