REMARK SMILES C[C@]1(C(=O)OCCOCCOC(=O)c2ccc(-c3c4nc(c(-c5c(F)c(F)c(F)c(F)c5F)c5ccc([nH]5)c(-c5c(F)c(F)c(F)c(F)c5F)c5nc(c(-c6c(F)c(F)c(F)c(F)c6F)c6ccc3[nH]6)C=C5)C=C4)cc2)CCN(c2ccc([N+](=O)[O-])c(N)n2)C1
REMARK SMILES IDX 8 1 7 2 6 3 5 4 3 5 4 6 2 7 1 8 77 9 90 10 78 11 79 12 80 13
REMARK SMILES IDX 81 14 89 15 82 16 87 17 83 18 88 19 84 22 85 23 86 24 9 25
REMARK SMILES IDX 10 26 11 27 12 28 13 29 14 30 15 31 76 32 16 33 75 34 17 35
REMARK SMILES IDX 18 36 19 37 69 38 20 39 74 40 68 41 70 42 21 43 73 44 67 45
REMARK SMILES IDX 66 46 22 48 54 49 34 50 53 51 35 52 38 53 52 54 71 55 36 56
REMARK SMILES IDX 37 57 51 59 72 60 39 61 23 62 24 63 32 64 25 65 26 66 30 67
REMARK SMILES IDX 33 68 27 69 28 70 31 71 29 72 55 73 56 74 64 75 57 76 58 77
REMARK SMILES IDX 62 78 65 79 59 80 60 81 63 82 61 83 40 84 41 85 49 86 42 87
REMARK SMILES IDX 43 88 47 89 50 90 44 91 45 92 48 93 46 94
REMARK H PARENT 88 20 88 21 70 47 38 58
REMARK Flexibility Score: inf
ROOT
ATOM      1  O   UNL     1       0.301  -0.419   2.660  1.00  0.00    -0.374 OA
ENDROOT
BRANCH   1   2
ATOM      2  C   UNL     1       1.720  -0.367   2.523  1.00  0.00     0.202 C 
BRANCH   2   3
ATOM      3  C   UNL     1       2.291  -0.849   1.185  1.00  0.00     0.261 C 
BRANCH   3   4
ATOM      4  O   UNL     1       1.938   0.038   0.105  1.00  0.00    -0.463 OA
BRANCH   4   5
ATOM      5  C   UNL     1       1.097  -0.480  -0.827  1.00  0.00     0.313 C 
ATOM      6  O   UNL     1       0.725  -1.649  -0.851  1.00  0.00    -0.252 OA
BRANCH   5   7
ATOM      7  C   UNL     1       0.628   0.538  -1.854  1.00  0.00     0.084 C 
ATOM      8  C   UNL     1       1.211   0.137  -3.214  1.00  0.00     0.026 C 
ATOM      9  C   UNL     1      -0.914   0.532  -1.867  1.00  0.00     0.042 C 
ATOM     10  C   UNL     1       0.946   2.010  -1.540  1.00  0.00     0.136 C 
ATOM     11  C   UNL     1      -1.324   1.906  -2.387  1.00  0.00     0.119 C 
ATOM     12  N   UNL     1      -0.152   2.736  -2.166  1.00  0.00    -0.355 N 
BRANCH  12  13
ATOM     13  C   UNL     1      -0.231   4.095  -2.290  1.00  0.00     0.131 A 
ATOM     14  C   UNL     1       0.846   4.833  -2.768  1.00  0.00     0.054 A 
ATOM     15  N   UNL     1      -1.403   4.704  -1.990  1.00  0.00    -0.207 NA
ATOM     16  C   UNL     1       0.712   6.206  -2.964  1.00  0.00     0.093 A 
ATOM     17  C   UNL     1      -1.534   6.045  -2.124  1.00  0.00     0.204 A 
ATOM     18  C   UNL     1      -0.498   6.818  -2.634  1.00  0.00     0.311 A 
BRANCH  17  19
ATOM     19  N   UNL     1      -2.786   6.523  -1.798  1.00  0.00    -0.378 N 
ATOM     20  H   UNL     1      -2.978   7.486  -1.864  1.00  0.00     0.158 HD
ATOM     21  H   UNL     1      -3.489   5.901  -1.499  1.00  0.00     0.158 HD
ENDBRANCH  17  19
BRANCH  18  22
ATOM     22  N   UNL     1      -0.638   8.255  -2.818  1.00  0.00     0.066 N 
ATOM     23  O   UNL     1       0.110   8.798  -3.646  1.00  0.00    -0.258 OA
ATOM     24  O   UNL     1      -1.458   8.864  -2.113  1.00  0.00    -0.258 OA
ENDBRANCH  18  22
ENDBRANCH  12  13
ENDBRANCH   5   7
ENDBRANCH   4   5
ENDBRANCH   3   4
ENDBRANCH   2   3
ENDBRANCH   1   2
BRANCH   1  25
ATOM     25  C   UNL     1      -0.452   0.621   2.038  1.00  0.00     0.202 C 
BRANCH  25  26
ATOM     26  C   UNL     1      -0.534   1.951   2.794  1.00  0.00     0.261 C 
BRANCH  26  27
ATOM     27  O   UNL     1       0.754   2.583   2.901  1.00  0.00    -0.460 OA
BRANCH  27  28
ATOM     28  C   UNL     1       1.276   2.602   4.149  1.00  0.00     0.338 C 
ATOM     29  O   UNL     1       0.745   2.230   5.186  1.00  0.00    -0.246 OA
BRANCH  28  30
ATOM     30  C   UNL     1       2.699   2.977   4.083  1.00  0.00     0.060 A 
ATOM     31  C   UNL     1       3.624   2.125   4.701  1.00  0.00     0.016 A 
ATOM     32  C   UNL     1       3.120   4.160   3.473  1.00  0.00     0.016 A 
ATOM     33  C   UNL     1       4.973   2.470   4.741  1.00  0.00     0.010 A 
ATOM     34  C   UNL     1       4.473   4.512   3.526  1.00  0.00     0.010 A 
ATOM     35  C   UNL     1       5.399   3.681   4.183  1.00  0.00    -0.014 A 
BRANCH  35  36
ATOM     36  C   UNL     1       6.791   4.142   4.393  1.00  0.00     0.031 A 
ATOM     37  C   UNL     1       7.074   5.133   5.485  1.00  0.00     0.074 A 
ATOM     38  C   UNL     1       7.790   3.680   3.620  1.00  0.00     0.049 A 
ATOM     39  N   UNL     1       8.196   5.729   5.796  1.00  0.00    -0.248 NA
ATOM     40  C   UNL     1       5.936   5.504   6.342  1.00  0.00     0.031 C 
ATOM     41  C   UNL     1       7.644   2.685   2.560  1.00  0.00     0.029 A 
ATOM     42  N   UNL     1       9.124   4.001   3.602  1.00  0.00    -0.354 N 
ATOM     43  C   UNL     1       7.900   6.549   6.877  1.00  0.00     0.074 A 
ATOM     44  C   UNL     1       6.488   6.393   7.154  1.00  0.00     0.031 C 
ATOM     45  C   UNL     1       8.840   2.492   1.978  1.00  0.00     0.029 A 
ATOM     46  C   UNL     1       9.825   3.375   2.602  1.00  0.00     0.049 A 
ATOM     47  H   UNL     1       9.539   4.621   4.245  1.00  0.00     0.167 HD
ATOM     48  C   UNL     1       8.734   7.354   7.576  1.00  0.00     0.037 A 
ATOM     49  C   UNL     1      11.106   3.525   2.215  1.00  0.00     0.037 A 
ATOM     50  C   UNL     1      10.138   7.503   7.298  1.00  0.00     0.049 A 
ATOM     51  C   UNL     1      11.993   4.492   2.955  1.00  0.00     0.074 A 
ATOM     52  C   UNL     1      11.075   8.266   7.972  1.00  0.00     0.029 A 
ATOM     53  N   UNL     1      10.804   6.883   6.252  1.00  0.00    -0.354 N 
ATOM     54  N   UNL     1      11.715   5.241   3.995  1.00  0.00    -0.248 NA
ATOM     55  C   UNL     1      13.371   4.639   2.464  1.00  0.00     0.031 C 
ATOM     56  C   UNL     1      12.297   8.150   7.301  1.00  0.00     0.029 A 
ATOM     57  C   UNL     1      12.132   7.274   6.239  1.00  0.00     0.049 A 
ATOM     58  H   UNL     1      10.393   6.256   5.612  1.00  0.00     0.167 HD
ATOM     59  C   UNL     1      12.883   5.929   4.295  1.00  0.00     0.074 A 
ATOM     60  C   UNL     1      13.879   5.500   3.336  1.00  0.00     0.031 C 
ATOM     61  C   UNL     1      13.111   6.836   5.276  1.00  0.00     0.037 A 
BRANCH  48  62
ATOM     62  C   UNL     1       8.145   8.159   8.696  1.00  0.00     0.064 A 
ATOM     63  C   UNL     1       7.750   7.565   9.904  1.00  0.00     0.173 A 
ATOM     64  C   UNL     1       8.014   9.551   8.574  1.00  0.00     0.173 A 
ATOM     65  F   UNL     1       7.844   6.237  10.065  1.00  0.00    -0.203 F 
ATOM     66  C   UNL     1       7.226   8.333  10.940  1.00  0.00     0.198 A 
ATOM     67  C   UNL     1       7.513  10.318   9.622  1.00  0.00     0.198 A 
ATOM     68  F   UNL     1       8.380  10.168   7.440  1.00  0.00    -0.203 F 
ATOM     69  F   UNL     1       6.818   7.740  12.071  1.00  0.00    -0.200 F 
ATOM     70  C   UNL     1       7.114   9.709  10.801  1.00  0.00     0.200 A 
ATOM     71  F   UNL     1       7.417  11.648   9.489  1.00  0.00    -0.200 F 
ATOM     72  F   UNL     1       6.617  10.447  11.803  1.00  0.00    -0.200 F 
ENDBRANCH  48  62
BRANCH  49  73
ATOM     73  C   UNL     1      11.622   2.763   1.048  1.00  0.00     0.064 A 
ATOM     74  C   UNL     1      12.581   1.754   1.208  1.00  0.00     0.173 A 
ATOM     75  C   UNL     1      11.176   3.039  -0.254  1.00  0.00     0.173 A 
ATOM     76  F   UNL     1      13.058   1.472   2.429  1.00  0.00    -0.203 F 
ATOM     77  C   UNL     1      13.086   1.061   0.109  1.00  0.00     0.198 A 
ATOM     78  C   UNL     1      11.660   2.327  -1.348  1.00  0.00     0.198 A 
ATOM     79  F   UNL     1      10.260   3.997  -0.461  1.00  0.00    -0.203 F 
ATOM     80  F   UNL     1      14.034   0.130   0.285  1.00  0.00    -0.200 F 
ATOM     81  C   UNL     1      12.620   1.343  -1.167  1.00  0.00     0.200 A 
ATOM     82  F   UNL     1      11.199   2.595  -2.577  1.00  0.00    -0.200 F 
ATOM     83  F   UNL     1      13.102   0.673  -2.222  1.00  0.00    -0.200 F 
ENDBRANCH  49  73
BRANCH  61  84
ATOM     84  C   UNL     1      14.492   7.413   5.379  1.00  0.00     0.064 A 
ATOM     85  C   UNL     1      14.962   8.357   4.455  1.00  0.00     0.173 A 
ATOM     86  C   UNL     1      15.332   7.063   6.447  1.00  0.00     0.173 A 
ATOM     87  F   UNL     1      14.202   8.712   3.407  1.00  0.00    -0.203 F 
ATOM     88  C   UNL     1      16.229   8.918   4.587  1.00  0.00     0.198 A 
ATOM     89  C   UNL     1      16.587   7.647   6.592  1.00  0.00     0.198 A 
ATOM     90  F   UNL     1      14.926   6.169   7.361  1.00  0.00    -0.203 F 
ATOM     91  F   UNL     1      16.673   9.791   3.672  1.00  0.00    -0.200 F 
ATOM     92  C   UNL     1      17.037   8.570   5.660  1.00  0.00     0.200 A 
ATOM     93  F   UNL     1      17.361   7.319   7.636  1.00  0.00    -0.200 F 
ATOM     94  F   UNL     1      18.251   9.121   5.793  1.00  0.00    -0.200 F 
ENDBRANCH  61  84
ENDBRANCH  35  36
ENDBRANCH  28  30
ENDBRANCH  27  28
ENDBRANCH  26  27
ENDBRANCH  25  26
ENDBRANCH   1  25
TORSDOF 17
