REMARK SMILES Cn1cc(/C=C2\SC(=S)N(c3cccc(C(=O)OCCOCCOC(=O)c4ccc(-c5c6nc(c(-c7c(F)c(F)c(F)c(F)c7F)c7ccc([nH]7)c(-c7c(F)c(F)c(F)c(F)c7F)c7nc(c(-c8c(F)c(F)c(F)c(F)c8F)c8ccc5[nH]8)C=C7)C=C6)cc4)c3)C2=O)c2ccccc21
REMARK SMILES IDX 21 1 20 2 19 3 18 4 16 5 17 6 15 7 11 8 12 9 90 10 13 11
REMARK SMILES IDX 14 12 10 13 5 14 6 15 7 16 91 17 8 18 92 19 9 20 4 21 1 22
REMARK SMILES IDX 2 23 3 24 98 25 93 26 97 27 94 28 96 29 95 30 22 31 23 32
REMARK SMILES IDX 24 33 25 34 26 35 27 36 28 37 89 38 29 39 88 40 30 41 31 42
REMARK SMILES IDX 32 43 82 44 33 45 87 46 81 47 83 48 34 49 86 50 80 51 79 52
REMARK SMILES IDX 35 54 67 55 47 56 66 57 48 58 51 59 65 60 84 61 49 62 50 63
REMARK SMILES IDX 64 65 85 66 52 67 36 68 37 69 45 70 38 71 39 72 43 73 46 74
REMARK SMILES IDX 40 75 41 76 44 77 42 78 68 79 69 80 77 81 70 82 71 83 75 84
REMARK SMILES IDX 78 85 72 86 73 87 76 88 74 89 53 90 54 91 62 92 55 93 56 94
REMARK SMILES IDX 60 95 63 96 57 97 58 98 61 99 59 100
REMARK H PARENT 83 53 51 64
REMARK Flexibility Score: inf
ROOT
ATOM      1  O   UNL     1      -0.676 -11.560   5.642  1.00  0.00    -0.374 OA
ENDROOT
BRANCH   1   2
ATOM      2  C   UNL     1      -0.545 -10.649   6.731  1.00  0.00     0.202 C 
BRANCH   2   3
ATOM      3  C   UNL     1       0.848 -10.071   6.999  1.00  0.00     0.261 C 
BRANCH   3   4
ATOM      4  O   UNL     1       1.329  -9.311   5.880  1.00  0.00    -0.460 OA
BRANCH   4   5
ATOM      5  C   UNL     1       2.359  -9.876   5.202  1.00  0.00     0.338 C 
ATOM      6  O   UNL     1       2.991 -10.869   5.525  1.00  0.00    -0.246 OA
BRANCH   5   7
ATOM      7  C   UNL     1       2.507  -9.222   3.881  1.00  0.00     0.062 A 
ATOM      8  C   UNL     1       2.400  -7.276   2.417  1.00  0.00     0.051 A 
ATOM      9  C   UNL     1       2.724  -8.116   1.337  1.00  0.00     0.027 A 
ATOM     10  C   UNL     1       2.256  -7.857   3.687  1.00  0.00     0.042 A 
ATOM     11  C   UNL     1       2.957  -9.481   1.525  1.00  0.00     0.003 A 
ATOM     12  C   UNL     1       2.865 -10.031   2.799  1.00  0.00     0.016 A 
BRANCH   8  13
ATOM     13  N   UNL     1       2.230  -5.865   2.213  1.00  0.00    -0.261 N 
ATOM     14  C   UNL     1       0.966  -3.200   0.083  1.00  0.00     0.031 C 
ATOM     15  C   UNL     1       1.532  -3.908   1.072  1.00  0.00     0.081 C 
ATOM     16  S   UNL     1       2.257  -3.292   2.499  1.00  0.00    -0.054 SA
ATOM     17  C   UNL     1       1.572  -5.396   1.073  1.00  0.00     0.270 C 
ATOM     18  C   UNL     1       2.726  -4.888   3.071  1.00  0.00     0.152 C 
ATOM     19  O   UNL     1       1.052  -6.056   0.181  1.00  0.00    -0.268 OA
ATOM     20  S   UNL     1       3.732  -5.018   4.405  1.00  0.00    -0.051 S 
BRANCH  14  21
ATOM     21  C   UNL     1       0.904  -1.776   0.004  1.00  0.00     0.001 A 
ATOM     22  C   UNL     1       2.410   1.510  -0.058  1.00  0.00     0.149 C 
ATOM     23  N   UNL     1       1.555   0.344  -0.057  1.00  0.00    -0.350 N 
ATOM     24  C   UNL     1       2.005  -0.949  -0.043  1.00  0.00     0.094 A 
ATOM     25  C   UNL     1       0.175   0.372  -0.052  1.00  0.00     0.048 A 
ATOM     26  C   UNL     1      -0.261  -0.958  -0.037  1.00  0.00     0.007 A 
ATOM     27  C   UNL     1      -0.722   1.452  -0.051  1.00  0.00     0.027 A 
ATOM     28  C   UNL     1      -1.649  -1.214  -0.029  1.00  0.00     0.011 A 
ATOM     29  C   UNL     1      -2.090   1.170  -0.038  1.00  0.00     0.002 A 
ATOM     30  C   UNL     1      -2.550  -0.143  -0.032  1.00  0.00     0.001 A 
ENDBRANCH  14  21
ENDBRANCH   8  13
ENDBRANCH   5   7
ENDBRANCH   4   5
ENDBRANCH   3   4
ENDBRANCH   2   3
ENDBRANCH   1   2
BRANCH   1  31
ATOM     31  C   UNL     1      -0.746 -11.011   4.326  1.00  0.00     0.202 C 
BRANCH  31  32
ATOM     32  C   UNL     1      -2.071 -10.363   3.901  1.00  0.00     0.261 C 
BRANCH  32  33
ATOM     33  O   UNL     1      -2.389  -9.191   4.674  1.00  0.00    -0.460 OA
BRANCH  33  34
ATOM     34  C   UNL     1      -3.434  -9.331   5.524  1.00  0.00     0.338 C 
ATOM     35  O   UNL     1      -4.160 -10.304   5.662  1.00  0.00    -0.246 OA
BRANCH  34  36
ATOM     36  C   UNL     1      -3.482  -8.172   6.433  1.00  0.00     0.060 A 
ATOM     37  C   UNL     1      -3.347  -8.407   7.808  1.00  0.00     0.016 A 
ATOM     38  C   UNL     1      -3.703  -6.882   5.951  1.00  0.00     0.016 A 
ATOM     39  C   UNL     1      -3.439  -7.349   8.710  1.00  0.00     0.010 A 
ATOM     40  C   UNL     1      -3.810  -5.824   6.859  1.00  0.00     0.010 A 
ATOM     41  C   UNL     1      -3.691  -6.053   8.242  1.00  0.00    -0.014 A 
BRANCH  41  42
ATOM     42  C   UNL     1      -3.902  -4.937   9.196  1.00  0.00     0.031 A 
ATOM     43  C   UNL     1      -5.296  -4.449   9.464  1.00  0.00     0.074 A 
ATOM     44  C   UNL     1      -2.850  -4.346   9.790  1.00  0.00     0.049 A 
ATOM     45  N   UNL     1      -5.693  -3.408  10.151  1.00  0.00    -0.248 NA
ATOM     46  C   UNL     1      -6.391  -5.236   8.875  1.00  0.00     0.031 C 
ATOM     47  C   UNL     1      -1.455  -4.754   9.634  1.00  0.00     0.029 A 
ATOM     48  N   UNL     1      -2.791  -3.255  10.622  1.00  0.00    -0.354 N 
ATOM     49  C   UNL     1      -7.079  -3.402  10.061  1.00  0.00     0.074 A 
ATOM     50  C   UNL     1      -7.456  -4.536   9.244  1.00  0.00     0.031 C 
ATOM     51  C   UNL     1      -0.673  -3.904  10.321  1.00  0.00     0.029 A 
ATOM     52  C   UNL     1      -1.508  -2.868  10.925  1.00  0.00     0.049 A 
ATOM     53  H   UNL     1      -3.590  -2.795  10.967  1.00  0.00     0.167 HD
ATOM     54  C   UNL     1      -7.952  -2.526  10.611  1.00  0.00     0.037 A 
ATOM     55  C   UNL     1      -1.059  -1.777  11.575  1.00  0.00     0.037 A 
ATOM     56  C   UNL     1      -7.569  -1.407  11.433  1.00  0.00     0.049 A 
ATOM     57  C   UNL     1      -2.053  -0.780  12.118  1.00  0.00     0.074 A 
ATOM     58  C   UNL     1      -8.385  -0.494  12.079  1.00  0.00     0.029 A 
ATOM     59  N   UNL     1      -6.261  -1.039  11.709  1.00  0.00    -0.354 N 
ATOM     60  N   UNL     1      -3.363  -0.804  12.068  1.00  0.00    -0.248 NA
ATOM     61  C   UNL     1      -1.504   0.397  12.806  1.00  0.00     0.031 C 
ATOM     62  C   UNL     1      -7.571   0.465  12.689  1.00  0.00     0.029 A 
ATOM     63  C   UNL     1      -6.247   0.113  12.480  1.00  0.00     0.049 A 
ATOM     64  H   UNL     1      -5.461  -1.525  11.404  1.00  0.00     0.167 HD
ATOM     65  C   UNL     1      -3.793   0.336  12.735  1.00  0.00     0.074 A 
ATOM     66  C   UNL     1      -2.606   1.020  13.201  1.00  0.00     0.031 C 
ATOM     67  C   UNL     1      -5.057   0.781  12.940  1.00  0.00     0.037 A 
BRANCH  54  68
ATOM     68  C   UNL     1      -9.413  -2.711  10.323  1.00  0.00     0.064 A 
ATOM     69  C   UNL     1     -10.156  -3.754  10.894  1.00  0.00     0.173 A 
ATOM     70  C   UNL     1     -10.096  -1.778   9.526  1.00  0.00     0.173 A 
ATOM     71  F   UNL     1      -9.550  -4.677  11.655  1.00  0.00    -0.203 F 
ATOM     72  C   UNL     1     -11.527  -3.862  10.669  1.00  0.00     0.198 A 
ATOM     73  C   UNL     1     -11.470  -1.873   9.326  1.00  0.00     0.198 A 
ATOM     74  F   UNL     1      -9.432  -0.758   8.961  1.00  0.00    -0.203 F 
ATOM     75  F   UNL     1     -12.213  -4.884  11.200  1.00  0.00    -0.200 F 
ATOM     76  C   UNL     1     -12.184  -2.917   9.895  1.00  0.00     0.200 A 
ATOM     77  F   UNL     1     -12.104  -0.950   8.591  1.00  0.00    -0.200 F 
ATOM     78  F   UNL     1     -13.505  -3.012   9.696  1.00  0.00    -0.200 F 
ENDBRANCH  54  68
BRANCH  55  79
ATOM     79  C   UNL     1       0.403  -1.533  11.707  1.00  0.00     0.064 A 
ATOM     80  C   UNL     1       1.031  -1.536  12.960  1.00  0.00     0.173 A 
ATOM     81  C   UNL     1       1.194  -1.247  10.584  1.00  0.00     0.173 A 
ATOM     82  F   UNL     1       0.313  -1.776  14.068  1.00  0.00    -0.203 F 
ATOM     83  C   UNL     1       2.385  -1.231  13.088  1.00  0.00     0.198 A 
ATOM     84  C   UNL     1       2.555  -0.977  10.709  1.00  0.00     0.198 A 
ATOM     85  F   UNL     1       0.644  -1.228   9.361  1.00  0.00    -0.203 F 
ATOM     86  F   UNL     1       2.944  -1.175  14.305  1.00  0.00    -0.200 F 
ATOM     87  C   UNL     1       3.147  -0.957  11.962  1.00  0.00     0.200 A 
ATOM     88  F   UNL     1       3.289  -0.724   9.617  1.00  0.00    -0.200 F 
ATOM     89  F   UNL     1       4.447  -0.658  12.087  1.00  0.00    -0.200 F 
ENDBRANCH  55  79
BRANCH  67  90
ATOM     90  C   UNL     1      -5.226   2.051  13.724  1.00  0.00     0.064 A 
ATOM     91  C   UNL     1      -4.868   3.299  13.193  1.00  0.00     0.173 A 
ATOM     92  C   UNL     1      -5.797   2.025  15.007  1.00  0.00     0.173 A 
ATOM     93  F   UNL     1      -4.305   3.378  11.978  1.00  0.00    -0.203 F 
ATOM     94  C   UNL     1      -5.050   4.469  13.926  1.00  0.00     0.198 A 
ATOM     95  C   UNL     1      -6.010   3.200  15.722  1.00  0.00     0.198 A 
ATOM     96  F   UNL     1      -6.166   0.859  15.559  1.00  0.00    -0.203 F 
ATOM     97  F   UNL     1      -4.653   5.644  13.417  1.00  0.00    -0.200 F 
ATOM     98  C   UNL     1      -5.629   4.420  15.185  1.00  0.00     0.200 A 
ATOM     99  F   UNL     1      -6.585   3.151  16.932  1.00  0.00    -0.200 F 
ATOM    100  F   UNL     1      -5.814   5.548  15.884  1.00  0.00    -0.200 F 
ENDBRANCH  67  90
ENDBRANCH  41  42
ENDBRANCH  34  36
ENDBRANCH  33  34
ENDBRANCH  32  33
ENDBRANCH  31  32
ENDBRANCH   1  31
TORSDOF 16
