REMARK SMILES CCC[C@H](C)C[N@H+]1[C@@H]2CC[C@H]1C[C@H](CC(=O)OCCOCCOC(=O)c1ccc(-c3c4nc(c(-c5c(F)c(F)c(F)c(F)c5F)c5ccc([nH]5)c(-c5c(F)c(F)c(F)c(F)c5F)c5nc(c(-c6c(F)c(F)c(F)c(F)c6F)c6ccc3[nH]6)C=C5)C=C4)cc1)C2
REMARK SMILES IDX 18 1 17 2 15 3 16 4 14 5 13 6 7 7 8 8 11 9 9 11 89 12 10 13
REMARK SMILES IDX 12 14 6 15 4 16 5 17 3 18 2 19 1 20 19 21 20 22 21 23 22 24
REMARK SMILES IDX 23 25 24 26 25 27 26 28 27 29 88 30 28 31 87 32 29 33 30 34
REMARK SMILES IDX 31 35 81 36 32 37 86 38 80 39 82 40 33 41 85 42 79 43 78 44
REMARK SMILES IDX 34 46 66 47 46 48 65 49 47 50 50 51 64 52 83 53 48 54 49 55
REMARK SMILES IDX 63 57 84 58 51 59 35 60 36 61 44 62 37 63 38 64 42 65 45 66
REMARK SMILES IDX 39 67 40 68 43 69 41 70 67 71 68 72 76 73 69 74 70 75 74 76
REMARK SMILES IDX 77 77 71 78 72 79 75 80 73 81 52 82 53 83 61 84 54 85 55 86
REMARK SMILES IDX 59 87 62 88 56 89 57 90 60 91 58 92
REMARK H PARENT 7 10 82 45 50 56
REMARK Flexibility Score: inf
ROOT
ATOM      1  C   UNL     1       1.157   1.532  -1.628  1.00  0.00     0.261 C 
ENDROOT
BRANCH   1   2
ATOM      2  O   UNL     1       1.446   0.342  -0.881  1.00  0.00    -0.463 OA
BRANCH   2   3
ATOM      3  C   UNL     1       1.132  -0.840  -1.446  1.00  0.00     0.306 C 
ATOM      4  O   UNL     1       0.371  -0.970  -2.398  1.00  0.00    -0.252 OA
BRANCH   3   5
ATOM      5  C   UNL     1       1.904  -2.019  -0.867  1.00  0.00     0.126 C 
BRANCH   5   6
ATOM      6  C   UNL     1       2.771  -1.998   0.436  1.00  0.00     0.012 C 
ATOM      7  N   UNL     1       2.085  -2.241   3.279  1.00  0.00    -0.330 N 
ATOM      8  C   UNL     1       2.850  -3.327   2.675  1.00  0.00     0.184 C 
ATOM      9  C   UNL     1       2.778  -1.034   2.883  1.00  0.00     0.184 C 
ATOM     10  H   UNL     1       2.057  -2.167   4.296  1.00  0.00     0.348 HD
ATOM     11  C   UNL     1       4.294  -2.922   2.983  1.00  0.00     0.071 C 
ATOM     12  C   UNL     1       2.569  -3.356   1.171  1.00  0.00     0.069 C 
ATOM     13  C   UNL     1       4.217  -1.423   3.266  1.00  0.00     0.071 C 
ATOM     14  C   UNL     1       2.722  -0.762   1.371  1.00  0.00     0.069 C 
BRANCH   7  15
ATOM     15  C   UNL     1       0.645  -2.435   3.415  1.00  0.00     0.265 C 
BRANCH  15  16
ATOM     16  C   UNL     1      -0.485  -1.440   2.998  1.00  0.00     0.041 C 
ATOM     17  C   UNL     1      -0.439  -0.940   1.565  1.00  0.00     0.013 C 
BRANCH  16  18
ATOM     18  C   UNL     1      -1.882  -2.058   3.339  1.00  0.00     0.009 C 
BRANCH  18  19
ATOM     19  C   UNL     1      -2.776  -2.584   2.199  1.00  0.00    -0.003 C 
ATOM     20  C   UNL     1      -2.194  -3.727   1.382  1.00  0.00     0.004 C 
ENDBRANCH  18  19
ENDBRANCH  16  18
ENDBRANCH  15  16
ENDBRANCH   7  15
ENDBRANCH   5   6
ENDBRANCH   3   5
ENDBRANCH   2   3
ENDBRANCH   1   2
BRANCH   1  21
ATOM     21  C   UNL     1       2.472   2.291  -1.817  1.00  0.00     0.202 C 
BRANCH  21  22
ATOM     22  O   UNL     1       3.419   1.648  -2.677  1.00  0.00    -0.374 OA
BRANCH  22  23
ATOM     23  C   UNL     1       4.150   0.546  -2.137  1.00  0.00     0.202 C 
BRANCH  23  24
ATOM     24  C   UNL     1       5.439   0.898  -1.393  1.00  0.00     0.261 C 
BRANCH  24  25
ATOM     25  O   UNL     1       5.153   1.630  -0.189  1.00  0.00    -0.460 OA
BRANCH  25  26
ATOM     26  C   UNL     1       5.377   2.960  -0.290  1.00  0.00     0.338 C 
ATOM     27  O   UNL     1       5.895   3.547  -1.224  1.00  0.00    -0.246 OA
BRANCH  26  28
ATOM     28  C   UNL     1       4.764   3.681   0.845  1.00  0.00     0.060 A 
ATOM     29  C   UNL     1       4.165   4.911   0.546  1.00  0.00     0.016 A 
ATOM     30  C   UNL     1       4.842   3.235   2.167  1.00  0.00     0.016 A 
ATOM     31  C   UNL     1       3.743   5.748   1.571  1.00  0.00     0.010 A 
ATOM     32  C   UNL     1       4.413   4.078   3.200  1.00  0.00     0.010 A 
ATOM     33  C   UNL     1       3.923   5.364   2.906  1.00  0.00    -0.014 A 
BRANCH  33  34
ATOM     34  C   UNL     1       3.795   6.403   3.958  1.00  0.00     0.031 A 
ATOM     35  C   UNL     1       5.046   7.047   4.494  1.00  0.00     0.074 A 
ATOM     36  C   UNL     1       2.588   6.847   4.350  1.00  0.00     0.049 A 
ATOM     37  N   UNL     1       5.178   8.016   5.364  1.00  0.00    -0.248 NA
ATOM     38  C   UNL     1       6.324   6.532   3.973  1.00  0.00     0.031 C 
ATOM     39  C   UNL     1       1.305   6.342   3.865  1.00  0.00     0.029 A 
ATOM     40  N   UNL     1       2.249   7.837   5.238  1.00  0.00    -0.354 N 
ATOM     41  C   UNL     1       6.546   8.222   5.495  1.00  0.00     0.074 A 
ATOM     42  C   UNL     1       7.205   7.255   4.646  1.00  0.00     0.031 C 
ATOM     43  C   UNL     1       0.315   7.029   4.461  1.00  0.00     0.029 A 
ATOM     44  C   UNL     1       0.894   8.002   5.386  1.00  0.00     0.049 A 
ATOM     45  H   UNL     1       2.914   8.377   5.723  1.00  0.00     0.167 HD
ATOM     46  C   UNL     1       7.195   9.146   6.243  1.00  0.00     0.037 A 
ATOM     47  C   UNL     1       0.204   8.838   6.186  1.00  0.00     0.037 A 
ATOM     48  C   UNL     1       6.540  10.117   7.078  1.00  0.00     0.049 A 
ATOM     49  C   UNL     1       0.951   9.811   7.061  1.00  0.00     0.074 A 
ATOM     50  C   UNL     1       7.109  11.104   7.863  1.00  0.00     0.029 A 
ATOM     51  N   UNL     1       5.167  10.219   7.239  1.00  0.00    -0.354 N 
ATOM     52  N   UNL     1       2.243  10.013   7.162  1.00  0.00    -0.248 NA
ATOM     53  C   UNL     1       0.141  10.677   7.930  1.00  0.00     0.031 C 
ATOM     54  C   UNL     1       6.082  11.770   8.539  1.00  0.00     0.029 A 
ATOM     55  C   UNL     1       4.870  11.236   8.132  1.00  0.00     0.049 A 
ATOM     56  H   UNL     1       4.500   9.653   6.786  1.00  0.00     0.167 HD
ATOM     57  C   UNL     1       2.399  11.047   8.076  1.00  0.00     0.074 A 
ATOM     58  C   UNL     1       1.069  11.438   8.494  1.00  0.00     0.031 C 
ATOM     59  C   UNL     1       3.540  11.622   8.529  1.00  0.00     0.037 A 
BRANCH  46  60
ATOM     60  C   UNL     1       8.696   9.134   6.211  1.00  0.00     0.064 A 
ATOM     61  C   UNL     1       9.415   9.555   5.083  1.00  0.00     0.173 A 
ATOM     62  C   UNL     1       9.424   8.726   7.339  1.00  0.00     0.173 A 
ATOM     63  F   UNL     1       8.767   9.939   3.973  1.00  0.00    -0.203 F 
ATOM     64  C   UNL     1      10.808   9.545   5.077  1.00  0.00     0.198 A 
ATOM     65  C   UNL     1      10.816   8.746   7.340  1.00  0.00     0.198 A 
ATOM     66  F   UNL     1       8.784   8.317   8.445  1.00  0.00    -0.203 F 
ATOM     67  F   UNL     1      11.475   9.907   3.972  1.00  0.00    -0.200 F 
ATOM     68  C   UNL     1      11.507   9.148   6.207  1.00  0.00     0.200 A 
ATOM     69  F   UNL     1      11.489   8.373   8.438  1.00  0.00    -0.200 F 
ATOM     70  F   UNL     1      12.847   9.146   6.203  1.00  0.00    -0.200 F 
ENDBRANCH  46  60
BRANCH  47  71
ATOM     71  C   UNL     1      -1.282   8.787   6.203  1.00  0.00     0.064 A 
ATOM     72  C   UNL     1      -2.052   9.851   5.714  1.00  0.00     0.173 A 
ATOM     73  C   UNL     1      -1.961   7.679   6.730  1.00  0.00     0.173 A 
ATOM     74  F   UNL     1      -1.449  10.945   5.224  1.00  0.00    -0.203 F 
ATOM     75  C   UNL     1      -3.444   9.816   5.768  1.00  0.00     0.198 A 
ATOM     76  C   UNL     1      -3.353   7.632   6.757  1.00  0.00     0.198 A 
ATOM     77  F   UNL     1      -1.271   6.636   7.214  1.00  0.00    -0.203 F 
ATOM     78  F   UNL     1      -4.155  10.867   5.338  1.00  0.00    -0.200 F 
ATOM     79  C   UNL     1      -4.093   8.705   6.284  1.00  0.00     0.200 A 
ATOM     80  F   UNL     1      -3.976   6.551   7.245  1.00  0.00    -0.200 F 
ATOM     81  F   UNL     1      -5.432   8.671   6.333  1.00  0.00    -0.200 F 
ENDBRANCH  47  71
BRANCH  59  82
ATOM     82  C   UNL     1       3.406  12.764   9.495  1.00  0.00     0.064 A 
ATOM     83  C   UNL     1       2.998  12.564  10.822  1.00  0.00     0.173 A 
ATOM     84  C   UNL     1       3.735  14.069   9.099  1.00  0.00     0.173 A 
ATOM     85  F   UNL     1       2.660  11.337  11.247  1.00  0.00    -0.203 F 
ATOM     86  C   UNL     1       2.900  13.633  11.709  1.00  0.00     0.198 A 
ATOM     87  C   UNL     1       3.666  15.131   9.997  1.00  0.00     0.198 A 
ATOM     88  F   UNL     1       4.140  14.313   7.843  1.00  0.00    -0.203 F 
ATOM     89  F   UNL     1       2.462  13.426  12.959  1.00  0.00    -0.200 F 
ATOM     90  C   UNL     1       3.241  14.913  11.298  1.00  0.00     0.200 A 
ATOM     91  F   UNL     1       4.011  16.364   9.602  1.00  0.00    -0.200 F 
ATOM     92  F   UNL     1       3.153  15.939  12.156  1.00  0.00    -0.200 F 
ENDBRANCH  59  82
ENDBRANCH  33  34
ENDBRANCH  26  28
ENDBRANCH  25  26
ENDBRANCH  24  25
ENDBRANCH  23  24
ENDBRANCH  22  23
ENDBRANCH  21  22
ENDBRANCH   1  21
TORSDOF 19
