REMARK SMILES CCC[NH2+][C@]1(C(=O)OCCOCCOC(=O)c2ccc(-c3c4nc(c(-c5c(F)c(F)c(F)c(F)c5F)c5ccc([nH]5)c(-c5c(F)c(F)c(F)c(F)c5F)c5nc(c(-c6c(F)c(F)c(F)c(F)c6F)c6ccc3[nH]6)C=C5)C=C4)cc2)CCC[C@@H]([N@@H+](C)[C@@H](C)C2CC2)C1
REMARK SMILES IDX 10 1 9 2 8 3 6 4 7 5 5 6 80 7 91 8 81 9 83 10 82 11 4 12
REMARK SMILES IDX 3 15 2 16 1 17 84 18 85 19 86 21 87 22 88 23 89 24 90 25
REMARK SMILES IDX 11 26 12 27 13 28 14 29 15 30 16 31 17 32 18 33 79 34 19 35
REMARK SMILES IDX 78 36 20 37 21 38 22 39 72 40 23 41 77 42 71 43 73 44 24 45
REMARK SMILES IDX 76 46 70 47 69 48 25 50 57 51 37 52 56 53 38 54 41 55 55 56
REMARK SMILES IDX 74 57 39 58 40 59 54 61 75 62 42 63 26 64 27 65 35 66 28 67
REMARK SMILES IDX 29 68 33 69 36 70 30 71 31 72 34 73 32 74 58 75 59 76 67 77
REMARK SMILES IDX 60 78 61 79 65 80 68 81 62 82 63 83 66 84 64 85 43 86 44 87
REMARK SMILES IDX 52 88 45 89 46 90 50 91 53 92 47 93 48 94 51 95 49 96
REMARK H PARENT 4 13 4 14 84 20 73 49 41 60
REMARK Flexibility Score: inf
ROOT
ATOM      1  C   UNL     1      -0.749   0.352   0.662  1.00  0.00     0.202 C 
ENDROOT
BRANCH   1   2
ATOM      2  C   UNL     1       0.717   0.502   1.068  1.00  0.00     0.261 C 
BRANCH   2   3
ATOM      3  O   UNL     1       0.935   1.730   1.783  1.00  0.00    -0.459 OA
BRANCH   3   4
ATOM      4  C   UNL     1       1.505   2.725   1.050  1.00  0.00     0.368 C 
ATOM      5  O   UNL     1       1.866   2.597  -0.119  1.00  0.00    -0.245 OA
BRANCH   4   6
ATOM      6  C   UNL     1       1.715   4.048   1.860  1.00  0.00     0.200 C 
ATOM      7  C   UNL     1       1.367   5.174   0.851  1.00  0.00     0.081 C 
ATOM      8  C   UNL     1       0.736   4.176   3.069  1.00  0.00     0.146 C 
ATOM      9  C   UNL     1       1.392   6.569   1.453  1.00  0.00     0.013 C 
ATOM     10  C   UNL     1       0.636   5.596   3.688  1.00  0.00     0.190 C 
ATOM     11  C   UNL     1       0.418   6.683   2.622  1.00  0.00     0.065 C 
BRANCH   6  12
ATOM     12  N   UNL     1       3.167   4.025   2.145  1.00  0.00    -0.332 N 
ATOM     13  H   UNL     1       3.438   3.042   2.181  1.00  0.00     0.347 HD
ATOM     14  H   UNL     1       3.546   4.609   1.400  1.00  0.00     0.347 HD
BRANCH  12  15
ATOM     15  C   UNL     1       3.713   4.641   3.331  1.00  0.00     0.261 C 
BRANCH  15  16
ATOM     16  C   UNL     1       5.230   4.439   3.413  1.00  0.00     0.058 C 
ATOM     17  C   UNL     1       5.984   5.125   2.281  1.00  0.00     0.010 C 
ENDBRANCH  15  16
ENDBRANCH  12  15
ENDBRANCH   6  12
BRANCH  10  18
ATOM     18  N   UNL     1      -0.206   5.684   4.904  1.00  0.00    -0.332 N 
ATOM     19  C   UNL     1       0.201   6.816   5.750  1.00  0.00     0.333 C 
ATOM     20  H   UNL     1       0.013   4.768   5.296  1.00  0.00     0.348 HD
BRANCH  18  21
ATOM     21  C   UNL     1      -1.673   5.574   4.866  1.00  0.00     0.184 C 
ATOM     22  C   UNL     1      -2.450   6.600   4.032  1.00  0.00     0.075 C 
BRANCH  21  23
ATOM     23  C   UNL     1      -2.163   4.173   4.574  1.00  0.00     0.047 C 
ATOM     24  C   UNL     1      -1.510   2.918   5.113  1.00  0.00     0.010 C 
ATOM     25  C   UNL     1      -2.797   3.393   5.709  1.00  0.00     0.010 C 
ENDBRANCH  21  23
ENDBRANCH  18  21
ENDBRANCH  10  18
ENDBRANCH   4   6
ENDBRANCH   3   4
ENDBRANCH   2   3
ENDBRANCH   1   2
BRANCH   1  26
ATOM     26  O   UNL     1      -1.219   1.280  -0.317  1.00  0.00    -0.374 OA
BRANCH  26  27
ATOM     27  C   UNL     1      -1.654   2.549   0.170  1.00  0.00     0.202 C 
BRANCH  27  28
ATOM     28  C   UNL     1      -3.109   2.608   0.645  1.00  0.00     0.261 C 
BRANCH  28  29
ATOM     29  O   UNL     1      -3.306   1.795   1.815  1.00  0.00    -0.460 OA
BRANCH  29  30
ATOM     30  C   UNL     1      -3.894   0.601   1.579  1.00  0.00     0.338 C 
ATOM     31  O   UNL     1      -4.384   0.213   0.526  1.00  0.00    -0.246 OA
BRANCH  30  32
ATOM     32  C   UNL     1      -3.731  -0.285   2.747  1.00  0.00     0.060 A 
ATOM     33  C   UNL     1      -3.393  -1.621   2.506  1.00  0.00     0.016 A 
ATOM     34  C   UNL     1      -3.965   0.158   4.050  1.00  0.00     0.016 A 
ATOM     35  C   UNL     1      -3.387  -2.537   3.555  1.00  0.00     0.010 A 
ATOM     36  C   UNL     1      -3.930  -0.754   5.109  1.00  0.00     0.010 A 
ATOM     37  C   UNL     1      -3.714  -2.119   4.853  1.00  0.00    -0.014 A 
BRANCH  37  38
ATOM     38  C   UNL     1      -4.066  -3.145   5.867  1.00  0.00     0.031 A 
ATOM     39  C   UNL     1      -5.522  -3.374   6.182  1.00  0.00     0.074 A 
ATOM     40  C   UNL     1      -3.126  -3.915   6.440  1.00  0.00     0.049 A 
ATOM     41  N   UNL     1      -6.076  -4.239   6.994  1.00  0.00    -0.248 NA
ATOM     42  C   UNL     1      -6.486  -2.500   5.493  1.00  0.00     0.031 C 
ATOM     43  C   UNL     1      -1.688  -3.808   6.207  1.00  0.00     0.029 A 
ATOM     44  N   UNL     1      -3.248  -4.949   7.335  1.00  0.00    -0.354 N 
ATOM     45  C   UNL     1      -7.444  -4.009   6.913  1.00  0.00     0.074 A 
ATOM     46  C   UNL     1      -7.634  -2.886   6.024  1.00  0.00     0.031 C 
ATOM     47  C   UNL     1      -1.058  -4.743   6.938  1.00  0.00     0.029 A 
ATOM     48  C   UNL     1      -2.047  -5.501   7.704  1.00  0.00     0.049 A 
ATOM     49  H   UNL     1      -4.115  -5.265   7.679  1.00  0.00     0.167 HD
ATOM     50  C   UNL     1      -8.457  -4.687   7.504  1.00  0.00     0.037 A 
ATOM     51  C   UNL     1      -1.780  -6.502   8.565  1.00  0.00     0.037 A 
ATOM     52  C   UNL     1      -8.271  -5.811   8.382  1.00  0.00     0.049 A 
ATOM     53  C   UNL     1      -2.919  -7.225   9.238  1.00  0.00     0.074 A 
ATOM     54  C   UNL     1      -9.229  -6.571   9.029  1.00  0.00     0.029 A 
ATOM     55  N   UNL     1      -7.037  -6.335   8.738  1.00  0.00    -0.354 N 
ATOM     56  N   UNL     1      -4.210  -7.018   9.135  1.00  0.00    -0.248 NA
ATOM     57  C   UNL     1      -2.562  -8.335  10.132  1.00  0.00     0.031 C 
ATOM     58  C   UNL     1      -8.573  -7.527   9.812  1.00  0.00     0.029 A 
ATOM     59  C   UNL     1      -7.208  -7.402   9.605  1.00  0.00     0.049 A 
ATOM     60  H   UNL     1      -6.168  -5.999   8.420  1.00  0.00     0.167 HD
ATOM     61  C   UNL     1      -4.819  -7.989   9.920  1.00  0.00     0.074 A 
ATOM     62  C   UNL     1      -3.754  -8.793  10.485  1.00  0.00     0.031 C 
ATOM     63  C   UNL     1      -6.139  -8.200  10.150  1.00  0.00     0.037 A 
BRANCH  50  64
ATOM     64  C   UNL     1      -9.855  -4.211   7.225  1.00  0.00     0.064 A 
ATOM     65  C   UNL     1     -10.441  -4.343   5.955  1.00  0.00     0.173 A 
ATOM     66  C   UNL     1     -10.617  -3.610   8.237  1.00  0.00     0.173 A 
ATOM     67  F   UNL     1      -9.749  -4.895   4.947  1.00  0.00    -0.203 F 
ATOM     68  C   UNL     1     -11.719  -3.853   5.700  1.00  0.00     0.198 A 
ATOM     69  C   UNL     1     -11.909  -3.153   7.987  1.00  0.00     0.198 A 
ATOM     70  F   UNL     1     -10.108  -3.460   9.469  1.00  0.00    -0.203 F 
ATOM     71  F   UNL     1     -12.229  -3.929   4.463  1.00  0.00    -0.200 F 
ATOM     72  C   UNL     1     -12.454  -3.264   6.717  1.00  0.00     0.200 A 
ATOM     73  F   UNL     1     -12.622  -2.594   8.975  1.00  0.00    -0.200 F 
ATOM     74  F   UNL     1     -13.683  -2.791   6.470  1.00  0.00    -0.200 F 
ENDBRANCH  50  64
BRANCH  51  75
ATOM     75  C   UNL     1      -0.370  -6.892   8.825  1.00  0.00     0.064 A 
ATOM     76  C   UNL     1       0.141  -8.118   8.379  1.00  0.00     0.173 A 
ATOM     77  C   UNL     1       0.496  -6.043   9.530  1.00  0.00     0.173 A 
ATOM     78  F   UNL     1      -0.654  -8.975   7.721  1.00  0.00    -0.203 F 
ATOM     79  C   UNL     1       1.459  -8.488   8.642  1.00  0.00     0.198 A 
ATOM     80  C   UNL     1       1.821  -6.400   9.768  1.00  0.00     0.198 A 
ATOM     81  F   UNL     1       0.056  -4.858   9.979  1.00  0.00    -0.203 F 
ATOM     82  F   UNL     1       1.909  -9.685   8.242  1.00  0.00    -0.200 F 
ATOM     83  C   UNL     1       2.300  -7.626   9.330  1.00  0.00     0.200 A 
ATOM     84  F   UNL     1       2.633  -5.559  10.422  1.00  0.00    -0.200 F 
ATOM     85  F   UNL     1       3.568  -7.979   9.577  1.00  0.00    -0.200 F 
ENDBRANCH  51  75
BRANCH  63  86
ATOM     86  C   UNL     1      -6.513  -9.378  11.005  1.00  0.00     0.064 A 
ATOM     87  C   UNL     1      -6.260  -9.406  12.384  1.00  0.00     0.173 A 
ATOM     88  C   UNL     1      -7.164 -10.485  10.436  1.00  0.00     0.173 A 
ATOM     89  F   UNL     1      -5.632  -8.379  12.976  1.00  0.00    -0.203 F 
ATOM     90  C   UNL     1      -6.612 -10.512  13.155  1.00  0.00     0.198 A 
ATOM     91  C   UNL     1      -7.544 -11.573  11.215  1.00  0.00     0.198 A 
ATOM     92  F   UNL     1      -7.441 -10.506   9.123  1.00  0.00    -0.203 F 
ATOM     93  F   UNL     1      -6.308 -10.540  14.460  1.00  0.00    -0.200 F 
ATOM     94  C   UNL     1      -7.258 -11.591  12.572  1.00  0.00     0.200 A 
ATOM     95  F   UNL     1      -8.184 -12.608  10.652  1.00  0.00    -0.200 F 
ATOM     96  F   UNL     1      -7.598 -12.653  13.316  1.00  0.00    -0.200 F 
ENDBRANCH  63  86
ENDBRANCH  37  38
ENDBRANCH  30  32
ENDBRANCH  29  30
ENDBRANCH  28  29
ENDBRANCH  27  28
ENDBRANCH  26  27
ENDBRANCH   1  26
TORSDOF 20
