REMARK SMILES CCc1cccc(OCC(=O)N/N=C/c2ccc(C(=O)OCCOCCOC(=O)c3ccc(-c4c5nc(c(-c6c(F)c(F)c(F)c(F)c6F)c6ccc([nH]6)c(-c6c(F)c(F)c(F)c(F)c6F)c6nc(c(-c7c(F)c(F)c(F)c(F)c7F)c7ccc4[nH]7)C=C6)C=C5)cc3)cc2)c1
REMARK SMILES IDX 22 1 21 2 19 3 20 4 18 5 15 6 16 7 94 8 17 9 93 10 14 11
REMARK SMILES IDX 13 12 12 13 10 14 11 15 9 17 8 18 7 19 3 20 4 21 95 22 5 23
REMARK SMILES IDX 6 24 2 25 1 26 23 27 24 28 25 29 26 30 27 31 28 32 29 33
REMARK SMILES IDX 30 34 31 35 92 36 32 37 91 38 33 39 34 40 35 41 85 42 36 43
REMARK SMILES IDX 90 44 84 45 86 46 37 47 89 48 83 49 82 50 38 52 70 53 50 54
REMARK SMILES IDX 69 55 51 56 54 57 68 58 87 59 52 60 53 61 67 63 88 64 55 65
REMARK SMILES IDX 39 66 40 67 48 68 41 69 42 70 46 71 49 72 43 73 44 74 47 75
REMARK SMILES IDX 45 76 71 77 72 78 80 79 73 80 74 81 78 82 81 83 75 84 76 85
REMARK SMILES IDX 79 86 77 87 56 88 57 89 65 90 58 91 59 92 63 93 66 94 60 95
REMARK SMILES IDX 61 96 64 97 62 98
REMARK H PARENT 12 16 86 51 54 62
REMARK Flexibility Score: inf
ROOT
ATOM      1  C   UNL     1       0.536  14.205  -4.050  1.00  0.00     0.261 C 
ENDROOT
BRANCH   1   2
ATOM      2  O   UNL     1      -0.130  12.996  -3.647  1.00  0.00    -0.460 OA
BRANCH   2   3
ATOM      3  C   UNL     1       0.660  11.898  -3.603  1.00  0.00     0.338 C 
ATOM      4  O   UNL     1       1.815  11.806  -3.993  1.00  0.00    -0.246 OA
BRANCH   3   5
ATOM      5  C   UNL     1      -0.008  10.826  -2.833  1.00  0.00     0.060 A 
ATOM      6  C   UNL     1      -1.129   8.783  -1.323  1.00  0.00    -0.005 A 
ATOM      7  C   UNL     1       0.239   9.037  -1.220  1.00  0.00     0.010 A 
ATOM      8  C   UNL     1      -1.949   9.545  -2.159  1.00  0.00     0.010 A 
ATOM      9  C   UNL     1       0.802  10.048  -1.992  1.00  0.00     0.016 A 
ATOM     10  C   UNL     1      -1.388  10.588  -2.904  1.00  0.00     0.016 A 
BRANCH   6  11
ATOM     11  C   UNL     1      -1.674   7.685  -0.514  1.00  0.00     0.141 C 
ATOM     12  N   UNL     1      -2.388   6.760  -1.052  1.00  0.00    -0.181 NA
BRANCH  12  13
ATOM     13  N   UNL     1      -2.813   5.671  -0.351  1.00  0.00    -0.244 N 
ATOM     14  C   UNL     1      -2.386   5.034   0.785  1.00  0.00     0.277 C 
ATOM     15  O   UNL     1      -3.003   4.022   1.145  1.00  0.00    -0.269 OA
ATOM     16  H   UNL     1      -3.607   5.247  -0.751  1.00  0.00     0.193 HD
BRANCH  14  17
ATOM     17  C   UNL     1      -1.214   5.532   1.631  1.00  0.00     0.331 C 
BRANCH  17  18
ATOM     18  O   UNL     1       0.020   5.748   0.965  1.00  0.00    -0.484 OA
BRANCH  18  19
ATOM     19  C   UNL     1       0.703   4.645   0.530  1.00  0.00     0.120 A 
ATOM     20  C   UNL     1       1.172   2.254   0.340  1.00  0.00    -0.045 A 
ATOM     21  C   UNL     1       2.267   2.550  -0.478  1.00  0.00     0.004 A 
ATOM     22  C   UNL     1       0.406   3.319   0.850  1.00  0.00     0.050 A 
ATOM     23  C   UNL     1       2.576   3.873  -0.796  1.00  0.00     0.004 A 
ATOM     24  C   UNL     1       1.797   4.915  -0.292  1.00  0.00     0.046 A 
BRANCH  20  25
ATOM     25  C   UNL     1       0.797   0.850   0.757  1.00  0.00     0.032 C 
ATOM     26  C   UNL     1       1.256  -0.274  -0.161  1.00  0.00     0.009 C 
ENDBRANCH  20  25
ENDBRANCH  18  19
ENDBRANCH  17  18
ENDBRANCH  14  17
ENDBRANCH  12  13
ENDBRANCH   6  11
ENDBRANCH   3   5
ENDBRANCH   2   3
ENDBRANCH   1   2
BRANCH   1  27
ATOM     27  C   UNL     1       0.651  15.188  -2.882  1.00  0.00     0.202 C 
BRANCH  27  28
ATOM     28  O   UNL     1       1.458  14.760  -1.786  1.00  0.00    -0.374 OA
BRANCH  28  29
ATOM     29  C   UNL     1       0.835  13.919  -0.813  1.00  0.00     0.202 C 
BRANCH  29  30
ATOM     30  C   UNL     1      -0.048  14.630   0.220  1.00  0.00     0.261 C 
BRANCH  30  31
ATOM     31  O   UNL     1      -1.265  15.123  -0.372  1.00  0.00    -0.460 OA
BRANCH  31  32
ATOM     32  C   UNL     1      -1.354  16.469  -0.464  1.00  0.00     0.338 C 
ATOM     33  O   UNL     1      -0.569  17.299  -0.026  1.00  0.00    -0.246 OA
BRANCH  32  34
ATOM     34  C   UNL     1      -2.474  16.835  -1.350  1.00  0.00     0.060 A 
ATOM     35  C   UNL     1      -2.202  17.708  -2.412  1.00  0.00     0.016 A 
ATOM     36  C   UNL     1      -3.775  16.387  -1.115  1.00  0.00     0.016 A 
ATOM     37  C   UNL     1      -3.240  18.174  -3.215  1.00  0.00     0.010 A 
ATOM     38  C   UNL     1      -4.817  16.862  -1.917  1.00  0.00     0.010 A 
ATOM     39  C   UNL     1      -4.559  17.783  -2.949  1.00  0.00    -0.014 A 
BRANCH  39  40
ATOM     40  C   UNL     1      -5.680  18.444  -3.661  1.00  0.00     0.031 A 
ATOM     41  C   UNL     1      -6.436  19.544  -2.969  1.00  0.00     0.074 A 
ATOM     42  C   UNL     1      -6.008  18.082  -4.913  1.00  0.00     0.049 A 
ATOM     43  N   UNL     1      -7.475  20.225  -3.379  1.00  0.00    -0.248 NA
ATOM     44  C   UNL     1      -5.955  19.925  -1.631  1.00  0.00     0.031 C 
ATOM     45  C   UNL     1      -5.326  17.058  -5.701  1.00  0.00     0.029 A 
ATOM     46  N   UNL     1      -7.008  18.534  -5.738  1.00  0.00    -0.354 N 
ATOM     47  C   UNL     1      -7.777  21.108  -2.350  1.00  0.00     0.074 A 
ATOM     48  C   UNL     1      -6.831  20.857  -1.284  1.00  0.00     0.031 C 
ATOM     49  C   UNL     1      -5.936  16.949  -6.894  1.00  0.00     0.029 A 
ATOM     50  C   UNL     1      -7.069  17.872  -6.939  1.00  0.00     0.049 A 
ATOM     51  H   UNL     1      -7.622  19.263  -5.492  1.00  0.00     0.167 HD
ATOM     52  C   UNL     1      -8.751  22.048  -2.304  1.00  0.00     0.037 A 
ATOM     53  C   UNL     1      -7.953  17.985  -7.949  1.00  0.00     0.037 A 
ATOM     54  C   UNL     1      -9.688  22.298  -3.367  1.00  0.00     0.049 A 
ATOM     55  C   UNL     1      -9.069  18.994  -7.845  1.00  0.00     0.074 A 
ATOM     56  C   UNL     1     -10.698  23.242  -3.424  1.00  0.00     0.029 A 
ATOM     57  N   UNL     1      -9.733  21.591  -4.560  1.00  0.00    -0.354 N 
ATOM     58  N   UNL     1      -9.332  19.842  -6.881  1.00  0.00    -0.248 NA
ATOM     59  C   UNL     1     -10.008  19.062  -8.974  1.00  0.00     0.031 C 
ATOM     60  C   UNL     1     -11.387  23.073  -4.630  1.00  0.00     0.029 A 
ATOM     61  C   UNL     1     -10.771  22.062  -5.349  1.00  0.00     0.049 A 
ATOM     62  H   UNL     1      -9.119  20.863  -4.809  1.00  0.00     0.167 HD
ATOM     63  C   UNL     1     -10.442  20.565  -7.299  1.00  0.00     0.074 A 
ATOM     64  C   UNL     1     -10.798  20.062  -8.609  1.00  0.00     0.031 C 
ATOM     65  C   UNL     1     -11.104  21.559  -6.657  1.00  0.00     0.037 A 
BRANCH  52  66
ATOM     66  C   UNL     1      -8.868  22.864  -1.049  1.00  0.00     0.064 A 
ATOM     67  C   UNL     1      -7.918  23.839  -0.711  1.00  0.00     0.173 A 
ATOM     68  C   UNL     1      -9.966  22.693  -0.193  1.00  0.00     0.173 A 
ATOM     69  F   UNL     1      -6.843  24.032  -1.489  1.00  0.00    -0.203 F 
ATOM     70  C   UNL     1      -8.051  24.595   0.451  1.00  0.00     0.198 A 
ATOM     71  C   UNL     1     -10.111  23.470   0.953  1.00  0.00     0.198 A 
ATOM     72  F   UNL     1     -10.905  21.776  -0.472  1.00  0.00    -0.203 F 
ATOM     73  F   UNL     1      -7.107  25.490   0.778  1.00  0.00    -0.200 F 
ATOM     74  C   UNL     1      -9.150  24.416   1.278  1.00  0.00     0.200 A 
ATOM     75  F   UNL     1     -11.180  23.304   1.744  1.00  0.00    -0.200 F 
ATOM     76  F   UNL     1      -9.280  25.150   2.392  1.00  0.00    -0.200 F 
ENDBRANCH  52  66
BRANCH  53  77
ATOM     77  C   UNL     1      -7.828  17.113  -9.146  1.00  0.00     0.064 A 
ATOM     78  C   UNL     1      -7.478  17.644 -10.395  1.00  0.00     0.173 A 
ATOM     79  C   UNL     1      -8.072  15.734  -9.068  1.00  0.00     0.173 A 
ATOM     80  F   UNL     1      -7.260  18.961 -10.525  1.00  0.00    -0.203 F 
ATOM     81  C   UNL     1      -7.394  16.831 -11.524  1.00  0.00     0.198 A 
ATOM     82  C   UNL     1      -7.959  14.918 -10.192  1.00  0.00     0.198 A 
ATOM     83  F   UNL     1      -8.411  15.176  -7.896  1.00  0.00    -0.203 F 
ATOM     84  F   UNL     1      -7.103  17.372 -12.715  1.00  0.00    -0.200 F 
ATOM     85  C   UNL     1      -7.628  15.469 -11.420  1.00  0.00     0.200 A 
ATOM     86  F   UNL     1      -8.175  13.600 -10.084  1.00  0.00    -0.200 F 
ATOM     87  F   UNL     1      -7.544  14.688 -12.506  1.00  0.00    -0.200 F 
ENDBRANCH  53  77
BRANCH  65  88
ATOM     88  C   UNL     1     -12.253  22.204  -7.378  1.00  0.00     0.064 A 
ATOM     89  C   UNL     1     -13.475  21.541  -7.564  1.00  0.00     0.173 A 
ATOM     90  C   UNL     1     -12.144  23.523  -7.847  1.00  0.00     0.173 A 
ATOM     91  F   UNL     1     -13.626  20.275  -7.147  1.00  0.00    -0.203 F 
ATOM     92  C   UNL     1     -14.537  22.166  -8.213  1.00  0.00     0.198 A 
ATOM     93  C   UNL     1     -13.217  24.155  -8.468  1.00  0.00     0.198 A 
ATOM     94  F   UNL     1     -10.999  24.204  -7.687  1.00  0.00    -0.203 F 
ATOM     95  F   UNL     1     -15.680  21.498  -8.419  1.00  0.00    -0.200 F 
ATOM     96  C   UNL     1     -14.410  23.474  -8.657  1.00  0.00     0.200 A 
ATOM     97  F   UNL     1     -13.097  25.424  -8.882  1.00  0.00    -0.200 F 
ATOM     98  F   UNL     1     -15.436  24.077  -9.272  1.00  0.00    -0.200 F 
ENDBRANCH  65  88
ENDBRANCH  39  40
ENDBRANCH  32  34
ENDBRANCH  31  32
ENDBRANCH  30  31
ENDBRANCH  29  30
ENDBRANCH  28  29
ENDBRANCH  27  28
ENDBRANCH   1  27
TORSDOF 20
