REMARK SMILES CC(C)=CC[C@@]1(C(=O)OCCOCCOC(=O)c2ccc(-c3c4nc(c(-c5c(F)c(F)c(F)c(F)c5F)c5ccc([nH]5)c(-c5c(F)c(F)c(F)c(F)c5F)c5nc(c(-c6c(F)c(F)c(F)c(F)c6F)c6ccc3[nH]6)C=C5)C=C4)cc2)CCC[C@H](C)C1
REMARK SMILES IDX 12 1 11 2 10 3 9 4 7 5 8 6 6 7 81 8 86 9 82 10 84 11 83 12
REMARK SMILES IDX 85 13 5 14 4 15 1 16 2 17 3 18 13 19 14 20 15 21 16 22 17 23
REMARK SMILES IDX 18 24 19 25 80 26 20 27 79 28 21 29 22 30 23 31 73 32 24 33
REMARK SMILES IDX 78 34 72 35 74 36 25 37 77 38 71 39 70 40 26 42 58 43 38 44
REMARK SMILES IDX 57 45 39 46 42 47 56 48 75 49 40 50 41 51 55 53 76 54 43 55
REMARK SMILES IDX 27 56 28 57 36 58 29 59 30 60 34 61 37 62 31 63 32 64 35 65
REMARK SMILES IDX 33 66 59 67 60 68 68 69 61 70 62 71 66 72 69 73 63 74 64 75
REMARK SMILES IDX 67 76 65 77 44 78 45 79 53 80 46 81 47 82 51 83 54 84 48 85
REMARK SMILES IDX 49 86 52 87 50 88
REMARK H PARENT 74 41 42 52
REMARK Flexibility Score: inf
ROOT
ATOM      1  O   UNL     1      -0.616   1.116  -3.305  1.00  0.00    -0.374 OA
ENDROOT
BRANCH   1   2
ATOM      2  C   UNL     1      -1.092   0.049  -2.484  1.00  0.00     0.202 C 
BRANCH   2   3
ATOM      3  C   UNL     1      -0.528  -1.330  -2.826  1.00  0.00     0.261 C 
BRANCH   3   4
ATOM      4  O   UNL     1       0.843  -1.445  -2.402  1.00  0.00    -0.463 OA
BRANCH   4   5
ATOM      5  C   UNL     1       1.770  -1.279  -3.377  1.00  0.00     0.312 C 
ATOM      6  O   UNL     1       1.494  -1.123  -4.563  1.00  0.00    -0.252 OA
BRANCH   5   7
ATOM      7  C   UNL     1       3.215  -1.340  -2.865  1.00  0.00     0.072 C 
ATOM      8  C   UNL     1       3.995  -0.184  -3.542  1.00  0.00     0.019 C 
ATOM      9  C   UNL     1       3.751  -2.706  -3.373  1.00  0.00     0.022 C 
ATOM     10  C   UNL     1       5.511  -0.337  -3.464  1.00  0.00     0.001 C 
ATOM     11  C   UNL     1       5.275  -2.850  -3.255  1.00  0.00    -0.013 C 
ATOM     12  C   UNL     1       5.973  -1.698  -3.984  1.00  0.00     0.003 C 
ATOM     13  C   UNL     1       5.717  -4.218  -3.775  1.00  0.00     0.007 C 
BRANCH   7  14
ATOM     14  C   UNL     1       3.369  -1.335  -1.320  1.00  0.00     0.046 C 
BRANCH  14  15
ATOM     15  C   UNL     1       3.061  -0.096  -0.526  1.00  0.00    -0.027 C 
ATOM     16  C   UNL     1       1.311  -1.115   1.002  1.00  0.00     0.039 C 
ATOM     17  C   UNL     1       2.248  -0.029   0.546  1.00  0.00    -0.080 C 
ATOM     18  C   UNL     1       2.312   1.177   1.439  1.00  0.00     0.039 C 
ENDBRANCH  14  15
ENDBRANCH   7  14
ENDBRANCH   5   7
ENDBRANCH   4   5
ENDBRANCH   3   4
ENDBRANCH   2   3
ENDBRANCH   1   2
BRANCH   1  19
ATOM     19  C   UNL     1       0.585   1.750  -2.865  1.00  0.00     0.202 C 
BRANCH  19  20
ATOM     20  C   UNL     1       0.382   2.892  -1.863  1.00  0.00     0.261 C 
BRANCH  20  21
ATOM     21  O   UNL     1      -0.111   2.413  -0.601  1.00  0.00    -0.460 OA
BRANCH  21  22
ATOM     22  C   UNL     1      -1.450   2.529  -0.410  1.00  0.00     0.338 C 
ATOM     23  O   UNL     1      -2.262   3.063  -1.135  1.00  0.00    -0.246 OA
BRANCH  22  24
ATOM     24  C   UNL     1      -1.817   1.743   0.788  1.00  0.00     0.060 A 
ATOM     25  C   UNL     1      -2.910   0.876   0.724  1.00  0.00     0.016 A 
ATOM     26  C   UNL     1      -1.098   1.871   1.974  1.00  0.00     0.016 A 
ATOM     27  C   UNL     1      -3.322   0.188   1.869  1.00  0.00     0.010 A 
ATOM     28  C   UNL     1      -1.448   1.109   3.090  1.00  0.00     0.010 A 
ATOM     29  C   UNL     1      -2.619   0.332   3.076  1.00  0.00    -0.014 A 
BRANCH  29  30
ATOM     30  C   UNL     1      -3.225  -0.116   4.364  1.00  0.00     0.031 A 
ATOM     31  C   UNL     1      -3.606   0.933   5.387  1.00  0.00     0.074 A 
ATOM     32  C   UNL     1      -3.472  -1.415   4.624  1.00  0.00     0.049 A 
ATOM     33  N   UNL     1      -4.131   0.791   6.579  1.00  0.00    -0.248 NA
ATOM     34  C   UNL     1      -3.324   2.335   5.033  1.00  0.00     0.031 C 
ATOM     35  C   UNL     1      -3.142  -2.537   3.748  1.00  0.00     0.029 A 
ATOM     36  N   UNL     1      -4.070  -2.006   5.712  1.00  0.00    -0.354 N 
ATOM     37  C   UNL     1      -4.205   2.073   7.114  1.00  0.00     0.074 A 
ATOM     38  C   UNL     1      -3.592   2.967   6.161  1.00  0.00     0.031 C 
ATOM     39  C   UNL     1      -3.568  -3.678   4.318  1.00  0.00     0.029 A 
ATOM     40  C   UNL     1      -4.178  -3.372   5.611  1.00  0.00     0.049 A 
ATOM     41  H   UNL     1      -4.392  -1.498   6.491  1.00  0.00     0.167 HD
ATOM     42  C   UNL     1      -4.774   2.488   8.270  1.00  0.00     0.037 A 
ATOM     43  C   UNL     1      -4.713  -4.270   6.463  1.00  0.00     0.037 A 
ATOM     44  C   UNL     1      -5.438   1.614   9.197  1.00  0.00     0.049 A 
ATOM     45  C   UNL     1      -5.346  -3.788   7.746  1.00  0.00     0.074 A 
ATOM     46  C   UNL     1      -6.091   1.937  10.373  1.00  0.00     0.029 A 
ATOM     47  N   UNL     1      -5.540   0.240   9.045  1.00  0.00    -0.354 N 
ATOM     48  N   UNL     1      -5.458  -2.567   8.213  1.00  0.00    -0.248 NA
ATOM     49  C   UNL     1      -5.948  -4.813   8.611  1.00  0.00     0.031 C 
ATOM     50  C   UNL     1      -6.543   0.751  10.960  1.00  0.00     0.029 A 
ATOM     51  C   UNL     1      -6.235  -0.301  10.113  1.00  0.00     0.049 A 
ATOM     52  H   UNL     1      -5.174  -0.274   8.289  1.00  0.00     0.167 HD
ATOM     53  C   UNL     1      -6.180  -2.673   9.397  1.00  0.00     0.074 A 
ATOM     54  C   UNL     1      -6.489  -4.076   9.571  1.00  0.00     0.031 C 
ATOM     55  C   UNL     1      -6.557  -1.697  10.261  1.00  0.00     0.037 A 
BRANCH  42  56
ATOM     56  C   UNL     1      -4.707   3.957   8.588  1.00  0.00     0.064 A 
ATOM     57  C   UNL     1      -5.392   4.915   7.821  1.00  0.00     0.173 A 
ATOM     58  C   UNL     1      -3.953   4.413   9.679  1.00  0.00     0.173 A 
ATOM     59  F   UNL     1      -6.115   4.537   6.756  1.00  0.00    -0.203 F 
ATOM     60  C   UNL     1      -5.286   6.273   8.107  1.00  0.00     0.198 A 
ATOM     61  C   UNL     1      -3.883   5.769   9.988  1.00  0.00     0.198 A 
ATOM     62  F   UNL     1      -3.282   3.543  10.450  1.00  0.00    -0.203 F 
ATOM     63  F   UNL     1      -5.888   7.171   7.316  1.00  0.00    -0.200 F 
ATOM     64  C   UNL     1      -4.539   6.699   9.195  1.00  0.00     0.200 A 
ATOM     65  F   UNL     1      -3.174   6.177  11.049  1.00  0.00    -0.200 F 
ATOM     66  F   UNL     1      -4.441   8.006   9.472  1.00  0.00    -0.200 F 
ENDBRANCH  42  56
BRANCH  43  67
ATOM     67  C   UNL     1      -4.713  -5.720   6.123  1.00  0.00     0.064 A 
ATOM     68  C   UNL     1      -5.910  -6.403   5.859  1.00  0.00     0.173 A 
ATOM     69  C   UNL     1      -3.523  -6.462   6.090  1.00  0.00     0.173 A 
ATOM     70  F   UNL     1      -7.079  -5.746   5.902  1.00  0.00    -0.203 F 
ATOM     71  C   UNL     1      -5.921  -7.774   5.607  1.00  0.00     0.198 A 
ATOM     72  C   UNL     1      -3.531  -7.827   5.804  1.00  0.00     0.198 A 
ATOM     73  F   UNL     1      -2.350  -5.860   6.333  1.00  0.00    -0.203 F 
ATOM     74  F   UNL     1      -7.085  -8.410   5.420  1.00  0.00    -0.200 F 
ATOM     75  C   UNL     1      -4.730  -8.484   5.574  1.00  0.00     0.200 A 
ATOM     76  F   UNL     1      -2.377  -8.506   5.761  1.00  0.00    -0.200 F 
ATOM     77  F   UNL     1      -4.740  -9.802   5.332  1.00  0.00    -0.200 F 
ENDBRANCH  43  67
BRANCH  55  78
ATOM     78  C   UNL     1      -7.410  -2.096  11.432  1.00  0.00     0.064 A 
ATOM     79  C   UNL     1      -6.915  -2.877  12.487  1.00  0.00     0.173 A 
ATOM     80  C   UNL     1      -8.743  -1.661  11.511  1.00  0.00     0.173 A 
ATOM     81  F   UNL     1      -5.650  -3.324  12.460  1.00  0.00    -0.203 F 
ATOM     82  C   UNL     1      -7.734  -3.244  13.552  1.00  0.00     0.198 A 
ATOM     83  C   UNL     1      -9.547  -1.996  12.596  1.00  0.00     0.198 A 
ATOM     84  F   UNL     1      -9.265  -0.898  10.538  1.00  0.00    -0.203 F 
ATOM     85  F   UNL     1      -7.258  -4.046  14.515  1.00  0.00    -0.200 F 
ATOM     86  C   UNL     1      -9.046  -2.799  13.609  1.00  0.00     0.200 A 
ATOM     87  F   UNL     1     -10.808  -1.547  12.659  1.00  0.00    -0.200 F 
ATOM     88  F   UNL     1      -9.831  -3.151  14.636  1.00  0.00    -0.200 F 
ENDBRANCH  55  78
ENDBRANCH  29  30
ENDBRANCH  22  24
ENDBRANCH  21  22
ENDBRANCH  20  21
ENDBRANCH  19  20
ENDBRANCH   1  19
TORSDOF 16
