REMARK SMILES CC(C)(C(=O)OCCOCCOC(=O)c1ccc(-c2c3nc(c(-c4c(F)c(F)c(F)c(F)c4F)c4ccc([nH]4)c(-c4c(F)c(F)c(F)c(F)c4F)c4nc(c(-c5c(F)c(F)c(F)c(F)c5F)c5ccc2[nH]5)C=C4)C=C3)cc1)c1ccc(C(=O)CCCCl)cc1
REMARK SMILES IDX 7 1 6 2 4 3 5 4 2 5 1 6 3 7 78 8 79 9 89 10 80 11 88 12
REMARK SMILES IDX 81 13 82 14 83 15 84 16 85 17 86 18 87 19 8 20 9 21 10 22
REMARK SMILES IDX 11 23 12 24 13 25 14 26 15 27 16 28 77 29 17 30 76 31 18 32
REMARK SMILES IDX 19 33 20 34 70 35 21 36 75 37 69 38 71 39 22 40 74 41 68 42
REMARK SMILES IDX 67 43 23 45 55 46 35 47 54 48 36 49 39 50 53 51 72 52 37 53
REMARK SMILES IDX 38 54 52 56 73 57 40 58 24 59 25 60 33 61 26 62 27 63 31 64
REMARK SMILES IDX 34 65 28 66 29 67 32 68 30 69 56 70 57 71 65 72 58 73 59 74
REMARK SMILES IDX 63 75 66 76 60 77 61 78 64 79 62 80 41 81 42 82 50 83 43 84
REMARK SMILES IDX 44 85 48 86 51 87 45 88 46 89 49 90 47 91
REMARK H PARENT 71 44 39 55
REMARK Flexibility Score: inf
ROOT
ATOM      1  C   UNL     1      -3.167   1.713  -0.111  1.00  0.00     0.261 C 
ENDROOT
BRANCH   1   2
ATOM      2  O   UNL     1      -1.788   1.336  -0.223  1.00  0.00    -0.463 OA
BRANCH   2   3
ATOM      3  C   UNL     1      -0.893   2.322   0.061  1.00  0.00     0.316 C 
ATOM      4  O   UNL     1      -1.197   3.508   0.151  1.00  0.00    -0.251 OA
BRANCH   3   5
ATOM      5  C   UNL     1       0.529   1.774   0.339  1.00  0.00     0.087 C 
ATOM      6  C   UNL     1       0.750   0.437  -0.405  1.00  0.00     0.028 C 
ATOM      7  C   UNL     1       1.520   2.785  -0.282  1.00  0.00     0.028 C 
BRANCH   5   8
ATOM      8  C   UNL     1       0.807   1.695   1.859  1.00  0.00    -0.031 A 
ATOM      9  C   UNL     1       1.416   0.586   2.471  1.00  0.00     0.005 A 
ATOM     10  C   UNL     1       0.500   2.793   2.685  1.00  0.00     0.005 A 
ATOM     11  C   UNL     1       1.764   0.607   3.830  1.00  0.00     0.012 A 
ATOM     12  C   UNL     1       0.823   2.808   4.045  1.00  0.00     0.012 A 
ATOM     13  C   UNL     1       1.510   1.738   4.612  1.00  0.00     0.018 A 
BRANCH  13  14
ATOM     14  C   UNL     1       2.058   1.788   5.999  1.00  0.00     0.162 C 
ATOM     15  O   UNL     1       2.372   0.738   6.557  1.00  0.00    -0.294 OA
BRANCH  14  16
ATOM     16  C   UNL     1       2.313   3.131   6.666  1.00  0.00     0.082 C 
BRANCH  16  17
ATOM     17  C   UNL     1       3.643   3.765   6.246  1.00  0.00     0.024 C 
BRANCH  17  18
ATOM     18  C   UNL     1       3.647   4.512   4.913  1.00  0.00     0.110 C 
ATOM     19  Cl  UNL     1       2.538   5.904   4.923  1.00  0.00    -0.127 Cl
ENDBRANCH  17  18
ENDBRANCH  16  17
ENDBRANCH  14  16
ENDBRANCH  13  14
ENDBRANCH   5   8
ENDBRANCH   3   5
ENDBRANCH   2   3
ENDBRANCH   1   2
BRANCH   1  20
ATOM     20  C   UNL     1      -3.992   0.610   0.558  1.00  0.00     0.202 C 
BRANCH  20  21
ATOM     21  O   UNL     1      -3.544   0.161   1.835  1.00  0.00    -0.374 OA
BRANCH  21  22
ATOM     22  C   UNL     1      -2.341  -0.610   1.890  1.00  0.00     0.202 C 
BRANCH  22  23
ATOM     23  C   UNL     1      -2.373  -2.005   1.249  1.00  0.00     0.261 C 
BRANCH  23  24
ATOM     24  O   UNL     1      -2.539  -1.957  -0.183  1.00  0.00    -0.460 OA
BRANCH  24  25
ATOM     25  C   UNL     1      -3.625  -2.620  -0.650  1.00  0.00     0.338 C 
ATOM     26  O   UNL     1      -4.409  -3.307  -0.010  1.00  0.00    -0.246 OA
BRANCH  25  27
ATOM     27  C   UNL     1      -3.878  -2.268  -2.058  1.00  0.00     0.060 A 
ATOM     28  C   UNL     1      -5.107  -1.670  -2.367  1.00  0.00     0.016 A 
ATOM     29  C   UNL     1      -2.987  -2.623  -3.072  1.00  0.00     0.016 A 
ATOM     30  C   UNL     1      -5.470  -1.464  -3.696  1.00  0.00     0.010 A 
ATOM     31  C   UNL     1      -3.359  -2.428  -4.408  1.00  0.00     0.010 A 
ATOM     32  C   UNL     1      -4.617  -1.881  -4.725  1.00  0.00    -0.014 A 
BRANCH  32  33
ATOM     33  C   UNL     1      -5.116  -1.890  -6.122  1.00  0.00     0.031 A 
ATOM     34  C   UNL     1      -5.662  -3.170  -6.692  1.00  0.00     0.074 A 
ATOM     35  C   UNL     1      -5.122  -0.767  -6.861  1.00  0.00     0.049 A 
ATOM     36  N   UNL     1      -6.136  -3.414  -7.888  1.00  0.00    -0.248 NA
ATOM     37  C   UNL     1      -5.679  -4.333  -5.790  1.00  0.00     0.031 C 
ATOM     38  C   UNL     1      -4.661   0.543  -6.407  1.00  0.00     0.029 A 
ATOM     39  N   UNL     1      -5.531  -0.553  -8.153  1.00  0.00    -0.354 N 
ATOM     40  C   UNL     1      -6.503  -4.753  -7.883  1.00  0.00     0.074 A 
ATOM     41  C   UNL     1      -6.172  -5.279  -6.576  1.00  0.00     0.031 C 
ATOM     42  C   UNL     1      -4.802   1.425  -7.411  1.00  0.00     0.029 A 
ATOM     43  C   UNL     1      -5.336   0.735  -8.585  1.00  0.00     0.049 A 
ATOM     44  H   UNL     1      -5.926  -1.257  -8.718  1.00  0.00     0.167 HD
ATOM     45  C   UNL     1      -7.072  -5.477  -8.876  1.00  0.00     0.037 A 
ATOM     46  C   UNL     1      -5.547   1.288  -9.795  1.00  0.00     0.037 A 
ATOM     47  C   UNL     1      -7.403  -4.955 -10.175  1.00  0.00     0.049 A 
ATOM     48  C   UNL     1      -6.117   0.443 -10.906  1.00  0.00     0.074 A 
ATOM     49  C   UNL     1      -8.001  -5.604 -11.241  1.00  0.00     0.029 A 
ATOM     50  N   UNL     1      -7.158  -3.653 -10.586  1.00  0.00    -0.354 N 
ATOM     51  N   UNL     1      -6.483  -0.816 -10.885  1.00  0.00    -0.248 NA
ATOM     52  C   UNL     1      -6.305   1.099 -12.208  1.00  0.00     0.031 C 
ATOM     53  C   UNL     1      -8.074  -4.708 -12.313  1.00  0.00     0.029 A 
ATOM     54  C   UNL     1      -7.567  -3.487 -11.899  1.00  0.00     0.049 A 
ATOM     55  H   UNL     1      -6.753  -2.951 -10.027  1.00  0.00     0.167 HD
ATOM     56  C   UNL     1      -6.967  -1.095 -12.157  1.00  0.00     0.074 A 
ATOM     57  C   UNL     1      -6.859   0.129 -12.923  1.00  0.00     0.031 C 
ATOM     58  C   UNL     1      -7.458  -2.260 -12.646  1.00  0.00     0.037 A 
BRANCH  45  59
ATOM     59  C   UNL     1      -7.350  -6.926  -8.603  1.00  0.00     0.064 A 
ATOM     60  C   UNL     1      -8.388  -7.329  -7.750  1.00  0.00     0.173 A 
ATOM     61  C   UNL     1      -6.589  -7.924  -9.229  1.00  0.00     0.173 A 
ATOM     62  F   UNL     1      -9.135  -6.412  -7.116  1.00  0.00    -0.203 F 
ATOM     63  C   UNL     1      -8.638  -8.679  -7.516  1.00  0.00     0.198 A 
ATOM     64  C   UNL     1      -6.859  -9.273  -9.013  1.00  0.00     0.198 A 
ATOM     65  F   UNL     1      -5.587  -7.591 -10.057  1.00  0.00    -0.203 F 
ATOM     66  F   UNL     1      -9.608  -9.041  -6.664  1.00  0.00    -0.200 F 
ATOM     67  C   UNL     1      -7.878  -9.649  -8.152  1.00  0.00     0.200 A 
ATOM     68  F   UNL     1      -6.130 -10.209  -9.637  1.00  0.00    -0.200 F 
ATOM     69  F   UNL     1      -8.124 -10.947  -7.930  1.00  0.00    -0.200 F 
ENDBRANCH  45  59
BRANCH  46  70
ATOM     70  C   UNL     1      -5.205   2.715 -10.028  1.00  0.00     0.064 A 
ATOM     71  C   UNL     1      -6.204   3.674 -10.242  1.00  0.00     0.173 A 
ATOM     72  C   UNL     1      -3.870   3.143 -10.058  1.00  0.00     0.173 A 
ATOM     73  F   UNL     1      -7.494   3.307 -10.251  1.00  0.00    -0.203 F 
ATOM     74  C   UNL     1      -5.880   5.006 -10.492  1.00  0.00     0.198 A 
ATOM     75  C   UNL     1      -3.548   4.480 -10.281  1.00  0.00     0.198 A 
ATOM     76  F   UNL     1      -2.877   2.263  -9.863  1.00  0.00    -0.203 F 
ATOM     77  F   UNL     1      -6.852   5.895 -10.738  1.00  0.00    -0.200 F 
ATOM     78  C   UNL     1      -4.553   5.409 -10.506  1.00  0.00     0.200 A 
ATOM     79  F   UNL     1      -2.265   4.866 -10.284  1.00  0.00    -0.200 F 
ATOM     80  F   UNL     1      -4.241   6.690 -10.744  1.00  0.00    -0.200 F 
ENDBRANCH  46  70
BRANCH  58  81
ATOM     81  C   UNL     1      -7.947  -2.262 -14.065  1.00  0.00     0.064 A 
ATOM     82  C   UNL     1      -7.057  -2.222 -15.149  1.00  0.00     0.173 A 
ATOM     83  C   UNL     1      -9.319  -2.352 -14.344  1.00  0.00     0.173 A 
ATOM     84  F   UNL     1      -5.737  -2.121 -14.934  1.00  0.00    -0.203 F 
ATOM     85  C   UNL     1      -7.526  -2.251 -16.460  1.00  0.00     0.198 A 
ATOM     86  C   UNL     1      -9.782  -2.408 -15.655  1.00  0.00     0.198 A 
ATOM     87  F   UNL     1     -10.210  -2.401 -13.342  1.00  0.00    -0.203 F 
ATOM     88  F   UNL     1      -6.661  -2.169 -17.480  1.00  0.00    -0.200 F 
ATOM     89  C   UNL     1      -8.886  -2.351 -16.712  1.00  0.00     0.200 A 
ATOM     90  F   UNL     1     -11.096  -2.518 -15.897  1.00  0.00    -0.200 F 
ATOM     91  F   UNL     1      -9.334  -2.386 -17.974  1.00  0.00    -0.200 F 
ENDBRANCH  58  81
ENDBRANCH  32  33
ENDBRANCH  25  27
ENDBRANCH  24  25
ENDBRANCH  23  24
ENDBRANCH  22  23
ENDBRANCH  21  22
ENDBRANCH  20  21
ENDBRANCH   1  20
TORSDOF 19
