REMARK SMILES Cc1ccc(C(=O)OCCOCCOC(=O)c2ccc(-c3c4nc(c(-c5c(F)c(F)c(F)c(F)c5F)c5ccc([nH]5)c(-c5c(F)c(F)c(F)c(F)c5F)c5nc(c(-c6c(F)c(F)c(F)c(F)c6F)c6ccc3[nH]6)C=C5)C=C4)cc2)cc1N1CC(C)C1
REMARK SMILES IDX 12 1 11 2 10 3 9 4 8 5 6 6 7 7 5 8 1 9 2 10 3 11 81 12 4 13
REMARK SMILES IDX 80 14 82 15 83 16 86 17 84 18 85 19 13 20 14 21 15 22 16 23
REMARK SMILES IDX 17 24 18 25 79 26 19 27 78 28 20 29 21 30 22 31 72 32 23 33
REMARK SMILES IDX 77 34 71 35 73 36 24 37 76 38 70 39 69 40 25 42 57 43 37 44
REMARK SMILES IDX 56 45 38 46 41 47 55 48 74 49 39 50 40 51 54 53 75 54 42 55
REMARK SMILES IDX 26 56 27 57 35 58 28 59 29 60 33 61 36 62 30 63 31 64 34 65
REMARK SMILES IDX 32 66 58 67 59 68 67 69 60 70 61 71 65 72 68 73 62 74 63 75
REMARK SMILES IDX 66 76 64 77 43 78 44 79 52 80 45 81 46 82 50 83 53 84 47 85
REMARK SMILES IDX 48 86 51 87 49 88
REMARK H PARENT 73 41 41 52
REMARK Flexibility Score: inf
ROOT
ATOM      1  C   UNL     1      -3.543  -1.012  -3.595  1.00  0.00     0.202 C 
ENDROOT
BRANCH   1   2
ATOM      2  O   UNL     1      -3.739  -0.292  -2.398  1.00  0.00    -0.374 OA
BRANCH   2   3
ATOM      3  C   UNL     1      -3.613   1.116  -2.504  1.00  0.00     0.202 C 
BRANCH   3   4
ATOM      4  C   UNL     1      -3.812   1.623  -1.116  1.00  0.00     0.261 C 
BRANCH   4   5
ATOM      5  O   UNL     1      -2.663   1.369  -0.297  1.00  0.00    -0.460 OA
BRANCH   5   6
ATOM      6  C   UNL     1      -2.424   0.116   0.196  1.00  0.00     0.338 C 
ATOM      7  O   UNL     1      -3.195  -0.801   0.339  1.00  0.00    -0.246 OA
BRANCH   6   8
ATOM      8  C   UNL     1      -0.957   0.033   0.371  1.00  0.00     0.062 A 
ATOM      9  C   UNL     1       3.300  -0.126  -0.113  1.00  0.00     0.046 C 
ATOM     10  C   UNL     1       1.816  -0.017   0.097  1.00  0.00    -0.028 A 
ATOM     11  C   UNL     1       1.067  -1.215   0.093  1.00  0.00     0.006 A 
ATOM     12  C   UNL     1       1.166   1.215   0.299  1.00  0.00     0.040 A 
ATOM     13  C   UNL     1      -0.320  -1.193   0.222  1.00  0.00     0.016 A 
ATOM     14  C   UNL     1      -0.213   1.209   0.485  1.00  0.00     0.041 A 
BRANCH  12  15
ATOM     15  N   UNL     1       1.843   2.453   0.234  1.00  0.00    -0.371 N 
ATOM     16  C   UNL     1       1.466   3.693   0.857  1.00  0.00     0.121 C 
ATOM     17  C   UNL     1       2.231   3.077  -1.006  1.00  0.00     0.121 C 
ATOM     18  C   UNL     1       1.722   4.416  -0.464  1.00  0.00     0.025 C 
ATOM     19  C   UNL     1       2.710   5.561  -0.392  1.00  0.00     0.011 C 
ENDBRANCH  12  15
ENDBRANCH   6   8
ENDBRANCH   5   6
ENDBRANCH   4   5
ENDBRANCH   3   4
ENDBRANCH   2   3
ENDBRANCH   1   2
BRANCH   1  20
ATOM     20  C   UNL     1      -4.524  -0.599  -4.699  1.00  0.00     0.261 C 
BRANCH  20  21
ATOM     21  O   UNL     1      -5.878  -0.880  -4.276  1.00  0.00    -0.460 OA
BRANCH  21  22
ATOM     22  C   UNL     1      -6.623   0.187  -3.866  1.00  0.00     0.338 C 
ATOM     23  O   UNL     1      -6.752   1.234  -4.478  1.00  0.00    -0.246 OA
BRANCH  22  24
ATOM     24  C   UNL     1      -7.016   0.007  -2.435  1.00  0.00     0.060 A 
ATOM     25  C   UNL     1      -7.545   1.087  -1.698  1.00  0.00     0.016 A 
ATOM     26  C   UNL     1      -6.536  -1.112  -1.766  1.00  0.00     0.016 A 
ATOM     27  C   UNL     1      -7.437   1.110  -0.297  1.00  0.00     0.010 A 
ATOM     28  C   UNL     1      -6.311  -1.022  -0.410  1.00  0.00     0.010 A 
ATOM     29  C   UNL     1      -6.728   0.095   0.337  1.00  0.00    -0.014 A 
BRANCH  29  30
ATOM     30  C   UNL     1      -6.244   0.092   1.725  1.00  0.00     0.031 A 
ATOM     31  C   UNL     1      -6.638  -1.053   2.584  1.00  0.00     0.074 A 
ATOM     32  C   UNL     1      -5.195   0.873   2.094  1.00  0.00     0.049 A 
ATOM     33  N   UNL     1      -6.345  -1.158   3.832  1.00  0.00    -0.248 NA
ATOM     34  C   UNL     1      -7.440  -2.183   2.114  1.00  0.00     0.031 C 
ATOM     35  C   UNL     1      -4.181   0.594   3.117  1.00  0.00     0.029 A 
ATOM     36  N   UNL     1      -4.756   2.104   1.581  1.00  0.00    -0.354 N 
ATOM     37  C   UNL     1      -6.530  -2.474   4.193  1.00  0.00     0.074 A 
ATOM     38  C   UNL     1      -7.363  -3.017   3.154  1.00  0.00     0.031 C 
ATOM     39  C   UNL     1      -3.465   1.705   3.368  1.00  0.00     0.029 A 
ATOM     40  C   UNL     1      -4.073   2.781   2.607  1.00  0.00     0.049 A 
ATOM     41  H   UNL     1      -4.901   2.435   0.665  1.00  0.00     0.167 HD
ATOM     42  C   UNL     1      -5.802  -2.952   5.245  1.00  0.00     0.037 A 
ATOM     43  C   UNL     1      -4.503   3.991   3.053  1.00  0.00     0.037 A 
ATOM     44  C   UNL     1      -5.077  -1.843   5.896  1.00  0.00     0.049 A 
ATOM     45  C   UNL     1      -4.910   3.818   4.483  1.00  0.00     0.074 A 
ATOM     46  C   UNL     1      -3.740  -1.486   5.957  1.00  0.00     0.029 A 
ATOM     47  N   UNL     1      -5.794  -0.727   6.340  1.00  0.00    -0.354 N 
ATOM     48  N   UNL     1      -5.278   2.657   4.956  1.00  0.00    -0.248 NA
ATOM     49  C   UNL     1      -4.809   4.843   5.513  1.00  0.00     0.031 C 
ATOM     50  C   UNL     1      -3.669  -0.121   6.365  1.00  0.00     0.029 A 
ATOM     51  C   UNL     1      -4.958   0.348   6.574  1.00  0.00     0.049 A 
ATOM     52  H   UNL     1      -6.770  -0.710   6.468  1.00  0.00     0.167 HD
ATOM     53  C   UNL     1      -5.314   2.720   6.310  1.00  0.00     0.074 A 
ATOM     54  C   UNL     1      -5.089   4.123   6.616  1.00  0.00     0.031 C 
ATOM     55  C   UNL     1      -5.482   1.613   7.084  1.00  0.00     0.037 A 
BRANCH  42  56
ATOM     56  C   UNL     1      -5.534  -4.421   5.568  1.00  0.00     0.064 A 
ATOM     57  C   UNL     1      -4.607  -4.764   6.582  1.00  0.00     0.173 A 
ATOM     58  C   UNL     1      -6.076  -5.541   4.899  1.00  0.00     0.173 A 
ATOM     59  F   UNL     1      -4.031  -3.828   7.347  1.00  0.00    -0.203 F 
ATOM     60  C   UNL     1      -4.227  -6.085   6.857  1.00  0.00     0.198 A 
ATOM     61  C   UNL     1      -5.709  -6.862   5.185  1.00  0.00     0.198 A 
ATOM     62  F   UNL     1      -6.988  -5.434   3.935  1.00  0.00    -0.203 F 
ATOM     63  F   UNL     1      -3.316  -6.331   7.809  1.00  0.00    -0.200 F 
ATOM     64  C   UNL     1      -4.776  -7.136   6.156  1.00  0.00     0.200 A 
ATOM     65  F   UNL     1      -6.272  -7.868   4.497  1.00  0.00    -0.200 F 
ATOM     66  F   UNL     1      -4.417  -8.400   6.416  1.00  0.00    -0.200 F 
ENDBRANCH  42  56
BRANCH  43  67
ATOM     67  C   UNL     1      -5.145   4.769   1.950  1.00  0.00     0.064 A 
ATOM     68  C   UNL     1      -4.290   5.173   0.896  1.00  0.00     0.173 A 
ATOM     69  C   UNL     1      -6.505   4.621   1.645  1.00  0.00     0.173 A 
ATOM     70  F   UNL     1      -2.972   5.310   1.119  1.00  0.00    -0.203 F 
ATOM     71  C   UNL     1      -4.742   5.247  -0.422  1.00  0.00     0.198 A 
ATOM     72  C   UNL     1      -6.953   4.705   0.320  1.00  0.00     0.198 A 
ATOM     73  F   UNL     1      -7.372   4.238   2.593  1.00  0.00    -0.203 F 
ATOM     74  F   UNL     1      -3.866   5.446  -1.420  1.00  0.00    -0.200 F 
ATOM     75  C   UNL     1      -6.064   4.965  -0.714  1.00  0.00     0.200 A 
ATOM     76  F   UNL     1      -8.230   4.418   0.027  1.00  0.00    -0.200 F 
ATOM     77  F   UNL     1      -6.464   4.873  -1.991  1.00  0.00    -0.200 F 
ENDBRANCH  43  67
BRANCH  55  78
ATOM     78  C   UNL     1      -6.094   1.667   8.449  1.00  0.00     0.064 A 
ATOM     79  C   UNL     1      -6.965   2.696   8.847  1.00  0.00     0.173 A 
ATOM     80  C   UNL     1      -5.988   0.569   9.330  1.00  0.00     0.173 A 
ATOM     81  F   UNL     1      -7.254   3.726   8.039  1.00  0.00    -0.203 F 
ATOM     82  C   UNL     1      -7.620   2.667  10.074  1.00  0.00     0.198 A 
ATOM     83  C   UNL     1      -6.703   0.510  10.521  1.00  0.00     0.198 A 
ATOM     84  F   UNL     1      -5.223  -0.495   9.046  1.00  0.00    -0.203 F 
ATOM     85  F   UNL     1      -8.396   3.699  10.432  1.00  0.00    -0.200 F 
ATOM     86  C   UNL     1      -7.500   1.569  10.904  1.00  0.00     0.200 A 
ATOM     87  F   UNL     1      -6.634  -0.591  11.280  1.00  0.00    -0.200 F 
ATOM     88  F   UNL     1      -8.170   1.523  12.061  1.00  0.00    -0.200 F 
ENDBRANCH  55  78
ENDBRANCH  29  30
ENDBRANCH  22  24
ENDBRANCH  21  22
ENDBRANCH  20  21
ENDBRANCH   1  20
TORSDOF 15
