REMARK SMILES CC[C@@H](C)[C@@H](NC(=O)[C@H](C)[NH3+])C(=O)OCCOCCOC(=O)c1ccc(-c2c3nc(c(-c4c(F)c(F)c(F)c(F)c4F)c4ccc([nH]4)c(-c4c(F)c(F)c(F)c(F)c4F)c4nc(c(-c5c(F)c(F)c(F)c(F)c5F)c5ccc2[nH]5)C=C4)C=C3)cc1
REMARK SMILES IDX 16 1 15 2 14 3 12 4 13 5 5 6 3 7 4 8 2 9 1 10 6 11 7 12 8 14
REMARK SMILES IDX 9 15 10 16 11 17 17 21 18 22 19 23 20 24 21 25 22 26 23 27
REMARK SMILES IDX 24 28 85 29 25 30 84 31 26 32 27 33 28 34 78 35 29 36 83 37
REMARK SMILES IDX 77 38 79 39 30 40 82 41 76 42 75 43 31 45 63 46 43 47 62 48
REMARK SMILES IDX 44 49 47 50 61 51 80 52 45 53 46 54 60 56 81 57 48 58 32 59
REMARK SMILES IDX 33 60 41 61 34 62 35 63 39 64 42 65 36 66 37 67 40 68 38 69
REMARK SMILES IDX 64 70 65 71 73 72 66 73 67 74 71 75 74 76 68 77 69 78 72 79
REMARK SMILES IDX 70 80 49 81 50 82 58 83 51 84 52 85 56 86 59 87 53 88 54 89
REMARK SMILES IDX 57 90 55 91
REMARK H PARENT 6 13 11 18 11 19 11 20 79 44 47 55
REMARK Flexibility Score: inf
ROOT
ATOM      1  C   UNL     1       0.362   6.412  -5.283  1.00  0.00     0.202 C 
ENDROOT
BRANCH   1   2
ATOM      2  C   UNL     1       0.954   5.071  -5.713  1.00  0.00     0.261 C 
BRANCH   2   3
ATOM      3  O   UNL     1       2.223   4.778  -5.082  1.00  0.00    -0.462 OA
BRANCH   3   4
ATOM      4  C   UNL     1       3.208   4.366  -5.930  1.00  0.00     0.328 C 
ATOM      5  O   UNL     1       3.099   4.352  -7.153  1.00  0.00    -0.250 OA
BRANCH   4   6
ATOM      6  C   UNL     1       4.410   3.713  -5.220  1.00  0.00     0.195 C 
BRANCH   6   7
ATOM      7  C   UNL     1       4.884   4.158  -3.806  1.00  0.00     0.019 C 
ATOM      8  C   UNL     1       4.828   5.675  -3.623  1.00  0.00     0.010 C 
BRANCH   7   9
ATOM      9  C   UNL     1       6.336   3.642  -3.575  1.00  0.00     0.002 C 
ATOM     10  C   UNL     1       6.980   4.057  -2.258  1.00  0.00     0.004 C 
ENDBRANCH   7   9
ENDBRANCH   6   7
BRANCH   6  11
ATOM     11  N   UNL     1       4.411   2.246  -5.387  1.00  0.00    -0.337 N 
ATOM     12  C   UNL     1       3.516   1.269  -5.062  1.00  0.00     0.278 C 
ATOM     13  H   UNL     1       5.225   1.903  -5.821  1.00  0.00     0.164 HD
ATOM     14  O   UNL     1       3.942   0.110  -5.074  1.00  0.00    -0.268 OA
BRANCH  12  15
ATOM     15  C   UNL     1       2.025   1.596  -4.817  1.00  0.00     0.267 C 
ATOM     16  C   UNL     1       1.737   1.952  -3.369  1.00  0.00     0.086 C 
BRANCH  15  17
ATOM     17  N   UNL     1       1.171   0.451  -5.191  1.00  0.00    -0.348 N 
ATOM     18  H   UNL     1       1.397  -0.349  -4.600  1.00  0.00     0.345 HD
ATOM     19  H   UNL     1       1.337   0.208  -6.168  1.00  0.00     0.345 HD
ATOM     20  H   UNL     1       0.191   0.701  -5.065  1.00  0.00     0.345 HD
ENDBRANCH  15  17
ENDBRANCH  12  15
ENDBRANCH   6  11
ENDBRANCH   4   6
ENDBRANCH   3   4
ENDBRANCH   2   3
ENDBRANCH   1   2
BRANCH   1  21
ATOM     21  O   UNL     1       1.024   7.563  -5.799  1.00  0.00    -0.374 OA
BRANCH  21  22
ATOM     22  C   UNL     1       2.293   7.885  -5.235  1.00  0.00     0.202 C 
BRANCH  22  23
ATOM     23  C   UNL     1       2.241   8.501  -3.830  1.00  0.00     0.261 C 
BRANCH  23  24
ATOM     24  O   UNL     1       1.776   7.568  -2.830  1.00  0.00    -0.460 OA
BRANCH  24  25
ATOM     25  C   UNL     1       0.694   7.982  -2.131  1.00  0.00     0.338 C 
ATOM     26  O   UNL     1       0.128   9.065  -2.217  1.00  0.00    -0.246 OA
BRANCH  25  27
ATOM     27  C   UNL     1       0.148   6.906  -1.283  1.00  0.00     0.060 A 
ATOM     28  C   UNL     1      -1.196   6.561  -1.467  1.00  0.00     0.016 A 
ATOM     29  C   UNL     1       0.869   6.389  -0.203  1.00  0.00     0.016 A 
ATOM     30  C   UNL     1      -1.849   5.764  -0.528  1.00  0.00     0.010 A 
ATOM     31  C   UNL     1       0.209   5.590   0.742  1.00  0.00     0.010 A 
ATOM     32  C   UNL     1      -1.166   5.321   0.614  1.00  0.00    -0.014 A 
BRANCH  32  33
ATOM     33  C   UNL     1      -1.946   4.750   1.744  1.00  0.00     0.031 A 
ATOM     34  C   UNL     1      -2.332   5.645   2.894  1.00  0.00     0.074 A 
ATOM     35  C   UNL     1      -2.370   3.474   1.726  1.00  0.00     0.049 A 
ATOM     36  N   UNL     1      -3.029   5.368   3.969  1.00  0.00    -0.248 NA
ATOM     37  C   UNL     1      -1.874   7.042   2.821  1.00  0.00     0.031 C 
ATOM     38  C   UNL     1      -2.103   2.511   0.662  1.00  0.00     0.029 A 
ATOM     39  N   UNL     1      -3.122   2.773   2.638  1.00  0.00    -0.354 N 
ATOM     40  C   UNL     1      -3.095   6.551   4.693  1.00  0.00     0.074 A 
ATOM     41  C   UNL     1      -2.341   7.542   3.956  1.00  0.00     0.031 C 
ATOM     42  C   UNL     1      -2.679   1.339   0.982  1.00  0.00     0.029 A 
ATOM     43  C   UNL     1      -3.337   1.465   2.283  1.00  0.00     0.049 A 
ATOM     44  H   UNL     1      -3.473   3.171   3.467  1.00  0.00     0.167 HD
ATOM     45  C   UNL     1      -3.738   6.798   5.860  1.00  0.00     0.037 A 
ATOM     46  C   UNL     1      -3.981   0.479   2.938  1.00  0.00     0.037 A 
ATOM     47  C   UNL     1      -4.495   5.824   6.600  1.00  0.00     0.049 A 
ATOM     48  C   UNL     1      -4.636   0.761   4.265  1.00  0.00     0.074 A 
ATOM     49  C   UNL     1      -5.189   5.989   7.787  1.00  0.00     0.029 A 
ATOM     50  N   UNL     1      -4.657   4.500   6.224  1.00  0.00    -0.354 N 
ATOM     51  N   UNL     1      -4.707   1.888   4.931  1.00  0.00    -0.248 NA
ATOM     52  C   UNL     1      -5.305  -0.368   4.928  1.00  0.00     0.031 C 
ATOM     53  C   UNL     1      -5.740   4.755   8.149  1.00  0.00     0.029 A 
ATOM     54  C   UNL     1      -5.422   3.832   7.167  1.00  0.00     0.049 A 
ATOM     55  H   UNL     1      -4.283   4.094   5.409  1.00  0.00     0.167 HD
ATOM     56  C   UNL     1      -5.442   1.609   6.076  1.00  0.00     0.074 A 
ATOM     57  C   UNL     1      -5.807   0.210   6.011  1.00  0.00     0.031 C 
ATOM     58  C   UNL     1      -5.784   2.441   7.090  1.00  0.00     0.037 A 
BRANCH  45  59
ATOM     59  C   UNL     1      -3.641   8.184   6.421  1.00  0.00     0.064 A 
ATOM     60  C   UNL     1      -4.365   9.250   5.867  1.00  0.00     0.173 A 
ATOM     61  C   UNL     1      -2.853   8.440   7.553  1.00  0.00     0.173 A 
ATOM     62  F   UNL     1      -5.122   9.056   4.777  1.00  0.00    -0.203 F 
ATOM     63  C   UNL     1      -4.288  10.528   6.415  1.00  0.00     0.198 A 
ATOM     64  C   UNL     1      -2.797   9.714   8.112  1.00  0.00     0.198 A 
ATOM     65  F   UNL     1      -2.146   7.453   8.122  1.00  0.00    -0.203 F 
ATOM     66  F   UNL     1      -4.961  11.539   5.849  1.00  0.00    -0.200 F 
ATOM     67  C   UNL     1      -3.510  10.757   7.540  1.00  0.00     0.200 A 
ATOM     68  F   UNL     1      -2.051   9.933   9.204  1.00  0.00    -0.200 F 
ATOM     69  F   UNL     1      -3.443  11.986   8.071  1.00  0.00    -0.200 F 
ENDBRANCH  45  59
BRANCH  46  70
ATOM     70  C   UNL     1      -4.032  -0.883   2.350  1.00  0.00     0.064 A 
ATOM     71  C   UNL     1      -5.228  -1.410   1.843  1.00  0.00     0.173 A 
ATOM     72  C   UNL     1      -2.888  -1.692   2.302  1.00  0.00     0.173 A 
ATOM     73  F   UNL     1      -6.354  -0.684   1.895  1.00  0.00    -0.203 F 
ATOM     74  C   UNL     1      -5.279  -2.700   1.320  1.00  0.00     0.198 A 
ATOM     75  C   UNL     1      -2.935  -2.973   1.758  1.00  0.00     0.198 A 
ATOM     76  F   UNL     1      -1.722  -1.234   2.782  1.00  0.00    -0.203 F 
ATOM     77  F   UNL     1      -6.443  -3.196   0.879  1.00  0.00    -0.200 F 
ATOM     78  C   UNL     1      -4.132  -3.478   1.272  1.00  0.00     0.200 A 
ATOM     79  F   UNL     1      -1.823  -3.720   1.710  1.00  0.00    -0.200 F 
ATOM     80  F   UNL     1      -4.182  -4.719   0.769  1.00  0.00    -0.200 F 
ENDBRANCH  46  70
BRANCH  58  81
ATOM     81  C   UNL     1      -6.612   1.871   8.204  1.00  0.00     0.064 A 
ATOM     82  C   UNL     1      -6.057   1.016   9.167  1.00  0.00     0.173 A 
ATOM     83  C   UNL     1      -7.964   2.221   8.336  1.00  0.00     0.173 A 
ATOM     84  F   UNL     1      -4.772   0.642   9.076  1.00  0.00    -0.203 F 
ATOM     85  C   UNL     1      -6.831   0.517  10.212  1.00  0.00     0.198 A 
ATOM     86  C   UNL     1      -8.729   1.739   9.395  1.00  0.00     0.198 A 
ATOM     87  F   UNL     1      -8.540   3.042   7.445  1.00  0.00    -0.203 F 
ATOM     88  F   UNL     1      -6.289  -0.327  11.101  1.00  0.00    -0.200 F 
ATOM     89  C   UNL     1      -8.163   0.884  10.329  1.00  0.00     0.200 A 
ATOM     90  F   UNL     1     -10.014   2.103   9.513  1.00  0.00    -0.200 F 
ATOM     91  F   UNL     1      -8.905   0.408  11.339  1.00  0.00    -0.200 F 
ENDBRANCH  58  81
ENDBRANCH  32  33
ENDBRANCH  25  27
ENDBRANCH  24  25
ENDBRANCH  23  24
ENDBRANCH  22  23
ENDBRANCH  21  22
ENDBRANCH   1  21
TORSDOF 19
