REMARK SMILES O=C(OCCOCCOC(=O)c1ccc(-c2c3nc(c(-c4c(F)c(F)c(F)c(F)c4F)c4ccc([nH]4)c(-c4c(F)c(F)c(F)c(F)c4F)c4nc(c(-c5c(F)c(F)c(F)c(F)c5F)c5ccc2[nH]5)C=C4)C=C3)cc1)C1=Cc2cc(OC(F)(F)F)ccc2O[C@@H]1C(F)(F)F
REMARK SMILES IDX 6 1 5 2 4 3 3 4 2 5 1 6 75 7 76 8 89 9 77 10 88 11 78 12
REMARK SMILES IDX 87 13 79 14 86 15 85 16 90 17 91 18 92 19 93 20 80 21 81 22
REMARK SMILES IDX 82 23 83 24 84 25 7 26 8 27 9 28 10 29 11 30 12 31 13 32
REMARK SMILES IDX 74 33 14 34 73 35 15 36 16 37 17 38 67 39 18 40 72 41 66 42
REMARK SMILES IDX 68 43 19 44 71 45 65 46 64 47 20 49 52 50 32 51 51 52 33 53
REMARK SMILES IDX 36 54 50 55 69 56 34 57 35 58 49 60 70 61 37 62 21 63 22 64
REMARK SMILES IDX 30 65 23 66 24 67 28 68 31 69 25 70 26 71 29 72 27 73 53 74
REMARK SMILES IDX 54 75 62 76 55 77 56 78 60 79 63 80 57 81 58 82 61 83 59 84
REMARK SMILES IDX 38 85 39 86 47 87 40 88 41 89 45 90 48 91 42 92 43 93 46 94
REMARK SMILES IDX 44 95
REMARK H PARENT 68 48 36 59
REMARK Flexibility Score: inf
ROOT
ATOM      1  O   UNL     1       4.098   2.473  -0.428  1.00  0.00    -0.374 OA
ENDROOT
BRANCH   1   2
ATOM      2  C   UNL     1       4.389   1.191   0.521  1.00  0.00     0.202 C 
BRANCH   2   3
ATOM      3  C   UNL     1       3.478  -0.777   0.579  1.00  0.00     0.261 C 
BRANCH   3   4
ATOM      4  O   UNL     1       2.471  -1.291   1.628  1.00  0.00    -0.460 OA
BRANCH   4   5
ATOM      5  C   UNL     1       2.624  -0.704   2.817  1.00  0.00     0.338 C 
ATOM      6  O   UNL     1       1.981  -0.826   3.828  1.00  0.00    -0.246 OA
BRANCH   5   7
ATOM      7  C   UNL     1       3.538   0.317   2.359  1.00  0.00     0.087 C 
ATOM      8  C   UNL     1       4.913  -0.220   2.225  1.00  0.00     0.027 C 
ATOM      9  C   UNL     1       2.449   0.943   0.884  1.00  0.00     0.316 C 
ATOM     10  C   UNL     1       5.691  -0.589   0.632  1.00  0.00     0.021 A 
ATOM     11  O   UNL     1       3.241   0.508  -0.824  1.00  0.00    -0.475 OA
ATOM     12  C   UNL     1       6.863  -1.292   0.614  1.00  0.00     0.058 A 
ATOM     13  C   UNL     1       4.872  -0.313  -0.866  1.00  0.00     0.128 A 
ATOM     14  C   UNL     1       7.279  -1.771  -0.645  1.00  0.00     0.130 A 
ATOM     15  C   UNL     1       5.282  -0.906  -2.024  1.00  0.00     0.051 A 
ATOM     16  C   UNL     1       6.510  -1.621  -1.877  1.00  0.00     0.050 A 
BRANCH   9  17
ATOM     17  C   UNL     1       2.006   2.336   1.508  1.00  0.00     0.430 C 
ATOM     18  F   UNL     1       1.129   3.045   0.776  1.00  0.00    -0.167 F 
ATOM     19  F   UNL     1       1.345   2.061   2.673  1.00  0.00    -0.167 F 
ATOM     20  F   UNL     1       3.022   3.147   1.874  1.00  0.00    -0.167 F 
ENDBRANCH   9  17
BRANCH  14  21
ATOM     21  O   UNL     1       8.460  -2.471  -0.532  1.00  0.00    -0.406 OA
BRANCH  21  22
ATOM     22  C   UNL     1       9.275  -2.631  -1.677  1.00  0.00     0.573 C 
ATOM     23  F   UNL     1       8.770  -3.589  -2.480  1.00  0.00    -0.132 F 
ATOM     24  F   UNL     1       9.397  -1.479  -2.368  1.00  0.00    -0.132 F 
ATOM     25  F   UNL     1      10.506  -3.017  -1.275  1.00  0.00    -0.132 F 
ENDBRANCH  21  22
ENDBRANCH  14  21
ENDBRANCH   5   7
ENDBRANCH   4   5
ENDBRANCH   3   4
ENDBRANCH   2   3
ENDBRANCH   1   2
BRANCH   1  26
ATOM     26  C   UNL     1       2.903   2.961  -1.067  1.00  0.00     0.202 C 
BRANCH  26  27
ATOM     27  C   UNL     1       3.063   3.373  -2.527  1.00  0.00     0.261 C 
BRANCH  27  28
ATOM     28  O   UNL     1       3.581   2.322  -3.330  1.00  0.00    -0.460 OA
BRANCH  28  29
ATOM     29  C   UNL     1       4.913   2.397  -3.547  1.00  0.00     0.338 C 
ATOM     30  O   UNL     1       5.716   3.167  -3.052  1.00  0.00    -0.246 OA
BRANCH  29  31
ATOM     31  C   UNL     1       5.266   1.350  -4.519  1.00  0.00     0.060 A 
ATOM     32  C   UNL     1       6.524   0.747  -4.413  1.00  0.00     0.016 A 
ATOM     33  C   UNL     1       4.348   0.931  -5.490  1.00  0.00     0.016 A 
ATOM     34  C   UNL     1       6.839  -0.330  -5.236  1.00  0.00     0.010 A 
ATOM     35  C   UNL     1       4.673  -0.125  -6.330  1.00  0.00     0.010 A 
ATOM     36  C   UNL     1       5.915  -0.763  -6.195  1.00  0.00    -0.014 A 
BRANCH  36  37
ATOM     37  C   UNL     1       6.294  -1.786  -7.182  1.00  0.00     0.031 A 
ATOM     38  C   UNL     1       6.917  -1.317  -8.458  1.00  0.00     0.074 A 
ATOM     39  C   UNL     1       6.027  -3.084  -6.959  1.00  0.00     0.049 A 
ATOM     40  N   UNL     1       7.237  -2.003  -9.521  1.00  0.00    -0.248 NA
ATOM     41  C   UNL     1       7.213   0.123  -8.551  1.00  0.00     0.031 C 
ATOM     42  C   UNL     1       5.440  -3.630  -5.736  1.00  0.00     0.029 A 
ATOM     43  N   UNL     1       6.191  -4.176  -7.772  1.00  0.00    -0.354 N 
ATOM     44  C   UNL     1       7.763  -1.079 -10.410  1.00  0.00     0.074 A 
ATOM     45  C   UNL     1       7.713   0.217  -9.773  1.00  0.00     0.031 C 
ATOM     46  C   UNL     1       5.266  -4.955  -5.891  1.00  0.00     0.029 A 
ATOM     47  C   UNL     1       5.687  -5.338  -7.237  1.00  0.00     0.049 A 
ATOM     48  H   UNL     1       6.627  -4.132  -8.653  1.00  0.00     0.167 HD
ATOM     49  C   UNL     1       8.238  -1.304 -11.654  1.00  0.00     0.037 A 
ATOM     50  C   UNL     1       5.548  -6.554  -7.800  1.00  0.00     0.037 A 
ATOM     51  C   UNL     1       8.261  -2.597 -12.277  1.00  0.00     0.049 A 
ATOM     52  C   UNL     1       6.018  -6.752  -9.223  1.00  0.00     0.074 A 
ATOM     53  C   UNL     1       8.760  -2.943 -13.519  1.00  0.00     0.029 A 
ATOM     54  N   UNL     1       7.736  -3.752 -11.715  1.00  0.00    -0.354 N 
ATOM     55  N   UNL     1       6.589  -5.894 -10.036  1.00  0.00    -0.248 NA
ATOM     56  C   UNL     1       5.820  -8.085  -9.812  1.00  0.00     0.031 C 
ATOM     57  C   UNL     1       8.460  -4.288 -13.744  1.00  0.00     0.029 A 
ATOM     58  C   UNL     1       7.850  -4.801 -12.610  1.00  0.00     0.049 A 
ATOM     59  H   UNL     1       7.342  -3.815 -10.815  1.00  0.00     0.167 HD
ATOM     60  C   UNL     1       6.842  -6.588 -11.213  1.00  0.00     0.074 A 
ATOM     61  C   UNL     1       6.385  -7.944 -11.002  1.00  0.00     0.031 C 
ATOM     62  C   UNL     1       7.396  -6.146 -12.368  1.00  0.00     0.037 A 
BRANCH  49  63
ATOM     63  C   UNL     1       8.722  -0.127 -12.443  1.00  0.00     0.064 A 
ATOM     64  C   UNL     1       9.914   0.540 -12.126  1.00  0.00     0.173 A 
ATOM     65  C   UNL     1       8.009   0.296 -13.575  1.00  0.00     0.173 A 
ATOM     66  F   UNL     1      10.619   0.188 -11.041  1.00  0.00    -0.203 F 
ATOM     67  C   UNL     1      10.371   1.594 -12.913  1.00  0.00     0.198 A 
ATOM     68  C   UNL     1       8.486   1.327 -14.377  1.00  0.00     0.198 A 
ATOM     69  F   UNL     1       6.859  -0.306 -13.914  1.00  0.00    -0.203 F 
ATOM     70  F   UNL     1      11.496   2.240 -12.576  1.00  0.00    -0.200 F 
ATOM     71  C   UNL     1       9.665   1.977 -14.044  1.00  0.00     0.200 A 
ATOM     72  F   UNL     1       7.808   1.687 -15.475  1.00  0.00    -0.200 F 
ATOM     73  F   UNL     1      10.120   2.975 -14.814  1.00  0.00    -0.200 F 
ENDBRANCH  49  63
BRANCH  50  74
ATOM     74  C   UNL     1       4.891  -7.668  -7.060  1.00  0.00     0.064 A 
ATOM     75  C   UNL     1       5.581  -8.852  -6.761  1.00  0.00     0.173 A 
ATOM     76  C   UNL     1       3.534  -7.604  -6.705  1.00  0.00     0.173 A 
ATOM     77  F   UNL     1       6.873  -8.976  -7.098  1.00  0.00    -0.203 F 
ATOM     78  C   UNL     1       4.930  -9.942  -6.184  1.00  0.00     0.198 A 
ATOM     79  C   UNL     1       2.895  -8.679  -6.090  1.00  0.00     0.198 A 
ATOM     80  F   UNL     1       2.821  -6.498  -6.964  1.00  0.00    -0.203 F 
ATOM     81  F   UNL     1       5.595 -11.089  -5.989  1.00  0.00    -0.200 F 
ATOM     82  C   UNL     1       3.589  -9.854  -5.846  1.00  0.00     0.200 A 
ATOM     83  F   UNL     1       1.602  -8.582  -5.752  1.00  0.00    -0.200 F 
ATOM     84  F   UNL     1       2.961 -10.906  -5.304  1.00  0.00    -0.200 F 
ENDBRANCH  50  74
BRANCH  62  85
ATOM     85  C   UNL     1       7.569  -7.138 -13.483  1.00  0.00     0.064 A 
ATOM     86  C   UNL     1       6.473  -7.643 -14.197  1.00  0.00     0.173 A 
ATOM     87  C   UNL     1       8.855  -7.526 -13.893  1.00  0.00     0.173 A 
ATOM     88  F   UNL     1       5.223  -7.313 -13.839  1.00  0.00    -0.203 F 
ATOM     89  C   UNL     1       6.657  -8.515 -15.267  1.00  0.00     0.198 A 
ATOM     90  C   UNL     1       9.037  -8.366 -14.987  1.00  0.00     0.198 A 
ATOM     91  F   UNL     1       9.938  -7.062 -13.251  1.00  0.00    -0.203 F 
ATOM     92  F   UNL     1       5.594  -9.020 -15.907  1.00  0.00    -0.200 F 
ATOM     93  C   UNL     1       7.938  -8.865 -15.668  1.00  0.00     0.200 A 
ATOM     94  F   UNL     1      10.275  -8.683 -15.387  1.00  0.00    -0.200 F 
ATOM     95  F   UNL     1       8.113  -9.687 -16.712  1.00  0.00    -0.200 F 
ENDBRANCH  62  85
ENDBRANCH  36  37
ENDBRANCH  29  31
ENDBRANCH  28  29
ENDBRANCH  27  28
ENDBRANCH  26  27
ENDBRANCH   1  26
TORSDOF 17
