REMARK SMILES CS(=O)(=O)c1ccc(/C=C(/C(=O)OCCOCCOC(=O)c2ccc(-c3c4nc(c(-c5c(F)c(F)c(F)c(F)c5F)c5ccc([nH]5)c(-c5c(F)c(F)c(F)c(F)c5F)c5nc(c(-c6c(F)c(F)c(F)c(F)c6F)c6ccc3[nH]6)C=C5)C=C4)cc2)c2ccc(F)cc2)cc1
REMARK SMILES IDX 16 1 15 2 14 3 13 4 11 5 12 6 10 7 9 8 8 9 5 10 6 11 93 12
REMARK SMILES IDX 7 13 92 14 2 15 1 16 3 17 4 18 85 19 86 20 91 21 87 22 90 23
REMARK SMILES IDX 88 24 89 25 17 26 18 27 19 28 20 29 21 30 22 31 23 32 84 33
REMARK SMILES IDX 24 34 83 35 25 36 26 37 27 38 77 39 28 40 82 41 76 42 78 43
REMARK SMILES IDX 29 44 81 45 75 46 74 47 30 49 62 50 42 51 61 52 43 53 46 54
REMARK SMILES IDX 60 55 79 56 44 57 45 58 59 60 80 61 47 62 31 63 32 64 40 65
REMARK SMILES IDX 33 66 34 67 38 68 41 69 35 70 36 71 39 72 37 73 63 74 64 75
REMARK SMILES IDX 72 76 65 77 66 78 70 79 73 80 67 81 68 82 71 83 69 84 48 85
REMARK SMILES IDX 49 86 57 87 50 88 51 89 55 90 58 91 52 92 53 93 56 94 54 95
REMARK H PARENT 78 48 46 59
REMARK Flexibility Score: inf
ROOT
ATOM      1  O   UNL     1       2.258 -11.689   2.050  1.00  0.00    -0.374 OA
ENDROOT
BRANCH   1   2
ATOM      2  C   UNL     1       3.553 -11.423   1.509  1.00  0.00     0.202 C 
BRANCH   2   3
ATOM      3  C   UNL     1       3.600 -10.521   0.273  1.00  0.00     0.261 C 
BRANCH   3   4
ATOM      4  O   UNL     1       3.180  -9.182   0.596  1.00  0.00    -0.460 OA
BRANCH   4   5
ATOM      5  C   UNL     1       2.145  -8.719  -0.151  1.00  0.00     0.338 C 
ATOM      6  O   UNL     1       1.692  -9.259  -1.150  1.00  0.00    -0.246 OA
BRANCH   5   7
ATOM      7  C   UNL     1       1.519  -7.497   0.450  1.00  0.00     0.067 C 
ATOM      8  C   UNL     1       2.298  -6.536   1.000  1.00  0.00     0.024 C 
BRANCH   8   9
ATOM      9  C   UNL     1       1.914  -5.158   1.403  1.00  0.00    -0.025 A 
ATOM     10  C   UNL     1       1.215  -2.450   1.699  1.00  0.00     0.067 A 
ATOM     11  C   UNL     1       0.274  -3.440   1.965  1.00  0.00     0.021 A 
ATOM     12  C   UNL     1       2.534  -2.794   1.403  1.00  0.00     0.021 A 
ATOM     13  C   UNL     1       0.639  -4.785   1.851  1.00  0.00     0.009 A 
ATOM     14  C   UNL     1       2.875  -4.143   1.251  1.00  0.00     0.009 A 
BRANCH  10  15
ATOM     15  S   UNL     1       0.720  -0.744   1.676  1.00  0.00     0.175 S 
ATOM     16  C   UNL     1       1.199  -0.175   0.063  1.00  0.00     0.163 C 
ATOM     17  O   UNL     1       1.525  -0.058   2.667  1.00  0.00    -0.224 OA
ATOM     18  O   UNL     1      -0.730  -0.708   1.727  1.00  0.00    -0.224 OA
ENDBRANCH  10  15
ENDBRANCH   8   9
BRANCH   7  19
ATOM     19  C   UNL     1       0.056  -7.388   0.300  1.00  0.00    -0.011 A 
ATOM     20  C   UNL     1      -0.782  -8.041   1.221  1.00  0.00     0.012 A 
ATOM     21  C   UNL     1      -0.511  -6.621  -0.725  1.00  0.00     0.012 A 
ATOM     22  C   UNL     1      -2.167  -7.912   1.130  1.00  0.00     0.040 A 
ATOM     23  C   UNL     1      -1.898  -6.489  -0.810  1.00  0.00     0.040 A 
ATOM     24  C   UNL     1      -2.711  -7.133   0.118  1.00  0.00     0.123 A 
ATOM     25  F   UNL     1      -4.040  -6.992   0.041  1.00  0.00    -0.207 F 
ENDBRANCH   7  19
ENDBRANCH   5   7
ENDBRANCH   4   5
ENDBRANCH   3   4
ENDBRANCH   2   3
ENDBRANCH   1   2
BRANCH   1  26
ATOM     26  C   UNL     1       1.630 -10.642   2.785  1.00  0.00     0.202 C 
BRANCH  26  27
ATOM     27  C   UNL     1       2.067 -10.458   4.243  1.00  0.00     0.261 C 
BRANCH  27  28
ATOM     28  O   UNL     1       3.474 -10.204   4.363  1.00  0.00    -0.460 OA
BRANCH  28  29
ATOM     29  C   UNL     1       4.191 -11.250   4.834  1.00  0.00     0.338 C 
ATOM     30  O   UNL     1       3.764 -12.316   5.256  1.00  0.00    -0.246 OA
BRANCH  29  31
ATOM     31  C   UNL     1       5.627 -11.012   4.612  1.00  0.00     0.060 A 
ATOM     32  C   UNL     1       6.354 -12.022   3.967  1.00  0.00     0.016 A 
ATOM     33  C   UNL     1       6.264  -9.856   5.067  1.00  0.00     0.016 A 
ATOM     34  C   UNL     1       7.732 -11.903   3.822  1.00  0.00     0.010 A 
ATOM     35  C   UNL     1       7.650  -9.742   4.929  1.00  0.00     0.010 A 
ATOM     36  C   UNL     1       8.393 -10.780   4.338  1.00  0.00    -0.014 A 
BRANCH  36  37
ATOM     37  C   UNL     1       9.872 -10.773   4.397  1.00  0.00     0.031 A 
ATOM     38  C   UNL     1      10.549 -11.161   5.682  1.00  0.00     0.074 A 
ATOM     39  C   UNL     1      10.601 -10.458   3.314  1.00  0.00     0.049 A 
ATOM     40  N   UNL     1      11.824 -11.209   5.968  1.00  0.00    -0.248 NA
ATOM     41  C   UNL     1       9.665 -11.543   6.794  1.00  0.00     0.031 C 
ATOM     42  C   UNL     1      10.057 -10.101   2.006  1.00  0.00     0.029 A 
ATOM     43  N   UNL     1      11.961 -10.384   3.147  1.00  0.00    -0.354 N 
ATOM     44  C   UNL     1      11.896 -11.627   7.291  1.00  0.00     0.074 A 
ATOM     45  C   UNL     1      10.537 -11.783   7.762  1.00  0.00     0.031 C 
ATOM     46  C   UNL     1      11.075  -9.831   1.171  1.00  0.00     0.029 A 
ATOM     47  C   UNL     1      12.338  -9.971   1.894  1.00  0.00     0.049 A 
ATOM     48  H   UNL     1      12.605 -10.605   3.859  1.00  0.00     0.167 HD
ATOM     49  C   UNL     1      12.998 -11.869   8.040  1.00  0.00     0.037 A 
ATOM     50  C   UNL     1      13.563  -9.717   1.397  1.00  0.00     0.037 A 
ATOM     51  C   UNL     1      14.348 -11.706   7.570  1.00  0.00     0.049 A 
ATOM     52  C   UNL     1      14.772  -9.929   2.270  1.00  0.00     0.074 A 
ATOM     53  C   UNL     1      15.533 -11.937   8.246  1.00  0.00     0.029 A 
ATOM     54  N   UNL     1      14.691 -11.258   6.303  1.00  0.00    -0.354 N 
ATOM     55  N   UNL     1      14.835 -10.349   3.510  1.00  0.00    -0.248 NA
ATOM     56  C   UNL     1      16.082  -9.636   1.671  1.00  0.00     0.031 C 
ATOM     57  C   UNL     1      16.592 -11.584   7.403  1.00  0.00     0.029 A 
ATOM     58  C   UNL     1      16.069 -11.181   6.184  1.00  0.00     0.049 A 
ATOM     59  H   UNL     1      14.049 -11.028   5.592  1.00  0.00     0.167 HD
ATOM     60  C   UNL     1      16.185 -10.394   3.833  1.00  0.00     0.074 A 
ATOM     61  C   UNL     1      16.909  -9.970   2.652  1.00  0.00     0.031 C 
ATOM     62  C   UNL     1      16.773 -10.756   5.000  1.00  0.00     0.037 A 
BRANCH  49  63
ATOM     63  C   UNL     1      12.780 -12.311   9.458  1.00  0.00     0.064 A 
ATOM     64  C   UNL     1      12.283 -13.587   9.764  1.00  0.00     0.173 A 
ATOM     65  C   UNL     1      13.084 -11.451  10.524  1.00  0.00     0.173 A 
ATOM     66  F   UNL     1      11.962 -14.440   8.780  1.00  0.00    -0.203 F 
ATOM     67  C   UNL     1      12.068 -13.974  11.085  1.00  0.00     0.198 A 
ATOM     68  C   UNL     1      12.895 -11.852  11.844  1.00  0.00     0.198 A 
ATOM     69  F   UNL     1      13.564 -10.222  10.287  1.00  0.00    -0.203 F 
ATOM     70  F   UNL     1      11.542 -15.177  11.351  1.00  0.00    -0.200 F 
ATOM     71  C   UNL     1      12.379 -13.109  12.123  1.00  0.00     0.200 A 
ATOM     72  F   UNL     1      13.205 -11.019  12.847  1.00  0.00    -0.200 F 
ATOM     73  F   UNL     1      12.172 -13.483  13.393  1.00  0.00    -0.200 F 
ENDBRANCH  49  63
BRANCH  50  74
ATOM     74  C   UNL     1      13.704  -9.226   0.003  1.00  0.00     0.064 A 
ATOM     75  C   UNL     1      14.260 -10.033  -0.998  1.00  0.00     0.173 A 
ATOM     76  C   UNL     1      13.279  -7.938  -0.357  1.00  0.00     0.173 A 
ATOM     77  F   UNL     1      14.702 -11.262  -0.698  1.00  0.00    -0.203 F 
ATOM     78  C   UNL     1      14.396  -9.566  -2.304  1.00  0.00     0.198 A 
ATOM     79  C   UNL     1      13.392  -7.482  -1.668  1.00  0.00     0.198 A 
ATOM     80  F   UNL     1      12.740  -7.126   0.565  1.00  0.00    -0.203 F 
ATOM     81  F   UNL     1      14.964 -10.345  -3.235  1.00  0.00    -0.200 F 
ATOM     82  C   UNL     1      13.956  -8.294  -2.640  1.00  0.00     0.200 A 
ATOM     83  F   UNL     1      12.953  -6.258  -1.990  1.00  0.00    -0.200 F 
ATOM     84  F   UNL     1      14.079  -7.850  -3.898  1.00  0.00    -0.200 F 
ENDBRANCH  50  74
BRANCH  62  85
ATOM     85  C   UNL     1      18.273 -10.735   5.052  1.00  0.00     0.064 A 
ATOM     86  C   UNL     1      18.991  -9.531   5.091  1.00  0.00     0.173 A 
ATOM     87  C   UNL     1      18.998 -11.936   5.108  1.00  0.00     0.173 A 
ATOM     88  F   UNL     1      18.345  -8.358   5.025  1.00  0.00    -0.203 F 
ATOM     89  C   UNL     1      20.382  -9.530   5.161  1.00  0.00     0.198 A 
ATOM     90  C   UNL     1      20.386 -11.931   5.207  1.00  0.00     0.198 A 
ATOM     91  F   UNL     1      18.358 -13.114   5.081  1.00  0.00    -0.203 F 
ATOM     92  F   UNL     1      21.050  -8.369   5.153  1.00  0.00    -0.200 F 
ATOM     93  C   UNL     1      21.078 -10.729   5.227  1.00  0.00     0.200 A 
ATOM     94  F   UNL     1      21.056 -13.089   5.284  1.00  0.00    -0.200 F 
ATOM     95  F   UNL     1      22.416 -10.725   5.302  1.00  0.00    -0.200 F 
ENDBRANCH  62  85
ENDBRANCH  36  37
ENDBRANCH  29  31
ENDBRANCH  28  29
ENDBRANCH  27  28
ENDBRANCH  26  27
ENDBRANCH   1  26
TORSDOF 17
