REMARK SMILES O=C(CC1(NC(=O)[C@]2(C(F)(F)F)CC[NH2+]C2)CCC1)OCCOCCOC(=O)c1ccc(-c2c3nc(c(-c4c(F)c(F)c(F)c(F)c4F)c4ccc([nH]4)c(-c4c(F)c(F)c(F)c(F)c4F)c4nc(c(-c5c(F)c(F)c(F)c(F)c5F)c5ccc2[nH]5)C=C4)C=C3)cc1
REMARK SMILES IDX 22 1 21 2 20 3 2 4 1 5 3 6 4 7 17 8 19 9 18 10 5 11 6 12
REMARK SMILES IDX 7 14 8 15 13 16 16 17 14 18 15 19 9 22 10 23 11 24 12 25
REMARK SMILES IDX 23 26 24 27 25 28 26 29 27 30 28 31 29 32 30 33 91 34 31 35
REMARK SMILES IDX 90 36 32 37 33 38 34 39 84 40 35 41 89 42 83 43 85 44 36 45
REMARK SMILES IDX 88 46 82 47 81 48 37 50 69 51 49 52 68 53 50 54 53 55 67 56
REMARK SMILES IDX 86 57 51 58 52 59 66 61 87 62 54 63 38 64 39 65 47 66 40 67
REMARK SMILES IDX 41 68 45 69 48 70 42 71 43 72 46 73 44 74 70 75 71 76 79 77
REMARK SMILES IDX 72 78 73 79 77 80 80 81 74 82 75 83 78 84 76 85 55 86 56 87
REMARK SMILES IDX 64 88 57 89 58 90 62 91 65 92 59 93 60 94 63 95 61 96
REMARK H PARENT 5 13 15 20 15 21 85 49 53 60
REMARK Flexibility Score: inf
ROOT
ATOM      1  C   UNL     1       6.228   1.253   1.446  1.00  0.00     0.202 C 
ENDROOT
BRANCH   1   2
ATOM      2  C   UNL     1       5.968   1.189  -0.065  1.00  0.00     0.261 C 
BRANCH   2   3
ATOM      3  O   UNL     1       4.618   1.457  -0.442  1.00  0.00    -0.463 OA
BRANCH   3   4
ATOM      4  C   UNL     1       3.977   0.408  -1.021  1.00  0.00     0.308 C 
ATOM      5  O   UNL     1       3.386   0.528  -2.085  1.00  0.00    -0.252 OA
BRANCH   4   6
ATOM      6  C   UNL     1       3.879  -0.810  -0.128  1.00  0.00     0.151 C 
BRANCH   6   7
ATOM      7  C   UNL     1       3.591  -2.122  -0.803  1.00  0.00     0.051 C 
ATOM      8  C   UNL     1       4.870  -2.448  -1.635  1.00  0.00     0.029 C 
ATOM      9  C   UNL     1       3.802  -3.472  -0.054  1.00  0.00     0.029 C 
ATOM     10  C   UNL     1       4.966  -3.827  -0.990  1.00  0.00     0.005 C 
BRANCH   7  11
ATOM     11  N   UNL     1       2.318  -2.115  -1.541  1.00  0.00    -0.349 N 
ATOM     12  C   UNL     1       1.033  -1.725  -1.330  1.00  0.00     0.241 C 
ATOM     13  H   UNL     1       2.428  -2.502  -2.439  1.00  0.00     0.164 HD
ATOM     14  O   UNL     1       0.340  -1.942  -2.342  1.00  0.00    -0.274 OA
BRANCH  12  15
ATOM     15  C   UNL     1       0.368  -0.994  -0.129  1.00  0.00     0.197 C 
ATOM     16  C   UNL     1      -1.188  -1.157  -0.305  1.00  0.00     0.094 C 
ATOM     17  C   UNL     1       0.544   0.527  -0.267  1.00  0.00     0.287 C 
ATOM     18  C   UNL     1      -1.700   0.217  -0.699  1.00  0.00     0.262 C 
ATOM     19  N   UNL     1      -0.773   1.141  -0.045  1.00  0.00    -0.345 N 
ATOM     20  H   UNL     1      -0.977   1.217   0.951  1.00  0.00     0.346 HD
ATOM     21  H   UNL     1      -0.835   2.090  -0.415  1.00  0.00     0.346 HD
BRANCH  15  22
ATOM     22  C   UNL     1       0.675  -1.481   1.280  1.00  0.00     0.408 C 
ATOM     23  F   UNL     1       0.785  -2.823   1.343  1.00  0.00    -0.170 F 
ATOM     24  F   UNL     1       1.789  -0.965   1.832  1.00  0.00    -0.170 F 
ATOM     25  F   UNL     1      -0.301  -1.121   2.159  1.00  0.00    -0.170 F 
ENDBRANCH  15  22
ENDBRANCH  12  15
ENDBRANCH   7  11
ENDBRANCH   6   7
ENDBRANCH   4   6
ENDBRANCH   3   4
ENDBRANCH   2   3
ENDBRANCH   1   2
BRANCH   1  26
ATOM     26  O   UNL     1       5.412   0.476   2.314  1.00  0.00    -0.374 OA
BRANCH  26  27
ATOM     27  C   UNL     1       4.067   0.886   2.576  1.00  0.00     0.202 C 
BRANCH  27  28
ATOM     28  C   UNL     1       3.812   2.148   3.393  1.00  0.00     0.261 C 
BRANCH  28  29
ATOM     29  O   UNL     1       3.808   3.277   2.505  1.00  0.00    -0.460 OA
BRANCH  29  30
ATOM     30  C   UNL     1       4.888   4.072   2.574  1.00  0.00     0.338 C 
ATOM     31  O   UNL     1       5.791   4.045   3.402  1.00  0.00    -0.246 OA
BRANCH  30  32
ATOM     32  C   UNL     1       4.963   4.838   1.329  1.00  0.00     0.060 A 
ATOM     33  C   UNL     1       6.124   4.721   0.550  1.00  0.00     0.016 A 
ATOM     34  C   UNL     1       3.937   5.714   0.976  1.00  0.00     0.016 A 
ATOM     35  C   UNL     1       6.293   5.520  -0.566  1.00  0.00     0.010 A 
ATOM     36  C   UNL     1       4.129   6.557  -0.112  1.00  0.00     0.010 A 
ATOM     37  C   UNL     1       5.331   6.493  -0.839  1.00  0.00    -0.014 A 
BRANCH  37  38
ATOM     38  C   UNL     1       5.726   7.645  -1.660  1.00  0.00     0.031 A 
ATOM     39  C   UNL     1       6.272   8.840  -0.939  1.00  0.00     0.074 A 
ATOM     40  C   UNL     1       5.596   7.610  -2.991  1.00  0.00     0.049 A 
ATOM     41  N   UNL     1       6.542  10.034  -1.390  1.00  0.00    -0.248 NA
ATOM     42  C   UNL     1       6.541   8.664   0.500  1.00  0.00     0.031 C 
ATOM     43  C   UNL     1       5.148   6.454  -3.763  1.00  0.00     0.029 A 
ATOM     44  N   UNL     1       5.802   8.591  -3.921  1.00  0.00    -0.354 N 
ATOM     45  C   UNL     1       6.979  10.757  -0.288  1.00  0.00     0.074 A 
ATOM     46  C   UNL     1       6.929   9.877   0.855  1.00  0.00     0.031 C 
ATOM     47  C   UNL     1       5.066   6.808  -5.056  1.00  0.00     0.029 A 
ATOM     48  C   UNL     1       5.408   8.223  -5.181  1.00  0.00     0.049 A 
ATOM     49  H   UNL     1       6.192   9.469  -3.707  1.00  0.00     0.167 HD
ATOM     50  C   UNL     1       7.376  12.049  -0.245  1.00  0.00     0.037 A 
ATOM     51  C   UNL     1       5.288   8.977  -6.288  1.00  0.00     0.037 A 
ATOM     52  C   UNL     1       7.393  12.898  -1.405  1.00  0.00     0.049 A 
ATOM     53  C   UNL     1       5.659  10.433  -6.208  1.00  0.00     0.074 A 
ATOM     54  C   UNL     1       7.778  14.220  -1.505  1.00  0.00     0.029 A 
ATOM     55  N   UNL     1       6.985  12.497  -2.672  1.00  0.00    -0.354 N 
ATOM     56  N   UNL     1       6.074  11.126  -5.172  1.00  0.00    -0.248 NA
ATOM     57  C   UNL     1       5.550  11.213  -7.446  1.00  0.00     0.031 C 
ATOM     58  C   UNL     1       7.539  14.638  -2.818  1.00  0.00     0.029 A 
ATOM     59  C   UNL     1       7.080  13.556  -3.557  1.00  0.00     0.049 A 
ATOM     60  H   UNL     1       6.673  11.592  -2.906  1.00  0.00     0.167 HD
ATOM     61  C   UNL     1       6.309  12.412  -5.637  1.00  0.00     0.074 A 
ATOM     62  C   UNL     1       5.987  12.402  -7.051  1.00  0.00     0.031 C 
ATOM     63  C   UNL     1       6.760  13.501  -4.963  1.00  0.00     0.037 A 
BRANCH  50  64
ATOM     64  C   UNL     1       7.742  12.615   1.097  1.00  0.00     0.064 A 
ATOM     65  C   UNL     1       8.866  12.177   1.815  1.00  0.00     0.173 A 
ATOM     66  C   UNL     1       6.931  13.594   1.692  1.00  0.00     0.173 A 
ATOM     67  F   UNL     1       9.665  11.226   1.305  1.00  0.00    -0.203 F 
ATOM     68  C   UNL     1       9.138  12.663   3.092  1.00  0.00     0.198 A 
ATOM     69  C   UNL     1       7.227  14.106   2.952  1.00  0.00     0.198 A 
ATOM     70  F   UNL     1       5.841  14.049   1.055  1.00  0.00    -0.203 F 
ATOM     71  F   UNL     1      10.174  12.174   3.787  1.00  0.00    -0.200 F 
ATOM     72  C   UNL     1       8.322  13.631   3.657  1.00  0.00     0.200 A 
ATOM     73  F   UNL     1       6.442  15.049   3.491  1.00  0.00    -0.200 F 
ATOM     74  F   UNL     1       8.582  14.095   4.887  1.00  0.00    -0.200 F 
ENDBRANCH  50  64
BRANCH  51  75
ATOM     75  C   UNL     1       4.777   8.356  -7.535  1.00  0.00     0.064 A 
ATOM     76  C   UNL     1       5.621   8.133  -8.628  1.00  0.00     0.173 A 
ATOM     77  C   UNL     1       3.446   7.919  -7.635  1.00  0.00     0.173 A 
ATOM     78  F   UNL     1       6.896   8.546  -8.584  1.00  0.00    -0.203 F 
ATOM     79  C   UNL     1       5.155   7.497  -9.777  1.00  0.00     0.198 A 
ATOM     80  C   UNL     1       2.989   7.260  -8.774  1.00  0.00     0.198 A 
ATOM     81  F   UNL     1       2.599   8.104  -6.612  1.00  0.00    -0.203 F 
ATOM     82  F   UNL     1       5.978   7.316 -10.819  1.00  0.00    -0.200 F 
ATOM     83  C   UNL     1       3.843   7.052  -9.845  1.00  0.00     0.200 A 
ATOM     84  F   UNL     1       1.726   6.816  -8.827  1.00  0.00    -0.200 F 
ATOM     85  F   UNL     1       3.403   6.424 -10.944  1.00  0.00    -0.200 F 
ENDBRANCH  51  75
BRANCH  63  86
ATOM     86  C   UNL     1       6.990  14.754  -5.756  1.00  0.00     0.064 A 
ATOM     87  C   UNL     1       5.930  15.532  -6.240  1.00  0.00     0.173 A 
ATOM     88  C   UNL     1       8.299  15.220  -5.961  1.00  0.00     0.173 A 
ATOM     89  F   UNL     1       4.663  15.123  -6.079  1.00  0.00    -0.203 F 
ATOM     90  C   UNL     1       6.173  16.724  -6.917  1.00  0.00     0.198 A 
ATOM     91  C   UNL     1       8.536  16.428  -6.606  1.00  0.00     0.198 A 
ATOM     92  F   UNL     1       9.347  14.515  -5.507  1.00  0.00    -0.203 F 
ATOM     93  F   UNL     1       5.148  17.434  -7.408  1.00  0.00    -0.200 F 
ATOM     94  C   UNL     1       7.473  17.177  -7.089  1.00  0.00     0.200 A 
ATOM     95  F   UNL     1       9.791  16.873  -6.752  1.00  0.00    -0.200 F 
ATOM     96  F   UNL     1       7.703  18.334  -7.723  1.00  0.00    -0.200 F 
ENDBRANCH  63  86
ENDBRANCH  37  38
ENDBRANCH  30  32
ENDBRANCH  29  30
ENDBRANCH  28  29
ENDBRANCH  27  28
ENDBRANCH  26  27
ENDBRANCH   1  26
TORSDOF 18
