REMARK SMILES Cc1ccc(C(=O)NC2CC2)cc1NC(=O)[C@@H]1[C@@H](C(=O)OCCOCCOC(=O)c2ccc(-c3c4nc(c(-c5c(F)c(F)c(F)c(F)c5F)c5ccc([nH]5)c(-c5c(F)c(F)c(F)c(F)c5F)c5nc(c(-c6c(F)c(F)c(F)c(F)c6F)c6ccc3[nH]6)C=C5)C=C4)cc2)[C@H]2C=C[C@@H]1C2
REMARK SMILES IDX 23 1 22 2 21 3 19 4 20 5 18 6 17 7 96 8 93 9 95 10 97 11
REMARK SMILES IDX 94 12 15 13 14 14 16 16 13 17 1 18 2 19 3 20 4 21 12 22 5 23
REMARK SMILES IDX 6 24 7 25 8 26 9 28 10 29 11 30 24 31 25 32 26 33 27 34
REMARK SMILES IDX 28 35 29 36 30 37 31 38 92 39 32 40 91 41 33 42 34 43 35 44
REMARK SMILES IDX 85 45 36 46 90 47 84 48 86 49 37 50 89 51 83 52 82 53 38 55
REMARK SMILES IDX 70 56 50 57 69 58 51 59 54 60 68 61 87 62 52 63 53 64 67 66
REMARK SMILES IDX 88 67 55 68 39 69 40 70 48 71 41 72 42 73 46 74 49 75 43 76
REMARK SMILES IDX 44 77 47 78 45 79 71 80 72 81 80 82 73 83 74 84 78 85 81 86
REMARK SMILES IDX 75 87 76 88 79 89 77 90 56 91 57 92 65 93 58 94 59 95 63 96
REMARK SMILES IDX 66 97 60 98 61 99 64 100 62 101
REMARK H PARENT 14 15 8 27 86 54 54 65
REMARK Flexibility Score: inf
ROOT
ATOM      1  C   UNL     1      -1.550   8.174  -1.506  1.00  0.00     0.202 C 
ENDROOT
BRANCH   1   2
ATOM      2  C   UNL     1      -2.628   7.429  -0.759  1.00  0.00     0.261 C 
BRANCH   2   3
ATOM      3  O   UNL     1      -2.073   6.697   0.343  1.00  0.00    -0.463 OA
BRANCH   3   4
ATOM      4  C   UNL     1      -1.613   5.448   0.058  1.00  0.00     0.310 C 
ATOM      5  O   UNL     1      -1.824   4.839  -0.985  1.00  0.00    -0.252 OA
BRANCH   4   6
ATOM      6  C   UNL     1      -0.746   4.954   1.186  1.00  0.00     0.119 C 
ATOM      7  C   UNL     1      -0.325   3.458   1.003  1.00  0.00     0.100 C 
ATOM      8  C   UNL     1      -0.648   2.855   2.395  1.00  0.00     0.025 C 
ATOM      9  C   UNL     1      -1.476   4.933   2.548  1.00  0.00     0.027 C 
ATOM     10  C   UNL     1      -2.155   2.731   2.473  1.00  0.00    -0.027 C 
ATOM     11  C   UNL     1      -0.494   4.061   3.335  1.00  0.00     0.017 C 
ATOM     12  C   UNL     1      -2.652   3.977   2.529  1.00  0.00    -0.027 C 
BRANCH   7  13
ATOM     13  C   UNL     1       1.103   3.233   0.527  1.00  0.00     0.228 C 
ATOM     14  N   UNL     1       1.583   1.992   0.174  1.00  0.00    -0.326 N 
ATOM     15  H   UNL     1       2.538   2.002  -0.065  1.00  0.00     0.169 HD
ATOM     16  O   UNL     1       1.895   4.180   0.463  1.00  0.00    -0.274 OA
BRANCH  14  17
ATOM     17  C   UNL     1       1.000   0.703   0.083  1.00  0.00     0.044 A 
ATOM     18  C   UNL     1       3.271  -0.470   0.242  1.00  0.00     0.046 C 
ATOM     19  C   UNL     1       1.771  -0.458   0.190  1.00  0.00    -0.027 A 
ATOM     20  C   UNL     1       1.119  -1.712   0.223  1.00  0.00     0.006 A 
ATOM     21  C   UNL     1      -0.273  -1.819   0.149  1.00  0.00     0.014 A 
ATOM     22  C   UNL     1      -0.361   0.536  -0.154  1.00  0.00     0.040 A 
ATOM     23  C   UNL     1      -1.045  -0.684  -0.062  1.00  0.00     0.041 A 
BRANCH  23  24
ATOM     24  C   UNL     1      -2.543  -0.855  -0.110  1.00  0.00     0.251 C 
ATOM     25  O   UNL     1      -3.040  -1.935   0.209  1.00  0.00    -0.269 OA
ATOM     26  N   UNL     1      -3.393   0.173  -0.461  1.00  0.00    -0.349 N 
ATOM     27  H   UNL     1      -4.357  -0.006  -0.381  1.00  0.00     0.164 HD
BRANCH  26  28
ATOM     28  C   UNL     1      -3.029   1.448  -0.922  1.00  0.00     0.082 C 
ATOM     29  C   UNL     1      -2.683   1.608  -2.345  1.00  0.00     0.027 C 
ATOM     30  C   UNL     1      -3.822   2.391  -1.761  1.00  0.00     0.027 C 
ENDBRANCH  26  28
ENDBRANCH  23  24
ENDBRANCH  14  17
ENDBRANCH   7  13
ENDBRANCH   4   6
ENDBRANCH   3   4
ENDBRANCH   2   3
ENDBRANCH   1   2
BRANCH   1  31
ATOM     31  O   UNL     1      -0.956   7.224  -2.383  1.00  0.00    -0.374 OA
BRANCH  31  32
ATOM     32  C   UNL     1       0.224   7.652  -3.044  1.00  0.00     0.202 C 
BRANCH  32  33
ATOM     33  C   UNL     1       0.013   8.875  -3.946  1.00  0.00     0.261 C 
BRANCH  33  34
ATOM     34  O   UNL     1      -0.942   8.546  -4.975  1.00  0.00    -0.460 OA
BRANCH  34  35
ATOM     35  C   UNL     1      -2.155   9.148  -4.850  1.00  0.00     0.338 C 
ATOM     36  O   UNL     1      -2.338  10.341  -4.683  1.00  0.00    -0.246 OA
BRANCH  35  37
ATOM     37  C   UNL     1      -3.207   8.110  -4.659  1.00  0.00     0.060 A 
ATOM     38  C   UNL     1      -4.486   8.486  -4.213  1.00  0.00     0.016 A 
ATOM     39  C   UNL     1      -2.842   6.766  -4.655  1.00  0.00     0.016 A 
ATOM     40  C   UNL     1      -5.348   7.532  -3.654  1.00  0.00     0.010 A 
ATOM     41  C   UNL     1      -3.655   5.851  -4.016  1.00  0.00     0.010 A 
ATOM     42  C   UNL     1      -4.904   6.223  -3.492  1.00  0.00    -0.014 A 
BRANCH  42  43
ATOM     43  C   UNL     1      -5.649   5.166  -2.792  1.00  0.00     0.031 A 
ATOM     44  C   UNL     1      -6.054   3.967  -3.584  1.00  0.00     0.074 A 
ATOM     45  C   UNL     1      -5.669   5.127  -1.433  1.00  0.00     0.049 A 
ATOM     46  N   UNL     1      -6.731   2.970  -3.131  1.00  0.00    -0.248 NA
ATOM     47  C   UNL     1      -5.650   3.764  -4.970  1.00  0.00     0.031 C 
ATOM     48  C   UNL     1      -5.986   3.985  -0.565  1.00  0.00     0.029 A 
ATOM     49  N   UNL     1      -5.342   6.120  -0.492  1.00  0.00    -0.354 N 
ATOM     50  C   UNL     1      -6.543   1.891  -3.975  1.00  0.00     0.074 A 
ATOM     51  C   UNL     1      -5.936   2.472  -5.147  1.00  0.00     0.031 C 
ATOM     52  C   UNL     1      -6.056   4.370   0.719  1.00  0.00     0.029 A 
ATOM     53  C   UNL     1      -6.064   5.815   0.682  1.00  0.00     0.049 A 
ATOM     54  H   UNL     1      -4.730   6.880  -0.626  1.00  0.00     0.167 HD
ATOM     55  C   UNL     1      -6.807   0.632  -3.496  1.00  0.00     0.037 A 
ATOM     56  C   UNL     1      -7.131   6.578   1.047  1.00  0.00     0.037 A 
ATOM     57  C   UNL     1      -7.393   0.715  -2.131  1.00  0.00     0.049 A 
ATOM     58  C   UNL     1      -8.368   5.713   0.962  1.00  0.00     0.074 A 
ATOM     59  C   UNL     1      -7.019   0.241  -0.884  1.00  0.00     0.029 A 
ATOM     60  N   UNL     1      -8.452   1.608  -1.877  1.00  0.00    -0.354 N 
ATOM     61  N   UNL     1      -8.566   4.810   0.029  1.00  0.00    -0.248 NA
ATOM     62  C   UNL     1      -9.295   5.596   2.083  1.00  0.00     0.031 C 
ATOM     63  C   UNL     1      -7.708   0.994   0.110  1.00  0.00     0.029 A 
ATOM     64  C   UNL     1      -8.599   1.853  -0.522  1.00  0.00     0.049 A 
ATOM     65  H   UNL     1      -9.018   2.009  -2.576  1.00  0.00     0.167 HD
ATOM     66  C   UNL     1      -9.476   3.901   0.500  1.00  0.00     0.074 A 
ATOM     67  C   UNL     1      -9.959   4.476   1.751  1.00  0.00     0.031 C 
ATOM     68  C   UNL     1      -9.704   2.644   0.008  1.00  0.00     0.037 A 
BRANCH  55  69
ATOM     69  C   UNL     1      -6.301  -0.681  -4.138  1.00  0.00     0.064 A 
ATOM     70  C   UNL     1      -6.311  -1.907  -3.429  1.00  0.00     0.173 A 
ATOM     71  C   UNL     1      -5.749  -0.808  -5.433  1.00  0.00     0.173 A 
ATOM     72  F   UNL     1      -6.930  -2.025  -2.249  1.00  0.00    -0.203 F 
ATOM     73  C   UNL     1      -5.722  -3.089  -3.915  1.00  0.00     0.198 A 
ATOM     74  C   UNL     1      -5.138  -1.978  -5.913  1.00  0.00     0.198 A 
ATOM     75  F   UNL     1      -5.846   0.157  -6.345  1.00  0.00    -0.203 F 
ATOM     76  F   UNL     1      -5.767  -4.208  -3.179  1.00  0.00    -0.200 F 
ATOM     77  C   UNL     1      -5.109  -3.117  -5.147  1.00  0.00     0.200 A 
ATOM     78  F   UNL     1      -4.599  -1.986  -7.142  1.00  0.00    -0.200 F 
ATOM     79  F   UNL     1      -4.542  -4.238  -5.614  1.00  0.00    -0.200 F 
ENDBRANCH  55  69
BRANCH  56  80
ATOM     80  C   UNL     1      -6.912   8.015   0.716  1.00  0.00     0.064 A 
ATOM     81  C   UNL     1      -5.848   8.660   1.392  1.00  0.00     0.173 A 
ATOM     82  C   UNL     1      -7.338   8.588  -0.487  1.00  0.00     0.173 A 
ATOM     83  F   UNL     1      -5.369   8.139   2.534  1.00  0.00    -0.203 F 
ATOM     84  C   UNL     1      -5.156   9.730   0.822  1.00  0.00     0.198 A 
ATOM     85  C   UNL     1      -6.646   9.670  -1.050  1.00  0.00     0.198 A 
ATOM     86  F   UNL     1      -8.328   8.025  -1.193  1.00  0.00    -0.203 F 
ATOM     87  F   UNL     1      -4.043  10.197   1.409  1.00  0.00    -0.200 F 
ATOM     88  C   UNL     1      -5.532  10.208  -0.419  1.00  0.00     0.200 A 
ATOM     89  F   UNL     1      -6.990  10.125  -2.264  1.00  0.00    -0.200 F 
ATOM     90  F   UNL     1      -4.780  11.131  -1.037  1.00  0.00    -0.200 F 
ENDBRANCH  56  80
BRANCH  68  91
ATOM     91  C   UNL     1     -11.049   1.976   0.141  1.00  0.00     0.064 A 
ATOM     92  C   UNL     1     -12.234   2.714   0.307  1.00  0.00     0.173 A 
ATOM     93  C   UNL     1     -11.213   0.595  -0.114  1.00  0.00     0.173 A 
ATOM     94  F   UNL     1     -12.216   4.047   0.445  1.00  0.00    -0.203 F 
ATOM     95  C   UNL     1     -13.486   2.106   0.280  1.00  0.00     0.198 A 
ATOM     96  C   UNL     1     -12.469   0.003  -0.197  1.00  0.00     0.198 A 
ATOM     97  F   UNL     1     -10.173  -0.220  -0.335  1.00  0.00    -0.203 F 
ATOM     98  F   UNL     1     -14.582   2.849   0.480  1.00  0.00    -0.200 F 
ATOM     99  C   UNL     1     -13.604   0.756   0.014  1.00  0.00     0.200 A 
ATOM    100  F   UNL     1     -12.569  -1.296  -0.510  1.00  0.00    -0.200 F 
ATOM    101  F   UNL     1     -14.813   0.186  -0.063  1.00  0.00    -0.200 F 
ENDBRANCH  68  91
ENDBRANCH  42  43
ENDBRANCH  35  37
ENDBRANCH  34  35
ENDBRANCH  33  34
ENDBRANCH  32  33
ENDBRANCH  31  32
ENDBRANCH   1  31
TORSDOF 18
