REMARK SMILES O=C(OCCOCCOC(=O)c1cccc(N[C@H]2CCCC[C@@H]2O)c1)c1ccc(-c2c3nc(c(-c4c(F)c(F)c(F)c(F)c4F)c4ccc([nH]4)c(-c4c(F)c(F)c(F)c(F)c4F)c4nc(c(-c5c(F)c(F)c(F)c(F)c5F)c5ccc2[nH]5)C=C4)C=C3)cc1
REMARK SMILES IDX 7 1 6 2 5 3 4 4 3 5 2 6 1 7 26 8 27 9 88 10 28 11 87 12
REMARK SMILES IDX 29 13 30 14 31 15 81 16 32 17 86 18 80 19 82 20 33 21 85 22
REMARK SMILES IDX 79 23 78 24 34 26 66 27 46 28 65 29 47 30 50 31 64 32 83 33
REMARK SMILES IDX 48 34 49 35 63 37 84 38 51 39 35 40 36 41 44 42 37 43 38 44
REMARK SMILES IDX 42 45 45 46 39 47 40 48 43 49 41 50 67 51 68 52 76 53 69 54
REMARK SMILES IDX 70 55 74 56 77 57 71 58 72 59 75 60 73 61 52 62 53 63 61 64
REMARK SMILES IDX 54 65 55 66 59 67 62 68 56 69 57 70 60 71 58 72 8 73 9 74
REMARK SMILES IDX 10 75 11 76 12 77 13 78 25 79 14 80 16 81 15 82 17 83 18 85
REMARK SMILES IDX 19 86 23 87 20 88 22 89 21 90 24 91
REMARK H PARENT 82 25 50 36 17 84 24 92
REMARK Flexibility Score: inf
ROOT
ATOM      1  C   UNL     1       2.640  -2.252   0.251  1.00  0.00     0.202 C 
ENDROOT
BRANCH   1   2
ATOM      2  O   UNL     1       3.976  -1.748   0.370  1.00  0.00    -0.374 OA
BRANCH   2   3
ATOM      3  C   UNL     1       4.224  -0.888   1.483  1.00  0.00     0.202 C 
BRANCH   3   4
ATOM      4  C   UNL     1       3.925   0.589   1.220  1.00  0.00     0.261 C 
BRANCH   4   5
ATOM      5  O   UNL     1       2.549   0.761   0.846  1.00  0.00    -0.460 OA
BRANCH   5   6
ATOM      6  C   UNL     1       2.038   0.994  -0.385  1.00  0.00     0.338 C 
ATOM      7  O   UNL     1       0.827   1.175  -0.495  1.00  0.00    -0.246 OA
BRANCH   6   8
ATOM      8  C   UNL     1       2.861   1.043  -1.631  1.00  0.00     0.060 A 
ATOM      9  C   UNL     1       4.056   0.348  -1.831  1.00  0.00     0.016 A 
ATOM     10  C   UNL     1       2.331   1.762  -2.716  1.00  0.00     0.016 A 
ATOM     11  C   UNL     1       4.736   0.399  -3.037  1.00  0.00     0.010 A 
ATOM     12  C   UNL     1       2.986   1.788  -3.950  1.00  0.00     0.010 A 
ATOM     13  C   UNL     1       4.199   1.110  -4.104  1.00  0.00    -0.014 A 
BRANCH  13  14
ATOM     14  C   UNL     1       4.990   1.187  -5.341  1.00  0.00     0.031 A 
ATOM     15  C   UNL     1       5.749   2.443  -5.620  1.00  0.00     0.074 A 
ATOM     16  C   UNL     1       5.113   0.094  -6.113  1.00  0.00     0.049 A 
ATOM     17  N   UNL     1       6.476   2.759  -6.655  1.00  0.00    -0.248 NA
ATOM     18  C   UNL     1       5.691   3.482  -4.578  1.00  0.00     0.031 C 
ATOM     19  C   UNL     1       4.500  -1.206  -5.830  1.00  0.00     0.029 A 
ATOM     20  N   UNL     1       5.811  -0.109  -7.271  1.00  0.00    -0.354 N 
ATOM     21  C   UNL     1       6.937   4.044  -6.406  1.00  0.00     0.074 A 
ATOM     22  C   UNL     1       6.411   4.450  -5.123  1.00  0.00     0.031 C 
ATOM     23  C   UNL     1       4.860  -2.076  -6.787  1.00  0.00     0.029 A 
ATOM     24  C   UNL     1       5.665  -1.376  -7.780  1.00  0.00     0.049 A 
ATOM     25  H   UNL     1       6.363   0.585  -7.699  1.00  0.00     0.167 HD
ATOM     26  C   UNL     1       7.720   4.811  -7.198  1.00  0.00     0.037 A 
ATOM     27  C   UNL     1       6.104  -1.888  -8.945  1.00  0.00     0.037 A 
ATOM     28  C   UNL     1       8.219   4.369  -8.472  1.00  0.00     0.049 A 
ATOM     29  C   UNL     1       6.902  -0.986  -9.848  1.00  0.00     0.074 A 
ATOM     30  C   UNL     1       8.971   5.062  -9.400  1.00  0.00     0.029 A 
ATOM     31  N   UNL     1       8.003   3.098  -8.995  1.00  0.00    -0.354 N 
ATOM     32  N   UNL     1       7.285   0.254  -9.647  1.00  0.00    -0.248 NA
ATOM     33  C   UNL     1       7.316  -1.541 -11.141  1.00  0.00     0.031 C 
ATOM     34  C   UNL     1       9.168   4.227 -10.506  1.00  0.00     0.029 A 
ATOM     35  C   UNL     1       8.587   2.993 -10.245  1.00  0.00     0.049 A 
ATOM     36  H   UNL     1       7.506   2.378  -8.543  1.00  0.00     0.167 HD
ATOM     37  C   UNL     1       7.992   0.627 -10.780  1.00  0.00     0.074 A 
ATOM     38  C   UNL     1       8.003  -0.530 -11.655  1.00  0.00     0.031 C 
ATOM     39  C   UNL     1       8.573   1.815 -11.078  1.00  0.00     0.037 A 
BRANCH  26  40
ATOM     40  C   UNL     1       7.987   6.212  -6.736  1.00  0.00     0.064 A 
ATOM     41  C   UNL     1       8.812   6.492  -5.635  1.00  0.00     0.173 A 
ATOM     42  C   UNL     1       7.353   7.292  -7.369  1.00  0.00     0.173 A 
ATOM     43  F   UNL     1       9.416   5.494  -4.973  1.00  0.00    -0.203 F 
ATOM     44  C   UNL     1       8.957   7.795  -5.162  1.00  0.00     0.198 A 
ATOM     45  C   UNL     1       7.524   8.595  -6.912  1.00  0.00     0.198 A 
ATOM     46  F   UNL     1       6.547   7.080  -8.421  1.00  0.00    -0.203 F 
ATOM     47  F   UNL     1       9.690   8.030  -4.064  1.00  0.00    -0.200 F 
ATOM     48  C   UNL     1       8.315   8.845  -5.801  1.00  0.00     0.200 A 
ATOM     49  F   UNL     1       6.903   9.608  -7.532  1.00  0.00    -0.200 F 
ATOM     50  F   UNL     1       8.442  10.095  -5.335  1.00  0.00    -0.200 F 
ENDBRANCH  26  40
BRANCH  27  51
ATOM     51  C   UNL     1       5.745  -3.278  -9.333  1.00  0.00     0.064 A 
ATOM     52  C   UNL     1       6.717  -4.277  -9.469  1.00  0.00     0.173 A 
ATOM     53  C   UNL     1       4.408  -3.639  -9.569  1.00  0.00     0.173 A 
ATOM     54  F   UNL     1       8.011  -3.982  -9.277  1.00  0.00    -0.203 F 
ATOM     55  C   UNL     1       6.369  -5.578  -9.835  1.00  0.00     0.198 A 
ATOM     56  C   UNL     1       4.058  -4.946  -9.903  1.00  0.00     0.198 A 
ATOM     57  F   UNL     1       3.434  -2.724  -9.457  1.00  0.00    -0.203 F 
ATOM     58  F   UNL     1       7.324  -6.503  -9.998  1.00  0.00    -0.200 F 
ATOM     59  C   UNL     1       5.040  -5.913 -10.043  1.00  0.00     0.200 A 
ATOM     60  F   UNL     1       2.769  -5.266 -10.088  1.00  0.00    -0.200 F 
ATOM     61  F   UNL     1       4.706  -7.164 -10.387  1.00  0.00    -0.200 F 
ENDBRANCH  27  51
BRANCH  39  62
ATOM     62  C   UNL     1       9.284   1.906 -12.394  1.00  0.00     0.064 A 
ATOM     63  C   UNL     1       8.580   1.984 -13.604  1.00  0.00     0.173 A 
ATOM     64  C   UNL     1      10.684   1.975 -12.436  1.00  0.00     0.173 A 
ATOM     65  F   UNL     1       7.240   1.906 -13.612  1.00  0.00    -0.203 F 
ATOM     66  C   UNL     1       9.255   2.110 -14.813  1.00  0.00     0.198 A 
ATOM     67  C   UNL     1      11.354   2.131 -13.644  1.00  0.00     0.198 A 
ATOM     68  F   UNL     1      11.399   1.911 -11.303  1.00  0.00    -0.203 F 
ATOM     69  F   UNL     1       8.566   2.142 -15.962  1.00  0.00    -0.200 F 
ATOM     70  C   UNL     1      10.640   2.193 -14.832  1.00  0.00     0.200 A 
ATOM     71  F   UNL     1      12.691   2.227 -13.660  1.00  0.00    -0.200 F 
ATOM     72  F   UNL     1      11.288   2.328 -15.997  1.00  0.00    -0.200 F 
ENDBRANCH  39  62
ENDBRANCH  13  14
ENDBRANCH   6   8
ENDBRANCH   5   6
ENDBRANCH   4   5
ENDBRANCH   3   4
ENDBRANCH   2   3
ENDBRANCH   1   2
BRANCH   1  73
ATOM     73  C   UNL     1       2.692  -3.735  -0.132  1.00  0.00     0.261 C 
BRANCH  73  74
ATOM     74  O   UNL     1       3.326  -4.452   0.937  1.00  0.00    -0.460 OA
BRANCH  74  75
ATOM     75  C   UNL     1       4.684  -4.451   0.886  1.00  0.00     0.338 C 
ATOM     76  O   UNL     1       5.388  -4.351  -0.105  1.00  0.00    -0.246 OA
BRANCH  75  77
ATOM     77  C   UNL     1       5.173  -4.327   2.275  1.00  0.00     0.062 A 
ATOM     78  C   UNL     1       6.272  -3.501   2.521  1.00  0.00     0.016 A 
ATOM     79  C   UNL     1       4.499  -4.945   3.334  1.00  0.00     0.041 A 
ATOM     80  C   UNL     1       6.651  -3.247   3.832  1.00  0.00     0.003 A 
ATOM     81  C   UNL     1       4.906  -4.753   4.656  1.00  0.00     0.035 A 
ATOM     82  C   UNL     1       5.965  -3.863   4.883  1.00  0.00     0.026 A 
BRANCH  81  83
ATOM     83  N   UNL     1       4.287  -5.499   5.644  1.00  0.00    -0.380 N 
ATOM     84  H   UNL     1       3.335  -5.713   5.514  1.00  0.00     0.160 HD
BRANCH  83  85
ATOM     85  C   UNL     1       4.926  -6.000   6.870  1.00  0.00     0.107 C 
ATOM     86  C   UNL     1       6.326  -6.577   6.613  1.00  0.00     0.027 C 
ATOM     87  C   UNL     1       4.852  -4.949   7.998  1.00  0.00     0.136 C 
ATOM     88  C   UNL     1       7.044  -6.959   7.901  1.00  0.00     0.002 C 
ATOM     89  C   UNL     1       5.621  -5.385   9.240  1.00  0.00     0.034 C 
ATOM     90  C   UNL     1       7.045  -5.802   8.894  1.00  0.00     0.003 C 
BRANCH  87  91
ATOM     91  O   UNL     1       3.481  -4.734   8.356  1.00  0.00    -0.391 OA
ATOM     92  H   UNL     1       3.100  -5.562   8.687  1.00  0.00     0.211 HD
ENDBRANCH  87  91
ENDBRANCH  83  85
ENDBRANCH  81  83
ENDBRANCH  75  77
ENDBRANCH  74  75
ENDBRANCH  73  74
ENDBRANCH   1  73
TORSDOF 17
