REMARK SMILES CCc1cc(C(=O)NC[C@@H](CC(C)C)C(=O)OCCOCCOC(=O)c2ccc(-c3c4nc(c(-c5c(F)c(F)c(F)c(F)c5F)c5ccc([nH]5)c(-c5c(F)c(F)c(F)c(F)c5F)c5nc(c(-c6c(F)c(F)c(F)c(F)c6F)c6ccc3[nH]6)C=C5)C=C4)cc2)sc1C
REMARK SMILES IDX 19 1 18 2 17 3 15 4 16 5 10 6 9 7 8 8 6 9 7 10 5 12 3 13
REMARK SMILES IDX 4 14 90 15 89 16 91 17 2 18 1 19 11 20 12 21 13 22 14 23
REMARK SMILES IDX 20 24 21 25 22 26 23 27 24 28 25 29 26 30 27 31 88 32 28 33
REMARK SMILES IDX 87 34 29 35 30 36 31 37 81 38 32 39 86 40 80 41 82 42 33 43
REMARK SMILES IDX 85 44 79 45 78 46 34 48 66 49 46 50 65 51 47 52 50 53 64 54
REMARK SMILES IDX 83 55 48 56 49 57 63 59 84 60 51 61 35 62 36 63 44 64 37 65
REMARK SMILES IDX 38 66 42 67 45 68 39 69 40 70 43 71 41 72 67 73 68 74 76 75
REMARK SMILES IDX 69 76 70 77 74 78 77 79 71 80 72 81 75 82 73 83 52 84 53 85
REMARK SMILES IDX 61 86 54 87 55 88 59 89 62 90 56 91 57 92 60 93 58 94
REMARK H PARENT 8 11 82 47 50 58
REMARK Flexibility Score: inf
ROOT
ATOM      1  C   UNL     1       1.309  -7.102  -0.995  1.00  0.00     0.202 C 
ENDROOT
BRANCH   1   2
ATOM      2  C   UNL     1       2.048  -7.746   0.180  1.00  0.00     0.261 C 
BRANCH   2   3
ATOM      3  O   UNL     1       1.967  -6.968   1.393  1.00  0.00    -0.463 OA
BRANCH   3   4
ATOM      4  C   UNL     1       3.143  -6.802   2.056  1.00  0.00     0.310 C 
ATOM      5  O   UNL     1       4.230  -7.202   1.652  1.00  0.00    -0.252 OA
BRANCH   4   6
ATOM      6  C   UNL     1       2.994  -6.147   3.420  1.00  0.00     0.118 C 
BRANCH   6   7
ATOM      7  C   UNL     1       1.849  -5.132   3.538  1.00  0.00     0.131 C 
BRANCH   7   8
ATOM      8  N   UNL     1       1.906  -4.403   4.804  1.00  0.00    -0.350 N 
ATOM      9  C   UNL     1       1.855  -3.072   5.148  1.00  0.00     0.261 C 
ATOM     10  O   UNL     1       2.093  -2.852   6.341  1.00  0.00    -0.268 OA
ATOM     11  H   UNL     1       2.001  -4.997   5.583  1.00  0.00     0.163 HD
BRANCH   9  12
ATOM     12  C   UNL     1       1.538  -2.016   4.194  1.00  0.00     0.092 A 
ATOM     13  C   UNL     1       0.756  -0.711   2.370  1.00  0.00    -0.034 A 
ATOM     14  C   UNL     1       0.854  -2.012   2.993  1.00  0.00     0.029 A 
ATOM     15  C   UNL     1       1.266   0.263   3.213  1.00  0.00     0.005 A 
ATOM     16  S   UNL     1       1.986  -0.408   4.609  1.00  0.00    -0.135 S 
ATOM     17  C   UNL     1       1.267   1.749   3.047  1.00  0.00     0.056 C 
BRANCH  13  18
ATOM     18  C   UNL     1       0.114  -0.471   1.026  1.00  0.00     0.033 C 
ATOM     19  C   UNL     1       0.938   0.385   0.071  1.00  0.00     0.009 C 
ENDBRANCH  13  18
ENDBRANCH   9  12
ENDBRANCH   7   8
ENDBRANCH   6   7
BRANCH   6  20
ATOM     20  C   UNL     1       3.092  -7.228   4.517  1.00  0.00     0.020 C 
BRANCH  20  21
ATOM     21  C   UNL     1       1.833  -8.027   4.914  1.00  0.00    -0.017 C 
ATOM     22  C   UNL     1       1.130  -8.725   3.752  1.00  0.00     0.007 C 
ATOM     23  C   UNL     1       2.234  -9.085   5.952  1.00  0.00     0.007 C 
ENDBRANCH  20  21
ENDBRANCH   6  20
ENDBRANCH   4   6
ENDBRANCH   3   4
ENDBRANCH   2   3
ENDBRANCH   1   2
BRANCH   1  24
ATOM     24  O   UNL     1       1.855  -5.872  -1.468  1.00  0.00    -0.374 OA
BRANCH  24  25
ATOM     25  C   UNL     1       1.793  -4.756  -0.587  1.00  0.00     0.202 C 
BRANCH  25  26
ATOM     26  C   UNL     1       0.392  -4.201  -0.337  1.00  0.00     0.261 C 
BRANCH  26  27
ATOM     27  O   UNL     1      -0.507  -5.159   0.245  1.00  0.00    -0.460 OA
BRANCH  27  28
ATOM     28  C   UNL     1      -1.792  -5.006  -0.153  1.00  0.00     0.338 C 
ATOM     29  O   UNL     1      -2.261  -4.088  -0.811  1.00  0.00    -0.246 OA
BRANCH  28  30
ATOM     30  C   UNL     1      -2.604  -6.155   0.267  1.00  0.00     0.060 A 
ATOM     31  C   UNL     1      -2.797  -7.213  -0.628  1.00  0.00     0.016 A 
ATOM     32  C   UNL     1      -3.328  -6.087   1.459  1.00  0.00     0.016 A 
ATOM     33  C   UNL     1      -3.760  -8.187  -0.349  1.00  0.00     0.010 A 
ATOM     34  C   UNL     1      -4.285  -7.067   1.739  1.00  0.00     0.010 A 
ATOM     35  C   UNL     1      -4.536  -8.098   0.817  1.00  0.00    -0.014 A 
BRANCH  35  36
ATOM     36  C   UNL     1      -5.700  -9.001   1.003  1.00  0.00     0.031 A 
ATOM     37  C   UNL     1      -7.081  -8.506   0.664  1.00  0.00     0.074 A 
ATOM     38  C   UNL     1      -5.527 -10.258   1.446  1.00  0.00     0.049 A 
ATOM     39  N   UNL     1      -8.232  -9.125   0.753  1.00  0.00    -0.248 NA
ATOM     40  C   UNL     1      -7.178  -7.130   0.152  1.00  0.00     0.031 C 
ATOM     41  C   UNL     1      -4.241 -10.863   1.784  1.00  0.00     0.029 A 
ATOM     42  N   UNL     1      -6.443 -11.252   1.689  1.00  0.00    -0.354 N 
ATOM     43  C   UNL     1      -9.185  -8.220   0.305  1.00  0.00     0.074 A 
ATOM     44  C   UNL     1      -8.485  -6.996  -0.024  1.00  0.00     0.031 C 
ATOM     45  C   UNL     1      -4.448 -12.127   2.191  1.00  0.00     0.029 A 
ATOM     46  C   UNL     1      -5.882 -12.411   2.165  1.00  0.00     0.049 A 
ATOM     47  H   UNL     1      -7.409 -11.144   1.536  1.00  0.00     0.167 HD
ATOM     48  C   UNL     1     -10.521  -8.396   0.167  1.00  0.00     0.037 A 
ATOM     49  C   UNL     1      -6.463 -13.565   2.545  1.00  0.00     0.037 A 
ATOM     50  C   UNL     1     -11.222  -9.607   0.498  1.00  0.00     0.049 A 
ATOM     51  C   UNL     1      -7.959 -13.712   2.444  1.00  0.00     0.074 A 
ATOM     52  C   UNL     1     -12.575  -9.882   0.391  1.00  0.00     0.029 A 
ATOM     53  N   UNL     1     -10.622 -10.749   1.008  1.00  0.00    -0.354 N 
ATOM     54  N   UNL     1      -8.846 -12.858   1.997  1.00  0.00    -0.248 NA
ATOM     55  C   UNL     1      -8.531 -14.988   2.899  1.00  0.00     0.031 C 
ATOM     56  C   UNL     1     -12.798 -11.178   0.868  1.00  0.00     0.029 A 
ATOM     57  C   UNL     1     -11.579 -11.724   1.236  1.00  0.00     0.049 A 
ATOM     58  H   UNL     1      -9.659 -10.851   1.182  1.00  0.00     0.167 HD
ATOM     59  C   UNL     1     -10.075 -13.499   2.092  1.00  0.00     0.074 A 
ATOM     60  C   UNL     1      -9.818 -14.818   2.630  1.00  0.00     0.031 C 
ATOM     61  C   UNL     1     -11.305 -13.036   1.763  1.00  0.00     0.037 A 
BRANCH  48  62
ATOM     62  C   UNL     1     -11.318  -7.241  -0.363  1.00  0.00     0.064 A 
ATOM     63  C   UNL     1     -11.273  -6.884  -1.718  1.00  0.00     0.173 A 
ATOM     64  C   UNL     1     -12.165  -6.510   0.483  1.00  0.00     0.173 A 
ATOM     65  F   UNL     1     -10.469  -7.545  -2.564  1.00  0.00    -0.203 F 
ATOM     66  C   UNL     1     -12.034  -5.824  -2.204  1.00  0.00     0.198 A 
ATOM     67  C   UNL     1     -12.941  -5.465  -0.011  1.00  0.00     0.198 A 
ATOM     68  F   UNL     1     -12.246  -6.816   1.787  1.00  0.00    -0.203 F 
ATOM     69  F   UNL     1     -11.950  -5.477  -3.497  1.00  0.00    -0.200 F 
ATOM     70  C   UNL     1     -12.871  -5.119  -1.352  1.00  0.00     0.200 A 
ATOM     71  F   UNL     1     -13.756  -4.790   0.812  1.00  0.00    -0.200 F 
ATOM     72  F   UNL     1     -13.607  -4.103  -1.823  1.00  0.00    -0.200 F 
ENDBRANCH  48  62
BRANCH  49  73
ATOM     73  C   UNL     1      -5.628 -14.682   3.055  1.00  0.00     0.064 A 
ATOM     74  C   UNL     1      -5.452 -15.852   2.304  1.00  0.00     0.173 A 
ATOM     75  C   UNL     1      -5.002 -14.607   4.307  1.00  0.00     0.173 A 
ATOM     76  F   UNL     1      -6.053 -15.979   1.112  1.00  0.00    -0.203 F 
ATOM     77  C   UNL     1      -4.691 -16.912   2.794  1.00  0.00     0.198 A 
ATOM     78  C   UNL     1      -4.222 -15.658   4.785  1.00  0.00     0.198 A 
ATOM     79  F   UNL     1      -5.142 -13.509   5.064  1.00  0.00    -0.203 F 
ATOM     80  F   UNL     1      -4.571 -18.036   2.074  1.00  0.00    -0.200 F 
ATOM     81  C   UNL     1      -4.073 -16.812   4.031  1.00  0.00     0.200 A 
ATOM     82  F   UNL     1      -3.619 -15.553   5.977  1.00  0.00    -0.200 F 
ATOM     83  F   UNL     1      -3.340 -17.831   4.500  1.00  0.00    -0.200 F 
ENDBRANCH  49  73
BRANCH  61  84
ATOM     84  C   UNL     1     -12.463 -13.971   1.944  1.00  0.00     0.064 A 
ATOM     85  C   UNL     1     -12.979 -14.261   3.215  1.00  0.00     0.173 A 
ATOM     86  C   UNL     1     -13.087 -14.553   0.830  1.00  0.00     0.173 A 
ATOM     87  F   UNL     1     -12.405 -13.741   4.310  1.00  0.00    -0.203 F 
ATOM     88  C   UNL     1     -14.066 -15.118   3.366  1.00  0.00     0.198 A 
ATOM     89  C   UNL     1     -14.188 -15.390   0.983  1.00  0.00     0.198 A 
ATOM     90  F   UNL     1     -12.633 -14.302  -0.407  1.00  0.00    -0.203 F 
ATOM     91  F   UNL     1     -14.519 -15.413   4.592  1.00  0.00    -0.200 F 
ATOM     92  C   UNL     1     -14.673 -15.676   2.251  1.00  0.00     0.200 A 
ATOM     93  F   UNL     1     -14.779 -15.923  -0.096  1.00  0.00    -0.200 F 
ATOM     94  F   UNL     1     -15.722 -16.497   2.398  1.00  0.00    -0.200 F 
ENDBRANCH  61  84
ENDBRANCH  35  36
ENDBRANCH  28  30
ENDBRANCH  27  28
ENDBRANCH  26  27
ENDBRANCH  25  26
ENDBRANCH  24  25
ENDBRANCH   1  24
TORSDOF 20
