REMARK SMILES N#CC1=C(N)N2C(=O)[C@@H](CC(=O)OCCOCCOC(=O)c3ccc(-c4c5nc(c(-c6c(F)c(F)c(F)c(F)c6F)c6ccc([nH]6)c(-c6c(F)c(F)c(F)c(F)c6F)c6nc(c(-c7c(F)c(F)c(F)c(F)c7F)c7ccc4[nH]7)C=C6)C=C5)cc3)SC2=C(C#N)[C@H]1c1ccc(Cl)cc1
REMARK SMILES IDX 16 1 15 2 14 3 13 4 11 5 12 6 10 7 9 8 3 9 4 10 90 11 6 12
REMARK SMILES IDX 87 13 7 14 86 15 8 16 85 17 2 18 1 19 5 20 91 23 92 24 97 25
REMARK SMILES IDX 93 26 96 27 94 28 95 29 88 30 89 31 17 32 18 33 19 34 20 35
REMARK SMILES IDX 21 36 22 37 23 38 84 39 24 40 83 41 25 42 26 43 27 44 77 45
REMARK SMILES IDX 28 46 82 47 76 48 78 49 29 50 81 51 75 52 74 53 30 55 62 56
REMARK SMILES IDX 42 57 61 58 43 59 46 60 60 61 79 62 44 63 45 64 59 66 80 67
REMARK SMILES IDX 47 68 31 69 32 70 40 71 33 72 34 73 38 74 41 75 35 76 36 77
REMARK SMILES IDX 39 78 37 79 63 80 64 81 72 82 65 83 66 84 70 85 73 86 67 87
REMARK SMILES IDX 68 88 71 89 69 90 48 91 49 92 57 93 50 94 51 95 55 96 58 97
REMARK SMILES IDX 52 98 53 99 56 100 54 101
REMARK H PARENT 5 21 5 22 78 54 46 65
REMARK Flexibility Score: inf
ROOT
ATOM      1  O   UNL     1       6.255  -3.509  -4.142  1.00  0.00    -0.374 OA
ENDROOT
BRANCH   1   2
ATOM      2  C   UNL     1       6.708  -4.724  -3.556  1.00  0.00     0.202 C 
BRANCH   2   3
ATOM      3  C   UNL     1       8.013  -4.666  -2.745  1.00  0.00     0.261 C 
BRANCH   3   4
ATOM      4  O   UNL     1       8.008  -3.716  -1.645  1.00  0.00    -0.463 OA
BRANCH   4   5
ATOM      5  C   UNL     1       8.954  -2.752  -1.726  1.00  0.00     0.307 C 
ATOM      6  O   UNL     1       9.778  -2.675  -2.635  1.00  0.00    -0.252 OA
BRANCH   5   7
ATOM      7  C   UNL     1       8.846  -1.614  -0.737  1.00  0.00     0.147 C 
BRANCH   7   8
ATOM      8  C   UNL     1       8.243  -1.707   0.663  1.00  0.00     0.154 C 
ATOM      9  C   UNL     1       3.846   0.009   0.075  1.00  0.00     0.083 C 
ATOM     10  C   UNL     1       4.529  -1.050   0.585  1.00  0.00     0.126 C 
ATOM     11  C   UNL     1       4.546   1.321  -0.272  1.00  0.00     0.107 C 
ATOM     12  N   UNL     1       5.929  -1.000   0.643  1.00  0.00    -0.258 N 
ATOM     13  C   UNL     1       5.919   1.385   0.385  1.00  0.00     0.073 C 
ATOM     14  C   UNL     1       6.777  -2.112   0.809  1.00  0.00     0.247 C 
ATOM     15  C   UNL     1       6.537   0.237   0.710  1.00  0.00     0.099 C 
ATOM     16  O   UNL     1       6.427  -3.264   1.047  1.00  0.00    -0.273 OA
ATOM     17  S   UNL     1       8.177   0.066   1.264  1.00  0.00    -0.093 SA
BRANCH   9  18
ATOM     18  C   UNL     1       2.326   0.009   0.075  1.00  0.00     0.100 C 
ATOM     19  N   UNL     1       1.065   0.009   0.075  1.00  0.00    -0.193 NA
ENDBRANCH   9  18
BRANCH  10  20
ATOM     20  N   UNL     1       3.891  -2.183   1.010  1.00  0.00    -0.384 N 
ATOM     21  H   UNL     1       2.909  -2.237   0.976  1.00  0.00     0.158 HD
ATOM     22  H   UNL     1       4.415  -2.945   1.350  1.00  0.00     0.158 HD
ENDBRANCH  10  20
BRANCH  11  23
ATOM     23  C   UNL     1       4.590   1.572  -1.793  1.00  0.00    -0.034 A 
ATOM     24  C   UNL     1       5.793   1.625  -2.527  1.00  0.00     0.006 A 
ATOM     25  C   UNL     1       3.391   1.790  -2.497  1.00  0.00     0.006 A 
ATOM     26  C   UNL     1       5.795   1.893  -3.900  1.00  0.00     0.021 A 
ATOM     27  C   UNL     1       3.391   2.030  -3.876  1.00  0.00     0.021 A 
ATOM     28  C   UNL     1       4.593   2.087  -4.571  1.00  0.00     0.041 A 
ATOM     29  Cl  UNL     1       4.597   2.406  -6.259  1.00  0.00    -0.084 Cl
ENDBRANCH  11  23
BRANCH  13  30
ATOM     30  C   UNL     1       6.527   2.658   0.566  1.00  0.00     0.098 C 
ATOM     31  N   UNL     1       7.006   3.710   0.693  1.00  0.00    -0.193 NA
ENDBRANCH  13  30
ENDBRANCH   7   8
ENDBRANCH   5   7
ENDBRANCH   4   5
ENDBRANCH   3   4
ENDBRANCH   2   3
ENDBRANCH   1   2
BRANCH   1  32
ATOM     32  C   UNL     1       5.856  -2.474  -3.253  1.00  0.00     0.202 C 
BRANCH  32  33
ATOM     33  C   UNL     1       4.764  -2.829  -2.242  1.00  0.00     0.261 C 
BRANCH  33  34
ATOM     34  O   UNL     1       5.151  -3.897  -1.354  1.00  0.00    -0.460 OA
BRANCH  34  35
ATOM     35  C   UNL     1       4.165  -4.762  -1.015  1.00  0.00     0.338 C 
ATOM     36  O   UNL     1       2.974  -4.634  -1.246  1.00  0.00    -0.246 OA
BRANCH  35  37
ATOM     37  C   UNL     1       4.715  -6.014  -0.448  1.00  0.00     0.060 A 
ATOM     38  C   UNL     1       4.844  -7.117  -1.300  1.00  0.00     0.016 A 
ATOM     39  C   UNL     1       4.916  -6.172   0.925  1.00  0.00     0.016 A 
ATOM     40  C   UNL     1       5.134  -8.381  -0.779  1.00  0.00     0.010 A 
ATOM     41  C   UNL     1       5.215  -7.442   1.446  1.00  0.00     0.010 A 
ATOM     42  C   UNL     1       5.288  -8.566   0.603  1.00  0.00    -0.014 A 
BRANCH  42  43
ATOM     43  C   UNL     1       5.417  -9.949   1.147  1.00  0.00     0.031 A 
ATOM     44  C   UNL     1       4.256 -10.587   1.869  1.00  0.00     0.074 A 
ATOM     45  C   UNL     1       6.539 -10.665   0.943  1.00  0.00     0.049 A 
ATOM     46  N   UNL     1       4.160 -11.782   2.400  1.00  0.00    -0.248 NA
ATOM     47  C   UNL     1       3.039  -9.773   2.008  1.00  0.00     0.031 C 
ATOM     48  C   UNL     1       7.722 -10.187   0.230  1.00  0.00     0.029 A 
ATOM     49  N   UNL     1       6.866 -11.948   1.311  1.00  0.00    -0.354 N 
ATOM     50  C   UNL     1       2.880 -11.862   2.934  1.00  0.00     0.074 A 
ATOM     51  C   UNL     1       2.247 -10.582   2.699  1.00  0.00     0.031 C 
ATOM     52  C   UNL     1       8.644 -11.164   0.208  1.00  0.00     0.029 A 
ATOM     53  C   UNL     1       8.137 -12.321   0.944  1.00  0.00     0.049 A 
ATOM     54  H   UNL     1       6.249 -12.544   1.794  1.00  0.00     0.167 HD
ATOM     55  C   UNL     1       2.280 -12.910   3.552  1.00  0.00     0.037 A 
ATOM     56  C   UNL     1       8.825 -13.454   1.191  1.00  0.00     0.037 A 
ATOM     57  C   UNL     1       2.907 -14.187   3.788  1.00  0.00     0.049 A 
ATOM     58  C   UNL     1       8.163 -14.572   1.959  1.00  0.00     0.074 A 
ATOM     59  C   UNL     1       2.370 -15.312   4.392  1.00  0.00     0.029 A 
ATOM     60  N   UNL     1       4.212 -14.506   3.444  1.00  0.00    -0.354 N 
ATOM     61  N   UNL     1       6.942 -14.646   2.430  1.00  0.00    -0.248 NA
ATOM     62  C   UNL     1       8.977 -15.768   2.224  1.00  0.00     0.031 C 
ATOM     63  C   UNL     1       3.371 -16.284   4.480  1.00  0.00     0.029 A 
ATOM     64  C   UNL     1       4.508 -15.797   3.856  1.00  0.00     0.049 A 
ATOM     65  H   UNL     1       4.836 -13.905   2.977  1.00  0.00     0.167 HD
ATOM     66  C   UNL     1       6.832 -15.904   3.012  1.00  0.00     0.074 A 
ATOM     67  C   UNL     1       8.102 -16.567   2.817  1.00  0.00     0.031 C 
ATOM     68  C   UNL     1       5.771 -16.459   3.650  1.00  0.00     0.037 A 
BRANCH  55  69
ATOM     69  C   UNL     1       0.871 -12.723   4.046  1.00  0.00     0.064 A 
ATOM     70  C   UNL     1      -0.214 -12.599   3.165  1.00  0.00     0.173 A 
ATOM     71  C   UNL     1       0.595 -12.733   5.423  1.00  0.00     0.173 A 
ATOM     72  F   UNL     1      -0.008 -12.579   1.839  1.00  0.00    -0.203 F 
ATOM     73  C   UNL     1      -1.516 -12.467   3.643  1.00  0.00     0.198 A 
ATOM     74  C   UNL     1      -0.711 -12.637   5.897  1.00  0.00     0.198 A 
ATOM     75  F   UNL     1       1.592 -12.861   6.312  1.00  0.00    -0.203 F 
ATOM     76  F   UNL     1      -2.530 -12.305   2.783  1.00  0.00    -0.200 F 
ATOM     77  C   UNL     1      -1.764 -12.496   5.007  1.00  0.00     0.200 A 
ATOM     78  F   UNL     1      -0.950 -12.688   7.215  1.00  0.00    -0.200 F 
ATOM     79  F   UNL     1      -3.019 -12.384   5.465  1.00  0.00    -0.200 F 
ENDBRANCH  55  69
BRANCH  56  80
ATOM     80  C   UNL     1      10.237 -13.588   0.737  1.00  0.00     0.064 A 
ATOM     81  C   UNL     1      10.614 -14.560  -0.201  1.00  0.00     0.173 A 
ATOM     82  C   UNL     1      11.250 -12.777   1.272  1.00  0.00     0.173 A 
ATOM     83  F   UNL     1       9.690 -15.379  -0.726  1.00  0.00    -0.203 F 
ATOM     84  C   UNL     1      11.949 -14.739  -0.558  1.00  0.00     0.198 A 
ATOM     85  C   UNL     1      12.579 -12.929   0.883  1.00  0.00     0.198 A 
ATOM     86  F   UNL     1      10.948 -11.831   2.174  1.00  0.00    -0.203 F 
ATOM     87  F   UNL     1      12.289 -15.723  -1.402  1.00  0.00    -0.200 F 
ATOM     88  C   UNL     1      12.930 -13.920  -0.020  1.00  0.00     0.200 A 
ATOM     89  F   UNL     1      13.520 -12.123   1.394  1.00  0.00    -0.200 F 
ATOM     90  F   UNL     1      14.214 -14.094  -0.361  1.00  0.00    -0.200 F 
ENDBRANCH  56  80
BRANCH  68  91
ATOM     91  C   UNL     1       5.914 -17.875   4.141  1.00  0.00     0.064 A 
ATOM     92  C   UNL     1       6.774 -18.214   5.196  1.00  0.00     0.173 A 
ATOM     93  C   UNL     1       5.150 -18.904   3.566  1.00  0.00     0.173 A 
ATOM     94  F   UNL     1       7.537 -17.275   5.775  1.00  0.00    -0.203 F 
ATOM     95  C   UNL     1       6.890 -19.533   5.632  1.00  0.00     0.198 A 
ATOM     96  C   UNL     1       5.238 -20.213   4.032  1.00  0.00     0.198 A 
ATOM     97  F   UNL     1       4.303 -18.637   2.560  1.00  0.00    -0.203 F 
ATOM     98  F   UNL     1       7.764 -19.841   6.600  1.00  0.00    -0.200 F 
ATOM     99  C   UNL     1       6.116 -20.529   5.056  1.00  0.00     0.200 A 
ATOM    100  F   UNL     1       4.473 -21.169   3.487  1.00  0.00    -0.200 F 
ATOM    101  F   UNL     1       6.222 -21.794   5.484  1.00  0.00    -0.200 F 
ENDBRANCH  68  91
ENDBRANCH  42  43
ENDBRANCH  35  37
ENDBRANCH  34  35
ENDBRANCH  33  34
ENDBRANCH  32  33
ENDBRANCH   1  32
TORSDOF 19
