REMARK SMILES O=C(C[C@]12CSc3[nH]c(=O)sc3[C@H]1c1cc(Cl)ccc1OC2=O)OCCOCCOC(=O)c1ccc(-c2c3nc(c(-c4c(F)c(F)c(F)c(F)c4F)c4ccc([nH]4)c(-c4c(F)c(F)c(F)c(F)c4F)c4nc(c(-c5c(F)c(F)c(F)c(F)c5F)c5ccc2[nH]5)C=C4)C=C3)cc1
REMARK SMILES IDX 28 1 27 2 26 3 25 4 24 5 2 6 1 7 3 8 4 9 5 10 13 11 22 12
REMARK SMILES IDX 6 13 12 14 14 15 21 16 23 17 7 18 11 19 15 20 20 21 8 22
REMARK SMILES IDX 9 23 16 24 19 25 10 27 17 28 18 29 29 30 30 31 31 32 32 33
REMARK SMILES IDX 33 34 34 35 95 36 35 37 94 38 36 39 37 40 38 41 88 42 39 43
REMARK SMILES IDX 93 44 87 45 89 46 40 47 92 48 86 49 85 50 41 52 73 53 53 54
REMARK SMILES IDX 72 55 54 56 57 57 71 58 90 59 55 60 56 61 70 63 91 64 58 65
REMARK SMILES IDX 42 66 43 67 51 68 44 69 45 70 49 71 52 72 46 73 47 74 50 75
REMARK SMILES IDX 48 76 74 77 75 78 83 79 76 80 77 81 81 82 84 83 78 84 79 85
REMARK SMILES IDX 82 86 80 87 59 88 60 89 68 90 61 91 62 92 66 93 69 94 63 95
REMARK SMILES IDX 64 96 67 97 65 98
REMARK H PARENT 8 26 89 51 57 62
REMARK Flexibility Score: inf
ROOT
ATOM      1  C   UNL     1       2.118  -1.325  -2.296  1.00  0.00     0.202 C 
ENDROOT
BRANCH   1   2
ATOM      2  O   UNL     1       3.151  -0.528  -1.744  1.00  0.00    -0.374 OA
BRANCH   2   3
ATOM      3  C   UNL     1       3.989  -1.105  -0.767  1.00  0.00     0.202 C 
BRANCH   3   4
ATOM      4  C   UNL     1       3.422  -1.912   0.393  1.00  0.00     0.261 C 
BRANCH   4   5
ATOM      5  O   UNL     1       2.199  -1.510   0.995  1.00  0.00    -0.463 OA
BRANCH   5   6
ATOM      6  C   UNL     1       1.689  -0.284   1.020  1.00  0.00     0.307 C 
ATOM      7  O   UNL     1       0.515  -0.133   1.353  1.00  0.00    -0.252 OA
BRANCH   6   8
ATOM      8  C   UNL     1       2.523   0.893   0.595  1.00  0.00     0.143 C 
BRANCH   8   9
ATOM      9  C   UNL     1       3.791   1.476   1.318  1.00  0.00     0.100 C 
ATOM     10  C   UNL     1       3.623   1.053   2.803  1.00  0.00     0.097 C 
ATOM     11  C   UNL     1       3.645   2.950   0.771  1.00  0.00     0.085 C 
ATOM     12  C   UNL     1       5.364   1.425   1.213  1.00  0.00     0.319 C 
ATOM     13  S   UNL     1       2.593   2.181   3.710  1.00  0.00    -0.106 SA
ATOM     14  C   UNL     1       3.742   3.931   1.896  1.00  0.00     0.049 A 
ATOM     15  C   UNL     1       4.263   2.930  -0.684  1.00  0.00     0.006 A 
ATOM     16  O   UNL     1       5.989   1.366   0.011  1.00  0.00    -0.426 OA
ATOM     17  O   UNL     1       6.103   1.601   2.183  1.00  0.00    -0.251 OA
ATOM     18  C   UNL     1       3.245   3.644   3.121  1.00  0.00     0.090 A 
ATOM     19  S   UNL     1       3.889   5.660   1.718  1.00  0.00    -0.077 S 
ATOM     20  C   UNL     1       3.483   3.258  -1.816  1.00  0.00     0.028 A 
ATOM     21  C   UNL     1       5.347   2.084  -0.979  1.00  0.00     0.134 A 
ATOM     22  N   UNL     1       3.008   4.713   3.913  1.00  0.00    -0.307 N 
ATOM     23  C   UNL     1       3.210   5.929   3.342  1.00  0.00     0.305 A 
ATOM     24  C   UNL     1       3.783   2.736  -3.103  1.00  0.00     0.041 A 
ATOM     25  C   UNL     1       5.735   1.669  -2.267  1.00  0.00     0.049 A 
ATOM     26  H   UNL     1       2.707   4.616   4.846  1.00  0.00     0.171 HD
ATOM     27  O   UNL     1       2.926   7.015   3.826  1.00  0.00    -0.257 OA
ATOM     28  Cl  UNL     1       2.642   2.907  -4.386  1.00  0.00    -0.084 Cl
ATOM     29  C   UNL     1       4.918   1.965  -3.339  1.00  0.00     0.024 A 
ENDBRANCH   8   9
ENDBRANCH   6   8
ENDBRANCH   5   6
ENDBRANCH   4   5
ENDBRANCH   3   4
ENDBRANCH   2   3
ENDBRANCH   1   2
BRANCH   1  30
ATOM     30  C   UNL     1       2.632  -2.415  -3.237  1.00  0.00     0.261 C 
BRANCH  30  31
ATOM     31  O   UNL     1       3.487  -3.331  -2.518  1.00  0.00    -0.460 OA
BRANCH  31  32
ATOM     32  C   UNL     1       4.752  -3.494  -3.006  1.00  0.00     0.338 C 
ATOM     33  O   UNL     1       5.131  -3.249  -4.137  1.00  0.00    -0.246 OA
BRANCH  32  34
ATOM     34  C   UNL     1       5.675  -3.645  -1.838  1.00  0.00     0.060 A 
ATOM     35  C   UNL     1       5.251  -4.278  -0.670  1.00  0.00     0.016 A 
ATOM     36  C   UNL     1       6.811  -2.806  -1.803  1.00  0.00     0.016 A 
ATOM     37  C   UNL     1       5.885  -3.967   0.534  1.00  0.00     0.010 A 
ATOM     38  C   UNL     1       7.452  -2.505  -0.590  1.00  0.00     0.010 A 
ATOM     39  C   UNL     1       6.978  -3.063   0.595  1.00  0.00    -0.014 A 
BRANCH  39  40
ATOM     40  C   UNL     1       7.797  -3.129   1.827  1.00  0.00     0.031 A 
ATOM     41  C   UNL     1       8.214  -4.543   2.019  1.00  0.00     0.074 A 
ATOM     42  C   UNL     1       8.284  -2.197   2.679  1.00  0.00     0.049 A 
ATOM     43  N   UNL     1       7.761  -5.361   2.907  1.00  0.00    -0.248 NA
ATOM     44  C   UNL     1       8.994  -5.176   0.942  1.00  0.00     0.031 C 
ATOM     45  C   UNL     1       8.261  -0.746   2.554  1.00  0.00     0.029 A 
ATOM     46  N   UNL     1       8.982  -2.380   3.856  1.00  0.00    -0.354 N 
ATOM     47  C   UNL     1       8.341  -6.585   2.603  1.00  0.00     0.074 A 
ATOM     48  C   UNL     1       8.922  -6.459   1.293  1.00  0.00     0.031 C 
ATOM     49  C   UNL     1       9.074  -0.188   3.486  1.00  0.00     0.029 A 
ATOM     50  C   UNL     1       9.597  -1.229   4.355  1.00  0.00     0.049 A 
ATOM     51  H   UNL     1       9.041  -3.253   4.308  1.00  0.00     0.167 HD
ATOM     52  C   UNL     1       8.549  -7.502   3.579  1.00  0.00     0.037 A 
ATOM     53  C   UNL     1      10.492  -1.149   5.378  1.00  0.00     0.037 A 
ATOM     54  C   UNL     1       7.736  -7.222   4.734  1.00  0.00     0.049 A 
ATOM     55  C   UNL     1      10.300  -2.343   6.228  1.00  0.00     0.074 A 
ATOM     56  C   UNL     1       6.392  -7.242   5.040  1.00  0.00     0.029 A 
ATOM     57  N   UNL     1       8.353  -6.454   5.681  1.00  0.00    -0.354 N 
ATOM     58  N   UNL     1       9.256  -2.543   6.979  1.00  0.00    -0.248 NA
ATOM     59  C   UNL     1      11.159  -3.501   6.019  1.00  0.00     0.031 C 
ATOM     60  C   UNL     1       6.205  -6.239   6.039  1.00  0.00     0.029 A 
ATOM     61  C   UNL     1       7.444  -5.673   6.336  1.00  0.00     0.049 A 
ATOM     62  H   UNL     1       9.320  -6.463   5.866  1.00  0.00     0.167 HD
ATOM     63  C   UNL     1       9.083  -3.911   6.954  1.00  0.00     0.074 A 
ATOM     64  C   UNL     1      10.363  -4.451   6.512  1.00  0.00     0.031 C 
ATOM     65  C   UNL     1       7.827  -4.439   6.981  1.00  0.00     0.037 A 
BRANCH  52  66
ATOM     66  C   UNL     1       9.844  -8.276   3.688  1.00  0.00     0.064 A 
ATOM     67  C   UNL     1       9.961  -9.270   4.677  1.00  0.00     0.173 A 
ATOM     68  C   UNL     1      11.060  -7.861   3.096  1.00  0.00     0.173 A 
ATOM     69  F   UNL     1       8.879  -9.696   5.346  1.00  0.00    -0.203 F 
ATOM     70  C   UNL     1      11.205  -9.773   5.071  1.00  0.00     0.198 A 
ATOM     71  C   UNL     1      12.290  -8.406   3.450  1.00  0.00     0.198 A 
ATOM     72  F   UNL     1      11.131  -6.828   2.249  1.00  0.00    -0.203 F 
ATOM     73  F   UNL     1      11.281 -10.626   6.101  1.00  0.00    -0.200 F 
ATOM     74  C   UNL     1      12.367  -9.342   4.456  1.00  0.00     0.200 A 
ATOM     75  F   UNL     1      13.405  -7.944   2.865  1.00  0.00    -0.200 F 
ATOM     76  F   UNL     1      13.562  -9.783   4.867  1.00  0.00    -0.200 F 
ENDBRANCH  52  66
BRANCH  53  77
ATOM     77  C   UNL     1      11.680  -0.268   5.586  1.00  0.00     0.064 A 
ATOM     78  C   UNL     1      12.363  -0.241   6.822  1.00  0.00     0.173 A 
ATOM     79  C   UNL     1      12.366   0.291   4.495  1.00  0.00     0.173 A 
ATOM     80  F   UNL     1      11.807  -0.779   7.918  1.00  0.00    -0.203 F 
ATOM     81  C   UNL     1      13.669   0.253   6.939  1.00  0.00     0.198 A 
ATOM     82  C   UNL     1      13.668   0.789   4.614  1.00  0.00     0.198 A 
ATOM     83  F   UNL     1      11.831   0.267   3.267  1.00  0.00    -0.203 F 
ATOM     84  F   UNL     1      14.314   0.176   8.113  1.00  0.00    -0.200 F 
ATOM     85  C   UNL     1      14.328   0.751   5.830  1.00  0.00     0.200 A 
ATOM     86  F   UNL     1      14.310   1.235   3.525  1.00  0.00    -0.200 F 
ATOM     87  F   UNL     1      15.606   1.146   5.918  1.00  0.00    -0.200 F 
ENDBRANCH  53  77
BRANCH  65  88
ATOM     88  C   UNL     1       6.734  -3.596   7.564  1.00  0.00     0.064 A 
ATOM     89  C   UNL     1       6.260  -2.397   7.008  1.00  0.00     0.173 A 
ATOM     90  C   UNL     1       6.066  -4.103   8.687  1.00  0.00     0.173 A 
ATOM     91  F   UNL     1       6.798  -1.889   5.890  1.00  0.00    -0.203 F 
ATOM     92  C   UNL     1       5.174  -1.728   7.574  1.00  0.00     0.198 A 
ATOM     93  C   UNL     1       4.960  -3.456   9.224  1.00  0.00     0.198 A 
ATOM     94  F   UNL     1       6.461  -5.264   9.235  1.00  0.00    -0.203 F 
ATOM     95  F   UNL     1       4.736  -0.581   7.034  1.00  0.00    -0.200 F 
ATOM     96  C   UNL     1       4.519  -2.265   8.672  1.00  0.00     0.200 A 
ATOM     97  F   UNL     1       4.305  -4.004  10.256  1.00  0.00    -0.200 F 
ATOM     98  F   UNL     1       3.443  -1.649   9.183  1.00  0.00    -0.200 F 
ENDBRANCH  65  88
ENDBRANCH  39  40
ENDBRANCH  32  34
ENDBRANCH  31  32
ENDBRANCH  30  31
ENDBRANCH   1  30
TORSDOF 15
