REMARK SMILES Cc1ccc(Cl)c(Nc2ccccc2C(=O)NCC(=O)OCCOCCOC(=O)c2ccc(-c3c4nc(c(-c5c(F)c(F)c(F)c(F)c5F)c5ccc([nH]5)c(-c5c(F)c(F)c(F)c(F)c5F)c5nc(c(-c6c(F)c(F)c(F)c(F)c6F)c6ccc3[nH]6)C=C5)C=C4)cc2)c1Cl
REMARK SMILES IDX 23 1 22 2 21 3 19 4 20 5 18 6 17 7 15 8 16 9 14 11 9 12
REMARK SMILES IDX 10 13 11 14 13 15 12 16 8 17 7 19 1 20 2 21 3 22 93 23 4 24
REMARK SMILES IDX 94 25 5 26 6 27 24 28 25 29 26 30 27 31 28 32 29 33 30 34
REMARK SMILES IDX 31 35 92 36 32 37 91 38 33 39 34 40 35 41 85 42 36 43 90 44
REMARK SMILES IDX 84 45 86 46 37 47 89 48 83 49 82 50 38 52 70 53 50 54 69 55
REMARK SMILES IDX 51 56 54 57 68 58 87 59 52 60 53 61 67 63 88 64 55 65 39 66
REMARK SMILES IDX 40 67 48 68 41 69 42 70 46 71 49 72 43 73 44 74 47 75 45 76
REMARK SMILES IDX 71 77 72 78 80 79 73 80 74 81 78 82 81 83 75 84 76 85 79 86
REMARK SMILES IDX 77 87 56 88 57 89 65 90 58 91 59 92 63 93 66 94 60 95 61 96
REMARK SMILES IDX 64 97 62 98
REMARK H PARENT 17 10 8 18 86 51 54 62
REMARK Flexibility Score: inf
ROOT
ATOM      1  C   UNL     1      -4.979  -1.204   3.219  1.00  0.00     0.202 C 
ENDROOT
BRANCH   1   2
ATOM      2  C   UNL     1      -4.269  -2.253   2.348  1.00  0.00     0.261 C 
BRANCH   2   3
ATOM      3  O   UNL     1      -2.848  -2.176   2.530  1.00  0.00    -0.462 OA
BRANCH   3   4
ATOM      4  C   UNL     1      -2.101  -2.115   1.392  1.00  0.00     0.325 C 
ATOM      5  O   UNL     1      -2.479  -2.454   0.280  1.00  0.00    -0.250 OA
BRANCH   4   6
ATOM      6  C   UNL     1      -0.790  -1.407   1.689  1.00  0.00     0.239 C 
BRANCH   6   7
ATOM      7  N   UNL     1       0.303  -2.134   2.272  1.00  0.00    -0.341 N 
ATOM      8  C   UNL     1       1.505  -2.317   1.633  1.00  0.00     0.253 C 
ATOM      9  O   UNL     1       2.526  -1.954   2.214  1.00  0.00    -0.269 OA
ATOM     10  H   UNL     1       0.185  -2.519   3.171  1.00  0.00     0.164 HD
BRANCH   8  11
ATOM     11  C   UNL     1       1.589  -3.257   0.484  1.00  0.00     0.063 A 
ATOM     12  C   UNL     1       1.001  -3.160  -0.792  1.00  0.00     0.051 A 
ATOM     13  C   UNL     1       1.134  -4.284  -1.643  1.00  0.00     0.027 A 
ATOM     14  C   UNL     1       1.862  -5.422  -1.284  1.00  0.00     0.002 A 
ATOM     15  C   UNL     1       2.345  -4.405   0.825  1.00  0.00     0.016 A 
ATOM     16  C   UNL     1       2.490  -5.474  -0.052  1.00  0.00     0.001 A 
BRANCH  12  17
ATOM     17  N   UNL     1       0.371  -2.051  -1.396  1.00  0.00    -0.352 N 
ATOM     18  H   UNL     1      -0.355  -2.326  -2.001  1.00  0.00     0.167 HD
BRANCH  17  19
ATOM     19  C   UNL     1       0.520  -0.642  -1.351  1.00  0.00     0.077 A 
ATOM     20  C   UNL     1       2.786   2.133   0.037  1.00  0.00     0.046 C 
ATOM     21  C   UNL     1       1.603   1.411  -0.551  1.00  0.00    -0.030 A 
ATOM     22  C   UNL     1       0.412   2.123  -0.754  1.00  0.00     0.006 A 
ATOM     23  C   UNL     1       1.665   0.040  -0.894  1.00  0.00     0.069 A 
ATOM     24  C   UNL     1      -0.684   1.503  -1.340  1.00  0.00     0.023 A 
ATOM     25  Cl  UNL     1       3.214  -0.748  -0.874  1.00  0.00    -0.082 Cl
ATOM     26  C   UNL     1      -0.622   0.145  -1.649  1.00  0.00     0.066 A 
ATOM     27  Cl  UNL     1      -2.024  -0.566  -2.383  1.00  0.00    -0.082 Cl
ENDBRANCH  17  19
ENDBRANCH  12  17
ENDBRANCH   8  11
ENDBRANCH   6   7
ENDBRANCH   4   6
ENDBRANCH   3   4
ENDBRANCH   2   3
ENDBRANCH   1   2
BRANCH   1  28
ATOM     28  O   UNL     1      -4.763   0.171   2.909  1.00  0.00    -0.374 OA
BRANCH  28  29
ATOM     29  C   UNL     1      -3.439   0.693   2.991  1.00  0.00     0.202 C 
BRANCH  29  30
ATOM     30  C   UNL     1      -2.711   0.620   4.348  1.00  0.00     0.261 C 
BRANCH  30  31
ATOM     31  O   UNL     1      -2.491  -0.729   4.807  1.00  0.00    -0.460 OA
BRANCH  31  32
ATOM     32  C   UNL     1      -2.925  -0.990   6.062  1.00  0.00     0.338 C 
ATOM     33  O   UNL     1      -3.363  -0.186   6.876  1.00  0.00    -0.246 OA
BRANCH  32  34
ATOM     34  C   UNL     1      -2.989  -2.441   6.302  1.00  0.00     0.060 A 
ATOM     35  C   UNL     1      -4.257  -3.028   6.392  1.00  0.00     0.016 A 
ATOM     36  C   UNL     1      -1.843  -3.184   6.596  1.00  0.00     0.016 A 
ATOM     37  C   UNL     1      -4.391  -4.349   6.807  1.00  0.00     0.010 A 
ATOM     38  C   UNL     1      -1.980  -4.510   7.034  1.00  0.00     0.010 A 
ATOM     39  C   UNL     1      -3.257  -5.083   7.178  1.00  0.00    -0.014 A 
BRANCH  39  40
ATOM     40  C   UNL     1      -3.457  -6.374   7.881  1.00  0.00     0.031 A 
ATOM     41  C   UNL     1      -3.470  -6.392   9.384  1.00  0.00     0.074 A 
ATOM     42  C   UNL     1      -3.720  -7.498   7.192  1.00  0.00     0.049 A 
ATOM     43  N   UNL     1      -3.709  -7.385  10.204  1.00  0.00    -0.248 NA
ATOM     44  C   UNL     1      -3.182  -5.114  10.054  1.00  0.00     0.031 C 
ATOM     45  C   UNL     1      -3.774  -7.599   5.736  1.00  0.00     0.029 A 
ATOM     46  N   UNL     1      -4.003  -8.766   7.632  1.00  0.00    -0.354 N 
ATOM     47  C   UNL     1      -3.613  -6.850  11.482  1.00  0.00     0.074 A 
ATOM     48  C   UNL     1      -3.254  -5.456  11.332  1.00  0.00     0.031 C 
ATOM     49  C   UNL     1      -4.067  -8.867   5.400  1.00  0.00     0.029 A 
ATOM     50  C   UNL     1      -4.205  -9.666   6.617  1.00  0.00     0.049 A 
ATOM     51  H   UNL     1      -4.055  -9.008   8.585  1.00  0.00     0.167 HD
ATOM     52  C   UNL     1      -3.818  -7.461  12.674  1.00  0.00     0.037 A 
ATOM     53  C   UNL     1      -4.465 -10.987   6.666  1.00  0.00     0.037 A 
ATOM     54  C   UNL     1      -4.156  -8.852  12.826  1.00  0.00     0.049 A 
ATOM     55  C   UNL     1      -4.631 -11.660   8.003  1.00  0.00     0.074 A 
ATOM     56  C   UNL     1      -4.375  -9.569  13.989  1.00  0.00     0.029 A 
ATOM     57  N   UNL     1      -4.314  -9.743  11.774  1.00  0.00    -0.354 N 
ATOM     58  N   UNL     1      -4.560 -11.142   9.206  1.00  0.00    -0.248 NA
ATOM     59  C   UNL     1      -4.929 -13.099   7.987  1.00  0.00     0.031 C 
ATOM     60  C   UNL     1      -4.623 -10.902  13.643  1.00  0.00     0.029 A 
ATOM     61  C   UNL     1      -4.609 -11.007  12.261  1.00  0.00     0.049 A 
ATOM     62  H   UNL     1      -4.230  -9.511  10.820  1.00  0.00     0.167 HD
ATOM     63  C   UNL     1      -4.820 -12.184  10.087  1.00  0.00     0.074 A 
ATOM     64  C   UNL     1      -5.073 -13.359   9.279  1.00  0.00     0.031 C 
ATOM     65  C   UNL     1      -4.848 -12.169  11.443  1.00  0.00     0.037 A 
BRANCH  52  66
ATOM     66  C   UNL     1      -3.650  -6.624  13.909  1.00  0.00     0.064 A 
ATOM     67  C   UNL     1      -4.577  -5.628  14.254  1.00  0.00     0.173 A 
ATOM     68  C   UNL     1      -2.552  -6.820  14.759  1.00  0.00     0.173 A 
ATOM     69  F   UNL     1      -5.637  -5.390  13.466  1.00  0.00    -0.203 F 
ATOM     70  C   UNL     1      -4.392  -4.837  15.385  1.00  0.00     0.198 A 
ATOM     71  C   UNL     1      -2.385  -6.046  15.905  1.00  0.00     0.198 A 
ATOM     72  F   UNL     1      -1.638  -7.760  14.477  1.00  0.00    -0.203 F 
ATOM     73  F   UNL     1      -5.261  -3.856  15.665  1.00  0.00    -0.200 F 
ATOM     74  C   UNL     1      -3.299  -5.050  16.212  1.00  0.00     0.200 A 
ATOM     75  F   UNL     1      -1.333  -6.258  16.707  1.00  0.00    -0.200 F 
ATOM     76  F   UNL     1      -3.120  -4.286  17.299  1.00  0.00    -0.200 F 
ENDBRANCH  52  66
BRANCH  53  77
ATOM     77  C   UNL     1      -4.584 -11.759   5.402  1.00  0.00     0.064 A 
ATOM     78  C   UNL     1      -5.816 -12.267   4.972  1.00  0.00     0.173 A 
ATOM     79  C   UNL     1      -3.460 -12.000   4.598  1.00  0.00     0.173 A 
ATOM     80  F   UNL     1      -6.915 -12.084   5.720  1.00  0.00    -0.203 F 
ATOM     81  C   UNL     1      -5.919 -12.998   3.789  1.00  0.00     0.198 A 
ATOM     82  C   UNL     1      -3.568 -12.708   3.404  1.00  0.00     0.198 A 
ATOM     83  F   UNL     1      -2.258 -11.536   4.969  1.00  0.00    -0.203 F 
ATOM     84  F   UNL     1      -7.102 -13.506   3.418  1.00  0.00    -0.200 F 
ATOM     85  C   UNL     1      -4.796 -13.211   3.002  1.00  0.00     0.200 A 
ATOM     86  F   UNL     1      -2.483 -12.901   2.642  1.00  0.00    -0.200 F 
ATOM     87  F   UNL     1      -4.897 -13.906   1.862  1.00  0.00    -0.200 F 
ENDBRANCH  53  77
BRANCH  65  88
ATOM     88  C   UNL     1      -5.182 -13.460  12.135  1.00  0.00     0.064 A 
ATOM     89  C   UNL     1      -4.281 -14.535  12.162  1.00  0.00     0.173 A 
ATOM     90  C   UNL     1      -6.411 -13.617  12.794  1.00  0.00     0.173 A 
ATOM     91  F   UNL     1      -3.099 -14.440  11.535  1.00  0.00    -0.203 F 
ATOM     92  C   UNL     1      -4.612 -15.731  12.794  1.00  0.00     0.198 A 
ATOM     93  C   UNL     1      -6.726 -14.804  13.450  1.00  0.00     0.198 A 
ATOM     94  F   UNL     1      -7.306 -12.617  12.806  1.00  0.00    -0.203 F 
ATOM     95  F   UNL     1      -3.758 -16.764  12.759  1.00  0.00    -0.200 F 
ATOM     96  C   UNL     1      -5.832 -15.863  13.441  1.00  0.00     0.200 A 
ATOM     97  F   UNL     1      -7.900 -14.925  14.086  1.00  0.00    -0.200 F 
ATOM     98  F   UNL     1      -6.149 -17.015  14.047  1.00  0.00    -0.200 F 
ENDBRANCH  65  88
ENDBRANCH  39  40
ENDBRANCH  32  34
ENDBRANCH  31  32
ENDBRANCH  30  31
ENDBRANCH  29  30
ENDBRANCH  28  29
ENDBRANCH   1  28
TORSDOF 18
