REMARK SMILES C/C(=C(/F)C(=O)OCCOCCOC(=O)c1ccc(-c2c3nc(c(-c4c(F)c(F)c(F)c(F)c4F)c4ccc([nH]4)c(-c4c(F)c(F)c(F)c(F)c4F)c4nc(c(-c5c(F)c(F)c(F)c(F)c5F)c5ccc2[nH]5)C=C4)C=C3)cc1)c1cccc(-n2cnnn2)c1
REMARK SMILES IDX 10 1 9 2 8 3 7 4 5 5 6 6 3 7 1 8 2 9 4 10 79 11 80 12 89 13
REMARK SMILES IDX 81 14 83 15 82 16 84 17 85 18 88 19 86 20 87 21 11 22 12 23
REMARK SMILES IDX 13 24 14 25 15 26 16 27 17 28 78 29 18 30 77 31 19 32 20 33
REMARK SMILES IDX 21 34 71 35 22 36 76 37 70 38 72 39 23 40 75 41 69 42 68 43
REMARK SMILES IDX 24 45 56 46 36 47 55 48 37 49 40 50 54 51 73 52 38 53 39 54
REMARK SMILES IDX 53 56 74 57 41 58 25 59 26 60 34 61 27 62 28 63 32 64 35 65
REMARK SMILES IDX 29 66 30 67 33 68 31 69 57 70 58 71 66 72 59 73 60 74 64 75
REMARK SMILES IDX 67 76 61 77 62 78 65 79 63 80 42 81 43 82 51 83 44 84 45 85
REMARK SMILES IDX 49 86 52 87 46 88 47 89 50 90 48 91
REMARK H PARENT 72 44 40 55
REMARK Flexibility Score: inf
ROOT
ATOM      1  O   UNL     1       0.344  -3.127  -2.506  1.00  0.00    -0.374 OA
ENDROOT
BRANCH   1   2
ATOM      2  C   UNL     1      -0.911  -3.187  -3.185  1.00  0.00     0.202 C 
BRANCH   2   3
ATOM      3  C   UNL     1      -2.037  -2.357  -2.564  1.00  0.00     0.261 C 
BRANCH   3   4
ATOM      4  O   UNL     1      -1.706  -0.960  -2.585  1.00  0.00    -0.458 OA
BRANCH   4   5
ATOM      5  C   UNL     1      -1.524  -0.395  -1.365  1.00  0.00     0.367 C 
ATOM      6  O   UNL     1      -1.809  -0.893  -0.286  1.00  0.00    -0.243 OA
BRANCH   5   7
ATOM      7  C   UNL     1      -0.830   0.905  -1.523  1.00  0.00     0.211 C 
ATOM      8  C   UNL     1       0.900   0.373   0.227  1.00  0.00     0.048 C 
ATOM      9  C   UNL     1       0.226   1.284  -0.774  1.00  0.00    -0.000 C 
ATOM     10  F   UNL     1      -1.326   1.690  -2.505  1.00  0.00    -0.199 F 
BRANCH   9  11
ATOM     11  C   UNL     1       0.770   2.669  -0.859  1.00  0.00    -0.017 A 
ATOM     12  C   UNL     1      -0.114   3.761  -0.885  1.00  0.00     0.008 A 
ATOM     13  C   UNL     1       2.149   2.934  -0.769  1.00  0.00     0.037 A 
ATOM     14  C   UNL     1       0.352   5.072  -0.785  1.00  0.00     0.003 A 
ATOM     15  C   UNL     1       2.621   4.254  -0.642  1.00  0.00     0.069 A 
ATOM     16  C   UNL     1       1.714   5.320  -0.639  1.00  0.00     0.028 A 
BRANCH  15  17
ATOM     17  N   UNL     1       4.000   4.521  -0.471  1.00  0.00    -0.201 N 
ATOM     18  C   UNL     1       5.080   3.691  -0.634  1.00  0.00     0.252 A 
ATOM     19  N   UNL     1       4.464   5.728  -0.071  1.00  0.00    -0.040 NA
ATOM     20  N   UNL     1       6.177   4.332  -0.302  1.00  0.00    -0.117 NA
ATOM     21  N   UNL     1       5.776   5.591   0.056  1.00  0.00    -0.024 NA
ENDBRANCH  15  17
ENDBRANCH   9  11
ENDBRANCH   5   7
ENDBRANCH   4   5
ENDBRANCH   3   4
ENDBRANCH   2   3
ENDBRANCH   1   2
BRANCH   1  22
ATOM     22  C   UNL     1       1.189  -2.014  -2.802  1.00  0.00     0.202 C 
BRANCH  22  23
ATOM     23  C   UNL     1       1.996  -2.102  -4.103  1.00  0.00     0.261 C 
BRANCH  23  24
ATOM     24  O   UNL     1       1.144  -2.013  -5.259  1.00  0.00    -0.460 OA
BRANCH  24  25
ATOM     25  C   UNL     1       1.036  -3.155  -5.975  1.00  0.00     0.338 C 
ATOM     26  O   UNL     1       1.646  -4.200  -5.802  1.00  0.00    -0.246 OA
BRANCH  25  27
ATOM     27  C   UNL     1      -0.084  -3.045  -6.928  1.00  0.00     0.060 A 
ATOM     28  C   UNL     1      -1.029  -4.080  -6.933  1.00  0.00     0.016 A 
ATOM     29  C   UNL     1      -0.180  -1.992  -7.840  1.00  0.00     0.016 A 
ATOM     30  C   UNL     1      -2.044  -4.093  -7.886  1.00  0.00     0.010 A 
ATOM     31  C   UNL     1      -1.195  -2.010  -8.801  1.00  0.00     0.010 A 
ATOM     32  C   UNL     1      -2.109  -3.079  -8.850  1.00  0.00    -0.014 A 
BRANCH  32  33
ATOM     33  C   UNL     1      -3.041  -3.218  -9.995  1.00  0.00     0.031 A 
ATOM     34  C   UNL     1      -2.512  -3.736 -11.303  1.00  0.00     0.074 A 
ATOM     35  C   UNL     1      -4.345  -2.919  -9.861  1.00  0.00     0.049 A 
ATOM     36  N   UNL     1      -3.134  -3.908 -12.442  1.00  0.00    -0.248 NA
ATOM     37  C   UNL     1      -1.089  -4.111 -11.332  1.00  0.00     0.031 C 
ATOM     38  C   UNL     1      -4.981  -2.450  -8.632  1.00  0.00     0.029 A 
ATOM     39  N   UNL     1      -5.367  -2.962 -10.776  1.00  0.00    -0.354 N 
ATOM     40  C   UNL     1      -2.181  -4.407 -13.320  1.00  0.00     0.074 A 
ATOM     41  C   UNL     1      -0.931  -4.482 -12.594  1.00  0.00     0.031 C 
ATOM     42  C   UNL     1      -6.287  -2.238  -8.872  1.00  0.00     0.029 A 
ATOM     43  C   UNL     1      -6.569  -2.527 -10.277  1.00  0.00     0.049 A 
ATOM     44  H   UNL     1      -5.249  -3.276 -11.702  1.00  0.00     0.167 HD
ATOM     45  C   UNL     1      -2.337  -4.779 -14.613  1.00  0.00     0.037 A 
ATOM     46  C   UNL     1      -7.755  -2.362 -10.894  1.00  0.00     0.037 A 
ATOM     47  C   UNL     1      -3.580  -4.704 -15.333  1.00  0.00     0.049 A 
ATOM     48  C   UNL     1      -7.883  -2.712 -12.354  1.00  0.00     0.074 A 
ATOM     49  C   UNL     1      -3.843  -5.066 -16.643  1.00  0.00     0.029 A 
ATOM     50  N   UNL     1      -4.770  -4.227 -14.803  1.00  0.00    -0.354 N 
ATOM     51  N   UNL     1      -6.983  -3.203 -13.171  1.00  0.00    -0.248 NA
ATOM     52  C   UNL     1      -9.196  -2.486 -12.977  1.00  0.00     0.031 C 
ATOM     53  C   UNL     1      -5.181  -4.765 -16.919  1.00  0.00     0.029 A 
ATOM     54  C   UNL     1      -5.764  -4.264 -15.767  1.00  0.00     0.049 A 
ATOM     55  H   UNL     1      -4.889  -3.909 -13.879  1.00  0.00     0.167 HD
ATOM     56  C   UNL     1      -7.625  -3.374 -14.391  1.00  0.00     0.074 A 
ATOM     57  C   UNL     1      -8.995  -2.944 -14.205  1.00  0.00     0.031 C 
ATOM     58  C   UNL     1      -7.127  -3.845 -15.560  1.00  0.00     0.037 A 
BRANCH  45  59
ATOM     59  C   UNL     1      -1.126  -5.285 -15.339  1.00  0.00     0.064 A 
ATOM     60  C   UNL     1      -0.575  -6.545 -15.062  1.00  0.00     0.173 A 
ATOM     61  C   UNL     1      -0.532  -4.517 -16.352  1.00  0.00     0.173 A 
ATOM     62  F   UNL     1      -1.096  -7.312 -14.093  1.00  0.00    -0.203 F 
ATOM     63  C   UNL     1       0.539  -7.009 -15.759  1.00  0.00     0.198 A 
ATOM     64  C   UNL     1       0.564  -4.995 -17.065  1.00  0.00     0.198 A 
ATOM     65  F   UNL     1      -1.023  -3.306 -16.658  1.00  0.00    -0.203 F 
ATOM     66  F   UNL     1       1.074  -8.198 -15.449  1.00  0.00    -0.200 F 
ATOM     67  C   UNL     1       1.102  -6.237 -16.764  1.00  0.00     0.200 A 
ATOM     68  F   UNL     1       1.101  -4.252 -18.043  1.00  0.00    -0.200 F 
ATOM     69  F   UNL     1       2.169  -6.688 -17.439  1.00  0.00    -0.200 F 
ENDBRANCH  45  59
BRANCH  46  70
ATOM     70  C   UNL     1      -8.919  -1.827 -10.140  1.00  0.00     0.064 A 
ATOM     71  C   UNL     1     -10.035  -2.630  -9.867  1.00  0.00     0.173 A 
ATOM     72  C   UNL     1      -8.950  -0.495  -9.700  1.00  0.00     0.173 A 
ATOM     73  F   UNL     1     -10.063  -3.903 -10.290  1.00  0.00    -0.203 F 
ATOM     74  C   UNL     1     -11.146  -2.116  -9.202  1.00  0.00     0.198 A 
ATOM     75  C   UNL     1     -10.050   0.010  -9.011  1.00  0.00     0.198 A 
ATOM     76  F   UNL     1      -7.909   0.315  -9.938  1.00  0.00    -0.203 F 
ATOM     77  F   UNL     1     -12.220  -2.891  -8.999  1.00  0.00    -0.200 F 
ATOM     78  C   UNL     1     -11.151  -0.798  -8.770  1.00  0.00     0.200 A 
ATOM     79  F   UNL     1     -10.046   1.281  -8.586  1.00  0.00    -0.200 F 
ATOM     80  F   UNL     1     -12.220  -0.304  -8.132  1.00  0.00    -0.200 F 
ENDBRANCH  46  70
BRANCH  58  81
ATOM     81  C   UNL     1      -8.074  -3.960 -16.719  1.00  0.00     0.064 A 
ATOM     82  C   UNL     1      -8.543  -2.830 -17.403  1.00  0.00     0.173 A 
ATOM     83  C   UNL     1      -8.483  -5.223 -17.176  1.00  0.00     0.173 A 
ATOM     84  F   UNL     1      -8.193  -1.601 -16.996  1.00  0.00    -0.203 F 
ATOM     85  C   UNL     1      -9.406  -2.958 -18.489  1.00  0.00     0.198 A 
ATOM     86  C   UNL     1      -9.322  -5.348 -18.280  1.00  0.00     0.198 A 
ATOM     87  F   UNL     1      -8.056  -6.336 -16.561  1.00  0.00    -0.203 F 
ATOM     88  F   UNL     1      -9.878  -1.863 -19.100  1.00  0.00    -0.200 F 
ATOM     89  C   UNL     1      -9.788  -4.216 -18.930  1.00  0.00     0.200 A 
ATOM     90  F   UNL     1      -9.679  -6.565 -18.713  1.00  0.00    -0.200 F 
ATOM     91  F   UNL     1     -10.613  -4.338 -19.980  1.00  0.00    -0.200 F 
ENDBRANCH  58  81
ENDBRANCH  32  33
ENDBRANCH  25  27
ENDBRANCH  24  25
ENDBRANCH  23  24
ENDBRANCH  22  23
ENDBRANCH   1  22
TORSDOF 16
