REMARK SMILES CC[NH2+][C@]1(C(=O)OCCOCCOC(=O)c2ccc(-c3c4nc(c(-c5c(F)c(F)c(F)c(F)c5F)c5ccc([nH]5)c(-c5c(F)c(F)c(F)c(F)c5F)c5nc(c(-c6c(F)c(F)c(F)c(F)c6F)c6ccc3[nH]6)C=C5)C=C4)cc2)CCC[C@@H]1CCSc1ccc(C)cc1
REMARK SMILES IDX 9 1 8 2 7 3 5 4 6 5 4 6 79 7 82 8 80 9 81 10 3 11 2 14 1 15
REMARK SMILES IDX 83 16 84 17 85 18 86 19 87 20 92 21 88 22 91 23 89 24 90 25
REMARK SMILES IDX 10 26 11 27 12 28 13 29 14 30 15 31 16 32 17 33 78 34 18 35
REMARK SMILES IDX 77 36 19 37 20 38 21 39 71 40 22 41 76 42 70 43 72 44 23 45
REMARK SMILES IDX 75 46 69 47 68 48 24 50 56 51 36 52 55 53 37 54 40 55 54 56
REMARK SMILES IDX 73 57 38 58 39 59 53 61 74 62 41 63 25 64 26 65 34 66 27 67
REMARK SMILES IDX 28 68 32 69 35 70 29 71 30 72 33 73 31 74 57 75 58 76 66 77
REMARK SMILES IDX 59 78 60 79 64 80 67 81 61 82 62 83 65 84 63 85 42 86 43 87
REMARK SMILES IDX 51 88 44 89 45 90 49 91 52 92 46 93 47 94 50 95 48 96
REMARK H PARENT 3 12 3 13 72 49 40 60
REMARK Flexibility Score: inf
ROOT
ATOM      1  C   UNL     1       1.954   0.160  -0.492  1.00  0.00     0.202 C 
ENDROOT
BRANCH   1   2
ATOM      2  C   UNL     1       2.494  -1.067   0.293  1.00  0.00     0.261 C 
BRANCH   2   3
ATOM      3  O   UNL     1       1.610  -2.004   0.985  1.00  0.00    -0.459 OA
BRANCH   3   4
ATOM      4  C   UNL     1       1.251  -1.503   2.210  1.00  0.00     0.368 C 
ATOM      5  O   UNL     1       1.316  -0.294   2.306  1.00  0.00    -0.245 OA
BRANCH   4   6
ATOM      6  C   UNL     1       1.044  -2.541   3.445  1.00  0.00     0.197 C 
ATOM      7  C   UNL     1      -0.167  -3.446   3.275  1.00  0.00     0.081 C 
ATOM      8  C   UNL     1       2.237  -3.420   3.308  1.00  0.00     0.063 C 
ATOM      9  C   UNL     1       0.217  -4.650   4.121  1.00  0.00     0.008 C 
ATOM     10  C   UNL     1       1.770  -4.735   4.008  1.00  0.00     0.011 C 
BRANCH   6  11
ATOM     11  N   UNL     1       1.045  -2.003   4.902  1.00  0.00    -0.332 N 
ATOM     12  H   UNL     1       1.351  -1.034   4.818  1.00  0.00     0.347 HD
ATOM     13  H   UNL     1       0.106  -2.296   5.172  1.00  0.00     0.347 HD
BRANCH  11  14
ATOM     14  C   UNL     1       1.780  -2.525   6.064  1.00  0.00     0.257 C 
ATOM     15  C   UNL     1       1.843  -1.535   7.238  1.00  0.00     0.071 C 
ENDBRANCH  11  14
ENDBRANCH   6  11
BRANCH   8  16
ATOM     16  C   UNL     1       3.464  -2.503   3.662  1.00  0.00     0.022 C 
BRANCH  16  17
ATOM     17  C   UNL     1       3.359  -0.815   3.901  1.00  0.00     0.075 C 
BRANCH  17  18
ATOM     18  S   UNL     1       2.146   0.741   4.739  1.00  0.00    -0.126 SA
BRANCH  18  19
ATOM     19  C   UNL     1       0.374   1.079   4.146  1.00  0.00     0.007 A 
ATOM     20  C   UNL     1      -0.652   0.152   3.889  1.00  0.00     0.015 A 
ATOM     21  C   UNL     1      -0.053   2.401   3.963  1.00  0.00     0.015 A 
ATOM     22  C   UNL     1      -1.918   0.422   3.361  1.00  0.00     0.004 A 
ATOM     23  C   UNL     1      -1.356   2.714   3.449  1.00  0.00     0.004 A 
ATOM     24  C   UNL     1      -2.284   1.719   3.109  1.00  0.00    -0.051 A 
ATOM     25  C   UNL     1      -3.575   1.944   2.381  1.00  0.00     0.044 C 
ENDBRANCH  18  19
ENDBRANCH  17  18
ENDBRANCH  16  17
ENDBRANCH   8  16
ENDBRANCH   4   6
ENDBRANCH   3   4
ENDBRANCH   2   3
ENDBRANCH   1   2
BRANCH   1  26
ATOM     26  O   UNL     1       0.940   1.039  -0.040  1.00  0.00    -0.374 OA
BRANCH  26  27
ATOM     27  C   UNL     1      -0.384   0.562   0.160  1.00  0.00     0.202 C 
BRANCH  27  28
ATOM     28  C   UNL     1      -1.168  -0.006  -1.021  1.00  0.00     0.261 C 
BRANCH  28  29
ATOM     29  O   UNL     1      -0.459  -1.079  -1.650  1.00  0.00    -0.460 OA
BRANCH  29  30
ATOM     30  C   UNL     1      -0.147  -0.824  -2.945  1.00  0.00     0.338 C 
ATOM     31  O   UNL     1      -0.591   0.046  -3.662  1.00  0.00    -0.246 OA
BRANCH  30  32
ATOM     32  C   UNL     1       1.048  -1.607  -3.307  1.00  0.00     0.060 A 
ATOM     33  C   UNL     1       2.122  -0.874  -3.834  1.00  0.00     0.016 A 
ATOM     34  C   UNL     1       1.125  -2.991  -3.145  1.00  0.00     0.016 A 
ATOM     35  C   UNL     1       3.237  -1.534  -4.309  1.00  0.00     0.010 A 
ATOM     36  C   UNL     1       2.234  -3.664  -3.661  1.00  0.00     0.010 A 
ATOM     37  C   UNL     1       3.243  -2.933  -4.313  1.00  0.00    -0.014 A 
BRANCH  37  38
ATOM     38  C   UNL     1       4.127  -3.566  -5.310  1.00  0.00     0.031 A 
ATOM     39  C   UNL     1       3.541  -3.844  -6.668  1.00  0.00     0.074 A 
ATOM     40  C   UNL     1       5.440  -3.693  -5.068  1.00  0.00     0.049 A 
ATOM     41  N   UNL     1       4.124  -4.266  -7.758  1.00  0.00    -0.248 NA
ATOM     42  C   UNL     1       2.096  -3.591  -6.824  1.00  0.00     0.031 C 
ATOM     43  C   UNL     1       6.100  -3.355  -3.808  1.00  0.00     0.029 A 
ATOM     44  N   UNL     1       6.455  -4.106  -5.886  1.00  0.00    -0.354 N 
ATOM     45  C   UNL     1       3.122  -4.328  -8.719  1.00  0.00     0.074 A 
ATOM     46  C   UNL     1       1.887  -3.937  -8.083  1.00  0.00     0.031 C 
ATOM     47  C   UNL     1       7.420  -3.567  -3.941  1.00  0.00     0.029 A 
ATOM     48  C   UNL     1       7.686  -4.081  -5.283  1.00  0.00     0.049 A 
ATOM     49  H   UNL     1       6.315  -4.394  -6.817  1.00  0.00     0.167 HD
ATOM     50  C   UNL     1       3.231  -4.670 -10.023  1.00  0.00     0.037 A 
ATOM     51  C   UNL     1       8.885  -4.447  -5.770  1.00  0.00     0.037 A 
ATOM     52  C   UNL     1       4.473  -5.052 -10.636  1.00  0.00     0.049 A 
ATOM     53  C   UNL     1       8.964  -4.906  -7.203  1.00  0.00     0.074 A 
ATOM     54  C   UNL     1       4.713  -5.437 -11.941  1.00  0.00     0.029 A 
ATOM     55  N   UNL     1       5.692  -5.099  -9.970  1.00  0.00    -0.354 N 
ATOM     56  N   UNL     1       8.014  -4.976  -8.107  1.00  0.00    -0.248 NA
ATOM     57  C   UNL     1      10.283  -5.328  -7.686  1.00  0.00     0.031 C 
ATOM     58  C   UNL     1       6.065  -5.778 -12.049  1.00  0.00     0.029 A 
ATOM     59  C   UNL     1       6.683  -5.538 -10.831  1.00  0.00     0.049 A 
ATOM     60  H   UNL     1       5.830  -4.857  -9.026  1.00  0.00     0.167 HD
ATOM     61  C   UNL     1       8.622  -5.427  -9.270  1.00  0.00     0.074 A 
ATOM     62  C   UNL     1      10.030  -5.587  -8.961  1.00  0.00     0.031 C 
ATOM     63  C   UNL     1       8.074  -5.692 -10.483  1.00  0.00     0.037 A 
BRANCH  50  64
ATOM     64  C   UNL     1       1.972  -4.698 -10.842  1.00  0.00     0.064 A 
ATOM     65  C   UNL     1       1.280  -3.527 -11.191  1.00  0.00     0.173 A 
ATOM     66  C   UNL     1       1.450  -5.921 -11.288  1.00  0.00     0.173 A 
ATOM     67  F   UNL     1       1.720  -2.331 -10.770  1.00  0.00    -0.203 F 
ATOM     68  C   UNL     1       0.101  -3.584 -11.932  1.00  0.00     0.198 A 
ATOM     69  C   UNL     1       0.290  -5.972 -12.056  1.00  0.00     0.198 A 
ATOM     70  F   UNL     1       2.066  -7.072 -10.977  1.00  0.00    -0.203 F 
ATOM     71  F   UNL     1      -0.572  -2.458 -12.206  1.00  0.00    -0.200 F 
ATOM     72  C   UNL     1      -0.388  -4.805 -12.371  1.00  0.00     0.200 A 
ATOM     73  F   UNL     1      -0.175  -7.153 -12.486  1.00  0.00    -0.200 F 
ATOM     74  F   UNL     1      -1.519  -4.858 -13.088  1.00  0.00    -0.200 F 
ENDBRANCH  50  64
BRANCH  51  75
ATOM     75  C   UNL     1      10.085  -4.412  -4.895  1.00  0.00     0.064 A 
ATOM     76  C   UNL     1      11.156  -3.546  -5.151  1.00  0.00     0.173 A 
ATOM     77  C   UNL     1      10.188  -5.260  -3.780  1.00  0.00     0.173 A 
ATOM     78  F   UNL     1      11.118  -2.728  -6.213  1.00  0.00    -0.203 F 
ATOM     79  C   UNL     1      12.290  -3.543  -4.340  1.00  0.00     0.198 A 
ATOM     80  C   UNL     1      11.306  -5.233  -2.951  1.00  0.00     0.198 A 
ATOM     81  F   UNL     1       9.191  -6.109  -3.488  1.00  0.00    -0.203 F 
ATOM     82  F   UNL     1      13.321  -2.740  -4.636  1.00  0.00    -0.200 F 
ATOM     83  C   UNL     1      12.361  -4.382  -3.237  1.00  0.00     0.200 A 
ATOM     84  F   UNL     1      11.360  -6.033  -1.878  1.00  0.00    -0.200 F 
ATOM     85  F   UNL     1      13.449  -4.375  -2.455  1.00  0.00    -0.200 F 
ENDBRANCH  51  75
BRANCH  63  86
ATOM     86  C   UNL     1       9.011  -6.155 -11.562  1.00  0.00     0.064 A 
ATOM     87  C   UNL     1       9.628  -7.414 -11.512  1.00  0.00     0.173 A 
ATOM     88  C   UNL     1       9.284  -5.332 -12.665  1.00  0.00     0.173 A 
ATOM     89  F   UNL     1       9.408  -8.233 -10.473  1.00  0.00    -0.203 F 
ATOM     90  C   UNL     1      10.520  -7.812 -12.503  1.00  0.00     0.198 A 
ATOM     91  C   UNL     1      10.145  -5.750 -13.675  1.00  0.00     0.198 A 
ATOM     92  F   UNL     1       8.709  -4.124 -12.768  1.00  0.00    -0.203 F 
ATOM     93  F   UNL     1      11.154  -8.988 -12.397  1.00  0.00    -0.200 F 
ATOM     94  C   UNL     1      10.773  -6.982 -13.586  1.00  0.00     0.200 A 
ATOM     95  F   UNL     1      10.372  -4.956 -14.730  1.00  0.00    -0.200 F 
ATOM     96  F   UNL     1      11.633  -7.367 -14.539  1.00  0.00    -0.200 F 
ENDBRANCH  63  86
ENDBRANCH  37  38
ENDBRANCH  30  32
ENDBRANCH  29  30
ENDBRANCH  28  29
ENDBRANCH  27  28
ENDBRANCH  26  27
ENDBRANCH   1  26
TORSDOF 20
