REMARK SMILES CN1C(=O)/C(=C\c2ccc(C(=O)Nc3ccc(O)cc3C(=O)OCCOCCOC(=O)c3ccc(-c4c5nc(c(-c6c(F)c(F)c(F)c(F)c6F)c6ccc([nH]6)c(-c6c(F)c(F)c(F)c(F)c6F)c6nc(c(-c7c(F)c(F)c(F)c(F)c7F)c7ccc4[nH]7)C=C6)C=C5)cc3)cc2)SC1=S
REMARK SMILES IDX 25 1 24 2 23 3 21 4 22 5 20 6 14 7 15 8 16 9 19 10 17 11
REMARK SMILES IDX 13 12 11 13 12 14 10 16 7 17 8 18 96 19 9 20 95 21 6 22 1 23
REMARK SMILES IDX 2 24 3 25 98 26 4 27 5 28 97 29 99 30 18 31 26 33 27 34
REMARK SMILES IDX 28 35 29 36 30 37 31 38 32 39 33 40 94 41 34 42 93 43 35 44
REMARK SMILES IDX 36 45 37 46 87 47 38 48 92 49 86 50 88 51 39 52 91 53 85 54
REMARK SMILES IDX 84 55 40 57 72 58 52 59 71 60 53 61 56 62 70 63 89 64 54 65
REMARK SMILES IDX 55 66 69 68 90 69 57 70 41 71 42 72 50 73 43 74 44 75 48 76
REMARK SMILES IDX 51 77 45 78 46 79 49 80 47 81 73 82 74 83 82 84 75 85 76 86
REMARK SMILES IDX 80 87 83 88 77 89 78 90 81 91 79 92 58 93 59 94 67 95 60 96
REMARK SMILES IDX 61 97 65 98 68 99 62 100 63 101 66 102 64 103
REMARK H PARENT 13 15 18 32 88 56 56 67
REMARK Flexibility Score: inf
ROOT
ATOM      1  C   UNL     1      -7.568   2.293   5.301  1.00  0.00     0.202 C 
ENDROOT
BRANCH   1   2
ATOM      2  C   UNL     1      -6.659   1.588   4.293  1.00  0.00     0.261 C 
BRANCH   2   3
ATOM      3  O   UNL     1      -6.473   0.182   4.535  1.00  0.00    -0.460 OA
BRANCH   3   4
ATOM      4  C   UNL     1      -5.223  -0.145   4.947  1.00  0.00     0.340 C 
ATOM      5  O   UNL     1      -4.330   0.649   5.214  1.00  0.00    -0.246 OA
BRANCH   4   6
ATOM      6  C   UNL     1      -5.055  -1.601   5.195  1.00  0.00     0.087 A 
ATOM      7  C   UNL     1      -5.656  -2.668   4.492  1.00  0.00     0.056 A 
ATOM      8  C   UNL     1      -5.426  -3.979   4.955  1.00  0.00     0.031 A 
ATOM      9  C   UNL     1      -4.539  -4.239   6.003  1.00  0.00     0.048 A 
ATOM     10  C   UNL     1      -4.167  -1.881   6.259  1.00  0.00     0.064 A 
ATOM     11  C   UNL     1      -3.899  -3.188   6.634  1.00  0.00     0.116 A 
BRANCH   7  12
ATOM     12  N   UNL     1      -6.415  -2.615   3.299  1.00  0.00    -0.321 N 
ATOM     13  C   UNL     1      -6.348  -1.805   2.183  1.00  0.00     0.255 C 
ATOM     14  O   UNL     1      -7.240  -1.862   1.337  1.00  0.00    -0.269 OA
ATOM     15  H   UNL     1      -7.132  -3.288   3.256  1.00  0.00     0.170 HD
BRANCH  13  16
ATOM     16  C   UNL     1      -5.192  -0.912   1.944  1.00  0.00     0.040 A 
ATOM     17  C   UNL     1      -3.165   1.009   1.932  1.00  0.00    -0.024 A 
ATOM     18  C   UNL     1      -4.403   1.295   1.346  1.00  0.00     0.009 A 
ATOM     19  C   UNL     1      -2.935  -0.267   2.455  1.00  0.00     0.009 A 
ATOM     20  C   UNL     1      -5.418   0.335   1.351  1.00  0.00     0.014 A 
ATOM     21  C   UNL     1      -3.913  -1.251   2.381  1.00  0.00     0.014 A 
BRANCH  17  22
ATOM     22  C   UNL     1      -2.149   2.059   2.043  1.00  0.00     0.029 C 
ATOM     23  C   UNL     1       1.873   0.146  -0.089  1.00  0.00     0.155 C 
ATOM     24  N   UNL     1       1.093   1.134   0.638  1.00  0.00    -0.296 N 
ATOM     25  C   UNL     1      -0.189   0.790   1.021  1.00  0.00     0.265 C 
ATOM     26  C   UNL     1       1.506   2.416   0.917  1.00  0.00     0.148 C 
ATOM     27  O   UNL     1      -0.687  -0.305   0.833  1.00  0.00    -0.268 OA
ATOM     28  C   UNL     1      -0.867   1.956   1.665  1.00  0.00     0.081 C 
ATOM     29  S   UNL     1       0.246   3.269   1.798  1.00  0.00    -0.054 SA
ATOM     30  S   UNL     1       2.949   3.138   0.499  1.00  0.00    -0.052 S 
ENDBRANCH  17  22
ENDBRANCH  13  16
ENDBRANCH   7  12
BRANCH  11  31
ATOM     31  O   UNL     1      -3.004  -3.475   7.619  1.00  0.00    -0.508 OA
ATOM     32  H   UNL     1      -2.839  -4.367   7.856  1.00  0.00     0.293 HD
ENDBRANCH  11  31
ENDBRANCH   4   6
ENDBRANCH   3   4
ENDBRANCH   2   3
ENDBRANCH   1   2
BRANCH   1  33
ATOM     33  O   UNL     1      -7.256   2.200   6.683  1.00  0.00    -0.374 OA
BRANCH  33  34
ATOM     34  C   UNL     1      -7.304   0.924   7.312  1.00  0.00     0.202 C 
BRANCH  34  35
ATOM     35  C   UNL     1      -8.641   0.171   7.363  1.00  0.00     0.261 C 
BRANCH  35  36
ATOM     36  O   UNL     1      -9.227  -0.098   6.076  1.00  0.00    -0.460 OA
BRANCH  36  37
ATOM     37  C   UNL     1     -10.398   0.545   5.850  1.00  0.00     0.338 C 
ATOM     38  O   UNL     1     -10.978   1.317   6.599  1.00  0.00    -0.246 OA
BRANCH  37  39
ATOM     39  C   UNL     1     -10.880   0.302   4.481  1.00  0.00     0.060 A 
ATOM     40  C   UNL     1     -11.011   1.401   3.623  1.00  0.00     0.016 A 
ATOM     41  C   UNL     1     -11.377  -0.950   4.117  1.00  0.00     0.016 A 
ATOM     42  C   UNL     1     -11.690   1.263   2.413  1.00  0.00     0.010 A 
ATOM     43  C   UNL     1     -12.066  -1.084   2.908  1.00  0.00     0.010 A 
ATOM     44  C   UNL     1     -12.262   0.030   2.072  1.00  0.00    -0.014 A 
BRANCH  44  45
ATOM     45  C   UNL     1     -13.194  -0.051   0.922  1.00  0.00     0.031 A 
ATOM     46  C   UNL     1     -14.676  -0.005   1.176  1.00  0.00     0.074 A 
ATOM     47  C   UNL     1     -12.726  -0.142  -0.334  1.00  0.00     0.049 A 
ATOM     48  N   UNL     1     -15.670  -0.109   0.330  1.00  0.00    -0.248 NA
ATOM     49  C   UNL     1     -15.095   0.182   2.575  1.00  0.00     0.031 C 
ATOM     50  C   UNL     1     -11.315  -0.159  -0.708  1.00  0.00     0.029 A 
ATOM     51  N   UNL     1     -13.396  -0.246  -1.527  1.00  0.00    -0.354 N 
ATOM     52  C   UNL     1     -16.827  -0.010   1.091  1.00  0.00     0.074 A 
ATOM     53  C   UNL     1     -16.416   0.139   2.471  1.00  0.00     0.031 C 
ATOM     54  C   UNL     1     -11.221  -0.278  -2.043  1.00  0.00     0.029 A 
ATOM     55  C   UNL     1     -12.564  -0.380  -2.611  1.00  0.00     0.049 A 
ATOM     56  H   UNL     1     -14.377  -0.227  -1.599  1.00  0.00     0.167 HD
ATOM     57  C   UNL     1     -18.116  -0.035   0.676  1.00  0.00     0.037 A 
ATOM     58  C   UNL     1     -12.858  -0.587  -3.909  1.00  0.00     0.037 A 
ATOM     59  C   UNL     1     -18.523  -0.180  -0.697  1.00  0.00     0.049 A 
ATOM     60  C   UNL     1     -14.299  -0.676  -4.337  1.00  0.00     0.074 A 
ATOM     61  C   UNL     1     -19.804  -0.196  -1.222  1.00  0.00     0.029 A 
ATOM     62  N   UNL     1     -17.652  -0.339  -1.765  1.00  0.00    -0.354 N 
ATOM     63  N   UNL     1     -15.388  -0.562  -3.616  1.00  0.00    -0.248 NA
ATOM     64  C   UNL     1     -14.552  -0.924  -5.764  1.00  0.00     0.031 C 
ATOM     65  C   UNL     1     -19.709  -0.412  -2.601  1.00  0.00     0.029 A 
ATOM     66  C   UNL     1     -18.368  -0.480  -2.942  1.00  0.00     0.049 A 
ATOM     67  H   UNL     1     -16.670  -0.350  -1.696  1.00  0.00     0.167 HD
ATOM     68  C   UNL     1     -16.450  -0.698  -4.500  1.00  0.00     0.074 A 
ATOM     69  C   UNL     1     -15.876  -0.891  -5.815  1.00  0.00     0.031 C 
ATOM     70  C   UNL     1     -17.781  -0.664  -4.245  1.00  0.00     0.037 A 
BRANCH  57  71
ATOM     71  C   UNL     1     -19.185   0.071   1.724  1.00  0.00     0.064 A 
ATOM     72  C   UNL     1     -19.448   1.278   2.389  1.00  0.00     0.173 A 
ATOM     73  C   UNL     1     -19.981  -1.040   2.040  1.00  0.00     0.173 A 
ATOM     74  F   UNL     1     -18.707   2.366   2.132  1.00  0.00    -0.203 F 
ATOM     75  C   UNL     1     -20.453   1.361   3.350  1.00  0.00     0.198 A 
ATOM     76  C   UNL     1     -21.002  -0.947   2.982  1.00  0.00     0.198 A 
ATOM     77  F   UNL     1     -19.774  -2.217   1.429  1.00  0.00    -0.203 F 
ATOM     78  F   UNL     1     -20.660   2.513   4.003  1.00  0.00    -0.200 F 
ATOM     79  C   UNL     1     -21.233   0.252   3.640  1.00  0.00     0.200 A 
ATOM     80  F   UNL     1     -21.762  -2.016   3.253  1.00  0.00    -0.200 F 
ATOM     81  F   UNL     1     -22.205   0.336   4.560  1.00  0.00    -0.200 F 
ENDBRANCH  57  71
BRANCH  58  82
ATOM     82  C   UNL     1     -11.761  -0.740  -4.898  1.00  0.00     0.064 A 
ATOM     83  C   UNL     1     -11.524   0.240  -5.871  1.00  0.00     0.173 A 
ATOM     84  C   UNL     1     -10.936  -1.875  -4.899  1.00  0.00     0.173 A 
ATOM     85  F   UNL     1     -12.305   1.329  -5.928  1.00  0.00    -0.203 F 
ATOM     86  C   UNL     1     -10.511   0.085  -6.816  1.00  0.00     0.198 A 
ATOM     87  C   UNL     1      -9.907  -2.016  -5.827  1.00  0.00     0.198 A 
ATOM     88  F   UNL     1     -11.128  -2.845  -3.993  1.00  0.00    -0.203 F 
ATOM     89  F   UNL     1     -10.334   1.016  -7.763  1.00  0.00    -0.200 F 
ATOM     90  C   UNL     1      -9.700  -1.039  -6.789  1.00  0.00     0.200 A 
ATOM     91  F   UNL     1      -9.121  -3.101  -5.793  1.00  0.00    -0.200 F 
ATOM     92  F   UNL     1      -8.725  -1.187  -7.697  1.00  0.00    -0.200 F 
ENDBRANCH  58  82
BRANCH  70  93
ATOM     93  C   UNL     1     -18.711  -0.806  -5.415  1.00  0.00     0.064 A 
ATOM     94  C   UNL     1     -18.898  -2.037  -6.061  1.00  0.00     0.173 A 
ATOM     95  C   UNL     1     -19.457   0.294  -5.866  1.00  0.00     0.173 A 
ATOM     96  F   UNL     1     -18.198  -3.114  -5.677  1.00  0.00    -0.203 F 
ATOM     97  C   UNL     1     -19.782  -2.155  -7.131  1.00  0.00     0.198 A 
ATOM     98  C   UNL     1     -20.360   0.165  -6.918  1.00  0.00     0.198 A 
ATOM     99  F   UNL     1     -19.320   1.491  -5.277  1.00  0.00    -0.203 F 
ATOM    100  F   UNL     1     -19.913  -3.330  -7.762  1.00  0.00    -0.200 F 
ATOM    101  C   UNL     1     -20.516  -1.057  -7.553  1.00  0.00     0.200 A 
ATOM    102  F   UNL     1     -21.078   1.224  -7.316  1.00  0.00    -0.200 F 
ATOM    103  F   UNL     1     -21.371  -1.175  -8.579  1.00  0.00    -0.200 F 
ENDBRANCH  70  93
ENDBRANCH  44  45
ENDBRANCH  37  39
ENDBRANCH  36  37
ENDBRANCH  35  36
ENDBRANCH  34  35
ENDBRANCH  33  34
ENDBRANCH   1  33
TORSDOF 18
