REMARK SMILES COc1ccc(N2CCN(c3ccc(NS(=O)(=O)c4cccs4)cc3C(=O)OCCOCCOC(=O)c3ccc(-c4c5nc(c(-c6c(F)c(F)c(F)c(F)c6F)c6ccc([nH]6)c(-c6c(F)c(F)c(F)c(F)c6F)c6nc(c(-c7c(F)c(F)c(F)c(F)c7F)c7ccc4[nH]7)C=C6)C=C5)cc3)CC2)cc1
REMARK SMILES IDX 30 1 29 2 28 3 26 4 27 5 25 6 11 7 12 8 13 9 24 10 14 11
REMARK SMILES IDX 10 12 7 13 8 14 101 15 9 16 100 17 6 18 3 19 4 20 103 21
REMARK SMILES IDX 5 22 102 23 2 24 1 25 15 26 16 28 17 29 18 30 19 31 20 32
REMARK SMILES IDX 23 33 21 34 22 35 31 36 32 37 33 38 34 39 35 40 36 41 37 42
REMARK SMILES IDX 38 43 99 44 39 45 98 46 40 47 41 48 42 49 92 50 43 51 97 52
REMARK SMILES IDX 91 53 93 54 44 55 96 56 90 57 89 58 45 60 77 61 57 62 76 63
REMARK SMILES IDX 58 64 61 65 75 66 94 67 59 68 60 69 74 71 95 72 62 73 46 74
REMARK SMILES IDX 47 75 55 76 48 77 49 78 53 79 56 80 50 81 51 82 54 83 52 84
REMARK SMILES IDX 78 85 79 86 87 87 80 88 81 89 85 90 88 91 82 92 83 93 86 94
REMARK SMILES IDX 84 95 63 96 64 97 72 98 65 99 66 100 70 101 73 102 67 103
REMARK SMILES IDX 68 104 71 105 69 106
REMARK H PARENT 15 27 93 59 61 70
REMARK Flexibility Score: inf
ROOT
ATOM      1  C   UNL     1       3.069   8.279   5.720  1.00  0.00     0.202 C 
ENDROOT
BRANCH   1   2
ATOM      2  C   UNL     1       4.493   7.787   5.967  1.00  0.00     0.261 C 
BRANCH   2   3
ATOM      3  O   UNL     1       4.437   6.643   6.842  1.00  0.00    -0.460 OA
BRANCH   3   4
ATOM      4  C   UNL     1       5.306   6.633   7.875  1.00  0.00     0.340 C 
ATOM      5  O   UNL     1       6.227   7.425   8.023  1.00  0.00    -0.246 OA
BRANCH   4   6
ATOM      6  C   UNL     1       4.902   5.670   8.944  1.00  0.00     0.085 A 
ATOM      7  C   UNL     1       4.309   4.393   8.785  1.00  0.00     0.052 A 
ATOM      8  C   UNL     1       4.030   3.717   9.999  1.00  0.00     0.029 A 
ATOM      9  C   UNL     1       4.125   4.293  11.257  1.00  0.00     0.029 A 
ATOM     10  C   UNL     1       5.109   6.211  10.254  1.00  0.00     0.044 A 
ATOM     11  C   UNL     1       4.715   5.525  11.399  1.00  0.00     0.050 A 
BRANCH   7  12
ATOM     12  N   UNL     1       3.914   3.740   7.630  1.00  0.00    -0.367 N 
ATOM     13  N   UNL     1       2.221   3.160   5.372  1.00  0.00    -0.368 N 
ATOM     14  C   UNL     1       1.677   3.182   6.729  1.00  0.00     0.138 C 
ATOM     15  C   UNL     1       3.387   4.056   5.189  1.00  0.00     0.138 C 
ATOM     16  C   UNL     1       2.782   2.773   7.700  1.00  0.00     0.138 C 
ATOM     17  C   UNL     1       4.493   3.813   6.268  1.00  0.00     0.138 C 
BRANCH  13  18
ATOM     18  C   UNL     1       1.786   2.198   4.488  1.00  0.00     0.037 A 
ATOM     19  C   UNL     1       0.758   0.392   2.535  1.00  0.00     0.119 A 
ATOM     20  C   UNL     1      -0.065   0.903   3.525  1.00  0.00     0.048 A 
ATOM     21  C   UNL     1       2.109   0.713   2.571  1.00  0.00     0.048 A 
ATOM     22  C   UNL     1       0.448   1.769   4.493  1.00  0.00     0.030 A 
ATOM     23  C   UNL     1       2.611   1.618   3.526  1.00  0.00     0.030 A 
BRANCH  19  24
ATOM     24  O   UNL     1       0.093  -0.331   1.594  1.00  0.00    -0.497 OA
ATOM     25  C   UNL     1       0.832  -1.091   0.656  1.00  0.00     0.278 C 
ENDBRANCH  19  24
ENDBRANCH  13  18
ENDBRANCH   7  12
BRANCH  11  26
ATOM     26  N   UNL     1       4.838   6.077  12.708  1.00  0.00    -0.279 N 
ATOM     27  H   UNL     1       4.322   6.876  12.961  1.00  0.00     0.180 HD
BRANCH  26  28
ATOM     28  S   UNL     1       5.890   5.337  13.832  1.00  0.00     0.271 S 
ATOM     29  O   UNL     1       7.232   5.770  13.508  1.00  0.00    -0.200 OA
ATOM     30  O   UNL     1       5.322   5.613  15.137  1.00  0.00    -0.200 OA
BRANCH  28  31
ATOM     31  C   UNL     1       5.888   3.552  13.726  1.00  0.00     0.140 A 
ATOM     32  C   UNL     1       5.264   2.576  14.486  1.00  0.00     0.034 A 
ATOM     33  S   UNL     1       6.835   2.842  12.480  1.00  0.00    -0.131 S 
ATOM     34  C   UNL     1       5.444   1.266  13.950  1.00  0.00     0.013 A 
ATOM     35  C   UNL     1       6.224   1.280  12.816  1.00  0.00     0.066 A 
ENDBRANCH  28  31
ENDBRANCH  26  28
ENDBRANCH  11  26
ENDBRANCH   4   6
ENDBRANCH   3   4
ENDBRANCH   2   3
ENDBRANCH   1   2
BRANCH   1  36
ATOM     36  O   UNL     1       2.437   8.862   6.860  1.00  0.00    -0.374 OA
BRANCH  36  37
ATOM     37  C   UNL     1       1.904   7.955   7.825  1.00  0.00     0.202 C 
BRANCH  37  38
ATOM     38  C   UNL     1       0.511   7.395   7.513  1.00  0.00     0.261 C 
BRANCH  38  39
ATOM     39  O   UNL     1       0.475   6.596   6.317  1.00  0.00    -0.460 OA
BRANCH  39  40
ATOM     40  C   UNL     1       0.012   7.223   5.205  1.00  0.00     0.338 C 
ATOM     41  O   UNL     1      -0.386   8.367   5.108  1.00  0.00    -0.246 OA
BRANCH  40  42
ATOM     42  C   UNL     1       0.162   6.318   4.048  1.00  0.00     0.060 A 
ATOM     43  C   UNL     1       0.983   6.674   2.970  1.00  0.00     0.016 A 
ATOM     44  C   UNL     1      -0.561   5.136   4.007  1.00  0.00     0.016 A 
ATOM     45  C   UNL     1       1.095   5.831   1.849  1.00  0.00     0.010 A 
ATOM     46  C   UNL     1      -0.440   4.308   2.888  1.00  0.00     0.010 A 
ATOM     47  C   UNL     1       0.389   4.623   1.790  1.00  0.00    -0.014 A 
BRANCH  47  48
ATOM     48  C   UNL     1       0.406   3.694   0.603  1.00  0.00     0.031 A 
ATOM     49  C   UNL     1      -0.915   3.228   0.025  1.00  0.00     0.074 A 
ATOM     50  C   UNL     1       1.542   3.153   0.106  1.00  0.00     0.049 A 
ATOM     51  N   UNL     1      -1.184   2.219  -0.769  1.00  0.00    -0.248 NA
ATOM     52  C   UNL     1      -2.107   3.981   0.449  1.00  0.00     0.031 C 
ATOM     53  C   UNL     1       2.903   3.439   0.558  1.00  0.00     0.029 A 
ATOM     54  N   UNL     1       1.718   2.173  -0.854  1.00  0.00    -0.354 N 
ATOM     55  C   UNL     1      -2.571   2.179  -0.871  1.00  0.00     0.074 A 
ATOM     56  C   UNL     1      -3.086   3.216  -0.005  1.00  0.00     0.031 C 
ATOM     57  C   UNL     1       3.763   2.619  -0.073  1.00  0.00     0.029 A 
ATOM     58  C   UNL     1       3.016   1.722  -0.952  1.00  0.00     0.049 A 
ATOM     59  H   UNL     1       0.985   1.830  -1.414  1.00  0.00     0.167 HD
ATOM     60  C   UNL     1      -3.355   1.389  -1.645  1.00  0.00     0.037 A 
ATOM     61  C   UNL     1       3.542   0.667  -1.614  1.00  0.00     0.037 A 
ATOM     62  C   UNL     1      -2.856   0.405  -2.567  1.00  0.00     0.049 A 
ATOM     63  C   UNL     1       2.663  -0.218  -2.465  1.00  0.00     0.074 A 
ATOM     64  C   UNL     1      -3.563  -0.363  -3.477  1.00  0.00     0.029 A 
ATOM     65  N   UNL     1      -1.522   0.057  -2.701  1.00  0.00    -0.354 N 
ATOM     66  N   UNL     1       1.364  -0.185  -2.627  1.00  0.00    -0.248 NA
ATOM     67  C   UNL     1       3.326  -1.292  -3.224  1.00  0.00     0.031 C 
ATOM     68  C   UNL     1      -2.664  -1.211  -4.128  1.00  0.00     0.029 A 
ATOM     69  C   UNL     1      -1.389  -0.928  -3.667  1.00  0.00     0.049 A 
ATOM     70  H   UNL     1      -0.780   0.450  -2.187  1.00  0.00     0.167 HD
ATOM     71  C   UNL     1       1.065  -1.181  -3.550  1.00  0.00     0.074 A 
ATOM     72  C   UNL     1       2.313  -1.821  -3.896  1.00  0.00     0.031 C 
ATOM     73  C   UNL     1      -0.139  -1.520  -4.067  1.00  0.00     0.037 A 
BRANCH  60  74
ATOM     74  C   UNL     1      -4.845   1.583  -1.562  1.00  0.00     0.064 A 
ATOM     75  C   UNL     1      -5.457   2.773  -1.985  1.00  0.00     0.173 A 
ATOM     76  C   UNL     1      -5.678   0.553  -1.095  1.00  0.00     0.173 A 
ATOM     77  F   UNL     1      -4.712   3.791  -2.444  1.00  0.00    -0.203 F 
ATOM     78  C   UNL     1      -6.835   2.946  -1.895  1.00  0.00     0.198 A 
ATOM     79  C   UNL     1      -7.061   0.713  -1.050  1.00  0.00     0.198 A 
ATOM     80  F   UNL     1      -5.153  -0.616  -0.696  1.00  0.00    -0.203 F 
ATOM     81  F   UNL     1      -7.384   4.120  -2.238  1.00  0.00    -0.200 F 
ATOM     82  C   UNL     1      -7.636   1.913  -1.436  1.00  0.00     0.200 A 
ATOM     83  F   UNL     1      -7.837  -0.296  -0.631  1.00  0.00    -0.200 F 
ATOM     84  F   UNL     1      -8.964   2.077  -1.362  1.00  0.00    -0.200 F 
ENDBRANCH  60  74
BRANCH  61  85
ATOM     85  C   UNL     1       4.986   0.332  -1.471  1.00  0.00     0.064 A 
ATOM     86  C   UNL     1       5.881   0.523  -2.532  1.00  0.00     0.173 A 
ATOM     87  C   UNL     1       5.482  -0.263  -0.302  1.00  0.00     0.173 A 
ATOM     88  F   UNL     1       5.444   1.044  -3.688  1.00  0.00    -0.203 F 
ATOM     89  C   UNL     1       7.210   0.111  -2.437  1.00  0.00     0.198 A 
ATOM     90  C   UNL     1       6.818  -0.646  -0.196  1.00  0.00     0.198 A 
ATOM     91  F   UNL     1       4.665  -0.494   0.734  1.00  0.00    -0.203 F 
ATOM     92  F   UNL     1       8.026   0.245  -3.491  1.00  0.00    -0.200 F 
ATOM     93  C   UNL     1       7.678  -0.469  -1.268  1.00  0.00     0.200 A 
ATOM     94  F   UNL     1       7.264  -1.207   0.937  1.00  0.00    -0.200 F 
ATOM     95  F   UNL     1       8.952  -0.875  -1.181  1.00  0.00    -0.200 F 
ENDBRANCH  61  85
BRANCH  73  96
ATOM     96  C   UNL     1      -0.180  -2.542  -5.168  1.00  0.00     0.064 A 
ATOM     97  C   UNL     1       0.022  -3.908  -4.934  1.00  0.00     0.173 A 
ATOM     98  C   UNL     1      -0.512  -2.142  -6.474  1.00  0.00     0.173 A 
ATOM     99  F   UNL     1       0.355  -4.342  -3.709  1.00  0.00    -0.203 F 
ATOM    100  C   UNL     1      -0.096  -4.836  -5.968  1.00  0.00     0.198 A 
ATOM    101  C   UNL     1      -0.659  -3.074  -7.497  1.00  0.00     0.198 A 
ATOM    102  F   UNL     1      -0.722  -0.846  -6.750  1.00  0.00    -0.203 F 
ATOM    103  F   UNL     1       0.133  -6.135  -5.729  1.00  0.00    -0.200 F 
ATOM    104  C   UNL     1      -0.448  -4.420  -7.244  1.00  0.00     0.200 A 
ATOM    105  F   UNL     1      -1.015  -2.670  -8.724  1.00  0.00    -0.200 F 
ATOM    106  F   UNL     1      -0.580  -5.317  -8.232  1.00  0.00    -0.200 F 
ENDBRANCH  73  96
ENDBRANCH  47  48
ENDBRANCH  40  42
ENDBRANCH  39  40
ENDBRANCH  38  39
ENDBRANCH  37  38
ENDBRANCH  36  37
ENDBRANCH   1  36
TORSDOF 20
