REMARK SMILES [NH3+][C@H](Cc1cc(F)c(F)c(F)c1)C(=O)OCCOCCOC(=O)c1ccc(-c2c3nc(c(-c4c(F)c(F)c(F)c(F)c4F)c4ccc([nH]4)c(-c4c(F)c(F)c(F)c(F)c4F)c4nc(c(-c5c(F)c(F)c(F)c(F)c5F)c5ccc2[nH]5)C=C4)C=C3)cc1
REMARK SMILES IDX 18 1 17 2 16 3 15 4 13 5 14 6 2 7 1 8 3 12 4 13 5 14 12 15
REMARK SMILES IDX 6 16 10 17 7 18 8 19 11 20 9 21 19 22 20 23 21 24 22 25
REMARK SMILES IDX 23 26 24 27 25 28 86 29 26 30 85 31 27 32 28 33 29 34 79 35
REMARK SMILES IDX 30 36 84 37 78 38 80 39 31 40 83 41 77 42 76 43 32 45 64 46
REMARK SMILES IDX 44 47 63 48 45 49 48 50 62 51 81 52 46 53 47 54 61 56 82 57
REMARK SMILES IDX 49 58 33 59 34 60 42 61 35 62 36 63 40 64 43 65 37 66 38 67
REMARK SMILES IDX 41 68 39 69 65 70 66 71 74 72 67 73 68 74 72 75 75 76 69 77
REMARK SMILES IDX 70 78 73 79 71 80 50 81 51 82 59 83 52 84 53 85 57 86 60 87
REMARK SMILES IDX 54 88 55 89 58 90 56 91
REMARK H PARENT 1 9 1 10 1 11 80 44 48 55
REMARK Flexibility Score: inf
ROOT
ATOM      1  O   UNL     1      -3.263  -1.587   0.400  1.00  0.00    -0.374 OA
ENDROOT
BRANCH   1   2
ATOM      2  C   UNL     1      -3.545  -0.246   0.806  1.00  0.00     0.202 C 
BRANCH   2   3
ATOM      3  C   UNL     1      -2.776   0.220   2.044  1.00  0.00     0.261 C 
BRANCH   3   4
ATOM      4  O   UNL     1      -1.395   0.442   1.699  1.00  0.00    -0.459 OA
BRANCH   4   5
ATOM      5  C   UNL     1      -0.467  -0.096   2.531  1.00  0.00     0.365 C 
ATOM      6  O   UNL     1      -0.733  -0.647   3.594  1.00  0.00    -0.245 OA
BRANCH   5   7
ATOM      7  C   UNL     1       0.972   0.050   1.987  1.00  0.00     0.296 C 
BRANCH   7   8
ATOM      8  N   UNL     1       1.818   0.817   2.922  1.00  0.00    -0.346 N 
ATOM      9  H   UNL     1       1.653   0.492   3.875  1.00  0.00     0.345 HD
ATOM     10  H   UNL     1       1.586   1.808   2.856  1.00  0.00     0.345 HD
ATOM     11  H   UNL     1       2.800   0.681   2.682  1.00  0.00     0.345 HD
ENDBRANCH   7   8
BRANCH   7  12
ATOM     12  C   UNL     1       1.147   0.467   0.508  1.00  0.00     0.113 C 
BRANCH  12  13
ATOM     13  C   UNL     1       0.670   1.795  -0.046  1.00  0.00    -0.035 A 
ATOM     14  C   UNL     1       0.198   2.862   0.729  1.00  0.00     0.046 A 
ATOM     15  C   UNL     1       0.712   1.966  -1.444  1.00  0.00     0.046 A 
ATOM     16  C   UNL     1      -0.226   4.047   0.121  1.00  0.00     0.162 A 
ATOM     17  C   UNL     1       0.291   3.156  -2.035  1.00  0.00     0.162 A 
ATOM     18  F   UNL     1      -0.691   5.041   0.891  1.00  0.00    -0.204 F 
ATOM     19  C   UNL     1      -0.182   4.199  -1.256  1.00  0.00     0.194 A 
ATOM     20  F   UNL     1       0.326   3.272  -3.370  1.00  0.00    -0.204 F 
ATOM     21  F   UNL     1      -0.604   5.334  -1.829  1.00  0.00    -0.200 F 
ENDBRANCH  12  13
ENDBRANCH   7  12
ENDBRANCH   5   7
ENDBRANCH   4   5
ENDBRANCH   3   4
ENDBRANCH   2   3
ENDBRANCH   1   2
BRANCH   1  22
ATOM     22  C   UNL     1      -2.042  -1.800  -0.307  1.00  0.00     0.202 C 
BRANCH  22  23
ATOM     23  C   UNL     1      -2.101  -1.522  -1.813  1.00  0.00     0.261 C 
BRANCH  23  24
ATOM     24  O   UNL     1      -2.357  -0.134  -2.099  1.00  0.00    -0.460 OA
BRANCH  24  25
ATOM     25  C   UNL     1      -3.587   0.122  -2.604  1.00  0.00     0.338 C 
ATOM     26  O   UNL     1      -4.447  -0.694  -2.915  1.00  0.00    -0.246 OA
BRANCH  25  27
ATOM     27  C   UNL     1      -3.852   1.571  -2.594  1.00  0.00     0.060 A 
ATOM     28  C   UNL     1      -5.028   2.011  -1.974  1.00  0.00     0.016 A 
ATOM     29  C   UNL     1      -3.009   2.482  -3.233  1.00  0.00     0.016 A 
ATOM     30  C   UNL     1      -5.380   3.359  -2.019  1.00  0.00     0.010 A 
ATOM     31  C   UNL     1      -3.363   3.836  -3.276  1.00  0.00     0.010 A 
ATOM     32  C   UNL     1      -4.565   4.277  -2.695  1.00  0.00    -0.014 A 
BRANCH  32  33
ATOM     33  C   UNL     1      -5.035   5.672  -2.886  1.00  0.00     0.031 A 
ATOM     34  C   UNL     1      -5.639   6.073  -4.203  1.00  0.00     0.074 A 
ATOM     35  C   UNL     1      -4.969   6.562  -1.879  1.00  0.00     0.049 A 
ATOM     36  N   UNL     1      -6.106   7.237  -4.582  1.00  0.00    -0.248 NA
ATOM     37  C   UNL     1      -5.738   5.024  -5.231  1.00  0.00     0.031 C 
ATOM     38  C   UNL     1      -4.440   6.286  -0.545  1.00  0.00     0.029 A 
ATOM     39  N   UNL     1      -5.354   7.879  -1.824  1.00  0.00    -0.354 N 
ATOM     40  C   UNL     1      -6.549   7.060  -5.886  1.00  0.00     0.074 A 
ATOM     41  C   UNL     1      -6.275   5.686  -6.246  1.00  0.00     0.031 C 
ATOM     42  C   UNL     1      -4.535   7.401   0.200  1.00  0.00     0.029 A 
ATOM     43  C   UNL     1      -5.101   8.476  -0.614  1.00  0.00     0.049 A 
ATOM     44  H   UNL     1      -5.772   8.351  -2.580  1.00  0.00     0.167 HD
ATOM     45  C   UNL     1      -7.143   7.961  -6.703  1.00  0.00     0.037 A 
ATOM     46  C   UNL     1      -5.286   9.750  -0.214  1.00  0.00     0.037 A 
ATOM     47  C   UNL     1      -7.428   9.325  -6.343  1.00  0.00     0.049 A 
ATOM     48  C   UNL     1      -5.882  10.752  -1.169  1.00  0.00     0.074 A 
ATOM     49  C   UNL     1      -8.052  10.301  -7.101  1.00  0.00     0.029 A 
ATOM     50  N   UNL     1      -7.108   9.905  -5.126  1.00  0.00    -0.354 N 
ATOM     51  N   UNL     1      -6.314  10.570  -2.393  1.00  0.00    -0.248 NA
ATOM     52  C   UNL     1      -6.010  12.136  -0.690  1.00  0.00     0.031 C 
ATOM     53  C   UNL     1      -8.068  11.485  -6.360  1.00  0.00     0.029 A 
ATOM     54  C   UNL     1      -7.497  11.235  -5.123  1.00  0.00     0.049 A 
ATOM     55  H   UNL     1      -6.670   9.442  -4.376  1.00  0.00     0.167 HD
ATOM     56  C   UNL     1      -6.778  11.807  -2.823  1.00  0.00     0.074 A 
ATOM     57  C   UNL     1      -6.591  12.730  -1.724  1.00  0.00     0.031 C 
ATOM     58  C   UNL     1      -7.309  12.144  -4.023  1.00  0.00     0.037 A 
BRANCH  45  59
ATOM     59  C   UNL     1      -7.531   7.514  -8.079  1.00  0.00     0.064 A 
ATOM     60  C   UNL     1      -6.832   7.984  -9.201  1.00  0.00     0.173 A 
ATOM     61  C   UNL     1      -8.654   6.703  -8.293  1.00  0.00     0.173 A 
ATOM     62  F   UNL     1      -5.755   8.769  -9.047  1.00  0.00    -0.203 F 
ATOM     63  C   UNL     1      -7.258   7.675 -10.490  1.00  0.00     0.198 A 
ATOM     64  C   UNL     1      -9.064   6.377  -9.584  1.00  0.00     0.198 A 
ATOM     65  F   UNL     1      -9.348   6.222  -7.251  1.00  0.00    -0.203 F 
ATOM     66  F   UNL     1      -6.597   8.164 -11.548  1.00  0.00    -0.200 F 
ATOM     67  C   UNL     1      -8.373   6.872 -10.680  1.00  0.00     0.200 A 
ATOM     68  F   UNL     1     -10.132   5.588  -9.767  1.00  0.00    -0.200 F 
ATOM     69  F   UNL     1      -8.783   6.577 -11.921  1.00  0.00    -0.200 F 
ENDBRANCH  45  59
BRANCH  46  70
ATOM     70  C   UNL     1      -4.892  10.156   1.160  1.00  0.00     0.064 A 
ATOM     71  C   UNL     1      -3.543  10.221   1.540  1.00  0.00     0.173 A 
ATOM     72  C   UNL     1      -5.856  10.488   2.120  1.00  0.00     0.173 A 
ATOM     73  F   UNL     1      -2.581   9.922   0.655  1.00  0.00    -0.203 F 
ATOM     74  C   UNL     1      -3.175  10.583   2.834  1.00  0.00     0.198 A 
ATOM     75  C   UNL     1      -5.487  10.876   3.407  1.00  0.00     0.198 A 
ATOM     76  F   UNL     1      -7.158  10.470   1.796  1.00  0.00    -0.203 F 
ATOM     77  F   UNL     1      -1.881  10.611   3.178  1.00  0.00    -0.200 F 
ATOM     78  C   UNL     1      -4.147  10.915   3.765  1.00  0.00     0.200 A 
ATOM     79  F   UNL     1      -6.428  11.223   4.296  1.00  0.00    -0.200 F 
ATOM     80  F   UNL     1      -3.793  11.279   5.005  1.00  0.00    -0.200 F 
ENDBRANCH  46  70
BRANCH  58  81
ATOM     81  C   UNL     1      -7.741  13.566  -4.225  1.00  0.00     0.064 A 
ATOM     82  C   UNL     1      -9.103  13.892  -4.313  1.00  0.00     0.173 A 
ATOM     83  C   UNL     1      -6.805  14.590  -4.427  1.00  0.00     0.173 A 
ATOM     84  F   UNL     1     -10.037  12.946  -4.137  1.00  0.00    -0.203 F 
ATOM     85  C   UNL     1      -9.511  15.188  -4.615  1.00  0.00     0.198 A 
ATOM     86  C   UNL     1      -7.217  15.891  -4.704  1.00  0.00     0.198 A 
ATOM     87  F   UNL     1      -5.492  14.331  -4.342  1.00  0.00    -0.203 F 
ATOM     88  F   UNL     1     -10.817  15.468  -4.732  1.00  0.00    -0.200 F 
ATOM     89  C   UNL     1      -8.569  16.186  -4.809  1.00  0.00     0.200 A 
ATOM     90  F   UNL     1      -6.306  16.859  -4.872  1.00  0.00    -0.200 F 
ATOM     91  F   UNL     1      -8.963  17.434  -5.098  1.00  0.00    -0.200 F 
ENDBRANCH  58  81
ENDBRANCH  32  33
ENDBRANCH  25  27
ENDBRANCH  24  25
ENDBRANCH  23  24
ENDBRANCH  22  23
ENDBRANCH   1  22
TORSDOF 17
