REMARK SMILES CC1(C)CCC[C@@H]1NC(=O)CC1(C(=O)OCCOCCOC(=O)c2ccc(-c3c4nc(c(-c5c(F)c(F)c(F)c(F)c5F)c5ccc([nH]5)c(-c5c(F)c(F)c(F)c(F)c5F)c5nc(c(-c6c(F)c(F)c(F)c(F)c6F)c6ccc3[nH]6)C=C5)C=C4)cc2)CCCCC1
REMARK SMILES IDX 17 1 16 2 15 3 13 4 14 5 12 6 87 7 91 8 88 9 90 10 89 11
REMARK SMILES IDX 11 12 9 13 8 14 10 16 7 17 1 18 2 19 3 20 4 21 5 22 6 23
REMARK SMILES IDX 18 24 19 25 20 26 21 27 22 28 23 29 24 30 25 31 86 32 26 33
REMARK SMILES IDX 85 34 27 35 28 36 29 37 79 38 30 39 84 40 78 41 80 42 31 43
REMARK SMILES IDX 83 44 77 45 76 46 32 48 64 49 44 50 63 51 45 52 48 53 62 54
REMARK SMILES IDX 81 55 46 56 47 57 61 59 82 60 49 61 33 62 34 63 42 64 35 65
REMARK SMILES IDX 36 66 40 67 43 68 37 69 38 70 41 71 39 72 65 73 66 74 74 75
REMARK SMILES IDX 67 76 68 77 72 78 75 79 69 80 70 81 73 82 71 83 50 84 51 85
REMARK SMILES IDX 59 86 52 87 53 88 57 89 60 90 54 91 55 92 58 93 56 94
REMARK H PARENT 8 15 80 47 48 58
REMARK Flexibility Score: inf
ROOT
ATOM      1  C   UNL     1      -3.942   1.277   4.564  1.00  0.00     0.202 C 
ENDROOT
BRANCH   1   2
ATOM      2  C   UNL     1      -4.426   2.536   3.841  1.00  0.00     0.261 C 
BRANCH   2   3
ATOM      3  O   UNL     1      -3.948   2.604   2.486  1.00  0.00    -0.463 OA
BRANCH   3   4
ATOM      4  C   UNL     1      -3.202   3.693   2.158  1.00  0.00     0.312 C 
ATOM      5  O   UNL     1      -2.892   4.578   2.947  1.00  0.00    -0.252 OA
BRANCH   4   6
ATOM      6  C   UNL     1      -2.750   3.696   0.685  1.00  0.00     0.077 C 
ATOM      7  C   UNL     1      -3.302   4.999   0.057  1.00  0.00     0.019 C 
ATOM      8  C   UNL     1      -3.248   2.478  -0.116  1.00  0.00     0.019 C 
ATOM      9  C   UNL     1      -4.818   4.941  -0.163  1.00  0.00     0.001 C 
ATOM     10  C   UNL     1      -4.731   2.454  -0.475  1.00  0.00     0.001 C 
ATOM     11  C   UNL     1      -5.196   3.775  -1.066  1.00  0.00     0.000 C 
BRANCH   6  12
ATOM     12  C   UNL     1      -1.192   3.693   0.755  1.00  0.00     0.118 C 
BRANCH  12  13
ATOM     13  C   UNL     1      -0.456   3.494  -0.558  1.00  0.00     0.221 C 
ATOM     14  N   UNL     1       0.039   2.278  -0.929  1.00  0.00    -0.353 N 
ATOM     15  H   UNL     1       0.596   2.307  -1.740  1.00  0.00     0.163 HD
ATOM     16  O   UNL     1      -0.280   4.442  -1.327  1.00  0.00    -0.275 OA
BRANCH  14  17
ATOM     17  C   UNL     1      -0.096   0.940  -0.357  1.00  0.00     0.087 C 
ATOM     18  C   UNL     1       2.214   0.454   0.651  1.00  0.00     0.013 C 
ATOM     19  C   UNL     1       1.195   0.076  -0.426  1.00  0.00    -0.015 C 
ATOM     20  C   UNL     1       1.887   0.106  -1.804  1.00  0.00     0.013 C 
ATOM     21  C   UNL     1       0.632  -1.335  -0.168  1.00  0.00     0.008 C 
ATOM     22  C   UNL     1      -0.711  -1.376  -0.886  1.00  0.00     0.003 C 
ATOM     23  C   UNL     1      -1.107   0.077  -1.132  1.00  0.00     0.025 C 
ENDBRANCH  14  17
ENDBRANCH  12  13
ENDBRANCH   6  12
ENDBRANCH   4   6
ENDBRANCH   3   4
ENDBRANCH   2   3
ENDBRANCH   1   2
BRANCH   1  24
ATOM     24  O   UNL     1      -2.539   1.216   4.821  1.00  0.00    -0.374 OA
BRANCH  24  25
ATOM     25  C   UNL     1      -1.684   0.918   3.717  1.00  0.00     0.202 C 
BRANCH  25  26
ATOM     26  C   UNL     1      -1.801  -0.508   3.181  1.00  0.00     0.261 C 
BRANCH  26  27
ATOM     27  O   UNL     1      -3.051  -0.679   2.493  1.00  0.00    -0.460 OA
BRANCH  27  28
ATOM     28  C   UNL     1      -3.393  -1.971   2.311  1.00  0.00     0.338 C 
ATOM     29  O   UNL     1      -2.680  -2.954   2.445  1.00  0.00    -0.246 OA
BRANCH  28  30
ATOM     30  C   UNL     1      -4.833  -2.050   2.034  1.00  0.00     0.060 A 
ATOM     31  C   UNL     1      -5.722  -2.123   3.113  1.00  0.00     0.016 A 
ATOM     32  C   UNL     1      -5.288  -2.184   0.722  1.00  0.00     0.016 A 
ATOM     33  C   UNL     1      -7.073  -2.380   2.879  1.00  0.00     0.010 A 
ATOM     34  C   UNL     1      -6.646  -2.428   0.490  1.00  0.00     0.010 A 
ATOM     35  C   UNL     1      -7.538  -2.566   1.569  1.00  0.00    -0.014 A 
BRANCH  35  36
ATOM     36  C   UNL     1      -8.933  -3.018   1.336  1.00  0.00     0.031 A 
ATOM     37  C   UNL     1      -9.204  -4.470   1.053  1.00  0.00     0.074 A 
ATOM     38  C   UNL     1      -9.953  -2.142   1.391  1.00  0.00     0.049 A 
ATOM     39  N   UNL     1     -10.344  -5.073   0.823  1.00  0.00    -0.248 NA
ATOM     40  C   UNL     1      -8.035  -5.363   1.022  1.00  0.00     0.031 C 
ATOM     41  C   UNL     1      -9.822  -0.714   1.667  1.00  0.00     0.029 A 
ATOM     42  N   UNL     1     -11.301  -2.329   1.211  1.00  0.00    -0.354 N 
ATOM     43  C   UNL     1     -10.030  -6.411   0.619  1.00  0.00     0.074 A 
ATOM     44  C   UNL     1      -8.591  -6.529   0.723  1.00  0.00     0.031 C 
ATOM     45  C   UNL     1     -11.041  -0.149   1.629  1.00  0.00     0.029 A 
ATOM     46  C   UNL     1     -12.033  -1.173   1.306  1.00  0.00     0.049 A 
ATOM     47  H   UNL     1     -11.704  -3.209   1.030  1.00  0.00     0.167 HD
ATOM     48  C   UNL     1     -10.867  -7.448   0.379  1.00  0.00     0.037 A 
ATOM     49  C   UNL     1     -13.353  -0.962   1.136  1.00  0.00     0.037 A 
ATOM     50  C   UNL     1     -12.299  -7.335   0.283  1.00  0.00     0.049 A 
ATOM     51  C   UNL     1     -14.257  -2.125   0.825  1.00  0.00     0.074 A 
ATOM     52  C   UNL     1     -13.234  -8.337   0.090  1.00  0.00     0.029 A 
ATOM     53  N   UNL     1     -13.002  -6.143   0.363  1.00  0.00    -0.354 N 
ATOM     54  N   UNL     1     -13.956  -3.394   0.690  1.00  0.00    -0.248 NA
ATOM     55  C   UNL     1     -15.686  -1.827   0.647  1.00  0.00     0.031 C 
ATOM     56  C   UNL     1     -14.499  -7.746   0.008  1.00  0.00     0.029 A 
ATOM     57  C   UNL     1     -14.356  -6.380   0.193  1.00  0.00     0.049 A 
ATOM     58  H   UNL     1     -12.599  -5.258   0.518  1.00  0.00     0.167 HD
ATOM     59  C   UNL     1     -15.155  -4.046   0.432  1.00  0.00     0.074 A 
ATOM     60  C   UNL     1     -16.192  -3.036   0.444  1.00  0.00     0.031 C 
ATOM     61  C   UNL     1     -15.376  -5.364   0.206  1.00  0.00     0.037 A 
BRANCH  48  62
ATOM     62  C   UNL     1     -10.255  -8.804   0.189  1.00  0.00     0.064 A 
ATOM     63  C   UNL     1      -9.735  -9.533   1.269  1.00  0.00     0.173 A 
ATOM     64  C   UNL     1     -10.234  -9.402  -1.080  1.00  0.00     0.173 A 
ATOM     65  F   UNL     1      -9.723  -9.000   2.500  1.00  0.00    -0.203 F 
ATOM     66  C   UNL     1      -9.197 -10.804   1.081  1.00  0.00     0.198 A 
ATOM     67  C   UNL     1      -9.716 -10.682  -1.260  1.00  0.00     0.198 A 
ATOM     68  F   UNL     1     -10.724  -8.748  -2.143  1.00  0.00    -0.203 F 
ATOM     69  F   UNL     1      -8.673 -11.468   2.120  1.00  0.00    -0.200 F 
ATOM     70  C   UNL     1      -9.194 -11.380  -0.181  1.00  0.00     0.200 A 
ATOM     71  F   UNL     1      -9.723 -11.241  -2.478  1.00  0.00    -0.200 F 
ATOM     72  F   UNL     1      -8.683 -12.606  -0.358  1.00  0.00    -0.200 F 
ENDBRANCH  48  62
BRANCH  49  73
ATOM     73  C   UNL     1     -13.901   0.414   1.254  1.00  0.00     0.064 A 
ATOM     74  C   UNL     1     -14.713   0.780   2.335  1.00  0.00     0.173 A 
ATOM     75  C   UNL     1     -13.628   1.387   0.282  1.00  0.00     0.173 A 
ATOM     76  F   UNL     1     -15.023  -0.124   3.276  1.00  0.00    -0.203 F 
ATOM     77  C   UNL     1     -15.242   2.065   2.434  1.00  0.00     0.198 A 
ATOM     78  C   UNL     1     -14.137   2.679   0.394  1.00  0.00     0.198 A 
ATOM     79  F   UNL     1     -12.858   1.084  -0.774  1.00  0.00    -0.203 F 
ATOM     80  F   UNL     1     -16.048   2.379   3.457  1.00  0.00    -0.200 F 
ATOM     81  C   UNL     1     -14.949   3.015   1.467  1.00  0.00     0.200 A 
ATOM     82  F   UNL     1     -13.842   3.596  -0.537  1.00  0.00    -0.200 F 
ATOM     83  F   UNL     1     -15.454   4.252   1.565  1.00  0.00    -0.200 F 
ENDBRANCH  49  73
BRANCH  61  84
ATOM     84  C   UNL     1     -16.794  -5.794  -0.032  1.00  0.00     0.064 A 
ATOM     85  C   UNL     1     -17.447  -5.524  -1.243  1.00  0.00     0.173 A 
ATOM     86  C   UNL     1     -17.491  -6.522   0.944  1.00  0.00     0.173 A 
ATOM     87  F   UNL     1     -16.827  -4.818  -2.201  1.00  0.00    -0.203 F 
ATOM     88  C   UNL     1     -18.754  -5.951  -1.461  1.00  0.00     0.198 A 
ATOM     89  C   UNL     1     -18.789  -6.969   0.713  1.00  0.00     0.198 A 
ATOM     90  F   UNL     1     -16.907  -6.810   2.117  1.00  0.00    -0.203 F 
ATOM     91  F   UNL     1     -19.372  -5.649  -2.611  1.00  0.00    -0.200 F 
ATOM     92  C   UNL     1     -19.421  -6.679  -0.487  1.00  0.00     0.200 A 
ATOM     93  F   UNL     1     -19.428  -7.681   1.651  1.00  0.00    -0.200 F 
ATOM     94  F   UNL     1     -20.676  -7.095  -0.701  1.00  0.00    -0.200 F 
ENDBRANCH  61  84
ENDBRANCH  35  36
ENDBRANCH  28  30
ENDBRANCH  27  28
ENDBRANCH  26  27
ENDBRANCH  25  26
ENDBRANCH  24  25
ENDBRANCH   1  24
TORSDOF 17
