REMARK SMILES CC[NH2+][C@@]1(C(=O)OCCOCCOC(=O)c2ccc(-c3c4nc(c(-c5c(F)c(F)c(F)c(F)c5F)c5ccc([nH]5)c(-c5c(F)c(F)c(F)c(F)c5F)c5nc(c(-c6c(F)c(F)c(F)c(F)c6F)c6ccc3[nH]6)C=C5)C=C4)cc2)CC[C@@H](n2cnc3ccccc32)C1
REMARK SMILES IDX 10 1 9 2 8 3 7 4 5 5 6 6 4 7 79 8 91 9 80 10 81 11 3 12 2 15
REMARK SMILES IDX 1 16 82 17 83 18 90 19 84 20 85 21 89 22 86 23 88 24 87 25
REMARK SMILES IDX 11 26 12 27 13 28 14 29 15 30 16 31 17 32 78 33 18 34 77 35
REMARK SMILES IDX 19 36 20 37 21 38 71 39 22 40 76 41 70 42 72 43 23 44 75 45
REMARK SMILES IDX 69 46 68 47 24 49 56 50 36 51 55 52 37 53 40 54 54 55 73 56
REMARK SMILES IDX 38 57 39 58 53 60 74 61 41 62 25 63 26 64 34 65 27 66 28 67
REMARK SMILES IDX 32 68 35 69 29 70 30 71 33 72 31 73 57 74 58 75 66 76 59 77
REMARK SMILES IDX 60 78 64 79 67 80 61 81 62 82 65 83 63 84 42 85 43 86 51 87
REMARK SMILES IDX 44 88 45 89 49 90 52 91 46 92 47 93 50 94 48 95
REMARK H PARENT 3 13 3 14 72 48 40 59
REMARK Flexibility Score: inf
ROOT
ATOM      1  O   UNL     1       1.927  -0.138   5.242  1.00  0.00    -0.374 OA
ENDROOT
BRANCH   1   2
ATOM      2  C   UNL     1       1.995   1.114   5.941  1.00  0.00     0.202 C 
BRANCH   2   3
ATOM      3  C   UNL     1       2.591   2.318   5.183  1.00  0.00     0.261 C 
BRANCH   3   4
ATOM      4  O   UNL     1       1.677   2.706   4.147  1.00  0.00    -0.459 OA
BRANCH   4   5
ATOM      5  C   UNL     1       2.083   3.566   3.153  1.00  0.00     0.368 C 
ATOM      6  O   UNL     1       3.169   4.136   3.170  1.00  0.00    -0.245 OA
BRANCH   5   7
ATOM      7  C   UNL     1       0.769   3.771   1.966  1.00  0.00     0.196 C 
ATOM      8  C   UNL     1       0.717   5.569   2.208  1.00  0.00     0.083 C 
ATOM      9  C   UNL     1      -0.485   3.762   3.331  1.00  0.00     0.106 C 
ATOM     10  C   UNL     1      -0.653   5.993   2.813  1.00  0.00     0.033 C 
ATOM     11  C   UNL     1      -1.530   4.742   2.864  1.00  0.00     0.096 C 
BRANCH   7  12
ATOM     12  N   UNL     1       0.621   2.714   0.153  1.00  0.00    -0.332 N 
ATOM     13  H   UNL     1       0.016   3.329  -0.390  1.00  0.00     0.347 HD
ATOM     14  H   UNL     1       1.608   2.457   0.170  1.00  0.00     0.347 HD
BRANCH  12  15
ATOM     15  C   UNL     1       0.187   1.290  -0.390  1.00  0.00     0.257 C 
ATOM     16  C   UNL     1       1.197   0.721  -1.396  1.00  0.00     0.071 C 
ENDBRANCH  12  15
ENDBRANCH   7  12
BRANCH  11  17
ATOM     17  N   UNL     1      -1.987   4.241   1.559  1.00  0.00    -0.327 N 
ATOM     18  C   UNL     1      -2.258   5.135   0.521  1.00  0.00     0.200 A 
ATOM     19  C   UNL     1      -1.102   3.267   1.047  1.00  0.00     0.068 A 
ATOM     20  N   UNL     1      -1.191   5.478  -0.188  1.00  0.00    -0.237 NA
ATOM     21  C   UNL     1      -0.252   4.543   0.155  1.00  0.00     0.088 A 
ATOM     22  C   UNL     1      -0.134   1.916   1.839  1.00  0.00     0.028 A 
ATOM     23  C   UNL     1       1.563   4.552   0.067  1.00  0.00     0.030 A 
ATOM     24  C   UNL     1       1.685   1.855   1.617  1.00  0.00     0.002 A 
ATOM     25  C   UNL     1       2.517   3.196   0.754  1.00  0.00     0.002 A 
ENDBRANCH  11  17
ENDBRANCH   5   7
ENDBRANCH   4   5
ENDBRANCH   3   4
ENDBRANCH   2   3
ENDBRANCH   1   2
BRANCH   1  26
ATOM     26  C   UNL     1       0.978  -0.221   4.182  1.00  0.00     0.202 C 
BRANCH  26  27
ATOM     27  C   UNL     1      -0.462  -0.598   4.536  1.00  0.00     0.261 C 
BRANCH  27  28
ATOM     28  O   UNL     1      -1.039   0.371   5.424  1.00  0.00    -0.460 OA
BRANCH  28  29
ATOM     29  C   UNL     1      -1.235  -0.113   6.669  1.00  0.00     0.338 C 
ATOM     30  O   UNL     1      -1.141  -1.270   7.041  1.00  0.00    -0.246 OA
BRANCH  29  31
ATOM     31  C   UNL     1      -1.396   0.985   7.628  1.00  0.00     0.060 A 
ATOM     32  C   UNL     1      -0.456   1.023   8.662  1.00  0.00     0.016 A 
ATOM     33  C   UNL     1      -2.500   1.840   7.620  1.00  0.00     0.016 A 
ATOM     34  C   UNL     1      -0.673   1.843   9.755  1.00  0.00     0.010 A 
ATOM     35  C   UNL     1      -2.713   2.672   8.724  1.00  0.00     0.010 A 
ATOM     36  C   UNL     1      -1.834   2.626   9.821  1.00  0.00    -0.014 A 
BRANCH  36  37
ATOM     37  C   UNL     1      -2.170   3.241  11.126  1.00  0.00     0.031 A 
ATOM     38  C   UNL     1      -3.224   2.604  11.991  1.00  0.00     0.074 A 
ATOM     39  C   UNL     1      -1.440   4.272  11.586  1.00  0.00     0.049 A 
ATOM     40  N   UNL     1      -3.603   2.916  13.204  1.00  0.00    -0.248 NA
ATOM     41  C   UNL     1      -3.945   1.458  11.415  1.00  0.00     0.031 C 
ATOM     42  C   UNL     1      -0.359   4.927  10.852  1.00  0.00     0.029 A 
ATOM     43  N   UNL     1      -1.481   4.928  12.788  1.00  0.00    -0.354 N 
ATOM     44  C   UNL     1      -4.604   2.010  13.533  1.00  0.00     0.074 A 
ATOM     45  C   UNL     1      -4.804   1.163  12.379  1.00  0.00     0.031 C 
ATOM     46  C   UNL     1       0.174   5.885  11.627  1.00  0.00     0.029 A 
ATOM     47  C   UNL     1      -0.554   5.933  12.893  1.00  0.00     0.049 A 
ATOM     48  H   UNL     1      -2.115   4.700  13.506  1.00  0.00     0.167 HD
ATOM     49  C   UNL     1      -5.284   1.891  14.699  1.00  0.00     0.037 A 
ATOM     50  C   UNL     1      -0.329   6.803  13.895  1.00  0.00     0.037 A 
ATOM     51  C   UNL     1      -5.073   2.740  15.844  1.00  0.00     0.049 A 
ATOM     52  C   UNL     1      -1.149   6.692  15.153  1.00  0.00     0.074 A 
ATOM     53  C   UNL     1      -5.700   2.700  17.077  1.00  0.00     0.029 A 
ATOM     54  N   UNL     1      -4.168   3.792  15.892  1.00  0.00    -0.354 N 
ATOM     55  N   UNL     1      -2.082   5.823  15.464  1.00  0.00    -0.248 NA
ATOM     56  C   UNL     1      -0.874   7.677  16.206  1.00  0.00     0.031 C 
ATOM     57  C   UNL     1      -5.228   3.770  17.843  1.00  0.00     0.029 A 
ATOM     58  C   UNL     1      -4.245   4.428  17.122  1.00  0.00     0.049 A 
ATOM     59  H   UNL     1      -3.560   4.048  15.161  1.00  0.00     0.167 HD
ATOM     60  C   UNL     1      -2.482   6.136  16.756  1.00  0.00     0.074 A 
ATOM     61  C   UNL     1      -1.671   7.260  17.178  1.00  0.00     0.031 C 
ATOM     62  C   UNL     1      -3.432   5.548  17.526  1.00  0.00     0.037 A 
BRANCH  49  63
ATOM     63  C   UNL     1      -6.347   0.831  14.783  1.00  0.00     0.064 A 
ATOM     64  C   UNL     1      -6.038  -0.539  14.787  1.00  0.00     0.173 A 
ATOM     65  C   UNL     1      -7.699   1.194  14.894  1.00  0.00     0.173 A 
ATOM     66  F   UNL     1      -4.764  -0.944  14.669  1.00  0.00    -0.203 F 
ATOM     67  C   UNL     1      -7.042  -1.502  14.868  1.00  0.00     0.198 A 
ATOM     68  C   UNL     1      -8.696   0.230  15.012  1.00  0.00     0.198 A 
ATOM     69  F   UNL     1      -8.053   2.487  14.899  1.00  0.00    -0.203 F 
ATOM     70  F   UNL     1      -6.726  -2.803  14.814  1.00  0.00    -0.200 F 
ATOM     71  C   UNL     1      -8.369  -1.117  14.989  1.00  0.00     0.200 A 
ATOM     72  F   UNL     1      -9.976   0.605  15.145  1.00  0.00    -0.200 F 
ATOM     73  F   UNL     1      -9.333  -2.044  15.077  1.00  0.00    -0.200 F 
ENDBRANCH  49  63
BRANCH  50  74
ATOM     74  C   UNL     1       0.707   7.859  13.744  1.00  0.00     0.064 A 
ATOM     75  C   UNL     1       1.852   7.880  14.552  1.00  0.00     0.173 A 
ATOM     76  C   UNL     1       0.560   8.882  12.794  1.00  0.00     0.173 A 
ATOM     77  F   UNL     1       2.030   6.936  15.487  1.00  0.00    -0.203 F 
ATOM     78  C   UNL     1       2.795   8.899  14.435  1.00  0.00     0.198 A 
ATOM     79  C   UNL     1       1.522   9.879  12.653  1.00  0.00     0.198 A 
ATOM     80  F   UNL     1      -0.515   8.907  11.993  1.00  0.00    -0.203 F 
ATOM     81  F   UNL     1       3.851   8.928  15.259  1.00  0.00    -0.200 F 
ATOM     82  C   UNL     1       2.633   9.894  13.482  1.00  0.00     0.200 A 
ATOM     83  F   UNL     1       1.370  10.825  11.717  1.00  0.00    -0.200 F 
ATOM     84  F   UNL     1       3.543  10.871  13.368  1.00  0.00    -0.200 F 
ENDBRANCH  50  74
BRANCH  62  85
ATOM     85  C   UNL     1      -3.609   6.082  18.922  1.00  0.00     0.064 A 
ATOM     86  C   UNL     1      -4.112   7.370  19.168  1.00  0.00     0.173 A 
ATOM     87  C   UNL     1      -3.272   5.290  20.031  1.00  0.00     0.173 A 
ATOM     88  F   UNL     1      -4.441   8.174  18.145  1.00  0.00    -0.203 F 
ATOM     89  C   UNL     1      -4.218   7.862  20.467  1.00  0.00     0.198 A 
ATOM     90  C   UNL     1      -3.422   5.769  21.329  1.00  0.00     0.198 A 
ATOM     91  F   UNL     1      -2.800   4.047  19.857  1.00  0.00    -0.203 F 
ATOM     92  F   UNL     1      -4.624   9.123  20.672  1.00  0.00    -0.200 F 
ATOM     93  C   UNL     1      -3.879   7.060  21.546  1.00  0.00     0.200 A 
ATOM     94  F   UNL     1      -3.114   4.984  22.371  1.00  0.00    -0.200 F 
ATOM     95  F   UNL     1      -3.980   7.536  22.794  1.00  0.00    -0.200 F 
ENDBRANCH  62  85
ENDBRANCH  36  37
ENDBRANCH  29  31
ENDBRANCH  28  29
ENDBRANCH  27  28
ENDBRANCH  26  27
ENDBRANCH   1  26
TORSDOF 17
