REMARK SMILES CCCN1CCC[C@@]2(CCN(c3ccc(C(=O)OCCOCCOC(=O)c4ccc(-c5c6nc(c(-c7c(F)c(F)c(F)c(F)c7F)c7ccc([nH]7)c(-c7c(F)c(F)c(F)c(F)c7F)c7nc(c(-c8c(F)c(F)c(F)c(F)c8F)c8ccc5[nH]8)C=C7)C=C6)cc4)cn3)C2)C1=O
REMARK SMILES IDX 20 1 19 2 18 3 16 4 17 5 15 6 12 7 13 8 91 9 14 10 90 11
REMARK SMILES IDX 11 12 4 13 5 14 93 15 6 16 8 17 94 18 7 19 9 20 92 21 10 22
REMARK SMILES IDX 3 23 2 24 1 25 21 26 22 27 23 28 24 29 25 30 26 31 27 32
REMARK SMILES IDX 28 33 89 34 29 35 88 36 30 37 31 38 32 39 82 40 33 41 87 42
REMARK SMILES IDX 81 43 83 44 34 45 86 46 80 47 79 48 35 50 67 51 47 52 66 53
REMARK SMILES IDX 48 54 51 55 65 56 84 57 49 58 50 59 64 61 85 62 52 63 36 64
REMARK SMILES IDX 37 65 45 66 38 67 39 68 43 69 46 70 40 71 41 72 44 73 42 74
REMARK SMILES IDX 68 75 69 76 77 77 70 78 71 79 75 80 78 81 72 82 73 83 76 84
REMARK SMILES IDX 74 85 53 86 54 87 62 88 55 89 56 90 60 91 63 92 57 93 58 94
REMARK SMILES IDX 61 95 59 96
REMARK H PARENT 83 49 51 60
REMARK Flexibility Score: inf
ROOT
ATOM      1  C   UNL     1       9.285   6.080   8.663  1.00  0.00     0.202 C 
ENDROOT
BRANCH   1   2
ATOM      2  C   UNL     1       9.332   5.172   7.431  1.00  0.00     0.261 C 
BRANCH   2   3
ATOM      3  O   UNL     1       8.099   5.242   6.696  1.00  0.00    -0.460 OA
BRANCH   3   4
ATOM      4  C   UNL     1       7.328   4.132   6.757  1.00  0.00     0.339 C 
ATOM      5  O   UNL     1       7.633   3.051   7.242  1.00  0.00    -0.246 OA
BRANCH   4   6
ATOM      6  C   UNL     1       5.971   4.437   6.280  1.00  0.00     0.078 A 
ATOM      7  C   UNL     1       3.348   4.792   5.502  1.00  0.00     0.128 A 
ATOM      8  C   UNL     1       4.364   5.534   4.890  1.00  0.00     0.048 A 
ATOM      9  N   UNL     1       3.614   3.949   6.518  1.00  0.00    -0.238 NA
ATOM     10  C   UNL     1       5.689   5.370   5.289  1.00  0.00     0.021 A 
ATOM     11  C   UNL     1       4.909   3.768   6.869  1.00  0.00     0.129 A 
BRANCH   7  12
ATOM     12  N   UNL     1       2.067   4.845   4.984  1.00  0.00    -0.356 N 
ATOM     13  N   UNL     1       0.531   1.779   2.231  1.00  0.00    -0.342 N 
ATOM     14  C   UNL     1       0.248   2.457   0.972  1.00  0.00     0.119 C 
ATOM     15  C   UNL     1       0.280   2.383   3.465  1.00  0.00     0.230 C 
ATOM     16  C   UNL     1       0.438   3.962   1.005  1.00  0.00     0.023 C 
ATOM     17  C   UNL     1       0.414   3.912   3.511  1.00  0.00     0.069 C 
ATOM     18  O   UNL     1       0.102   1.728   4.492  1.00  0.00    -0.274 OA
ATOM     19  C   UNL     1      -0.185   4.554   2.259  1.00  0.00     0.021 C 
ATOM     20  C   UNL     1      -0.214   4.492   4.796  1.00  0.00     0.040 C 
ATOM     21  C   UNL     1       1.922   4.238   3.659  1.00  0.00     0.135 C 
ATOM     22  C   UNL     1       0.929   4.477   5.812  1.00  0.00     0.119 C 
BRANCH  13  23
ATOM     23  C   UNL     1       0.954   0.372   2.224  1.00  0.00     0.119 C 
BRANCH  23  24
ATOM     24  C   UNL     1       0.337  -0.564   1.178  1.00  0.00     0.018 C 
ATOM     25  C   UNL     1       1.069  -0.578  -0.160  1.00  0.00     0.006 C 
ENDBRANCH  23  24
ENDBRANCH  13  23
ENDBRANCH   7  12
ENDBRANCH   4   6
ENDBRANCH   3   4
ENDBRANCH   2   3
ENDBRANCH   1   2
BRANCH   1  26
ATOM     26  O   UNL     1       8.370   5.689   9.685  1.00  0.00    -0.374 OA
BRANCH  26  27
ATOM     27  C   UNL     1       7.006   6.083   9.523  1.00  0.00     0.202 C 
BRANCH  27  28
ATOM     28  C   UNL     1       6.671   7.522   9.932  1.00  0.00     0.261 C 
BRANCH  28  29
ATOM     29  O   UNL     1       7.239   8.476   9.016  1.00  0.00    -0.460 OA
BRANCH  29  30
ATOM     30  C   UNL     1       8.289   9.179   9.496  1.00  0.00     0.338 C 
ATOM     31  O   UNL     1       8.755   9.145  10.627  1.00  0.00    -0.246 OA
BRANCH  30  32
ATOM     32  C   UNL     1       8.942   9.909   8.395  1.00  0.00     0.060 A 
ATOM     33  C   UNL     1      10.333   9.792   8.266  1.00  0.00     0.016 A 
ATOM     34  C   UNL     1       8.217  10.747   7.546  1.00  0.00     0.016 A 
ATOM     35  C   UNL     1      11.014  10.558   7.322  1.00  0.00     0.010 A 
ATOM     36  C   UNL     1       8.901  11.521   6.607  1.00  0.00     0.010 A 
ATOM     37  C   UNL     1      10.305  11.459   6.519  1.00  0.00    -0.014 A 
BRANCH  37  38
ATOM     38  C   UNL     1      11.024  12.474   5.715  1.00  0.00     0.031 A 
ATOM     39  C   UNL     1      11.151  13.864   6.270  1.00  0.00     0.074 A 
ATOM     40  C   UNL     1      11.531  12.175   4.508  1.00  0.00     0.049 A 
ATOM     41  N   UNL     1      11.605  14.951   5.701  1.00  0.00    -0.248 NA
ATOM     42  C   UNL     1      10.693  14.055   7.655  1.00  0.00     0.031 C 
ATOM     43  C   UNL     1      11.525  10.851   3.894  1.00  0.00     0.029 A 
ATOM     44  N   UNL     1      12.135  12.980   3.575  1.00  0.00    -0.354 N 
ATOM     45  C   UNL     1      11.460  15.958   6.646  1.00  0.00     0.074 A 
ATOM     46  C   UNL     1      10.864  15.357   7.820  1.00  0.00     0.031 C 
ATOM     47  C   UNL     1      12.087  10.935   2.675  1.00  0.00     0.029 A 
ATOM     48  C   UNL     1      12.449  12.327   2.410  1.00  0.00     0.049 A 
ATOM     49  H   UNL     1      12.326  13.934   3.728  1.00  0.00     0.167 HD
ATOM     50  C   UNL     1      11.792  17.266   6.541  1.00  0.00     0.037 A 
ATOM     51  C   UNL     1      12.942  12.809   1.253  1.00  0.00     0.037 A 
ATOM     52  C   UNL     1      12.395  17.852   5.374  1.00  0.00     0.049 A 
ATOM     53  C   UNL     1      13.229  14.284   1.129  1.00  0.00     0.074 A 
ATOM     54  C   UNL     1      12.799  19.160   5.175  1.00  0.00     0.029 A 
ATOM     55  N   UNL     1      12.672  17.163   4.202  1.00  0.00    -0.354 N 
ATOM     56  N   UNL     1      13.102  15.231   2.027  1.00  0.00    -0.248 NA
ATOM     57  C   UNL     1      13.723  14.758  -0.172  1.00  0.00     0.031 C 
ATOM     58  C   UNL     1      13.270  19.275   3.863  1.00  0.00     0.029 A 
ATOM     59  C   UNL     1      13.215  18.026   3.265  1.00  0.00     0.049 A 
ATOM     60  H   UNL     1      12.508  16.203   4.058  1.00  0.00     0.167 HD
ATOM     61  C   UNL     1      13.539  16.400   1.417  1.00  0.00     0.074 A 
ATOM     62  C   UNL     1      13.926  16.046   0.067  1.00  0.00     0.031 C 
ATOM     63  C   UNL     1      13.622  17.650   1.934  1.00  0.00     0.037 A 
BRANCH  50  64
ATOM     64  C   UNL     1      11.465  18.157   7.703  1.00  0.00     0.064 A 
ATOM     65  C   UNL     1      12.153  18.073   8.922  1.00  0.00     0.173 A 
ATOM     66  C   UNL     1      10.448  19.118   7.589  1.00  0.00     0.173 A 
ATOM     67  F   UNL     1      13.124  17.162   9.088  1.00  0.00    -0.203 F 
ATOM     68  C   UNL     1      11.811  18.892   9.996  1.00  0.00     0.198 A 
ATOM     69  C   UNL     1      10.130  19.956   8.653  1.00  0.00     0.198 A 
ATOM     70  F   UNL     1       9.761  19.243   6.443  1.00  0.00    -0.203 F 
ATOM     71  F   UNL     1      12.442  18.754  11.170  1.00  0.00    -0.200 F 
ATOM     72  C   UNL     1      10.804  19.836   9.859  1.00  0.00     0.200 A 
ATOM     73  F   UNL     1       9.165  20.876   8.515  1.00  0.00    -0.200 F 
ATOM     74  F   UNL     1      10.476  20.623  10.893  1.00  0.00    -0.200 F 
ENDBRANCH  50  64
BRANCH  51  75
ATOM     75  C   UNL     1      13.195  11.887   0.117  1.00  0.00     0.064 A 
ATOM     76  C   UNL     1      14.504  11.589  -0.285  1.00  0.00     0.173 A 
ATOM     77  C   UNL     1      12.143  11.281  -0.585  1.00  0.00     0.173 A 
ATOM     78  F   UNL     1      15.543  12.164   0.339  1.00  0.00    -0.203 F 
ATOM     79  C   UNL     1      14.751  10.726  -1.351  1.00  0.00     0.198 A 
ATOM     80  C   UNL     1      12.391  10.399  -1.634  1.00  0.00     0.198 A 
ATOM     81  F   UNL     1      10.871  11.535  -0.241  1.00  0.00    -0.203 F 
ATOM     82  F   UNL     1      16.011  10.484  -1.736  1.00  0.00    -0.200 F 
ATOM     83  C   UNL     1      13.695  10.125  -2.019  1.00  0.00     0.200 A 
ATOM     84  F   UNL     1      11.368   9.812  -2.270  1.00  0.00    -0.200 F 
ATOM     85  F   UNL     1      13.933   9.288  -3.038  1.00  0.00    -0.200 F 
ENDBRANCH  51  75
BRANCH  63  86
ATOM     86  C   UNL     1      14.214  18.726   1.071  1.00  0.00     0.064 A 
ATOM     87  C   UNL     1      13.506  19.295   0.004  1.00  0.00     0.173 A 
ATOM     88  C   UNL     1      15.480  19.251   1.376  1.00  0.00     0.173 A 
ATOM     89  F   UNL     1      12.299  18.818  -0.335  1.00  0.00    -0.203 F 
ATOM     90  C   UNL     1      14.047  20.346  -0.732  1.00  0.00     0.198 A 
ATOM     91  C   UNL     1      16.006  20.320   0.656  1.00  0.00     0.198 A 
ATOM     92  F   UNL     1      16.195  18.745   2.393  1.00  0.00    -0.203 F 
ATOM     93  F   UNL     1      13.365  20.858  -1.766  1.00  0.00    -0.200 F 
ATOM     94  C   UNL     1      15.290  20.864  -0.399  1.00  0.00     0.200 A 
ATOM     95  F   UNL     1      17.200  20.828   0.990  1.00  0.00    -0.200 F 
ATOM     96  F   UNL     1      15.800  21.889  -1.096  1.00  0.00    -0.200 F 
ENDBRANCH  63  86
ENDBRANCH  37  38
ENDBRANCH  30  32
ENDBRANCH  29  30
ENDBRANCH  28  29
ENDBRANCH  27  28
ENDBRANCH  26  27
ENDBRANCH   1  26
TORSDOF 17
