REMARK SMILES O=C(OCCOCCOC(=O)c1ccc(-c2c3nc(c(-c4c(F)c(F)c(F)c(F)c4F)c4ccc([nH]4)c(-c4c(F)c(F)c(F)c(F)c4F)c4nc(c(-c5c(F)c(F)c(F)c(F)c5F)c5ccc2[nH]5)C=C4)C=C3)cc1)C1=Cc2cc(S(F)(F)(F)(F)F)cc(Br)c2O[C@@H]1C(F)(F)F
REMARK SMILES IDX 7 1 6 2 5 3 4 4 3 5 2 6 1 7 75 8 76 9 91 10 77 11 90 12
REMARK SMILES IDX 78 13 89 14 79 15 87 16 86 17 88 18 92 19 93 20 94 21 95 22
REMARK SMILES IDX 80 23 81 24 82 25 83 26 84 27 85 28 8 29 9 30 10 31 11 32
REMARK SMILES IDX 12 33 13 34 74 35 14 36 73 37 15 38 16 39 17 40 67 41 18 42
REMARK SMILES IDX 72 43 66 44 68 45 19 46 71 47 65 48 64 49 20 51 52 52 32 53
REMARK SMILES IDX 51 54 33 55 36 56 50 57 69 58 34 59 35 60 49 62 70 63 37 64
REMARK SMILES IDX 21 65 22 66 30 67 23 68 24 69 28 70 31 71 25 72 26 73 29 74
REMARK SMILES IDX 27 75 53 76 54 77 62 78 55 79 56 80 60 81 63 82 57 83 58 84
REMARK SMILES IDX 61 85 59 86 38 87 39 88 47 89 40 90 41 91 45 92 48 93 42 94
REMARK SMILES IDX 43 95 46 96 44 97
REMARK H PARENT 68 50 36 61
REMARK Flexibility Score: inf
ROOT
ATOM      1  C   UNL     1       2.947   1.272  -0.628  1.00  0.00     0.202 C 
ENDROOT
BRANCH   1   2
ATOM      2  O   UNL     1       4.367   1.272  -0.628  1.00  0.00    -0.374 OA
BRANCH   2   3
ATOM      3  C   UNL     1       4.840   0.106  -1.285  1.00  0.00     0.202 C 
BRANCH   3   4
ATOM      4  C   UNL     1       4.333  -1.128  -0.556  1.00  0.00     0.261 C 
BRANCH   4   5
ATOM      5  O   UNL     1       2.913  -1.128  -0.556  1.00  0.00    -0.460 OA
BRANCH   5   6
ATOM      6  C   UNL     1       2.203  -0.056   0.048  1.00  0.00     0.338 C 
ATOM      7  O   UNL     1       0.932  -0.056   0.048  1.00  0.00    -0.246 OA
BRANCH   6   8
ATOM      8  C   UNL     1       2.963   1.091   0.694  1.00  0.00     0.087 C 
ATOM      9  C   UNL     1       4.324   1.091   0.694  1.00  0.00     0.027 C 
ATOM     10  C   UNL     1       2.203   2.237   1.340  1.00  0.00     0.316 C 
ATOM     11  C   UNL     1       5.084  -0.056   0.048  1.00  0.00     0.020 A 
ATOM     12  O   UNL     1       3.616  -0.088  -1.821  1.00  0.00    -0.474 OA
ATOM     13  C   UNL     1       6.105  -0.598   0.811  1.00  0.00     0.036 A 
ATOM     14  C   UNL     1       4.768  -0.562  -1.139  1.00  0.00     0.142 A 
ATOM     15  C   UNL     1       6.933  -1.501   0.103  1.00  0.00     0.109 A 
ATOM     16  C   UNL     1       5.545  -1.540  -1.712  1.00  0.00     0.062 A 
ATOM     17  C   UNL     1       6.605  -2.079  -1.039  1.00  0.00     0.044 A 
ATOM     18  Br  UNL     1       5.126  -2.170  -3.520  1.00  0.00    -0.047 Br
BRANCH  10  19
ATOM     19  C   UNL     1       2.571   3.541   0.650  1.00  0.00     0.430 C 
ATOM     20  F   UNL     1       2.249   3.467  -0.638  1.00  0.00    -0.167 F 
ATOM     21  F   UNL     1       1.906   4.545   1.216  1.00  0.00    -0.167 F 
ATOM     22  F   UNL     1       3.878   3.753   0.770  1.00  0.00    -0.167 F 
ENDBRANCH  10  19
BRANCH  15  23
ATOM     23  S   UNL     1       8.552  -1.891   0.810  1.00  0.00     0.310 S 
ATOM     24  F   UNL     1       7.976  -1.839   2.287  1.00  0.00    -0.094 F 
ATOM     25  F   UNL     1       8.841  -0.348   0.942  1.00  0.00    -0.094 F 
ATOM     26  F   UNL     1       9.938  -2.232   1.429  1.00  0.00    -0.094 F 
ATOM     27  F   UNL     1       8.188  -3.428   0.800  1.00  0.00    -0.094 F 
ATOM     28  F   UNL     1       7.098  -1.558   0.286  1.00  0.00    -0.094 F 
ENDBRANCH  15  23
ENDBRANCH   6   8
ENDBRANCH   5   6
ENDBRANCH   4   5
ENDBRANCH   3   4
ENDBRANCH   2   3
ENDBRANCH   1   2
BRANCH   1  29
ATOM     29  C   UNL     1       2.440   1.257  -2.061  1.00  0.00     0.261 C 
BRANCH  29  30
ATOM     30  O   UNL     1       2.913   0.091  -2.718  1.00  0.00    -0.460 OA
BRANCH  30  31
ATOM     31  C   UNL     1       4.309  -0.135  -2.846  1.00  0.00     0.338 C 
ATOM     32  O   UNL     1       5.135   0.706  -2.372  1.00  0.00    -0.246 OA
BRANCH  31  33
ATOM     33  C   UNL     1       4.816  -1.384  -3.549  1.00  0.00     0.060 A 
ATOM     34  C   UNL     1       5.778  -2.089  -2.844  1.00  0.00     0.016 A 
ATOM     35  C   UNL     1       4.332  -1.840  -4.698  1.00  0.00     0.016 A 
ATOM     36  C   UNL     1       6.380  -3.133  -3.584  1.00  0.00     0.010 A 
ATOM     37  C   UNL     1       4.881  -2.947  -5.298  1.00  0.00     0.010 A 
ATOM     38  C   UNL     1       5.875  -3.658  -4.686  1.00  0.00    -0.014 A 
BRANCH  38  39
ATOM     39  C   UNL     1       6.373  -4.982  -5.243  1.00  0.00     0.031 A 
ATOM     40  C   UNL     1       6.928  -5.072  -6.521  1.00  0.00     0.074 A 
ATOM     41  C   UNL     1       6.136  -6.072  -4.424  1.00  0.00     0.049 A 
ATOM     42  N   UNL     1       7.346  -6.171  -7.151  1.00  0.00    -0.248 NA
ATOM     43  C   UNL     1       7.149  -3.919  -7.406  1.00  0.00     0.031 C 
ATOM     44  C   UNL     1       5.585  -5.989  -3.130  1.00  0.00     0.029 A 
ATOM     45  N   UNL     1       6.378  -7.401  -4.694  1.00  0.00    -0.354 N 
ATOM     46  C   UNL     1       7.834  -5.856  -8.353  1.00  0.00     0.074 A 
ATOM     47  C   UNL     1       7.709  -4.404  -8.537  1.00  0.00     0.031 C 
ATOM     48  C   UNL     1       5.485  -7.250  -2.633  1.00  0.00     0.029 A 
ATOM     49  C   UNL     1       5.973  -8.142  -3.606  1.00  0.00     0.049 A 
ATOM     50  H   UNL     1       6.772  -7.759  -5.522  1.00  0.00     0.167 HD
ATOM     51  C   UNL     1       8.381  -6.722  -9.301  1.00  0.00     0.037 A 
ATOM     52  C   UNL     1       6.017  -9.519  -3.453  1.00  0.00     0.037 A 
ATOM     53  C   UNL     1       8.464  -8.095  -9.130  1.00  0.00     0.049 A 
ATOM     54  C   UNL     1       6.510 -10.392  -4.426  1.00  0.00     0.074 A 
ATOM     55  C   UNL     1       9.019  -8.981 -10.073  1.00  0.00     0.029 A 
ATOM     56  N   UNL     1       8.037  -8.838  -8.052  1.00  0.00    -0.354 N 
ATOM     57  N   UNL     1       7.034 -10.073  -5.610  1.00  0.00    -0.248 NA
ATOM     58  C   UNL     1       6.531 -11.854  -4.288  1.00  0.00     0.031 C 
ATOM     59  C   UNL     1       8.919 -10.243  -9.575  1.00  0.00     0.029 A 
ATOM     60  C   UNL     1       8.300 -10.165  -8.313  1.00  0.00     0.049 A 
ATOM     61  H   UNL     1       7.616  -8.482  -7.236  1.00  0.00     0.167 HD
ATOM     62  C   UNL     1       7.414 -11.176  -6.257  1.00  0.00     0.074 A 
ATOM     63  C   UNL     1       7.090 -12.339  -5.419  1.00  0.00     0.031 C 
ATOM     64  C   UNL     1       8.022 -11.261  -7.511  1.00  0.00     0.037 A 
BRANCH  51  65
ATOM     65  C   UNL     1       8.914  -6.126 -10.594  1.00  0.00     0.064 A 
ATOM     66  C   UNL     1      10.016  -5.287 -10.601  1.00  0.00     0.173 A 
ATOM     67  C   UNL     1       8.356  -6.539 -11.725  1.00  0.00     0.173 A 
ATOM     68  F   UNL     1      10.756  -5.053  -9.521  1.00  0.00    -0.203 F 
ATOM     69  C   UNL     1      10.282  -4.701 -11.861  1.00  0.00     0.198 A 
ATOM     70  C   UNL     1       8.759  -6.024 -12.933  1.00  0.00     0.198 A 
ATOM     71  F   UNL     1       7.397  -7.461 -11.689  1.00  0.00    -0.203 F 
ATOM     72  F   UNL     1      11.070  -3.630 -11.891  1.00  0.00    -0.200 F 
ATOM     73  C   UNL     1       9.803  -5.144 -13.009  1.00  0.00     0.200 A 
ATOM     74  F   UNL     1       8.125  -6.385 -14.045  1.00  0.00    -0.200 F 
ATOM     75  F   UNL     1      10.309  -4.755 -14.176  1.00  0.00    -0.200 F 
ENDBRANCH  51  65
BRANCH  52  76
ATOM     76  C   UNL     1       5.498 -10.113  -2.154  1.00  0.00     0.064 A 
ATOM     77  C   UNL     1       6.296 -10.965  -1.407  1.00  0.00     0.173 A 
ATOM     78  C   UNL     1       4.230  -9.894  -1.827  1.00  0.00     0.173 A 
ATOM     79  F   UNL     1       7.618 -11.021  -1.538  1.00  0.00    -0.203 F 
ATOM     80  C   UNL     1       5.575 -11.771  -0.494  1.00  0.00     0.198 A 
ATOM     81  C   UNL     1       3.628 -10.625  -0.832  1.00  0.00     0.198 A 
ATOM     82  F   UNL     1       3.536  -8.959  -2.470  1.00  0.00    -0.203 F 
ATOM     83  F   UNL     1       6.184 -12.848  -0.006  1.00  0.00    -0.200 F 
ATOM     84  C   UNL     1       4.341 -11.528  -0.093  1.00  0.00     0.200 A 
ATOM     85  F   UNL     1       2.333 -10.452  -0.584  1.00  0.00    -0.200 F 
ATOM     86  F   UNL     1       3.819 -12.129   0.972  1.00  0.00    -0.200 F 
ENDBRANCH  52  76
BRANCH  64  87
ATOM     87  C   UNL     1       8.403 -12.638  -8.028  1.00  0.00     0.064 A 
ATOM     88  C   UNL     1       7.345 -13.509  -8.231  1.00  0.00     0.173 A 
ATOM     89  C   UNL     1       9.649 -12.987  -8.328  1.00  0.00     0.173 A 
ATOM     90  F   UNL     1       6.072 -13.125  -8.188  1.00  0.00    -0.203 F 
ATOM     91  C   UNL     1       7.740 -14.843  -8.487  1.00  0.00     0.198 A 
ATOM     92  C   UNL     1       9.943 -14.276  -8.702  1.00  0.00     0.198 A 
ATOM     93  F   UNL     1      10.620 -12.081  -8.264  1.00  0.00    -0.203 F 
ATOM     94  F   UNL     1       6.828 -15.799  -8.337  1.00  0.00    -0.200 F 
ATOM     95  C   UNL     1       8.953 -15.205  -8.865  1.00  0.00     0.200 A 
ATOM     96  F   UNL     1      11.209 -14.625  -8.910  1.00  0.00    -0.200 F 
ATOM     97  F   UNL     1       9.197 -16.408  -9.375  1.00  0.00    -0.200 F 
ENDBRANCH  64  87
ENDBRANCH  38  39
ENDBRANCH  31  33
ENDBRANCH  30  31
ENDBRANCH  29  30
ENDBRANCH   1  29
TORSDOF 16
