REMARK SMILES CCCCCCNC(=O)Oc1cccc(-c2ccc([C@@H](C)C(=O)OCCOCCOC(=O)c3ccc(-c4c5nc(c(-c6c(F)c(F)c(F)c(F)c6F)c6ccc([nH]6)c(-c6c(F)c(F)c(F)c(F)c6F)c6nc(c(-c7c(F)c(F)c(F)c(F)c7F)c7ccc4[nH]7)C=C6)C=C5)cc3)cc2O)c1
REMARK SMILES IDX 22 1 23 2 20 3 21 4 19 5 16 6 17 7 97 8 18 9 96 10 15 11
REMARK SMILES IDX 11 12 12 13 99 14 13 15 14 16 10 17 8 18 7 19 9 21 6 22 5 23
REMARK SMILES IDX 4 24 3 25 2 26 1 27 98 28 24 30 25 31 26 32 27 33 28 34
REMARK SMILES IDX 29 35 30 36 31 37 32 38 33 39 34 40 95 41 35 42 94 43 36 44
REMARK SMILES IDX 37 45 38 46 88 47 39 48 93 49 87 50 89 51 40 52 92 53 86 54
REMARK SMILES IDX 85 55 41 57 73 58 53 59 72 60 54 61 57 62 71 63 90 64 55 65
REMARK SMILES IDX 56 66 70 68 91 69 58 70 42 71 43 72 51 73 44 74 45 75 49 76
REMARK SMILES IDX 52 77 46 78 47 79 50 80 48 81 74 82 75 83 83 84 76 85 77 86
REMARK SMILES IDX 81 87 84 88 78 89 79 90 82 91 80 92 59 93 60 94 68 95 61 96
REMARK SMILES IDX 62 97 66 98 69 99 63 100 64 101 67 102 65 103
REMARK H PARENT 7 20 98 29 89 56 57 67
REMARK Flexibility Score: inf
ROOT
ATOM      1  C   UNL     1      -4.129   8.928 -12.037  1.00  0.00     0.313 C 
ATOM      2  O   UNL     1      -3.900   8.723 -13.225  1.00  0.00    -0.252 OA
ENDROOT
BRANCH   1   3
ATOM      3  C   UNL     1      -5.260   8.222 -11.307  1.00  0.00     0.126 C 
ATOM      4  C   UNL     1      -6.580   8.903 -11.658  1.00  0.00     0.025 C 
BRANCH   3   5
ATOM      5  C   UNL     1      -5.118   7.997  -9.804  1.00  0.00    -0.030 A 
ATOM      6  C   UNL     1      -5.080   7.465  -6.992  1.00  0.00     0.024 A 
ATOM      7  C   UNL     1      -5.096   8.780  -7.494  1.00  0.00     0.013 A 
ATOM      8  C   UNL     1      -5.057   6.426  -7.936  1.00  0.00     0.123 A 
ATOM      9  C   UNL     1      -5.120   9.043  -8.873  1.00  0.00     0.005 A 
ATOM     10  C   UNL     1      -5.062   6.683  -9.311  1.00  0.00     0.051 A 
BRANCH   6  11
ATOM     11  C   UNL     1      -5.139   7.226  -5.537  1.00  0.00    -0.011 A 
ATOM     12  C   UNL     1      -4.266   6.226  -3.501  1.00  0.00     0.133 A 
ATOM     13  C   UNL     1      -5.365   6.678  -2.774  1.00  0.00     0.047 A 
ATOM     14  C   UNL     1      -4.147   6.487  -4.869  1.00  0.00     0.056 A 
ATOM     15  C   UNL     1      -6.347   7.426  -3.417  1.00  0.00     0.004 A 
ATOM     16  C   UNL     1      -6.234   7.695  -4.785  1.00  0.00     0.009 A 
BRANCH  12  17
ATOM     17  O   UNL     1      -3.363   5.392  -2.821  1.00  0.00    -0.410 OA
BRANCH  17  18
ATOM     18  C   UNL     1      -2.017   5.717  -2.857  1.00  0.00     0.412 C 
ATOM     19  N   UNL     1      -1.229   4.846  -2.157  1.00  0.00    -0.321 N 
ATOM     20  H   UNL     1      -0.260   5.019  -2.176  1.00  0.00     0.167 HD
ATOM     21  O   UNL     1      -1.527   6.686  -3.433  1.00  0.00    -0.224 OA
BRANCH  19  22
ATOM     22  C   UNL     1      -1.663   3.694  -1.389  1.00  0.00     0.119 C 
BRANCH  22  23
ATOM     23  C   UNL     1      -1.056   2.389  -1.907  1.00  0.00     0.021 C 
BRANCH  23  24
ATOM     24  C   UNL     1       0.472   2.301  -1.810  1.00  0.00     0.002 C 
BRANCH  24  25
ATOM     25  C   UNL     1       1.056   2.421  -0.398  1.00  0.00    -0.000 C 
BRANCH  25  26
ATOM     26  C   UNL     1       0.582   1.365   0.604  1.00  0.00    -0.003 C 
ATOM     27  C   UNL     1       0.974  -0.053   0.218  1.00  0.00     0.004 C 
ENDBRANCH  25  26
ENDBRANCH  24  25
ENDBRANCH  23  24
ENDBRANCH  22  23
ENDBRANCH  19  22
ENDBRANCH  17  18
ENDBRANCH  12  17
ENDBRANCH   6  11
BRANCH   8  28
ATOM     28  O   UNL     1      -5.081   5.101  -7.587  1.00  0.00    -0.507 OA
ATOM     29  H   UNL     1      -5.079   4.855  -6.683  1.00  0.00     0.293 HD
ENDBRANCH   8  28
ENDBRANCH   3   5
ENDBRANCH   1   3
BRANCH   1  30
ATOM     30  O   UNL     1      -3.444   9.815 -11.268  1.00  0.00    -0.463 OA
BRANCH  30  31
ATOM     31  C   UNL     1      -2.277  10.400 -11.873  1.00  0.00     0.261 C 
BRANCH  31  32
ATOM     32  C   UNL     1      -1.009  10.025 -11.103  1.00  0.00     0.202 C 
BRANCH  32  33
ATOM     33  O   UNL     1      -0.625   8.652 -11.147  1.00  0.00    -0.374 OA
BRANCH  33  34
ATOM     34  C   UNL     1      -1.367   7.731 -10.345  1.00  0.00     0.202 C 
BRANCH  34  35
ATOM     35  C   UNL     1      -1.062   7.724  -8.843  1.00  0.00     0.261 C 
BRANCH  35  36
ATOM     36  O   UNL     1      -1.421   8.961  -8.201  1.00  0.00    -0.460 OA
BRANCH  36  37
ATOM     37  C   UNL     1      -0.368   9.705  -7.782  1.00  0.00     0.338 C 
ATOM     38  O   UNL     1       0.814   9.419  -7.843  1.00  0.00    -0.246 OA
BRANCH  37  39
ATOM     39  C   UNL     1      -0.826  11.052  -7.387  1.00  0.00     0.060 A 
ATOM     40  C   UNL     1      -0.141  12.144  -7.935  1.00  0.00     0.016 A 
ATOM     41  C   UNL     1      -1.832  11.249  -6.439  1.00  0.00     0.016 A 
ATOM     42  C   UNL     1      -0.412  13.434  -7.489  1.00  0.00     0.010 A 
ATOM     43  C   UNL     1      -2.103  12.548  -5.990  1.00  0.00     0.010 A 
ATOM     44  C   UNL     1      -1.363  13.640  -6.481  1.00  0.00    -0.014 A 
BRANCH  44  45
ATOM     45  C   UNL     1      -1.448  14.975  -5.837  1.00  0.00     0.031 A 
ATOM     46  C   UNL     1      -0.760  15.193  -4.517  1.00  0.00     0.074 A 
ATOM     47  C   UNL     1      -2.068  15.999  -6.448  1.00  0.00     0.049 A 
ATOM     48  N   UNL     1      -0.673  16.281  -3.792  1.00  0.00    -0.248 NA
ATOM     49  C   UNL     1      -0.074  14.028  -3.937  1.00  0.00     0.031 C 
ATOM     50  C   UNL     1      -2.732  15.927  -7.747  1.00  0.00     0.029 A 
ATOM     51  N   UNL     1      -2.232  17.304  -6.056  1.00  0.00    -0.354 N 
ATOM     52  C   UNL     1       0.073  15.930  -2.674  1.00  0.00     0.074 A 
ATOM     53  C   UNL     1       0.382  14.522  -2.795  1.00  0.00     0.031 C 
ATOM     54  C   UNL     1      -3.230  17.138  -8.049  1.00  0.00     0.029 A 
ATOM     55  C   UNL     1      -2.943  18.062  -6.952  1.00  0.00     0.049 A 
ATOM     56  H   UNL     1      -1.874  17.662  -5.212  1.00  0.00     0.167 HD
ATOM     57  C   UNL     1       0.477  16.715  -1.646  1.00  0.00     0.037 A 
ATOM     58  C   UNL     1      -3.325  19.352  -6.889  1.00  0.00     0.037 A 
ATOM     59  C   UNL     1       0.171  18.116  -1.524  1.00  0.00     0.049 A 
ATOM     60  C   UNL     1      -2.929  20.185  -5.698  1.00  0.00     0.074 A 
ATOM     61  C   UNL     1       0.549  19.000  -0.529  1.00  0.00     0.029 A 
ATOM     62  N   UNL     1      -0.598  18.835  -2.427  1.00  0.00    -0.354 N 
ATOM     63  N   UNL     1      -2.202  19.854  -4.659  1.00  0.00    -0.248 NA
ATOM     64  C   UNL     1      -3.407  21.576  -5.674  1.00  0.00     0.031 C 
ATOM     65  C   UNL     1      -0.035  20.242  -0.802  1.00  0.00     0.029 A 
ATOM     66  C   UNL     1      -0.731  20.146  -1.997  1.00  0.00     0.049 A 
ATOM     67  H   UNL     1      -0.992  18.469  -3.252  1.00  0.00     0.167 HD
ATOM     68  C   UNL     1      -2.109  20.997  -3.875  1.00  0.00     0.074 A 
ATOM     69  C   UNL     1      -2.847  22.035  -4.564  1.00  0.00     0.031 C 
ATOM     70  C   UNL     1      -1.466  21.172  -2.694  1.00  0.00     0.037 A 
BRANCH  57  71
ATOM     71  C   UNL     1       1.274  16.060  -0.554  1.00  0.00     0.064 A 
ATOM     72  C   UNL     1       2.594  15.629  -0.761  1.00  0.00     0.173 A 
ATOM     73  C   UNL     1       0.715  15.874   0.719  1.00  0.00     0.173 A 
ATOM     74  F   UNL     1       3.171  15.772  -1.963  1.00  0.00    -0.203 F 
ATOM     75  C   UNL     1       3.311  15.004   0.257  1.00  0.00     0.198 A 
ATOM     76  C   UNL     1       1.446  15.277   1.743  1.00  0.00     0.198 A 
ATOM     77  F   UNL     1      -0.540  16.273   0.972  1.00  0.00    -0.203 F 
ATOM     78  F   UNL     1       4.550  14.552   0.021  1.00  0.00    -0.200 F 
ATOM     79  C   UNL     1       2.739  14.834   1.508  1.00  0.00     0.200 A 
ATOM     80  F   UNL     1       0.896  15.124   2.955  1.00  0.00    -0.200 F 
ATOM     81  F   UNL     1       3.430  14.234   2.487  1.00  0.00    -0.200 F 
ENDBRANCH  57  71
BRANCH  58  82
ATOM     82  C   UNL     1      -4.123  19.940  -7.995  1.00  0.00     0.064 A 
ATOM     83  C   UNL     1      -3.574  20.907  -8.848  1.00  0.00     0.173 A 
ATOM     84  C   UNL     1      -5.452  19.549  -8.220  1.00  0.00     0.173 A 
ATOM     85  F   UNL     1      -2.317  21.332  -8.656  1.00  0.00    -0.203 F 
ATOM     86  C   UNL     1      -4.326  21.468  -9.878  1.00  0.00     0.198 A 
ATOM     87  C   UNL     1      -6.194  20.092  -9.267  1.00  0.00     0.198 A 
ATOM     88  F   UNL     1      -6.024  18.630  -7.430  1.00  0.00    -0.203 F 
ATOM     89  F   UNL     1      -3.790  22.419 -10.656  1.00  0.00    -0.200 F 
ATOM     90  C   UNL     1      -5.633  21.055 -10.091  1.00  0.00     0.200 A 
ATOM     91  F   UNL     1      -7.452  19.681  -9.475  1.00  0.00    -0.200 F 
ATOM     92  F   UNL     1      -6.354  21.590 -11.086  1.00  0.00    -0.200 F 
ENDBRANCH  58  82
BRANCH  70  93
ATOM     93  C   UNL     1      -1.502  22.544  -2.083  1.00  0.00     0.064 A 
ATOM     94  C   UNL     1      -2.669  23.065  -1.506  1.00  0.00     0.173 A 
ATOM     95  C   UNL     1      -0.339  23.330  -2.036  1.00  0.00     0.173 A 
ATOM     96  F   UNL     1      -3.810  22.360  -1.538  1.00  0.00    -0.203 F 
ATOM     97  C   UNL     1      -2.678  24.331  -0.928  1.00  0.00     0.198 A 
ATOM     98  C   UNL     1      -0.345  24.583  -1.431  1.00  0.00     0.198 A 
ATOM     99  F   UNL     1       0.806  22.875  -2.567  1.00  0.00    -0.203 F 
ATOM    100  F   UNL     1      -3.817  24.828  -0.424  1.00  0.00    -0.200 F 
ATOM    101  C   UNL     1      -1.515  25.086  -0.883  1.00  0.00     0.200 A 
ATOM    102  F   UNL     1       0.784  25.305  -1.376  1.00  0.00    -0.200 F 
ATOM    103  F   UNL     1      -1.524  26.302  -0.319  1.00  0.00    -0.200 F 
ENDBRANCH  70  93
ENDBRANCH  44  45
ENDBRANCH  37  39
ENDBRANCH  36  37
ENDBRANCH  35  36
ENDBRANCH  34  35
ENDBRANCH  33  34
ENDBRANCH  32  33
ENDBRANCH  31  32
ENDBRANCH  30  31
ENDBRANCH   1  30
TORSDOF 24
