REMARK SMILES Cn1cncc1COc1c(F)cc(C(=O)OCCOCCOC(=O)c2ccc(-c3c4nc(c(-c5c(F)c(F)c(F)c(F)c5F)c5ccc([nH]5)c(-c5c(F)c(F)c(F)c(F)c5F)c5nc(c(-c6c(F)c(F)c(F)c(F)c6F)c6ccc3[nH]6)C=C5)C=C4)cc2)cc1F
REMARK SMILES IDX 18 1 17 2 16 3 14 4 15 5 13 6 9 7 10 8 89 9 11 10 12 11
REMARK SMILES IDX 88 12 90 13 8 14 7 15 6 16 1 17 2 18 3 19 4 20 5 21 19 22
REMARK SMILES IDX 20 23 21 24 22 25 23 26 24 27 25 28 26 29 87 30 27 31 86 32
REMARK SMILES IDX 28 33 29 34 30 35 80 36 31 37 85 38 79 39 81 40 32 41 84 42
REMARK SMILES IDX 78 43 77 44 33 46 65 47 45 48 64 49 46 50 49 51 63 52 82 53
REMARK SMILES IDX 47 54 48 55 62 57 83 58 50 59 34 60 35 61 43 62 36 63 37 64
REMARK SMILES IDX 41 65 44 66 38 67 39 68 42 69 40 70 66 71 67 72 75 73 68 74
REMARK SMILES IDX 69 75 73 76 76 77 70 78 71 79 74 80 72 81 51 82 52 83 60 84
REMARK SMILES IDX 53 85 54 86 58 87 61 88 55 89 56 90 59 91 57 92
REMARK H PARENT 81 45 49 56
REMARK Flexibility Score: inf
ROOT
ATOM      1  C   UNL     1       0.566  -0.144   8.918  1.00  0.00     0.202 C 
ENDROOT
BRANCH   1   2
ATOM      2  C   UNL     1       1.852   0.022   8.102  1.00  0.00     0.261 C 
BRANCH   2   3
ATOM      3  O   UNL     1       1.605  -0.244   6.714  1.00  0.00    -0.460 OA
BRANCH   3   4
ATOM      4  C   UNL     1       2.148  -1.381   6.221  1.00  0.00     0.338 C 
ATOM      5  O   UNL     1       2.960  -2.108   6.767  1.00  0.00    -0.246 OA
BRANCH   4   6
ATOM      6  C   UNL     1       1.487  -1.720   4.938  1.00  0.00     0.066 A 
ATOM      7  C   UNL     1       0.185  -2.455   2.571  1.00  0.00     0.191 A 
ATOM      8  C   UNL     1       0.126  -1.143   3.040  1.00  0.00     0.169 A 
ATOM      9  C   UNL     1       0.843  -3.411   3.338  1.00  0.00     0.169 A 
ATOM     10  F   UNL     1      -0.588  -0.211   2.400  1.00  0.00    -0.203 F 
ATOM     11  C   UNL     1       0.791  -0.762   4.197  1.00  0.00     0.059 A 
ATOM     12  C   UNL     1       1.495  -3.056   4.516  1.00  0.00     0.059 A 
ATOM     13  F   UNL     1       0.858  -4.694   2.951  1.00  0.00    -0.203 F 
BRANCH   7  14
ATOM     14  O   UNL     1      -0.447  -2.832   1.416  1.00  0.00    -0.481 OA
BRANCH  14  15
ATOM     15  C   UNL     1       0.322  -2.493   0.247  1.00  0.00     0.285 C 
BRANCH  15  16
ATOM     16  C   UNL     1      -0.106  -1.148  -0.216  1.00  0.00     0.075 A 
ATOM     17  C   UNL     1       2.134   0.020  -0.130  1.00  0.00     0.151 C 
ATOM     18  N   UNL     1       0.708  -0.046  -0.336  1.00  0.00    -0.335 N 
ATOM     19  C   UNL     1      -0.083   1.022  -0.655  1.00  0.00     0.199 A 
ATOM     20  N   UNL     1      -1.336   0.664  -0.815  1.00  0.00    -0.245 NA
ATOM     21  C   UNL     1      -1.364  -0.677  -0.540  1.00  0.00     0.138 A 
ENDBRANCH  15  16
ENDBRANCH  14  15
ENDBRANCH   7  14
ENDBRANCH   4   6
ENDBRANCH   3   4
ENDBRANCH   2   3
ENDBRANCH   1   2
BRANCH   1  22
ATOM     22  O   UNL     1       0.036  -1.468   8.990  1.00  0.00    -0.374 OA
BRANCH  22  23
ATOM     23  C   UNL     1      -0.763  -1.916   7.896  1.00  0.00     0.202 C 
BRANCH  23  24
ATOM     24  C   UNL     1      -2.221  -1.442   7.863  1.00  0.00     0.261 C 
BRANCH  24  25
ATOM     25  O   UNL     1      -2.328  -0.023   7.652  1.00  0.00    -0.460 OA
BRANCH  25  26
ATOM     26  C   UNL     1      -2.681   0.685   8.752  1.00  0.00     0.338 C 
ATOM     27  O   UNL     1      -2.955   0.253   9.858  1.00  0.00    -0.246 OA
BRANCH  26  28
ATOM     28  C   UNL     1      -2.523   2.126   8.486  1.00  0.00     0.060 A 
ATOM     29  C   UNL     1      -1.744   2.870   9.381  1.00  0.00     0.016 A 
ATOM     30  C   UNL     1      -3.181   2.752   7.425  1.00  0.00     0.016 A 
ATOM     31  C   UNL     1      -1.655   4.254   9.245  1.00  0.00     0.010 A 
ATOM     32  C   UNL     1      -3.095   4.141   7.294  1.00  0.00     0.010 A 
ATOM     33  C   UNL     1      -2.358   4.902   8.221  1.00  0.00    -0.014 A 
BRANCH  33  34
ATOM     34  C   UNL     1      -2.416   6.383   8.184  1.00  0.00     0.031 A 
ATOM     35  C   UNL     1      -3.660   7.082   8.656  1.00  0.00     0.074 A 
ATOM     36  C   UNL     1      -1.363   7.097   7.747  1.00  0.00     0.049 A 
ATOM     37  N   UNL     1      -3.946   8.359   8.652  1.00  0.00    -0.248 NA
ATOM     38  C   UNL     1      -4.726   6.228   9.204  1.00  0.00     0.031 C 
ATOM     39  C   UNL     1      -0.090   6.532   7.305  1.00  0.00     0.029 A 
ATOM     40  N   UNL     1      -1.203   8.452   7.597  1.00  0.00    -0.354 N 
ATOM     41  C   UNL     1      -5.224   8.461   9.187  1.00  0.00     0.074 A 
ATOM     42  C   UNL     1      -5.672   7.116   9.476  1.00  0.00     0.031 C 
ATOM     43  C   UNL     1       0.721   7.534   6.926  1.00  0.00     0.029 A 
ATOM     44  C   UNL     1       0.011   8.805   7.061  1.00  0.00     0.049 A 
ATOM     45  H   UNL     1      -1.892   9.108   7.849  1.00  0.00     0.167 HD
ATOM     46  C   UNL     1      -5.950   9.578   9.424  1.00  0.00     0.037 A 
ATOM     47  C   UNL     1       0.485  10.013   6.700  1.00  0.00     0.037 A 
ATOM     48  C   UNL     1      -5.495  10.915   9.141  1.00  0.00     0.049 A 
ATOM     49  C   UNL     1      -0.371  11.235   6.906  1.00  0.00     0.074 A 
ATOM     50  C   UNL     1      -6.151  12.112   9.365  1.00  0.00     0.029 A 
ATOM     51  N   UNL     1      -4.272  11.229   8.567  1.00  0.00    -0.354 N 
ATOM     52  N   UNL     1      -1.570  11.326   7.429  1.00  0.00    -0.248 NA
ATOM     53  C   UNL     1       0.191  12.523   6.476  1.00  0.00     0.031 C 
ATOM     54  C   UNL     1      -5.352  13.147   8.874  1.00  0.00     0.029 A 
ATOM     55  C   UNL     1      -4.167  12.602   8.404  1.00  0.00     0.049 A 
ATOM     56  H   UNL     1      -3.582  10.575   8.313  1.00  0.00     0.167 HD
ATOM     57  C   UNL     1      -1.893  12.677   7.417  1.00  0.00     0.074 A 
ATOM     58  C   UNL     1      -0.760  13.371   6.845  1.00  0.00     0.031 C 
ATOM     59  C   UNL     1      -3.028  13.284   7.844  1.00  0.00     0.037 A 
BRANCH  46  60
ATOM     60  C   UNL     1      -7.323   9.415  10.010  1.00  0.00     0.064 A 
ATOM     61  C   UNL     1      -8.460   9.733   9.252  1.00  0.00     0.173 A 
ATOM     62  C   UNL     1      -7.513   9.021  11.343  1.00  0.00     0.173 A 
ATOM     63  F   UNL     1      -8.335  10.121   7.973  1.00  0.00    -0.203 F 
ATOM     64  C   UNL     1      -9.734   9.681   9.812  1.00  0.00     0.198 A 
ATOM     65  C   UNL     1      -8.791   8.941  11.891  1.00  0.00     0.198 A 
ATOM     66  F   UNL     1      -6.460   8.695  12.107  1.00  0.00    -0.203 F 
ATOM     67  F   UNL     1     -10.801  10.028   9.079  1.00  0.00    -0.200 F 
ATOM     68  C   UNL     1      -9.898   9.282  11.129  1.00  0.00     0.200 A 
ATOM     69  F   UNL     1      -8.950   8.532  13.157  1.00  0.00    -0.200 F 
ATOM     70  F   UNL     1     -11.125   9.225  11.665  1.00  0.00    -0.200 F 
ENDBRANCH  46  60
BRANCH  47  71
ATOM     71  C   UNL     1       1.845  10.121   6.109  1.00  0.00     0.064 A 
ATOM     72  C   UNL     1       2.136   9.587   4.845  1.00  0.00     0.173 A 
ATOM     73  C   UNL     1       2.888  10.741   6.810  1.00  0.00     0.173 A 
ATOM     74  F   UNL     1       1.174   8.983   4.132  1.00  0.00    -0.203 F 
ATOM     75  C   UNL     1       3.423   9.648   4.315  1.00  0.00     0.198 A 
ATOM     76  C   UNL     1       4.169  10.828   6.267  1.00  0.00     0.198 A 
ATOM     77  F   UNL     1       2.655  11.287   8.013  1.00  0.00    -0.203 F 
ATOM     78  F   UNL     1       3.682   9.094   3.123  1.00  0.00    -0.200 F 
ATOM     79  C   UNL     1       4.438  10.273   5.025  1.00  0.00     0.200 A 
ATOM     80  F   UNL     1       5.140  11.454   6.944  1.00  0.00    -0.200 F 
ATOM     81  F   UNL     1       5.673  10.341   4.511  1.00  0.00    -0.200 F 
ENDBRANCH  47  71
BRANCH  59  82
ATOM     82  C   UNL     1      -3.102  14.782   7.748  1.00  0.00     0.064 A 
ATOM     83  C   UNL     1      -3.120  15.566   8.913  1.00  0.00     0.173 A 
ATOM     84  C   UNL     1      -3.246  15.435   6.516  1.00  0.00     0.173 A 
ATOM     85  F   UNL     1      -2.996  14.990  10.118  1.00  0.00    -0.203 F 
ATOM     86  C   UNL     1      -3.299  16.945   8.848  1.00  0.00     0.198 A 
ATOM     87  C   UNL     1      -3.392  16.819   6.453  1.00  0.00     0.198 A 
ATOM     88  F   UNL     1      -3.224  14.733   5.373  1.00  0.00    -0.203 F 
ATOM     89  F   UNL     1      -3.355  17.666   9.976  1.00  0.00    -0.200 F 
ATOM     90  C   UNL     1      -3.431  17.571   7.618  1.00  0.00     0.200 A 
ATOM     91  F   UNL     1      -3.494  17.426   5.262  1.00  0.00    -0.200 F 
ATOM     92  F   UNL     1      -3.594  18.899   7.555  1.00  0.00    -0.200 F 
ENDBRANCH  59  82
ENDBRANCH  33  34
ENDBRANCH  26  28
ENDBRANCH  25  26
ENDBRANCH  24  25
ENDBRANCH  23  24
ENDBRANCH  22  23
ENDBRANCH   1  22
TORSDOF 17
