REMARK SMILES Cc1oc2cc3c(cc2c1C)[C@H](C)[C@@H](CC(=O)N[C@H](CC1=c2ccccc2=NC1)C(=O)OCCOCCOC(=O)c1ccc(-c2c4nc(c(-c5c(F)c(F)c(F)c(F)c5F)c5ccc([nH]5)c(-c5c(F)c(F)c(F)c(F)c5F)c5nc(c(-c6c(F)c(F)c(F)c(F)c6F)c6ccc2[nH]6)C=C5)C=C4)cc1)C(=O)O3
REMARK SMILES IDX 34 1 33 2 32 3 30 4 31 5 19 6 18 7 16 8 17 9 15 11 14 12
REMARK SMILES IDX 1 13 2 14 3 15 10 16 4 17 9 18 11 19 5 20 8 21 6 22 7 23
REMARK SMILES IDX 106 24 12 25 104 26 13 27 105 28 20 29 21 30 22 31 29 32
REMARK SMILES IDX 23 33 27 34 28 35 24 36 26 37 25 38 35 39 36 40 37 41 38 42
REMARK SMILES IDX 39 43 40 44 41 45 42 46 103 47 43 48 102 49 44 50 45 51
REMARK SMILES IDX 46 52 96 53 47 54 101 55 95 56 97 57 48 58 100 59 94 60
REMARK SMILES IDX 93 61 49 63 81 64 61 65 80 66 62 67 65 68 79 69 98 70 63 71
REMARK SMILES IDX 64 72 78 74 99 75 66 76 50 77 51 78 59 79 52 80 53 81 57 82
REMARK SMILES IDX 60 83 54 84 55 85 58 86 56 87 82 88 83 89 91 90 84 91 85 92
REMARK SMILES IDX 89 93 92 94 86 95 87 96 90 97 88 98 67 99 68 100 76 101
REMARK SMILES IDX 69 102 70 103 74 104 77 105 71 106 72 107 75 108 73 109
REMARK H PARENT 18 10 97 62 65 73
REMARK Flexibility Score: inf
ROOT
ATOM      1  C   UNL     1      -7.268   3.637 -10.759  1.00  0.00     0.202 C 
ENDROOT
BRANCH   1   2
ATOM      2  C   UNL     1      -5.747   3.967 -10.637  1.00  0.00     0.261 C 
BRANCH   2   3
ATOM      3  O   UNL     1      -4.825   3.701  -9.553  1.00  0.00    -0.462 OA
BRANCH   3   4
ATOM      4  C   UNL     1      -4.455   2.487  -9.066  1.00  0.00     0.329 C 
ATOM      5  O   UNL     1      -5.156   1.490  -8.985  1.00  0.00    -0.250 OA
BRANCH   4   6
ATOM      6  C   UNL     1      -2.961   2.510  -8.656  1.00  0.00     0.196 C 
BRANCH   6   7
ATOM      7  N   UNL     1      -2.522   3.912  -8.328  1.00  0.00    -0.342 N 
ATOM      8  C   UNL     1      -2.850   4.818  -7.346  1.00  0.00     0.221 C 
ATOM      9  O   UNL     1      -2.188   5.865  -7.365  1.00  0.00    -0.275 OA
ATOM     10  H   UNL     1      -1.849   4.258  -8.958  1.00  0.00     0.164 HD
BRANCH   8  11
ATOM     11  C   UNL     1      -3.969   4.663  -6.260  1.00  0.00     0.116 C 
BRANCH  11  12
ATOM     12  C   UNL     1      -5.310   5.327  -6.684  1.00  0.00     0.116 C 
ATOM     13  C   UNL     1     -12.621   6.435 -10.344  1.00  0.00     0.088 C 
ATOM     14  C   UNL     1     -11.497   6.617  -9.394  1.00  0.00     0.105 A 
ATOM     15  O   UNL     1     -10.286   6.697  -9.989  1.00  0.00    -0.461 OA
ATOM     16  C   UNL     1     -11.356   6.686  -8.010  1.00  0.00    -0.002 A 
ATOM     17  C   UNL     1      -9.360   6.678  -9.008  1.00  0.00     0.138 A 
ATOM     18  C   UNL     1      -9.932   6.671  -7.739  1.00  0.00     0.024 A 
ATOM     19  C   UNL     1     -12.466   6.665  -7.031  1.00  0.00     0.049 C 
ATOM     20  C   UNL     1      -8.020   6.531  -9.269  1.00  0.00     0.095 A 
ATOM     21  C   UNL     1      -9.046   6.595  -6.598  1.00  0.00     0.020 A 
ATOM     22  C   UNL     1      -7.360   6.044  -8.150  1.00  0.00     0.138 A 
ATOM     23  C   UNL     1      -7.689   6.281  -6.821  1.00  0.00    -0.001 A 
ATOM     24  O   UNL     1      -6.809   4.736  -8.336  1.00  0.00    -0.426 OA
ATOM     25  C   UNL     1      -6.516   5.945  -5.827  1.00  0.00     0.035 C 
ATOM     26  C   UNL     1      -6.114   4.229  -7.273  1.00  0.00     0.315 C 
ATOM     27  C   UNL     1      -6.125   7.213  -5.093  1.00  0.00     0.014 C 
ATOM     28  O   UNL     1      -6.193   3.086  -6.851  1.00  0.00    -0.251 OA
ENDBRANCH  11  12
ENDBRANCH   8  11
ENDBRANCH   6   7
BRANCH   6  29
ATOM     29  C   UNL     1      -1.936   1.750  -9.705  1.00  0.00     0.070 C 
BRANCH  29  30
ATOM     30  C   UNL     1      -2.226   1.314 -11.200  1.00  0.00    -0.037 C 
ATOM     31  C   UNL     1      -2.632   0.057 -11.542  1.00  0.00     0.001 A 
ATOM     32  C   UNL     1      -3.122   2.268 -11.899  1.00  0.00     0.174 C 
ATOM     33  C   UNL     1      -2.796  -0.586 -12.890  1.00  0.00     0.010 A 
ATOM     34  C   UNL     1      -4.044   0.405 -11.255  1.00  0.00     0.065 A 
ATOM     35  N   UNL     1      -4.393   1.609 -11.606  1.00  0.00    -0.280 NA
ATOM     36  C   UNL     1      -3.898  -1.355 -13.119  1.00  0.00     0.001 A 
ATOM     37  C   UNL     1      -4.901  -0.767 -11.001  1.00  0.00     0.028 A 
ATOM     38  C   UNL     1      -4.844  -1.621 -12.034  1.00  0.00     0.002 A 
ENDBRANCH  29  30
ENDBRANCH   6  29
ENDBRANCH   4   6
ENDBRANCH   3   4
ENDBRANCH   2   3
ENDBRANCH   1   2
BRANCH   1  39
ATOM     39  O   UNL     1      -7.838   2.364 -10.602  1.00  0.00    -0.374 OA
BRANCH  39  40
ATOM     40  C   UNL     1      -7.359   1.345 -11.445  1.00  0.00     0.202 C 
BRANCH  40  41
ATOM     41  C   UNL     1      -7.216   1.627 -12.954  1.00  0.00     0.261 C 
BRANCH  41  42
ATOM     42  O   UNL     1      -6.249   2.656 -13.261  1.00  0.00    -0.460 OA
BRANCH  42  43
ATOM     43  C   UNL     1      -6.597   3.619 -14.153  1.00  0.00     0.338 C 
ATOM     44  O   UNL     1      -7.555   3.642 -14.870  1.00  0.00    -0.246 OA
BRANCH  43  45
ATOM     45  C   UNL     1      -5.711   4.795 -13.915  1.00  0.00     0.060 A 
ATOM     46  C   UNL     1      -4.354   4.806 -14.245  1.00  0.00     0.016 A 
ATOM     47  C   UNL     1      -6.284   5.908 -13.293  1.00  0.00     0.016 A 
ATOM     48  C   UNL     1      -3.586   5.960 -14.006  1.00  0.00     0.010 A 
ATOM     49  C   UNL     1      -5.505   7.026 -13.000  1.00  0.00     0.010 A 
ATOM     50  C   UNL     1      -4.165   7.094 -13.410  1.00  0.00    -0.014 A 
BRANCH  50  51
ATOM     51  C   UNL     1      -3.471   8.408 -13.493  1.00  0.00     0.031 A 
ATOM     52  C   UNL     1      -4.385   9.551 -13.839  1.00  0.00     0.074 A 
ATOM     53  C   UNL     1      -2.313   8.723 -12.871  1.00  0.00     0.049 A 
ATOM     54  N   UNL     1      -5.084  10.188 -12.941  1.00  0.00    -0.248 NA
ATOM     55  C   UNL     1      -4.812   9.819 -15.212  1.00  0.00     0.031 C 
ATOM     56  C   UNL     1      -1.935   8.228 -11.544  1.00  0.00     0.029 A 
ATOM     57  N   UNL     1      -1.395   9.721 -13.138  1.00  0.00    -0.354 N 
ATOM     58  C   UNL     1      -6.091  10.865 -13.607  1.00  0.00     0.074 A 
ATOM     59  C   UNL     1      -5.863  10.632 -15.016  1.00  0.00     0.031 C 
ATOM     60  C   UNL     1      -0.984   9.044 -11.038  1.00  0.00     0.029 A 
ATOM     61  C   UNL     1      -0.580  10.022 -12.049  1.00  0.00     0.049 A 
ATOM     62  H   UNL     1      -1.325  10.173 -14.010  1.00  0.00     0.167 HD
ATOM     63  C   UNL     1      -7.076  11.547 -12.963  1.00  0.00     0.037 A 
ATOM     64  C   UNL     1      -0.075  11.258 -11.771  1.00  0.00     0.037 A 
ATOM     65  C   UNL     1      -7.016  11.535 -11.533  1.00  0.00     0.049 A 
ATOM     66  C   UNL     1      -1.317  11.983 -11.318  1.00  0.00     0.074 A 
ATOM     67  C   UNL     1      -7.593  10.838 -10.492  1.00  0.00     0.029 A 
ATOM     68  N   UNL     1      -6.139  12.399 -10.923  1.00  0.00    -0.354 N 
ATOM     69  N   UNL     1      -1.880  11.899 -10.142  1.00  0.00    -0.248 NA
ATOM     70  C   UNL     1      -2.159  12.579 -12.358  1.00  0.00     0.031 C 
ATOM     71  C   UNL     1      -6.689  10.982  -9.391  1.00  0.00     0.029 A 
ATOM     72  C   UNL     1      -5.608  11.731  -9.851  1.00  0.00     0.049 A 
ATOM     73  H   UNL     1      -5.932  13.320 -11.203  1.00  0.00     0.167 HD
ATOM     74  C   UNL     1      -3.231  12.176 -10.363  1.00  0.00     0.074 A 
ATOM     75  C   UNL     1      -3.327  12.628 -11.734  1.00  0.00     0.031 C 
ATOM     76  C   UNL     1      -4.218  11.842  -9.484  1.00  0.00     0.037 A 
BRANCH  63  77
ATOM     77  C   UNL     1      -8.066  12.422 -13.618  1.00  0.00     0.064 A 
ATOM     78  C   UNL     1      -7.820  13.803 -13.597  1.00  0.00     0.173 A 
ATOM     79  C   UNL     1      -9.322  11.979 -14.038  1.00  0.00     0.173 A 
ATOM     80  F   UNL     1      -6.628  14.263 -13.180  1.00  0.00    -0.203 F 
ATOM     81  C   UNL     1      -8.809  14.716 -13.938  1.00  0.00     0.198 A 
ATOM     82  C   UNL     1     -10.312  12.898 -14.392  1.00  0.00     0.198 A 
ATOM     83  F   UNL     1      -9.608  10.669 -14.058  1.00  0.00    -0.203 F 
ATOM     84  F   UNL     1      -8.560  16.029 -13.852  1.00  0.00    -0.200 F 
ATOM     85  C   UNL     1     -10.059  14.263 -14.326  1.00  0.00     0.200 A 
ATOM     86  F   UNL     1     -11.525  12.467 -14.764  1.00  0.00    -0.200 F 
ATOM     87  F   UNL     1     -11.025  15.144 -14.620  1.00  0.00    -0.200 F 
ENDBRANCH  63  77
BRANCH  64  88
ATOM     88  C   UNL     1       0.890  11.837 -12.765  1.00  0.00     0.064 A 
ATOM     89  C   UNL     1       1.962  11.035 -13.210  1.00  0.00     0.173 A 
ATOM     90  C   UNL     1       0.842  13.136 -13.296  1.00  0.00     0.173 A 
ATOM     91  F   UNL     1       2.175   9.829 -12.661  1.00  0.00    -0.203 F 
ATOM     92  C   UNL     1       2.832  11.450 -14.220  1.00  0.00     0.198 A 
ATOM     93  C   UNL     1       1.691  13.542 -14.330  1.00  0.00     0.198 A 
ATOM     94  F   UNL     1      -0.033  14.041 -12.837  1.00  0.00    -0.203 F 
ATOM     95  F   UNL     1       3.812  10.636 -14.636  1.00  0.00    -0.200 F 
ATOM     96  C   UNL     1       2.671  12.691 -14.807  1.00  0.00     0.200 A 
ATOM     97  F   UNL     1       1.538  14.756 -14.878  1.00  0.00    -0.200 F 
ATOM     98  F   UNL     1       3.461  13.069 -15.822  1.00  0.00    -0.200 F 
ENDBRANCH  64  88
BRANCH  76  99
ATOM     99  C   UNL     1      -3.755  11.338  -8.166  1.00  0.00     0.064 A 
ATOM    100  C   UNL     1      -3.241  12.235  -7.222  1.00  0.00     0.173 A 
ATOM    101  C   UNL     1      -3.847   9.983  -7.817  1.00  0.00     0.173 A 
ATOM    102  F   UNL     1      -3.140  13.541  -7.515  1.00  0.00    -0.203 F 
ATOM    103  C   UNL     1      -2.862  11.797  -5.959  1.00  0.00     0.198 A 
ATOM    104  C   UNL     1      -3.469   9.552  -6.550  1.00  0.00     0.198 A 
ATOM    105  F   UNL     1      -4.335   9.081  -8.684  1.00  0.00    -0.203 F 
ATOM    106  F   UNL     1      -2.396  12.675  -5.059  1.00  0.00    -0.200 F 
ATOM    107  C   UNL     1      -2.989  10.459  -5.619  1.00  0.00     0.200 A 
ATOM    108  F   UNL     1      -3.599   8.261  -6.216  1.00  0.00    -0.200 F 
ATOM    109  F   UNL     1      -2.671  10.047  -4.384  1.00  0.00    -0.200 F 
ENDBRANCH  76  99
ENDBRANCH  50  51
ENDBRANCH  43  45
ENDBRANCH  42  43
ENDBRANCH  41  42
ENDBRANCH  40  41
ENDBRANCH  39  40
ENDBRANCH   1  39
TORSDOF 19
