REMARK SMILES CC1=C(CC(=O)OCCOCCOC(=O)c2ccc(-c3c4nc(c(-c5c(F)c(F)c(F)c(F)c5F)c5ccc([nH]5)c(-c5c(F)c(F)c(F)c(F)c5F)c5nc(c(-c6c(F)c(F)c(F)c(F)c6F)c6ccc3[nH]6)C=C5)C=C4)cc2)c2cc(F)ccc2/C1=C\c1ccc([S@@+](C)[O-])cc1
REMARK SMILES IDX 9 1 8 2 7 3 5 4 6 5 4 6 3 7 1 8 2 9 86 10 79 11 85 12 87 13
REMARK SMILES IDX 80 14 84 15 81 16 83 17 82 18 88 19 89 20 96 21 90 22 95 23
REMARK SMILES IDX 91 24 92 25 93 26 94 27 10 28 11 29 12 30 13 31 14 32 15 33
REMARK SMILES IDX 16 34 17 35 78 36 18 37 77 38 19 39 20 40 21 41 71 42 22 43
REMARK SMILES IDX 76 44 70 45 72 46 23 47 75 48 69 49 68 50 24 52 56 53 36 54
REMARK SMILES IDX 55 55 37 56 40 57 54 58 73 59 38 60 39 61 53 63 74 64 41 65
REMARK SMILES IDX 25 66 26 67 34 68 27 69 28 70 32 71 35 72 29 73 30 74 33 75
REMARK SMILES IDX 31 76 57 77 58 78 66 79 59 80 60 81 64 82 67 83 61 84 62 85
REMARK SMILES IDX 65 86 63 87 42 88 43 89 51 90 44 91 45 92 49 93 52 94 46 95
REMARK SMILES IDX 47 96 50 97 48 98
REMARK H PARENT 72 51 40 62
REMARK Flexibility Score: inf
ROOT
ATOM      1  C   UNL     1       4.651  -4.393   2.978  1.00  0.00     0.202 C 
ENDROOT
BRANCH   1   2
ATOM      2  C   UNL     1       4.328  -3.730   1.630  1.00  0.00     0.261 C 
BRANCH   2   3
ATOM      3  O   UNL     1       3.045  -3.072   1.575  1.00  0.00    -0.463 OA
BRANCH   3   4
ATOM      4  C   UNL     1       2.186  -3.562   0.639  1.00  0.00     0.310 C 
ATOM      5  O   UNL     1       2.461  -4.472  -0.139  1.00  0.00    -0.252 OA
BRANCH   4   6
ATOM      6  C   UNL     1       0.803  -2.916   0.612  1.00  0.00     0.159 C 
BRANCH   6   7
ATOM      7  C   UNL     1       0.455  -1.824   1.574  1.00  0.00    -0.025 C 
ATOM      8  C   UNL     1       1.126   0.213   0.215  1.00  0.00     0.045 C 
ATOM      9  C   UNL     1       0.579  -0.484   1.418  1.00  0.00    -0.039 C 
ATOM     10  C   UNL     1       0.030   0.215   2.597  1.00  0.00    -0.014 C 
ATOM     11  C   UNL     1      -0.251  -2.057   2.847  1.00  0.00    -0.011 A 
ATOM     12  C   UNL     1      -0.481  -0.834   3.505  1.00  0.00    -0.010 A 
ATOM     13  C   UNL     1      -0.011   1.555   2.749  1.00  0.00     0.017 C 
ATOM     14  C   UNL     1      -0.694  -3.250   3.406  1.00  0.00     0.048 A 
ATOM     15  C   UNL     1      -1.101  -0.809   4.750  1.00  0.00     0.012 A 
ATOM     16  C   UNL     1      -1.290  -3.213   4.665  1.00  0.00     0.123 A 
ATOM     17  C   UNL     1      -1.480  -2.013   5.346  1.00  0.00     0.040 A 
ATOM     18  F   UNL     1      -1.642  -4.362   5.258  1.00  0.00    -0.207 F 
BRANCH  13  19
ATOM     19  C   UNL     1      -0.575   2.282   3.892  1.00  0.00    -0.025 A 
ATOM     20  C   UNL     1       0.096   2.300   5.120  1.00  0.00     0.013 A 
ATOM     21  C   UNL     1      -1.827   2.895   3.789  1.00  0.00     0.013 A 
ATOM     22  C   UNL     1      -0.528   2.821   6.259  1.00  0.00     0.061 A 
ATOM     23  C   UNL     1      -2.439   3.441   4.923  1.00  0.00     0.061 A 
ATOM     24  C   UNL     1      -1.810   3.377   6.173  1.00  0.00     0.152 A 
BRANCH  24  25
ATOM     25  S   UNL     1      -2.725   3.847   7.664  1.00  0.00    -0.018 S 
ATOM     26  C   UNL     1      -1.499   4.901   8.463  1.00  0.00     0.346 C 
ATOM     27  O   UNL     1      -3.918   4.759   7.205  1.00  0.00    -0.612 OA
ENDBRANCH  24  25
ENDBRANCH  13  19
ENDBRANCH   6   7
ENDBRANCH   4   6
ENDBRANCH   3   4
ENDBRANCH   2   3
ENDBRANCH   1   2
BRANCH   1  28
ATOM     28  O   UNL     1       3.714  -5.314   3.524  1.00  0.00    -0.374 OA
BRANCH  28  29
ATOM     29  C   UNL     1       2.432  -4.821   3.899  1.00  0.00     0.202 C 
BRANCH  29  30
ATOM     30  C   UNL     1       2.354  -3.839   5.074  1.00  0.00     0.261 C 
BRANCH  30  31
ATOM     31  O   UNL     1       3.182  -2.683   4.921  1.00  0.00    -0.460 OA
BRANCH  31  32
ATOM     32  C   UNL     1       4.138  -2.554   5.869  1.00  0.00     0.338 C 
ATOM     33  O   UNL     1       4.345  -3.271   6.836  1.00  0.00    -0.246 OA
BRANCH  32  34
ATOM     34  C   UNL     1       5.039  -1.466   5.479  1.00  0.00     0.060 A 
ATOM     35  C   UNL     1       4.561  -0.164   5.321  1.00  0.00     0.016 A 
ATOM     36  C   UNL     1       6.396  -1.766   5.316  1.00  0.00     0.016 A 
ATOM     37  C   UNL     1       5.463   0.855   5.022  1.00  0.00     0.010 A 
ATOM     38  C   UNL     1       7.294  -0.747   5.022  1.00  0.00     0.010 A 
ATOM     39  C   UNL     1       6.835   0.572   4.894  1.00  0.00    -0.014 A 
BRANCH  39  40
ATOM     40  C   UNL     1       7.813   1.671   4.748  1.00  0.00     0.031 A 
ATOM     41  C   UNL     1       8.525   1.904   3.454  1.00  0.00     0.074 A 
ATOM     42  C   UNL     1       8.082   2.426   5.829  1.00  0.00     0.049 A 
ATOM     43  N   UNL     1       9.407   2.824   3.156  1.00  0.00    -0.248 NA
ATOM     44  C   UNL     1       8.219   0.979   2.354  1.00  0.00     0.031 C 
ATOM     45  C   UNL     1       7.470   2.247   7.146  1.00  0.00     0.029 A 
ATOM     46  N   UNL     1       8.933   3.486   5.995  1.00  0.00    -0.354 N 
ATOM     47  C   UNL     1       9.752   2.599   1.831  1.00  0.00     0.074 A 
ATOM     48  C   UNL     1       9.026   1.423   1.399  1.00  0.00     0.031 C 
ATOM     49  C   UNL     1       7.942   3.186   7.979  1.00  0.00     0.029 A 
ATOM     50  C   UNL     1       8.917   4.005   7.266  1.00  0.00     0.049 A 
ATOM     51  H   UNL     1       9.501   3.841   5.274  1.00  0.00     0.167 HD
ATOM     52  C   UNL     1      10.586   3.325   1.050  1.00  0.00     0.037 A 
ATOM     53  C   UNL     1       9.614   5.027   7.796  1.00  0.00     0.037 A 
ATOM     54  C   UNL     1      11.314   4.482   1.506  1.00  0.00     0.049 A 
ATOM     55  C   UNL     1      10.569   5.786   6.920  1.00  0.00     0.074 A 
ATOM     56  C   UNL     1      12.157   5.310   0.785  1.00  0.00     0.029 A 
ATOM     57  N   UNL     1      11.298   4.967   2.808  1.00  0.00    -0.354 N 
ATOM     58  N   UNL     1      10.835   5.615   5.648  1.00  0.00    -0.248 NA
ATOM     59  C   UNL     1      11.317   6.882   7.549  1.00  0.00     0.031 C 
ATOM     60  C   UNL     1      12.697   6.255   1.663  1.00  0.00     0.029 A 
ATOM     61  C   UNL     1      12.143   6.060   2.918  1.00  0.00     0.049 A 
ATOM     62  H   UNL     1      10.765   4.589   3.544  1.00  0.00     0.167 HD
ATOM     63  C   UNL     1      11.768   6.587   5.318  1.00  0.00     0.074 A 
ATOM     64  C   UNL     1      12.004   7.360   6.521  1.00  0.00     0.031 C 
ATOM     65  C   UNL     1      12.374   6.815   4.127  1.00  0.00     0.037 A 
BRANCH  52  66
ATOM     66  C   UNL     1      10.758   2.892  -0.379  1.00  0.00     0.064 A 
ATOM     67  C   UNL     1       9.713   3.007  -1.310  1.00  0.00     0.173 A 
ATOM     68  C   UNL     1      11.992   2.408  -0.838  1.00  0.00     0.173 A 
ATOM     69  F   UNL     1       8.509   3.455  -0.923  1.00  0.00    -0.203 F 
ATOM     70  C   UNL     1       9.891   2.630  -2.639  1.00  0.00     0.198 A 
ATOM     71  C   UNL     1      12.176   2.063  -2.175  1.00  0.00     0.198 A 
ATOM     72  F   UNL     1      13.027   2.284   0.006  1.00  0.00    -0.203 F 
ATOM     73  F   UNL     1       8.865   2.706  -3.497  1.00  0.00    -0.200 F 
ATOM     74  C   UNL     1      11.124   2.167  -3.072  1.00  0.00     0.200 A 
ATOM     75  F   UNL     1      13.372   1.630  -2.595  1.00  0.00    -0.200 F 
ATOM     76  F   UNL     1      11.296   1.816  -4.354  1.00  0.00    -0.200 F 
ENDBRANCH  52  66
BRANCH  53  77
ATOM     77  C   UNL     1       9.385   5.402   9.214  1.00  0.00     0.064 A 
ATOM     78  C   UNL     1       8.715   6.589   9.540  1.00  0.00     0.173 A 
ATOM     79  C   UNL     1       9.767   4.557  10.267  1.00  0.00     0.173 A 
ATOM     80  F   UNL     1       8.341   7.435   8.569  1.00  0.00    -0.203 F 
ATOM     81  C   UNL     1       8.435   6.915  10.865  1.00  0.00     0.198 A 
ATOM     82  C   UNL     1       9.462   4.870  11.589  1.00  0.00     0.198 A 
ATOM     83  F   UNL     1      10.402   3.404  10.005  1.00  0.00    -0.203 F 
ATOM     84  F   UNL     1       7.809   8.065  11.151  1.00  0.00    -0.200 F 
ATOM     85  C   UNL     1       8.798   6.051  11.887  1.00  0.00     0.200 A 
ATOM     86  F   UNL     1       9.794   4.021  12.571  1.00  0.00    -0.200 F 
ATOM     87  F   UNL     1       8.504   6.353  13.159  1.00  0.00    -0.200 F 
ENDBRANCH  53  77
BRANCH  65  88
ATOM     88  C   UNL     1      13.355   7.950   4.056  1.00  0.00     0.064 A 
ATOM     89  C   UNL     1      14.608   7.877   4.682  1.00  0.00     0.173 A 
ATOM     90  C   UNL     1      13.069   9.093   3.292  1.00  0.00     0.173 A 
ATOM     91  F   UNL     1      14.925   6.813   5.436  1.00  0.00    -0.203 F 
ATOM     92  C   UNL     1      15.532   8.911   4.558  1.00  0.00     0.198 A 
ATOM     93  C   UNL     1      14.009  10.109   3.142  1.00  0.00     0.198 A 
ATOM     94  F   UNL     1      11.888   9.211   2.667  1.00  0.00    -0.203 F 
ATOM     95  F   UNL     1      16.708   8.835   5.196  1.00  0.00    -0.200 F 
ATOM     96  C   UNL     1      15.237  10.019   3.779  1.00  0.00     0.200 A 
ATOM     97  F   UNL     1      13.728  11.171   2.374  1.00  0.00    -0.200 F 
ATOM     98  F   UNL     1      16.136  11.004   3.643  1.00  0.00    -0.200 F 
ENDBRANCH  65  88
ENDBRANCH  39  40
ENDBRANCH  32  34
ENDBRANCH  31  32
ENDBRANCH  30  31
ENDBRANCH  29  30
ENDBRANCH  28  29
ENDBRANCH   1  28
TORSDOF 17
