REMARK SMILES Cc1ccc(N)c(SCCOc2ccccc2C(=O)OCCOCCOC(=O)c2ccc(-c3c4nc(c(-c5c(F)c(F)c(F)c(F)c5F)c5ccc([nH]5)c(-c5c(F)c(F)c(F)c(F)c5F)c5nc(c(-c6c(F)c(F)c(F)c(F)c6F)c6ccc3[nH]6)C=C5)C=C4)cc2)c1
REMARK SMILES IDX 21 1 20 2 18 3 19 4 17 5 12 6 13 7 14 8 16 9 15 10 11 11
REMARK SMILES IDX 10 12 9 13 8 14 7 15 1 16 2 17 3 18 92 19 4 20 5 21 6 22
REMARK SMILES IDX 22 25 23 26 24 27 25 28 26 29 27 30 28 31 29 32 30 33 91 34
REMARK SMILES IDX 31 35 90 36 32 37 33 38 34 39 84 40 35 41 89 42 83 43 85 44
REMARK SMILES IDX 36 45 88 46 82 47 81 48 37 50 69 51 49 52 68 53 50 54 53 55
REMARK SMILES IDX 67 56 86 57 51 58 52 59 66 61 87 62 54 63 38 64 39 65 47 66
REMARK SMILES IDX 40 67 41 68 45 69 48 70 42 71 43 72 46 73 44 74 70 75 71 76
REMARK SMILES IDX 79 77 72 78 73 79 77 80 80 81 74 82 75 83 78 84 76 85 55 86
REMARK SMILES IDX 56 87 64 88 57 89 58 90 62 91 65 92 59 93 60 94 63 95 61 96
REMARK H PARENT 6 23 6 24 85 49 53 60
REMARK Flexibility Score: inf
ROOT
ATOM      1  C   UNL     1       0.292   5.214   1.030  1.00  0.00     0.261 C 
ENDROOT
BRANCH   1   2
ATOM      2  O   UNL     1      -0.734   4.346   0.452  1.00  0.00    -0.460 OA
BRANCH   2   3
ATOM      3  C   UNL     1      -0.249   3.123   0.092  1.00  0.00     0.342 C 
ATOM      4  O   UNL     1       0.783   2.728   0.569  1.00  0.00    -0.246 OA
BRANCH   3   5
ATOM      5  C   UNL     1      -0.930   2.388  -1.049  1.00  0.00     0.102 A 
ATOM      6  C   UNL     1      -1.260   3.134  -2.140  1.00  0.00     0.133 A 
ATOM      7  C   UNL     1      -2.028   2.599  -3.200  1.00  0.00     0.047 A 
ATOM      8  C   UNL     1      -2.096   1.216  -3.374  1.00  0.00     0.004 A 
ATOM      9  C   UNL     1      -0.715   1.065  -1.456  1.00  0.00     0.019 A 
ATOM     10  C   UNL     1      -1.298   0.448  -2.567  1.00  0.00     0.001 A 
BRANCH   6  11
ATOM     11  O   UNL     1      -0.305   4.109  -2.425  1.00  0.00    -0.492 OA
BRANCH  11  12
ATOM     12  C   UNL     1       0.997   3.476  -2.750  1.00  0.00     0.241 C 
BRANCH  12  13
ATOM     13  C   UNL     1       2.076   3.084  -1.625  1.00  0.00     0.116 C 
BRANCH  13  14
ATOM     14  S   UNL     1       2.842   1.354  -0.890  1.00  0.00    -0.120 SA
BRANCH  14  15
ATOM     15  C   UNL     1       1.965   0.083   0.206  1.00  0.00     0.031 A 
ATOM     16  C   UNL     1      -1.598  -0.890   1.152  1.00  0.00     0.044 C 
ATOM     17  C   UNL     1      -0.102  -1.043   0.986  1.00  0.00    -0.050 A 
ATOM     18  C   UNL     1       0.446  -2.277   0.691  1.00  0.00     0.005 A 
ATOM     19  C   UNL     1       0.736   0.096   0.908  1.00  0.00     0.020 A 
ATOM     20  C   UNL     1       1.798  -2.350   0.363  1.00  0.00     0.027 A 
ATOM     21  C   UNL     1       2.572  -1.190   0.158  1.00  0.00     0.045 A 
BRANCH  21  22
ATOM     22  N   UNL     1       3.904  -1.340  -0.246  1.00  0.00    -0.398 N 
ATOM     23  H   UNL     1       4.312  -2.236  -0.274  1.00  0.00     0.156 HD
ATOM     24  H   UNL     1       4.433  -0.550  -0.502  1.00  0.00     0.156 HD
ENDBRANCH  21  22
ENDBRANCH  14  15
ENDBRANCH  13  14
ENDBRANCH  12  13
ENDBRANCH  11  12
ENDBRANCH   6  11
ENDBRANCH   3   5
ENDBRANCH   2   3
ENDBRANCH   1   2
BRANCH   1  25
ATOM     25  C   UNL     1       0.823   4.992   2.477  1.00  0.00     0.202 C 
BRANCH  25  26
ATOM     26  O   UNL     1       1.397   3.726   2.720  1.00  0.00    -0.374 OA
BRANCH  26  27
ATOM     27  C   UNL     1       0.788   2.822   3.632  1.00  0.00     0.202 C 
BRANCH  27  28
ATOM     28  C   UNL     1      -0.742   2.639   3.770  1.00  0.00     0.261 C 
BRANCH  28  29
ATOM     29  O   UNL     1      -1.573   3.644   3.180  1.00  0.00    -0.460 OA
BRANCH  29  30
ATOM     30  C   UNL     1      -2.033   4.597   4.024  1.00  0.00     0.338 C 
ATOM     31  O   UNL     1      -1.872   4.663   5.230  1.00  0.00    -0.246 OA
BRANCH  30  32
ATOM     32  C   UNL     1      -2.568   5.712   3.222  1.00  0.00     0.060 A 
ATOM     33  C   UNL     1      -1.923   6.953   3.320  1.00  0.00     0.016 A 
ATOM     34  C   UNL     1      -3.697   5.553   2.418  1.00  0.00     0.016 A 
ATOM     35  C   UNL     1      -2.420   8.053   2.633  1.00  0.00     0.010 A 
ATOM     36  C   UNL     1      -4.221   6.669   1.761  1.00  0.00     0.010 A 
ATOM     37  C   UNL     1      -3.603   7.925   1.897  1.00  0.00    -0.014 A 
BRANCH  37  38
ATOM     38  C   UNL     1      -4.300   9.154   1.465  1.00  0.00     0.031 A 
ATOM     39  C   UNL     1      -5.350   9.726   2.373  1.00  0.00     0.074 A 
ATOM     40  C   UNL     1      -3.961   9.774   0.324  1.00  0.00     0.049 A 
ATOM     41  N   UNL     1      -6.113  10.775   2.207  1.00  0.00    -0.248 NA
ATOM     42  C   UNL     1      -5.566   9.020   3.648  1.00  0.00     0.031 C 
ATOM     43  C   UNL     1      -2.911   9.338  -0.594  1.00  0.00     0.029 A 
ATOM     44  N   UNL     1      -4.472  10.906  -0.255  1.00  0.00    -0.354 N 
ATOM     45  C   UNL     1      -6.899  10.850   3.349  1.00  0.00     0.074 A 
ATOM     46  C   UNL     1      -6.542   9.731   4.191  1.00  0.00     0.031 C 
ATOM     47  C   UNL     1      -2.866  10.188  -1.635  1.00  0.00     0.029 A 
ATOM     48  C   UNL     1      -3.905  11.202  -1.469  1.00  0.00     0.049 A 
ATOM     49  H   UNL     1      -5.177  11.454   0.160  1.00  0.00     0.167 HD
ATOM     50  C   UNL     1      -7.834  11.776   3.664  1.00  0.00     0.037 A 
ATOM     51  C   UNL     1      -4.218  12.169  -2.353  1.00  0.00     0.037 A 
ATOM     52  C   UNL     1      -8.184  12.883   2.815  1.00  0.00     0.049 A 
ATOM     53  C   UNL     1      -5.325  13.135  -2.018  1.00  0.00     0.074 A 
ATOM     54  C   UNL     1      -9.109  13.886   3.041  1.00  0.00     0.029 A 
ATOM     55  N   UNL     1      -7.626  13.123   1.567  1.00  0.00    -0.354 N 
ATOM     56  N   UNL     1      -6.059  13.212  -0.933  1.00  0.00    -0.248 NA
ATOM     57  C   UNL     1      -5.649  14.148  -3.031  1.00  0.00     0.031 C 
ATOM     58  C   UNL     1      -9.150  14.702   1.905  1.00  0.00     0.029 A 
ATOM     59  C   UNL     1      -8.210  14.241   0.996  1.00  0.00     0.049 A 
ATOM     60  H   UNL     1      -6.920  12.579   1.150  1.00  0.00     0.167 HD
ATOM     61  C   UNL     1      -6.913  14.291  -1.122  1.00  0.00     0.074 A 
ATOM     62  C   UNL     1      -6.593  14.849  -2.420  1.00  0.00     0.031 C 
ATOM     63  C   UNL     1      -7.875  14.777  -0.299  1.00  0.00     0.037 A 
BRANCH  50  64
ATOM     64  C   UNL     1      -8.566  11.607   4.963  1.00  0.00     0.064 A 
ATOM     65  C   UNL     1      -7.941  11.829   6.199  1.00  0.00     0.173 A 
ATOM     66  C   UNL     1      -9.920  11.241   4.968  1.00  0.00     0.173 A 
ATOM     67  F   UNL     1      -6.642  12.162   6.250  1.00  0.00    -0.203 F 
ATOM     68  C   UNL     1      -8.639  11.669   7.393  1.00  0.00     0.198 A 
ATOM     69  C   UNL     1     -10.623  11.110   6.162  1.00  0.00     0.198 A 
ATOM     70  F   UNL     1     -10.564  11.015   3.813  1.00  0.00    -0.203 F 
ATOM     71  F   UNL     1      -8.011  11.842   8.564  1.00  0.00    -0.200 F 
ATOM     72  C   UNL     1      -9.981  11.317   7.374  1.00  0.00     0.200 A 
ATOM     73  F   UNL     1     -11.921  10.779   6.141  1.00  0.00    -0.200 F 
ATOM     74  F   UNL     1     -10.654  11.171   8.523  1.00  0.00    -0.200 F 
ENDBRANCH  50  64
BRANCH  51  75
ATOM     75  C   UNL     1      -3.493  12.254  -3.647  1.00  0.00     0.064 A 
ATOM     76  C   UNL     1      -2.648  13.334  -3.936  1.00  0.00     0.173 A 
ATOM     77  C   UNL     1      -3.640  11.260  -4.627  1.00  0.00     0.173 A 
ATOM     78  F   UNL     1      -2.495  14.322  -3.042  1.00  0.00    -0.203 F 
ATOM     79  C   UNL     1      -1.991  13.424  -5.162  1.00  0.00     0.198 A 
ATOM     80  C   UNL     1      -2.960  11.337  -5.839  1.00  0.00     0.198 A 
ATOM     81  F   UNL     1      -4.441  10.208  -4.402  1.00  0.00    -0.203 F 
ATOM     82  F   UNL     1      -1.224  14.490  -5.431  1.00  0.00    -0.200 F 
ATOM     83  C   UNL     1      -2.142  12.423  -6.109  1.00  0.00     0.200 A 
ATOM     84  F   UNL     1      -3.100  10.361  -6.747  1.00  0.00    -0.200 F 
ATOM     85  F   UNL     1      -1.506  12.509  -7.285  1.00  0.00    -0.200 F 
ENDBRANCH  51  75
BRANCH  63  86
ATOM     86  C   UNL     1      -8.633  15.985  -0.768  1.00  0.00     0.064 A 
ATOM     87  C   UNL     1      -9.573  15.906  -1.806  1.00  0.00     0.173 A 
ATOM     88  C   UNL     1      -8.447  17.227  -0.142  1.00  0.00     0.173 A 
ATOM     89  F   UNL     1      -9.776  14.744  -2.445  1.00  0.00    -0.203 F 
ATOM     90  C   UNL     1     -10.279  17.032  -2.218  1.00  0.00     0.198 A 
ATOM     91  C   UNL     1      -9.178  18.344  -0.535  1.00  0.00     0.198 A 
ATOM     92  F   UNL     1      -7.566  17.354   0.862  1.00  0.00    -0.203 F 
ATOM     93  F   UNL     1     -11.135  16.945  -3.245  1.00  0.00    -0.200 F 
ATOM     94  C   UNL     1     -10.087  18.248  -1.578  1.00  0.00     0.200 A 
ATOM     95  F   UNL     1      -9.002  19.514   0.095  1.00  0.00    -0.200 F 
ATOM     96  F   UNL     1     -10.773  19.329  -1.972  1.00  0.00    -0.200 F 
ENDBRANCH  63  86
ENDBRANCH  37  38
ENDBRANCH  30  32
ENDBRANCH  29  30
ENDBRANCH  28  29
ENDBRANCH  27  28
ENDBRANCH  26  27
ENDBRANCH  25  26
ENDBRANCH   1  25
TORSDOF 20
