REMARK SMILES CC(C)c1nc(OCC(=O)OCCOCCOC(=O)c2ccc(-c3c4nc(c(-c5c(F)c(F)c(F)c(F)c5F)c5ccc([nH]5)c(-c5c(F)c(F)c(F)c(F)c5F)c5nc(c(-c6c(F)c(F)c(F)c(F)c6F)c6ccc3[nH]6)C=C5)C=C4)cc2)cc(-c2ccccn2)n1
REMARK SMILES IDX 13 1 12 2 11 3 9 4 10 5 8 6 7 7 6 8 4 9 5 10 91 11 84 12
REMARK SMILES IDX 83 13 2 14 1 15 3 16 85 17 86 18 90 19 87 20 89 21 88 22
REMARK SMILES IDX 14 23 15 24 16 25 17 26 18 27 19 28 20 29 21 30 82 31 22 32
REMARK SMILES IDX 81 33 23 34 24 35 25 36 75 37 26 38 80 39 74 40 76 41 27 42
REMARK SMILES IDX 79 43 73 44 72 45 28 47 60 48 40 49 59 50 41 51 44 52 58 53
REMARK SMILES IDX 77 54 42 55 43 56 57 58 78 59 45 60 29 61 30 62 38 63 31 64
REMARK SMILES IDX 32 65 36 66 39 67 33 68 34 69 37 70 35 71 61 72 62 73 70 74
REMARK SMILES IDX 63 75 64 76 68 77 71 78 65 79 66 80 69 81 67 82 46 83 47 84
REMARK SMILES IDX 55 85 48 86 49 87 53 88 56 89 50 90 51 91 54 92 52 93
REMARK H PARENT 76 46 44 57
REMARK Flexibility Score: inf
ROOT
ATOM      1  C   UNL     1      -5.966   0.349   4.203  1.00  0.00     0.202 C 
ENDROOT
BRANCH   1   2
ATOM      2  C   UNL     1      -6.400  -0.804   3.290  1.00  0.00     0.261 C 
BRANCH   2   3
ATOM      3  O   UNL     1      -5.531  -0.971   2.145  1.00  0.00    -0.461 OA
BRANCH   3   4
ATOM      4  C   UNL     1      -6.160  -1.056   0.938  1.00  0.00     0.344 C 
ATOM      5  O   UNL     1      -7.379  -1.076   0.791  1.00  0.00    -0.248 OA
BRANCH   4   6
ATOM      6  C   UNL     1      -5.208  -1.129  -0.262  1.00  0.00     0.353 C 
BRANCH   6   7
ATOM      7  O   UNL     1      -3.834  -0.864  -0.092  1.00  0.00    -0.466 OA
BRANCH   7   8
ATOM      8  C   UNL     1      -3.274   0.326  -0.446  1.00  0.00     0.217 A 
ATOM      9  C   UNL     1      -1.246   1.428  -0.352  1.00  0.00     0.135 A 
ATOM     10  N   UNL     1      -1.939   0.281  -0.290  1.00  0.00    -0.198 NA
ATOM     11  N   UNL     1      -1.826   2.631  -0.492  1.00  0.00    -0.231 NA
ATOM     12  C   UNL     1      -3.163   2.663  -0.699  1.00  0.00     0.096 A 
ATOM     13  C   UNL     1      -3.936   1.505  -0.718  1.00  0.00     0.099 A 
BRANCH   9  14
ATOM     14  C   UNL     1       0.244   1.386  -0.059  1.00  0.00     0.051 C 
ATOM     15  C   UNL     1       0.837  -0.025  -0.152  1.00  0.00     0.016 C 
ATOM     16  C   UNL     1       1.026   2.326  -0.981  1.00  0.00     0.016 C 
ENDBRANCH   9  14
BRANCH  12  17
ATOM     17  C   UNL     1      -3.765   4.014  -0.707  1.00  0.00     0.089 A 
ATOM     18  C   UNL     1      -4.032   4.702   0.480  1.00  0.00     0.030 A 
ATOM     19  N   UNL     1      -4.043   4.564  -1.912  1.00  0.00    -0.255 NA
ATOM     20  C   UNL     1      -4.645   5.950   0.452  1.00  0.00     0.004 A 
ATOM     21  C   UNL     1      -4.572   5.814  -1.914  1.00  0.00     0.112 A 
ATOM     22  C   UNL     1      -4.910   6.528  -0.774  1.00  0.00     0.020 A 
ENDBRANCH  12  17
ENDBRANCH   7   8
ENDBRANCH   6   7
ENDBRANCH   4   6
ENDBRANCH   3   4
ENDBRANCH   2   3
ENDBRANCH   1   2
BRANCH   1  23
ATOM     23  O   UNL     1      -5.978   1.661   3.646  1.00  0.00    -0.374 OA
BRANCH  23  24
ATOM     24  C   UNL     1      -5.175   1.900   2.502  1.00  0.00     0.202 C 
BRANCH  24  25
ATOM     25  C   UNL     1      -3.651   1.819   2.643  1.00  0.00     0.261 C 
BRANCH  25  26
ATOM     26  O   UNL     1      -3.175   1.171   3.796  1.00  0.00    -0.460 OA
BRANCH  26  27
ATOM     27  C   UNL     1      -2.885   2.016   4.798  1.00  0.00     0.338 C 
ATOM     28  O   UNL     1      -3.006   3.229   4.848  1.00  0.00    -0.246 OA
BRANCH  27  29
ATOM     29  C   UNL     1      -2.484   1.156   5.897  1.00  0.00     0.060 A 
ATOM     30  C   UNL     1      -3.180   1.291   7.094  1.00  0.00     0.016 A 
ATOM     31  C   UNL     1      -1.472   0.204   5.712  1.00  0.00     0.016 A 
ATOM     32  C   UNL     1      -2.813   0.494   8.157  1.00  0.00     0.010 A 
ATOM     33  C   UNL     1      -1.117  -0.607   6.775  1.00  0.00     0.010 A 
ATOM     34  C   UNL     1      -1.761  -0.424   8.005  1.00  0.00    -0.014 A 
BRANCH  34  35
ATOM     35  C   UNL     1      -1.251  -1.081   9.213  1.00  0.00     0.031 A 
ATOM     36  C   UNL     1      -0.047  -0.495   9.878  1.00  0.00     0.074 A 
ATOM     37  C   UNL     1      -1.945  -2.104   9.731  1.00  0.00     0.049 A 
ATOM     38  N   UNL     1       0.483  -0.793  11.032  1.00  0.00    -0.248 NA
ATOM     39  C   UNL     1       0.653   0.579   9.150  1.00  0.00     0.031 C 
ATOM     40  C   UNL     1      -3.133  -2.707   9.125  1.00  0.00     0.029 A 
ATOM     41  N   UNL     1      -1.771  -2.790  10.898  1.00  0.00    -0.354 N 
ATOM     42  C   UNL     1       1.566   0.062  11.174  1.00  0.00     0.074 A 
ATOM     43  C   UNL     1       1.652   0.858   9.971  1.00  0.00     0.031 C 
ATOM     44  C   UNL     1      -3.601  -3.661   9.945  1.00  0.00     0.029 A 
ATOM     45  C   UNL     1      -2.736  -3.739  11.118  1.00  0.00     0.049 A 
ATOM     46  H   UNL     1      -1.027  -2.621  11.520  1.00  0.00     0.167 HD
ATOM     47  C   UNL     1       2.397   0.178  12.234  1.00  0.00     0.037 A 
ATOM     48  C   UNL     1      -2.893  -4.564  12.166  1.00  0.00     0.037 A 
ATOM     49  C   UNL     1       2.285  -0.638  13.412  1.00  0.00     0.049 A 
ATOM     50  C   UNL     1      -1.935  -4.432  13.318  1.00  0.00     0.074 A 
ATOM     51  C   UNL     1       3.063  -0.626  14.553  1.00  0.00     0.029 A 
ATOM     52  N   UNL     1       1.322  -1.625  13.590  1.00  0.00    -0.354 N 
ATOM     53  N   UNL     1      -0.932  -3.598  13.469  1.00  0.00    -0.248 NA
ATOM     54  C   UNL     1      -2.138  -5.342  14.449  1.00  0.00     0.031 C 
ATOM     55  C   UNL     1       2.600  -1.638  15.402  1.00  0.00     0.029 A 
ATOM     56  C   UNL     1       1.499  -2.244  14.814  1.00  0.00     0.049 A 
ATOM     57  H   UNL     1       0.618  -1.850  12.940  1.00  0.00     0.167 HD
ATOM     58  C   UNL     1      -0.395  -3.867  14.718  1.00  0.00     0.074 A 
ATOM     59  C   UNL     1      -1.204  -4.926  15.293  1.00  0.00     0.031 C 
ATOM     60  C   UNL     1       0.671  -3.301  15.340  1.00  0.00     0.037 A 
BRANCH  47  61
ATOM     61  C   UNL     1       3.496   1.194  12.142  1.00  0.00     0.064 A 
ATOM     62  C   UNL     1       3.233   2.573  12.173  1.00  0.00     0.173 A 
ATOM     63  C   UNL     1       4.832   0.786  12.018  1.00  0.00     0.173 A 
ATOM     64  F   UNL     1       1.970   3.018  12.264  1.00  0.00    -0.203 F 
ATOM     65  C   UNL     1       4.264   3.503  12.061  1.00  0.00     0.198 A 
ATOM     66  C   UNL     1       5.863   1.718  11.934  1.00  0.00     0.198 A 
ATOM     67  F   UNL     1       5.138  -0.519  11.974  1.00  0.00    -0.203 F 
ATOM     68  F   UNL     1       3.984   4.814  12.042  1.00  0.00    -0.200 F 
ATOM     69  C   UNL     1       5.578   3.075  11.949  1.00  0.00     0.200 A 
ATOM     70  F   UNL     1       7.133   1.302  11.831  1.00  0.00    -0.200 F 
ATOM     71  F   UNL     1       6.570   3.971  11.844  1.00  0.00    -0.200 F 
ENDBRANCH  47  61
BRANCH  48  72
ATOM     72  C   UNL     1      -4.005  -5.547  12.174  1.00  0.00     0.064 A 
ATOM     73  C   UNL     1      -5.077  -5.428  13.069  1.00  0.00     0.173 A 
ATOM     74  C   UNL     1      -4.027  -6.620  11.269  1.00  0.00     0.173 A 
ATOM     75  F   UNL     1      -5.097  -4.426  13.960  1.00  0.00    -0.203 F 
ATOM     76  C   UNL     1      -6.117  -6.356  13.072  1.00  0.00     0.198 A 
ATOM     77  C   UNL     1      -5.082  -7.529  11.254  1.00  0.00     0.198 A 
ATOM     78  F   UNL     1      -3.031  -6.772  10.384  1.00  0.00    -0.203 F 
ATOM     79  F   UNL     1      -7.110  -6.242  13.965  1.00  0.00    -0.200 F 
ATOM     80  C   UNL     1      -6.122  -7.402  12.162  1.00  0.00     0.200 A 
ATOM     81  F   UNL     1      -5.091  -8.527  10.360  1.00  0.00    -0.200 F 
ATOM     82  F   UNL     1      -7.126  -8.289  12.161  1.00  0.00    -0.200 F 
ENDBRANCH  48  72
BRANCH  60  83
ATOM     83  C   UNL     1       0.995  -3.813  16.711  1.00  0.00     0.064 A 
ATOM     84  C   UNL     1       1.538  -5.091  16.906  1.00  0.00     0.173 A 
ATOM     85  C   UNL     1       0.776  -3.008  17.838  1.00  0.00     0.173 A 
ATOM     86  F   UNL     1       1.752  -5.902  15.858  1.00  0.00    -0.203 F 
ATOM     87  C   UNL     1       1.812  -5.561  18.187  1.00  0.00     0.198 A 
ATOM     88  C   UNL     1       1.083  -3.468  19.114  1.00  0.00     0.198 A 
ATOM     89  F   UNL     1       0.268  -1.774  17.701  1.00  0.00    -0.203 F 
ATOM     90  F   UNL     1       2.270  -6.809  18.356  1.00  0.00    -0.200 F 
ATOM     91  C   UNL     1       1.589  -4.748  19.288  1.00  0.00     0.200 A 
ATOM     92  F   UNL     1       0.883  -2.677  20.176  1.00  0.00    -0.200 F 
ATOM     93  F   UNL     1       1.853  -5.202  20.521  1.00  0.00    -0.200 F 
ENDBRANCH  60  83
ENDBRANCH  34  35
ENDBRANCH  27  29
ENDBRANCH  26  27
ENDBRANCH  25  26
ENDBRANCH  24  25
ENDBRANCH  23  24
ENDBRANCH   1  23
TORSDOF 18
