REMARK SMILES O=C(COc1cccc(C(=O)OCCOCCOC(=O)c2ccc(-c3c4nc(c(-c5c(F)c(F)c(F)c(F)c5F)c5ccc([nH]5)c(-c5c(F)c(F)c(F)c(F)c5F)c5nc(c(-c6c(F)c(F)c(F)c(F)c6F)c6ccc3[nH]6)C=C5)C=C4)cc2)c1)NCCc1cccs1
REMARK SMILES IDX 13 1 12 2 10 3 11 4 9 5 5 6 6 7 84 8 7 9 8 10 4 11 3 12 2 13
REMARK SMILES IDX 1 14 85 15 86 17 87 18 88 19 89 20 92 21 90 22 91 23 14 24
REMARK SMILES IDX 15 25 16 26 17 27 18 28 19 29 20 30 21 31 22 32 83 33 23 34
REMARK SMILES IDX 82 35 24 36 25 37 26 38 76 39 27 40 81 41 75 42 77 43 28 44
REMARK SMILES IDX 80 45 74 46 73 47 29 49 61 50 41 51 60 52 42 53 45 54 59 55
REMARK SMILES IDX 78 56 43 57 44 58 58 60 79 61 46 62 30 63 31 64 39 65 32 66
REMARK SMILES IDX 33 67 37 68 40 69 34 70 35 71 38 72 36 73 62 74 63 75 71 76
REMARK SMILES IDX 64 77 65 78 69 79 72 80 66 81 67 82 70 83 68 84 47 85 48 86
REMARK SMILES IDX 56 87 49 88 50 89 54 90 57 91 51 92 52 93 55 94 53 95
REMARK H PARENT 85 16 77 48 45 59
REMARK Flexibility Score: inf
ROOT
ATOM      1  C   UNL     1      -1.047  -2.905   3.227  1.00  0.00     0.261 C 
ENDROOT
BRANCH   1   2
ATOM      2  O   UNL     1      -0.073  -1.857   3.081  1.00  0.00    -0.460 OA
BRANCH   2   3
ATOM      3  C   UNL     1       0.107  -1.061   4.163  1.00  0.00     0.338 C 
ATOM      4  O   UNL     1      -0.570  -1.041   5.179  1.00  0.00    -0.246 OA
BRANCH   3   5
ATOM      5  C   UNL     1       1.383  -0.318   4.019  1.00  0.00     0.063 A 
ATOM      6  C   UNL     1       3.169   0.616   2.674  1.00  0.00     0.120 A 
ATOM      7  C   UNL     1       3.891   0.882   3.841  1.00  0.00     0.046 A 
ATOM      8  C   UNL     1       1.913   0.012   2.763  1.00  0.00     0.062 A 
ATOM      9  C   UNL     1       3.356   0.576   5.093  1.00  0.00     0.005 A 
ATOM     10  C   UNL     1       2.102  -0.023   5.183  1.00  0.00     0.016 A 
BRANCH   6  11
ATOM     11  O   UNL     1       3.819   0.909   1.505  1.00  0.00    -0.484 OA
BRANCH  11  12
ATOM     12  C   UNL     1       3.002   1.343   0.420  1.00  0.00     0.329 C 
BRANCH  12  13
ATOM     13  C   UNL     1       2.349   0.227  -0.401  1.00  0.00     0.257 C 
ATOM     14  O   UNL     1       1.316   0.401  -1.041  1.00  0.00    -0.271 OA
ATOM     15  N   UNL     1       3.018  -0.974  -0.352  1.00  0.00    -0.353 N 
ATOM     16  H   UNL     1       3.873  -1.020   0.133  1.00  0.00     0.163 HD
BRANCH  15  17
ATOM     17  C   UNL     1       2.511  -2.175  -0.988  1.00  0.00     0.121 C 
BRANCH  17  18
ATOM     18  C   UNL     1       2.994  -2.340  -2.432  1.00  0.00     0.068 C 
BRANCH  18  19
ATOM     19  C   UNL     1       4.471  -2.631  -2.500  1.00  0.00     0.006 A 
ATOM     20  C   UNL     1       5.518  -1.733  -2.444  1.00  0.00     0.015 A 
ATOM     21  S   UNL     1       5.045  -4.235  -2.675  1.00  0.00    -0.149 S 
ATOM     22  C   UNL     1       6.789  -2.375  -2.490  1.00  0.00     0.012 A 
ATOM     23  C   UNL     1       6.674  -3.741  -2.605  1.00  0.00     0.065 A 
ENDBRANCH  18  19
ENDBRANCH  17  18
ENDBRANCH  15  17
ENDBRANCH  12  13
ENDBRANCH  11  12
ENDBRANCH   6  11
ENDBRANCH   3   5
ENDBRANCH   2   3
ENDBRANCH   1   2
BRANCH   1  24
ATOM     24  C   UNL     1      -0.359  -4.273   3.238  1.00  0.00     0.202 C 
BRANCH  24  25
ATOM     25  O   UNL     1       0.466  -4.535   4.374  1.00  0.00    -0.374 OA
BRANCH  25  26
ATOM     26  C   UNL     1       1.810  -4.055   4.305  1.00  0.00     0.202 C 
BRANCH  26  27
ATOM     27  C   UNL     1       2.804  -4.966   3.573  1.00  0.00     0.261 C 
BRANCH  27  28
ATOM     28  O   UNL     1       2.495  -5.092   2.174  1.00  0.00    -0.460 OA
BRANCH  28  29
ATOM     29  C   UNL     1       1.893  -6.252   1.819  1.00  0.00     0.338 C 
ATOM     30  O   UNL     1       1.646  -7.215   2.530  1.00  0.00    -0.246 OA
BRANCH  29  31
ATOM     31  C   UNL     1       1.420  -6.142   0.428  1.00  0.00     0.060 A 
ATOM     32  C   UNL     1       0.068  -6.379   0.150  1.00  0.00     0.016 A 
ATOM     33  C   UNL     1       2.310  -5.852  -0.602  1.00  0.00     0.016 A 
ATOM     34  C   UNL     1      -0.396  -6.341  -1.168  1.00  0.00     0.010 A 
ATOM     35  C   UNL     1       1.839  -5.812  -1.915  1.00  0.00     0.010 A 
ATOM     36  C   UNL     1       0.493  -6.075  -2.216  1.00  0.00    -0.014 A 
BRANCH  36  37
ATOM     37  C   UNL     1       0.083  -6.177  -3.642  1.00  0.00     0.031 A 
ATOM     38  C   UNL     1       0.649  -7.288  -4.488  1.00  0.00     0.074 A 
ATOM     39  C   UNL     1      -0.726  -5.257  -4.200  1.00  0.00     0.049 A 
ATOM     40  N   UNL     1       0.521  -7.507  -5.773  1.00  0.00    -0.248 NA
ATOM     41  C   UNL     1       1.500  -8.269  -3.796  1.00  0.00     0.031 C 
ATOM     42  C   UNL     1      -1.315  -4.114  -3.506  1.00  0.00     0.029 A 
ATOM     43  N   UNL     1      -1.172  -5.130  -5.494  1.00  0.00    -0.354 N 
ATOM     44  C   UNL     1       1.293  -8.630  -6.042  1.00  0.00     0.074 A 
ATOM     45  C   UNL     1       1.927  -9.017  -4.801  1.00  0.00     0.031 C 
ATOM     46  C   UNL     1      -2.050  -3.404  -4.380  1.00  0.00     0.029 A 
ATOM     47  C   UNL     1      -1.956  -4.022  -5.701  1.00  0.00     0.049 A 
ATOM     48  H   UNL     1      -0.951  -5.774  -6.205  1.00  0.00     0.167 HD
ATOM     49  C   UNL     1       1.445  -9.295  -7.213  1.00  0.00     0.037 A 
ATOM     50  C   UNL     1      -2.521  -3.553  -6.832  1.00  0.00     0.037 A 
ATOM     51  C   UNL     1       0.792  -8.930  -8.442  1.00  0.00     0.049 A 
ATOM     52  C   UNL     1      -2.330  -4.303  -8.126  1.00  0.00     0.074 A 
ATOM     53  C   UNL     1       0.829  -9.578  -9.664  1.00  0.00     0.029 A 
ATOM     54  N   UNL     1      -0.015  -7.814  -8.605  1.00  0.00    -0.354 N 
ATOM     55  N   UNL     1      -1.654  -5.403  -8.356  1.00  0.00    -0.248 NA
ATOM     56  C   UNL     1      -2.986  -3.748  -9.319  1.00  0.00     0.031 C 
ATOM     57  C   UNL     1       0.086  -8.827 -10.580  1.00  0.00     0.029 A 
ATOM     58  C   UNL     1      -0.463  -7.743  -9.914  1.00  0.00     0.049 A 
ATOM     59  H   UNL     1      -0.237  -7.168  -7.895  1.00  0.00     0.167 HD
ATOM     60  C   UNL     1      -1.831  -5.688  -9.704  1.00  0.00     0.074 A 
ATOM     61  C   UNL     1      -2.688  -4.652 -10.241  1.00  0.00     0.031 C 
ATOM     62  C   UNL     1      -1.329  -6.715 -10.432  1.00  0.00     0.037 A 
BRANCH  49  63
ATOM     63  C   UNL     1       2.355 -10.490  -7.221  1.00  0.00     0.064 A 
ATOM     64  C   UNL     1       2.023 -11.674  -6.545  1.00  0.00     0.173 A 
ATOM     65  C   UNL     1       3.560 -10.462  -7.940  1.00  0.00     0.173 A 
ATOM     66  F   UNL     1       0.888 -11.750  -5.833  1.00  0.00    -0.203 F 
ATOM     67  C   UNL     1       2.878 -12.773  -6.561  1.00  0.00     0.198 A 
ATOM     68  C   UNL     1       4.395 -11.575  -7.982  1.00  0.00     0.198 A 
ATOM     69  F   UNL     1       3.923  -9.359  -8.610  1.00  0.00    -0.203 F 
ATOM     70  F   UNL     1       2.565 -13.873  -5.862  1.00  0.00    -0.200 F 
ATOM     71  C   UNL     1       4.059 -12.726  -7.286  1.00  0.00     0.200 A 
ATOM     72  F   UNL     1       5.529 -11.533  -8.696  1.00  0.00    -0.200 F 
ATOM     73  F   UNL     1       4.877 -13.787  -7.307  1.00  0.00    -0.200 F 
ENDBRANCH  49  63
BRANCH  50  74
ATOM     74  C   UNL     1      -3.340  -2.312  -6.795  1.00  0.00     0.064 A 
ATOM     75  C   UNL     1      -4.726  -2.359  -7.002  1.00  0.00     0.173 A 
ATOM     76  C   UNL     1      -2.756  -1.055  -6.579  1.00  0.00     0.173 A 
ATOM     77  F   UNL     1      -5.328  -3.534  -7.240  1.00  0.00    -0.203 F 
ATOM     78  C   UNL     1      -5.494  -1.196  -7.016  1.00  0.00     0.198 A 
ATOM     79  C   UNL     1      -3.529   0.105  -6.563  1.00  0.00     0.198 A 
ATOM     80  F   UNL     1      -1.434  -0.955  -6.380  1.00  0.00    -0.203 F 
ATOM     81  F   UNL     1      -6.808  -1.266  -7.269  1.00  0.00    -0.200 F 
ATOM     82  C   UNL     1      -4.895   0.035  -6.790  1.00  0.00     0.200 A 
ATOM     83  F   UNL     1      -2.949   1.291  -6.337  1.00  0.00    -0.200 F 
ATOM     84  F   UNL     1      -5.633   1.153  -6.804  1.00  0.00    -0.200 F 
ENDBRANCH  50  74
BRANCH  62  85
ATOM     85  C   UNL     1      -1.727  -6.806 -11.879  1.00  0.00     0.064 A 
ATOM     86  C   UNL     1      -1.237  -5.908 -12.838  1.00  0.00     0.173 A 
ATOM     87  C   UNL     1      -2.565  -7.842 -12.318  1.00  0.00     0.173 A 
ATOM     88  F   UNL     1      -0.442  -4.892 -12.468  1.00  0.00    -0.203 F 
ATOM     89  C   UNL     1      -1.589  -6.031 -14.180  1.00  0.00     0.198 A 
ATOM     90  C   UNL     1      -2.890  -7.981 -13.665  1.00  0.00     0.198 A 
ATOM     91  F   UNL     1      -3.055  -8.734 -11.444  1.00  0.00    -0.203 F 
ATOM     92  F   UNL     1      -1.144  -5.135 -15.072  1.00  0.00    -0.200 F 
ATOM     93  C   UNL     1      -2.407  -7.072 -14.593  1.00  0.00     0.200 A 
ATOM     94  F   UNL     1      -3.667  -8.998 -14.064  1.00  0.00    -0.200 F 
ATOM     95  F   UNL     1      -2.735  -7.196 -15.887  1.00  0.00    -0.200 F 
ENDBRANCH  62  85
ENDBRANCH  36  37
ENDBRANCH  29  31
ENDBRANCH  28  29
ENDBRANCH  27  28
ENDBRANCH  26  27
ENDBRANCH  25  26
ENDBRANCH  24  25
ENDBRANCH   1  24
TORSDOF 20
