REMARK SMILES O=C(OCCOCCOC(=O)[C@H]1[C@H]2CC[C@H](C2)[C@@H]1C(=O)N1CCN(c2cccc(Cl)c2)CC1)c1ccc(-c2c3nc(c(-c4c(F)c(F)c(F)c(F)c4F)c4ccc([nH]4)c(-c4c(F)c(F)c(F)c(F)c4F)c4nc(c(-c5c(F)c(F)c(F)c(F)c5F)c5ccc2[nH]5)C=C4)C=C3)cc1
REMARK SMILES IDX 6 1 5 2 4 3 3 4 2 5 1 6 34 7 35 8 96 9 36 10 95 11 37 12
REMARK SMILES IDX 38 13 39 14 89 15 40 16 94 17 88 18 90 19 41 20 93 21 87 22
REMARK SMILES IDX 86 23 42 25 74 26 54 27 73 28 55 29 58 30 72 31 91 32 56 33
REMARK SMILES IDX 57 34 71 36 92 37 59 38 43 39 44 40 52 41 45 42 46 43 50 44
REMARK SMILES IDX 53 45 47 46 48 47 51 48 49 49 75 50 76 51 84 52 77 53 78 54
REMARK SMILES IDX 82 55 85 56 79 57 80 58 83 59 81 60 60 61 61 62 69 63 62 64
REMARK SMILES IDX 63 65 67 66 70 67 64 68 65 69 68 70 66 71 7 72 8 73 9 74
REMARK SMILES IDX 10 75 11 76 12 77 13 78 18 79 14 80 17 81 16 82 15 83 19 84
REMARK SMILES IDX 20 85 21 86 22 87 33 88 23 89 32 90 24 91 25 92 26 93 31 94
REMARK SMILES IDX 27 95 29 96 28 97 30 98
REMARK H PARENT 90 24 58 35
REMARK Flexibility Score: inf
ROOT
ATOM      1  O   UNL     1       3.835  -0.698   2.882  1.00  0.00    -0.374 OA
ENDROOT
BRANCH   1   2
ATOM      2  C   UNL     1       4.122  -0.880   1.495  1.00  0.00     0.202 C 
BRANCH   2   3
ATOM      3  C   UNL     1       3.703   0.282   0.593  1.00  0.00     0.261 C 
BRANCH   3   4
ATOM      4  O   UNL     1       4.445   1.462   0.927  1.00  0.00    -0.460 OA
BRANCH   4   5
ATOM      5  C   UNL     1       4.139   2.397   1.853  1.00  0.00     0.338 C 
ATOM      6  O   UNL     1       4.998   3.222   2.159  1.00  0.00    -0.246 OA
BRANCH   5   7
ATOM      7  C   UNL     1       2.802   2.511   2.511  1.00  0.00     0.060 A 
ATOM      8  C   UNL     1       1.932   1.450   2.775  1.00  0.00     0.016 A 
ATOM      9  C   UNL     1       2.454   3.783   2.995  1.00  0.00     0.016 A 
ATOM     10  C   UNL     1       0.766   1.623   3.493  1.00  0.00     0.010 A 
ATOM     11  C   UNL     1       1.276   3.975   3.717  1.00  0.00     0.010 A 
ATOM     12  C   UNL     1       0.436   2.885   3.960  1.00  0.00    -0.014 A 
BRANCH  12  13
ATOM     13  C   UNL     1      -0.889   3.037   4.561  1.00  0.00     0.031 A 
ATOM     14  C   UNL     1      -1.982   3.551   3.687  1.00  0.00     0.074 A 
ATOM     15  C   UNL     1      -1.105   2.573   5.801  1.00  0.00     0.049 A 
ATOM     16  N   UNL     1      -3.215   3.843   3.988  1.00  0.00    -0.248 NA
ATOM     17  C   UNL     1      -1.637   3.751   2.268  1.00  0.00     0.031 C 
ATOM     18  C   UNL     1      -0.103   1.905   6.635  1.00  0.00     0.029 A 
ATOM     19  N   UNL     1      -2.236   2.573   6.565  1.00  0.00    -0.354 N 
ATOM     20  C   UNL     1      -3.782   4.298   2.808  1.00  0.00     0.074 A 
ATOM     21  C   UNL     1      -2.766   4.238   1.783  1.00  0.00     0.031 C 
ATOM     22  C   UNL     1      -0.665   1.571   7.806  1.00  0.00     0.029 A 
ATOM     23  C   UNL     1      -2.036   2.068   7.825  1.00  0.00     0.049 A 
ATOM     24  H   UNL     1      -3.107   2.901   6.245  1.00  0.00     0.167 HD
ATOM     25  C   UNL     1      -5.044   4.745   2.623  1.00  0.00     0.037 A 
ATOM     26  C   UNL     1      -2.865   2.074   8.883  1.00  0.00     0.037 A 
ATOM     27  C   UNL     1      -6.008   4.791   3.687  1.00  0.00     0.049 A 
ATOM     28  C   UNL     1      -4.231   2.674   8.686  1.00  0.00     0.074 A 
ATOM     29  C   UNL     1      -7.301   5.273   3.669  1.00  0.00     0.029 A 
ATOM     30  N   UNL     1      -5.763   4.333   4.979  1.00  0.00    -0.354 N 
ATOM     31  N   UNL     1      -4.758   3.182   7.595  1.00  0.00    -0.248 NA
ATOM     32  C   UNL     1      -5.112   2.720   9.857  1.00  0.00     0.031 C 
ATOM     33  C   UNL     1      -7.816   5.163   4.966  1.00  0.00     0.029 A 
ATOM     34  C   UNL     1      -6.870   4.550   5.777  1.00  0.00     0.049 A 
ATOM     35  H   UNL     1      -4.923   3.917   5.280  1.00  0.00     0.167 HD
ATOM     36  C   UNL     1      -6.036   3.594   7.938  1.00  0.00     0.074 A 
ATOM     37  C   UNL     1      -6.207   3.263   9.341  1.00  0.00     0.031 C 
ATOM     38  C   UNL     1      -6.984   4.192   7.172  1.00  0.00     0.037 A 
BRANCH  25  39
ATOM     39  C   UNL     1      -5.370   5.310   1.272  1.00  0.00     0.064 A 
ATOM     40  C   UNL     1      -5.440   4.512   0.119  1.00  0.00     0.173 A 
ATOM     41  C   UNL     1      -5.528   6.696   1.117  1.00  0.00     0.173 A 
ATOM     42  F   UNL     1      -5.261   3.185   0.204  1.00  0.00    -0.203 F 
ATOM     43  C   UNL     1      -5.604   5.086  -1.141  1.00  0.00     0.198 A 
ATOM     44  C   UNL     1      -5.726   7.262  -0.139  1.00  0.00     0.198 A 
ATOM     45  F   UNL     1      -5.459   7.508   2.183  1.00  0.00    -0.203 F 
ATOM     46  F   UNL     1      -5.579   4.313  -2.236  1.00  0.00    -0.200 F 
ATOM     47  C   UNL     1      -5.748   6.459  -1.268  1.00  0.00     0.200 A 
ATOM     48  F   UNL     1      -5.866   8.590  -0.259  1.00  0.00    -0.200 F 
ATOM     49  F   UNL     1      -5.886   7.011  -2.482  1.00  0.00    -0.200 F 
ENDBRANCH  25  39
BRANCH  26  50
ATOM     50  C   UNL     1      -2.389   1.574  10.199  1.00  0.00     0.064 A 
ATOM     51  C   UNL     1      -2.941   0.434  10.796  1.00  0.00     0.173 A 
ATOM     52  C   UNL     1      -1.341   2.219  10.878  1.00  0.00     0.173 A 
ATOM     53  F   UNL     1      -3.956  -0.209  10.201  1.00  0.00    -0.203 F 
ATOM     54  C   UNL     1      -2.467  -0.039  12.021  1.00  0.00     0.198 A 
ATOM     55  C   UNL     1      -0.848   1.728  12.086  1.00  0.00     0.198 A 
ATOM     56  F   UNL     1      -0.774   3.316  10.354  1.00  0.00    -0.203 F 
ATOM     57  F   UNL     1      -3.035  -1.112  12.587  1.00  0.00    -0.200 F 
ATOM     58  C   UNL     1      -1.416   0.603  12.660  1.00  0.00     0.200 A 
ATOM     59  F   UNL     1       0.179   2.344  12.688  1.00  0.00    -0.200 F 
ATOM     60  F   UNL     1      -0.955   0.141  13.830  1.00  0.00    -0.200 F 
ENDBRANCH  26  50
BRANCH  38  61
ATOM     61  C   UNL     1      -8.296   4.490   7.832  1.00  0.00     0.064 A 
ATOM     62  C   UNL     1      -8.434   5.540   8.750  1.00  0.00     0.173 A 
ATOM     63  C   UNL     1      -9.442   3.769   7.469  1.00  0.00     0.173 A 
ATOM     64  F   UNL     1      -7.361   6.246   9.137  1.00  0.00    -0.203 F 
ATOM     65  C   UNL     1      -9.677   5.849   9.292  1.00  0.00     0.198 A 
ATOM     66  C   UNL     1     -10.688   4.103   7.987  1.00  0.00     0.198 A 
ATOM     67  F   UNL     1      -9.357   2.761   6.586  1.00  0.00    -0.203 F 
ATOM     68  F   UNL     1      -9.785   6.833  10.194  1.00  0.00    -0.200 F 
ATOM     69  C   UNL     1     -10.803   5.140   8.900  1.00  0.00     0.200 A 
ATOM     70  F   UNL     1     -11.777   3.429   7.593  1.00  0.00    -0.200 F 
ATOM     71  F   UNL     1     -12.004   5.455   9.406  1.00  0.00    -0.200 F 
ENDBRANCH  38  61
ENDBRANCH  12  13
ENDBRANCH   5   7
ENDBRANCH   4   5
ENDBRANCH   3   4
ENDBRANCH   2   3
ENDBRANCH   1   2
BRANCH   1  72
ATOM     72  C   UNL     1       4.868  -0.122   3.690  1.00  0.00     0.202 C 
BRANCH  72  73
ATOM     73  C   UNL     1       5.194  -1.079   4.834  1.00  0.00     0.261 C 
BRANCH  73  74
ATOM     74  O   UNL     1       5.710  -2.269   4.234  1.00  0.00    -0.463 OA
BRANCH  74  75
ATOM     75  C   UNL     1       4.778  -3.205   3.889  1.00  0.00     0.310 C 
ATOM     76  O   UNL     1       3.687  -3.353   4.421  1.00  0.00    -0.252 OA
BRANCH  75  77
ATOM     77  C   UNL     1       5.256  -3.914   2.640  1.00  0.00     0.115 C 
ATOM     78  C   UNL     1       6.789  -4.139   2.623  1.00  0.00     0.004 C 
ATOM     79  C   UNL     1       4.652  -5.321   2.432  1.00  0.00     0.096 C 
ATOM     80  C   UNL     1       7.262  -4.850   3.891  1.00  0.00     0.005 C 
ATOM     81  C   UNL     1       6.914  -5.266   1.615  1.00  0.00     0.009 C 
ATOM     82  C   UNL     1       5.930  -6.175   2.357  1.00  0.00     0.003 C 
ATOM     83  C   UNL     1       6.575  -6.215   3.770  1.00  0.00     0.005 C 
BRANCH  79  84
ATOM     84  C   UNL     1       3.627  -5.241   1.271  1.00  0.00     0.226 C 
ATOM     85  O   UNL     1       2.459  -4.946   1.554  1.00  0.00    -0.275 OA
ATOM     86  N   UNL     1       4.025  -5.224  -0.054  1.00  0.00    -0.339 N 
ATOM     87  C   UNL     1       3.191  -4.486  -1.024  1.00  0.00     0.141 C 
ATOM     88  C   UNL     1       4.822  -6.275  -0.698  1.00  0.00     0.141 C 
ATOM     89  C   UNL     1       4.031  -3.903  -2.186  1.00  0.00     0.138 C 
ATOM     90  C   UNL     1       5.691  -5.721  -1.840  1.00  0.00     0.138 C 
ATOM     91  N   UNL     1       4.857  -4.962  -2.785  1.00  0.00    -0.368 N 
BRANCH  91  92
ATOM     92  C   UNL     1       5.332  -4.880  -4.083  1.00  0.00     0.038 A 
ATOM     93  C   UNL     1       5.434  -6.060  -4.839  1.00  0.00     0.026 A 
ATOM     94  C   UNL     1       5.740  -3.684  -4.681  1.00  0.00     0.046 A 
ATOM     95  C   UNL     1       5.931  -6.059  -6.142  1.00  0.00     0.004 A 
ATOM     96  C   UNL     1       6.251  -3.683  -5.984  1.00  0.00     0.043 A 
ATOM     97  C   UNL     1       6.347  -4.864  -6.716  1.00  0.00     0.020 A 
ATOM     98  Cl  UNL     1       6.787  -2.206  -6.690  1.00  0.00    -0.084 Cl
ENDBRANCH  91  92
ENDBRANCH  79  84
ENDBRANCH  75  77
ENDBRANCH  74  75
ENDBRANCH  73  74
ENDBRANCH  72  73
ENDBRANCH   1  72
TORSDOF 16
