REMARK SMILES C[C@@H](C(=O)OCCOCCOC(=O)c1ccc(-c2c3nc(c(-c4c(F)c(F)c(F)c(F)c4F)c4ccc([nH]4)c(-c4c(F)c(F)c(F)c(F)c4F)c4nc(c(-c5c(F)c(F)c(F)c(F)c5F)c5ccc2[nH]5)C=C4)C=C3)cc1)c1ccc2c(c1)[nH]c1ccc(Cl)cc12
REMARK SMILES IDX 9 1 8 2 7 3 6 4 5 5 3 6 4 7 2 8 1 9 77 10 78 11 82 12 79 13
REMARK SMILES IDX 81 14 80 15 83 16 90 17 84 18 89 20 85 21 87 22 86 23 88 24
REMARK SMILES IDX 10 25 11 26 12 27 13 28 14 29 15 30 76 31 16 32 75 33 17 34
REMARK SMILES IDX 18 35 19 36 69 37 20 38 74 39 68 40 70 41 21 42 73 43 67 44
REMARK SMILES IDX 66 45 22 47 54 48 34 49 53 50 35 51 38 52 52 53 71 54 36 55
REMARK SMILES IDX 37 56 51 58 72 59 39 60 23 61 24 62 32 63 25 64 26 65 30 66
REMARK SMILES IDX 33 67 27 68 28 69 31 70 29 71 55 72 56 73 64 74 57 75 58 76
REMARK SMILES IDX 62 77 65 78 59 79 60 80 63 81 61 82 40 83 41 84 49 85 42 86
REMARK SMILES IDX 43 87 47 88 50 89 44 90 45 91 48 92 46 93
REMARK H PARENT 83 19 70 46 38 57
REMARK Flexibility Score: inf
ROOT
ATOM      1  C   UNL     1       0.566  -1.683  -3.164  1.00  0.00     0.202 C 
ENDROOT
BRANCH   1   2
ATOM      2  O   UNL     1       1.079  -1.305  -4.441  1.00  0.00    -0.374 OA
BRANCH   2   3
ATOM      3  C   UNL     1       2.292  -0.548  -4.451  1.00  0.00     0.202 C 
BRANCH   3   4
ATOM      4  C   UNL     1       2.143   0.932  -4.087  1.00  0.00     0.261 C 
BRANCH   4   5
ATOM      5  O   UNL     1       1.819   1.058  -2.690  1.00  0.00    -0.463 OA
BRANCH   5   6
ATOM      6  C   UNL     1       0.750   1.845  -2.390  1.00  0.00     0.313 C 
ATOM      7  O   UNL     1       0.202   2.594  -3.190  1.00  0.00    -0.252 OA
BRANCH   6   8
ATOM      8  C   UNL     1       0.283   1.667  -0.939  1.00  0.00     0.126 C 
ATOM      9  C   UNL     1       1.278   0.894  -0.060  1.00  0.00     0.025 C 
BRANCH   8  10
ATOM     10  C   UNL     1      -1.153   1.138  -0.877  1.00  0.00    -0.032 A 
ATOM     11  C   UNL     1      -2.196   2.005  -1.243  1.00  0.00     0.005 A 
ATOM     12  C   UNL     1      -1.471  -0.173  -0.475  1.00  0.00     0.031 A 
ATOM     13  C   UNL     1      -3.539   1.606  -1.205  1.00  0.00     0.011 A 
ATOM     14  C   UNL     1      -2.823  -0.550  -0.421  1.00  0.00     0.047 A 
ATOM     15  C   UNL     1      -3.862   0.307  -0.772  1.00  0.00     0.007 A 
ATOM     16  N   UNL     1      -3.399  -1.738  -0.031  1.00  0.00    -0.355 N 
ATOM     17  C   UNL     1      -5.092  -0.395  -0.565  1.00  0.00     0.009 A 
ATOM     18  C   UNL     1      -4.772  -1.656  -0.063  1.00  0.00     0.047 A 
ATOM     19  H   UNL     1      -2.895  -2.540   0.236  1.00  0.00     0.167 HD
ATOM     20  C   UNL     1      -6.452  -0.059  -0.729  1.00  0.00     0.031 A 
ATOM     21  C   UNL     1      -5.741  -2.592   0.317  1.00  0.00     0.028 A 
ATOM     22  C   UNL     1      -7.430  -0.985  -0.354  1.00  0.00     0.041 A 
ATOM     23  C   UNL     1      -7.083  -2.228   0.170  1.00  0.00     0.022 A 
ATOM     24  Cl  UNL     1      -9.094  -0.575  -0.532  1.00  0.00    -0.084 Cl
ENDBRANCH   8  10
ENDBRANCH   6   8
ENDBRANCH   5   6
ENDBRANCH   4   5
ENDBRANCH   3   4
ENDBRANCH   2   3
ENDBRANCH   1   2
BRANCH   1  25
ATOM     25  C   UNL     1       1.176  -2.949  -2.555  1.00  0.00     0.261 C 
BRANCH  25  26
ATOM     26  O   UNL     1       2.587  -2.803  -2.309  1.00  0.00    -0.460 OA
BRANCH  26  27
ATOM     27  C   UNL     1       3.378  -3.515  -3.143  1.00  0.00     0.338 C 
ATOM     28  O   UNL     1       3.026  -4.337  -3.980  1.00  0.00    -0.246 OA
BRANCH  27  29
ATOM     29  C   UNL     1       4.777  -3.061  -3.038  1.00  0.00     0.060 A 
ATOM     30  C   UNL     1       5.439  -2.747  -4.231  1.00  0.00     0.016 A 
ATOM     31  C   UNL     1       5.455  -3.018  -1.818  1.00  0.00     0.016 A 
ATOM     32  C   UNL     1       6.799  -2.445  -4.217  1.00  0.00     0.010 A 
ATOM     33  C   UNL     1       6.824  -2.720  -1.806  1.00  0.00     0.010 A 
ATOM     34  C   UNL     1       7.508  -2.470  -3.010  1.00  0.00    -0.014 A 
BRANCH  34  35
ATOM     35  C   UNL     1       8.989  -2.387  -3.037  1.00  0.00     0.031 A 
ATOM     36  C   UNL     1       9.793  -3.655  -2.951  1.00  0.00     0.074 A 
ATOM     37  C   UNL     1       9.610  -1.204  -3.185  1.00  0.00     0.049 A 
ATOM     38  N   UNL     1      11.092  -3.819  -2.948  1.00  0.00    -0.248 NA
ATOM     39  C   UNL     1       9.029  -4.909  -2.855  1.00  0.00     0.031 C 
ATOM     40  C   UNL     1       8.941   0.088  -3.320  1.00  0.00     0.029 A 
ATOM     41  N   UNL     1      10.947  -0.900  -3.244  1.00  0.00    -0.354 N 
ATOM     42  C   UNL     1      11.299  -5.189  -2.850  1.00  0.00     0.074 A 
ATOM     43  C   UNL     1       9.995  -5.810  -2.761  1.00  0.00     0.031 C 
ATOM     44  C   UNL     1       9.873   1.050  -3.438  1.00  0.00     0.029 A 
ATOM     45  C   UNL     1      11.201   0.444  -3.359  1.00  0.00     0.049 A 
ATOM     46  H   UNL     1      11.657  -1.581  -3.208  1.00  0.00     0.167 HD
ATOM     47  C   UNL     1      12.471  -5.868  -2.847  1.00  0.00     0.037 A 
ATOM     48  C   UNL     1      12.373   1.109  -3.380  1.00  0.00     0.037 A 
ATOM     49  C   UNL     1      13.767  -5.250  -2.938  1.00  0.00     0.049 A 
ATOM     50  C   UNL     1      13.664   0.335  -3.306  1.00  0.00     0.074 A 
ATOM     51  C   UNL     1      15.013  -5.854  -2.956  1.00  0.00     0.029 A 
ATOM     52  N   UNL     1      13.985  -3.882  -3.019  1.00  0.00    -0.354 N 
ATOM     53  N   UNL     1      13.850  -0.961  -3.236  1.00  0.00    -0.248 NA
ATOM     54  C   UNL     1      14.908   1.118  -3.318  1.00  0.00     0.031 C 
ATOM     55  C   UNL     1      15.985  -4.849  -3.001  1.00  0.00     0.029 A 
ATOM     56  C   UNL     1      15.345  -3.622  -3.062  1.00  0.00     0.049 A 
ATOM     57  H   UNL     1      13.277  -3.198  -3.042  1.00  0.00     0.167 HD
ATOM     58  C   UNL     1      15.226  -1.150  -3.224  1.00  0.00     0.074 A 
ATOM     59  C   UNL     1      15.829   0.164  -3.306  1.00  0.00     0.031 C 
ATOM     60  C   UNL     1      15.928  -2.308  -3.151  1.00  0.00     0.037 A 
BRANCH  47  61
ATOM     61  C   UNL     1      12.405  -7.362  -2.720  1.00  0.00     0.064 A 
ATOM     62  C   UNL     1      11.954  -8.172  -3.772  1.00  0.00     0.173 A 
ATOM     63  C   UNL     1      12.830  -7.993  -1.541  1.00  0.00     0.173 A 
ATOM     64  F   UNL     1      11.523  -7.616  -4.915  1.00  0.00    -0.203 F 
ATOM     65  C   UNL     1      11.909  -9.558  -3.641  1.00  0.00     0.198 A 
ATOM     66  C   UNL     1      12.809  -9.380  -1.423  1.00  0.00     0.198 A 
ATOM     67  F   UNL     1      13.273  -7.264  -0.505  1.00  0.00    -0.203 F 
ATOM     68  F   UNL     1      11.433 -10.309  -4.644  1.00  0.00    -0.200 F 
ATOM     69  C   UNL     1      12.343 -10.161  -2.470  1.00  0.00     0.200 A 
ATOM     70  F   UNL     1      13.239  -9.962  -0.295  1.00  0.00    -0.200 F 
ATOM     71  F   UNL     1      12.305 -11.495  -2.347  1.00  0.00    -0.200 F 
ENDBRANCH  47  61
BRANCH  48  72
ATOM     72  C   UNL     1      12.381   2.592  -3.463  1.00  0.00     0.064 A 
ATOM     73  C   UNL     1      12.848   3.252  -4.608  1.00  0.00     0.173 A 
ATOM     74  C   UNL     1      11.938   3.381  -2.391  1.00  0.00     0.173 A 
ATOM     75  F   UNL     1      13.307   2.542  -5.649  1.00  0.00    -0.203 F 
ATOM     76  C   UNL     1      12.886   4.644  -4.671  1.00  0.00     0.198 A 
ATOM     77  C   UNL     1      11.950   4.771  -2.466  1.00  0.00     0.198 A 
ATOM     78  F   UNL     1      11.484   2.798  -1.272  1.00  0.00    -0.203 F 
ATOM     79  F   UNL     1      13.379   5.249  -5.760  1.00  0.00    -0.200 F 
ATOM     80  C   UNL     1      12.431   5.402  -3.603  1.00  0.00     0.200 A 
ATOM     81  F   UNL     1      11.499   5.500  -1.435  1.00  0.00    -0.200 F 
ATOM     82  F   UNL     1      12.465   6.740  -3.666  1.00  0.00    -0.200 F 
ENDBRANCH  48  72
BRANCH  60  83
ATOM     83  C   UNL     1      17.426  -2.211  -3.192  1.00  0.00     0.064 A 
ATOM     84  C   UNL     1      18.163  -1.723  -2.103  1.00  0.00     0.173 A 
ATOM     85  C   UNL     1      18.135  -2.654  -4.319  1.00  0.00     0.173 A 
ATOM     86  F   UNL     1      17.531  -1.275  -1.008  1.00  0.00    -0.203 F 
ATOM     87  C   UNL     1      19.553  -1.660  -2.151  1.00  0.00     0.198 A 
ATOM     88  C   UNL     1      19.526  -2.616  -4.352  1.00  0.00     0.198 A 
ATOM     89  F   UNL     1      17.478  -3.137  -5.385  1.00  0.00    -0.203 F 
ATOM     90  F   UNL     1      20.234  -1.148  -1.116  1.00  0.00    -0.200 F 
ATOM     91  C   UNL     1      20.234  -2.113  -3.271  1.00  0.00     0.200 A 
ATOM     92  F   UNL     1      20.183  -3.067  -5.430  1.00  0.00    -0.200 F 
ATOM     93  F   UNL     1      21.572  -2.058  -3.312  1.00  0.00    -0.200 F 
ENDBRANCH  60  83
ENDBRANCH  34  35
ENDBRANCH  27  29
ENDBRANCH  26  27
ENDBRANCH  25  26
ENDBRANCH   1  25
TORSDOF 15
