REMARK SMILES CCNC(=O)C[NH2+][C@@H](C)[C@@H](C)C(=O)OCCOCCOC(=O)c1ccc(-c2c3nc(c(-c4c(F)c(F)c(F)c(F)c4F)c4ccc([nH]4)c(-c4c(F)c(F)c(F)c(F)c4F)c4nc(c(-c5c(F)c(F)c(F)c(F)c5F)c5ccc2[nH]5)C=C4)C=C3)cc1
REMARK SMILES IDX 15 1 14 2 12 3 13 4 10 5 11 6 8 7 9 8 7 9 6 12 4 13 3 14
REMARK SMILES IDX 5 16 2 17 1 18 16 19 17 20 18 21 19 22 20 23 21 24 22 25
REMARK SMILES IDX 23 26 24 27 85 28 25 29 84 30 26 31 27 32 28 33 78 34 29 35
REMARK SMILES IDX 83 36 77 37 79 38 30 39 82 40 76 41 75 42 31 44 63 45 43 46
REMARK SMILES IDX 62 47 44 48 47 49 61 50 80 51 45 52 46 53 60 55 81 56 48 57
REMARK SMILES IDX 32 58 33 59 41 60 34 61 35 62 39 63 42 64 36 65 37 66 40 67
REMARK SMILES IDX 38 68 64 69 65 70 73 71 66 72 67 73 71 74 74 75 68 76 69 77
REMARK SMILES IDX 72 78 70 79 49 80 50 81 58 82 51 83 52 84 56 85 59 86 53 87
REMARK SMILES IDX 54 88 57 89 55 90
REMARK H PARENT 7 10 7 11 3 15 79 43 47 54
REMARK Flexibility Score: inf
ROOT
ATOM      1  C   UNL     1      -6.607  -0.066  -0.998  1.00  0.00     0.261 C 
ENDROOT
BRANCH   1   2
ATOM      2  O   UNL     1      -5.328   0.313  -0.446  1.00  0.00    -0.463 OA
BRANCH   2   3
ATOM      3  C   UNL     1      -4.513   0.983  -1.302  1.00  0.00     0.314 C 
ATOM      4  O   UNL     1      -4.843   1.355  -2.423  1.00  0.00    -0.252 OA
BRANCH   3   5
ATOM      5  C   UNL     1      -3.090   1.156  -0.799  1.00  0.00     0.154 C 
ATOM      6  C   UNL     1      -2.298  -0.059  -1.294  1.00  0.00     0.026 C 
BRANCH   5   7
ATOM      7  C   UNL     1      -2.868   1.418   0.715  1.00  0.00     0.193 C 
ATOM      8  C   UNL     1      -3.806   2.484   1.278  1.00  0.00     0.076 C 
BRANCH   7   9
ATOM      9  N   UNL     1      -1.456   1.818   0.898  1.00  0.00    -0.336 N 
ATOM     10  H   UNL     1      -0.865   1.120   0.448  1.00  0.00     0.346 HD
ATOM     11  H   UNL     1      -1.360   2.746   0.485  1.00  0.00     0.346 HD
BRANCH   9  12
ATOM     12  C   UNL     1      -1.037   1.938   2.304  1.00  0.00     0.362 C 
BRANCH  12  13
ATOM     13  C   UNL     1       0.476   2.159   2.388  1.00  0.00     0.275 C 
ATOM     14  N   UNL     1       1.323   1.130   2.091  1.00  0.00    -0.351 N 
ATOM     15  H   UNL     1       2.277   1.287   2.278  1.00  0.00     0.163 HD
ATOM     16  O   UNL     1       0.949   3.242   2.738  1.00  0.00    -0.269 OA
BRANCH  14  17
ATOM     17  C   UNL     1       0.989  -0.167   1.536  1.00  0.00     0.112 C 
ATOM     18  C   UNL     1       1.351  -0.227   0.063  1.00  0.00     0.027 C 
ENDBRANCH  14  17
ENDBRANCH  12  13
ENDBRANCH   9  12
ENDBRANCH   7   9
ENDBRANCH   5   7
ENDBRANCH   3   5
ENDBRANCH   2   3
ENDBRANCH   1   2
BRANCH   1  19
ATOM     19  C   UNL     1      -7.794   0.714  -0.422  1.00  0.00     0.202 C 
BRANCH  19  20
ATOM     20  O   UNL     1      -7.910   2.087  -0.785  1.00  0.00    -0.374 OA
BRANCH  20  21
ATOM     21  C   UNL     1      -7.043   3.015  -0.138  1.00  0.00     0.202 C 
BRANCH  21  22
ATOM     22  C   UNL     1      -7.381   3.333   1.326  1.00  0.00     0.261 C 
BRANCH  22  23
ATOM     23  O   UNL     1      -7.263   2.169   2.168  1.00  0.00    -0.460 OA
BRANCH  23  24
ATOM     24  C   UNL     1      -8.364   1.899   2.904  1.00  0.00     0.338 C 
ATOM     25  O   UNL     1      -9.339   2.622   3.069  1.00  0.00    -0.246 OA
BRANCH  24  26
ATOM     26  C   UNL     1      -8.354   0.502   3.376  1.00  0.00     0.060 A 
ATOM     27  C   UNL     1      -9.458  -0.285   3.030  1.00  0.00     0.016 A 
ATOM     28  C   UNL     1      -7.377   0.010   4.246  1.00  0.00     0.016 A 
ATOM     29  C   UNL     1      -9.650  -1.521   3.638  1.00  0.00     0.010 A 
ATOM     30  C   UNL     1      -7.571  -1.240   4.855  1.00  0.00     0.010 A 
ATOM     31  C   UNL     1      -8.745  -1.975   4.607  1.00  0.00    -0.014 A 
BRANCH  31  32
ATOM     32  C   UNL     1      -9.186  -3.081   5.500  1.00  0.00     0.031 A 
ATOM     33  C   UNL     1      -9.768  -2.734   6.846  1.00  0.00     0.074 A 
ATOM     34  C   UNL     1      -9.205  -4.357   5.076  1.00  0.00     0.049 A 
ATOM     35  N   UNL     1     -10.377  -3.502   7.716  1.00  0.00    -0.248 NA
ATOM     36  C   UNL     1      -9.658  -1.328   7.265  1.00  0.00     0.031 C 
ATOM     37  C   UNL     1      -8.711  -4.824   3.784  1.00  0.00     0.029 A 
ATOM     38  N   UNL     1      -9.694  -5.488   5.682  1.00  0.00    -0.354 N 
ATOM     39  C   UNL     1     -10.724  -2.672   8.775  1.00  0.00     0.074 A 
ATOM     40  C   UNL     1     -10.218  -1.354   8.463  1.00  0.00     0.031 C 
ATOM     41  C   UNL     1      -8.949  -6.143   3.680  1.00  0.00     0.029 A 
ATOM     42  C   UNL     1      -9.601  -6.613   4.902  1.00  0.00     0.049 A 
ATOM     43  H   UNL     1     -10.073  -5.492   6.591  1.00  0.00     0.167 HD
ATOM     44  C   UNL     1     -11.421  -2.970   9.898  1.00  0.00     0.037 A 
ATOM     45  C   UNL     1     -10.014  -7.874   5.139  1.00  0.00     0.037 A 
ATOM     46  C   UNL     1     -11.936  -4.276  10.214  1.00  0.00     0.049 A 
ATOM     47  C   UNL     1     -10.737  -8.196   6.421  1.00  0.00     0.074 A 
ATOM     48  C   UNL     1     -12.670  -4.672  11.318  1.00  0.00     0.029 A 
ATOM     49  N   UNL     1     -11.761  -5.403   9.425  1.00  0.00    -0.354 N 
ATOM     50  N   UNL     1     -11.100  -7.396   7.394  1.00  0.00    -0.248 NA
ATOM     51  C   UNL     1     -11.120  -9.601   6.628  1.00  0.00     0.031 C 
ATOM     52  C   UNL     1     -12.899  -6.050  11.220  1.00  0.00     0.029 A 
ATOM     53  C   UNL     1     -12.352  -6.501  10.030  1.00  0.00     0.049 A 
ATOM     54  H   UNL     1     -11.288  -5.420   8.562  1.00  0.00     0.167 HD
ATOM     55  C   UNL     1     -11.786  -8.189   8.306  1.00  0.00     0.074 A 
ATOM     56  C   UNL     1     -11.792  -9.533   7.768  1.00  0.00     0.031 C 
ATOM     57  C   UNL     1     -12.365  -7.832   9.480  1.00  0.00     0.037 A 
BRANCH  44  58
ATOM     58  C   UNL     1     -11.642  -1.857  10.881  1.00  0.00     0.064 A 
ATOM     59  C   UNL     1     -12.518  -0.795  10.610  1.00  0.00     0.173 A 
ATOM     60  C   UNL     1     -10.961  -1.851  12.108  1.00  0.00     0.173 A 
ATOM     61  F   UNL     1     -13.179  -0.746   9.444  1.00  0.00    -0.203 F 
ATOM     62  C   UNL     1     -12.675   0.252  11.515  1.00  0.00     0.198 A 
ATOM     63  C   UNL     1     -11.144  -0.818  13.023  1.00  0.00     0.198 A 
ATOM     64  F   UNL     1     -10.115  -2.845  12.417  1.00  0.00    -0.203 F 
ATOM     65  F   UNL     1     -13.470   1.287  11.209  1.00  0.00    -0.200 F 
ATOM     66  C   UNL     1     -11.992   0.238  12.722  1.00  0.00     0.200 A 
ATOM     67  F   UNL     1     -10.490  -0.838  14.192  1.00  0.00    -0.200 F 
ATOM     68  F   UNL     1     -12.140   1.248  13.590  1.00  0.00    -0.200 F 
ENDBRANCH  44  58
BRANCH  45  69
ATOM     69  C   UNL     1      -9.794  -8.928   4.115  1.00  0.00     0.064 A 
ATOM     70  C   UNL     1     -10.867  -9.470   3.395  1.00  0.00     0.173 A 
ATOM     71  C   UNL     1      -8.509  -9.420   3.844  1.00  0.00     0.173 A 
ATOM     72  F   UNL     1     -12.117  -9.050   3.639  1.00  0.00    -0.203 F 
ATOM     73  C   UNL     1     -10.666 -10.474   2.450  1.00  0.00     0.198 A 
ATOM     74  C   UNL     1      -8.306 -10.407   2.881  1.00  0.00     0.198 A 
ATOM     75  F   UNL     1      -7.451  -8.936   4.509  1.00  0.00    -0.203 F 
ATOM     76  F   UNL     1     -11.713 -11.002   1.803  1.00  0.00    -0.200 F 
ATOM     77  C   UNL     1      -9.385 -10.937   2.189  1.00  0.00     0.200 A 
ATOM     78  F   UNL     1      -7.066 -10.845   2.627  1.00  0.00    -0.200 F 
ATOM     79  F   UNL     1      -9.190 -11.899   1.277  1.00  0.00    -0.200 F 
ENDBRANCH  45  69
BRANCH  57  80
ATOM     80  C   UNL     1     -13.098  -8.899  10.242  1.00  0.00     0.064 A 
ATOM     81  C   UNL     1     -12.422  -9.934  10.903  1.00  0.00     0.173 A 
ATOM     82  C   UNL     1     -14.498  -8.867  10.334  1.00  0.00     0.173 A 
ATOM     83  F   UNL     1     -11.085 -10.018  10.836  1.00  0.00    -0.203 F 
ATOM     84  C   UNL     1     -13.122 -10.915  11.602  1.00  0.00     0.198 A 
ATOM     85  C   UNL     1     -15.193  -9.832  11.058  1.00  0.00     0.198 A 
ATOM     86  F   UNL     1     -15.194  -7.893   9.727  1.00  0.00    -0.203 F 
ATOM     87  F   UNL     1     -12.457 -11.924  12.183  1.00  0.00    -0.200 F 
ATOM     88  C   UNL     1     -14.505 -10.860  11.684  1.00  0.00     0.200 A 
ATOM     89  F   UNL     1     -16.529  -9.769  11.146  1.00  0.00    -0.200 F 
ATOM     90  F   UNL     1     -15.176 -11.803  12.358  1.00  0.00    -0.200 F 
ENDBRANCH  57  80
ENDBRANCH  31  32
ENDBRANCH  24  26
ENDBRANCH  23  24
ENDBRANCH  22  23
ENDBRANCH  21  22
ENDBRANCH  20  21
ENDBRANCH  19  20
ENDBRANCH   1  19
TORSDOF 19
