REMARK SMILES Cc1cc(Br)c(C)c([C@@H]2[NH2+][C@H](C(=O)OCCOCCOC(=O)c3ccc(-c4c5nc(c(-c6c(F)c(F)c(F)c(F)c6F)c6ccc([nH]6)c(-c6c(F)c(F)c(F)c(F)c6F)c6nc(c(-c7c(F)c(F)c(F)c(F)c7F)c7ccc4[nH]7)C=C6)C=C5)cc3)CS2)c1O
REMARK SMILES IDX 17 1 16 2 15 3 14 4 12 5 13 6 11 7 9 8 10 9 87 10 86 13 8 14
REMARK SMILES IDX 1 15 2 16 3 17 88 18 4 19 5 20 6 21 7 22 89 23 18 25 19 26
REMARK SMILES IDX 20 27 21 28 22 29 23 30 24 31 85 32 25 33 84 34 26 35 27 36
REMARK SMILES IDX 28 37 78 38 29 39 83 40 77 41 79 42 30 43 82 44 76 45 75 46
REMARK SMILES IDX 31 48 63 49 43 50 62 51 44 52 47 53 61 54 80 55 45 56 46 57
REMARK SMILES IDX 60 59 81 60 48 61 32 62 33 63 41 64 34 65 35 66 39 67 42 68
REMARK SMILES IDX 36 69 37 70 40 71 38 72 64 73 65 74 73 75 66 76 67 77 71 78
REMARK SMILES IDX 74 79 68 80 69 81 72 82 70 83 49 84 50 85 58 86 51 87 52 88
REMARK SMILES IDX 56 89 59 90 53 91 54 92 57 93 55 94
REMARK H PARENT 10 11 10 12 89 24 79 47 47 58
REMARK Flexibility Score: inf
ROOT
ATOM      1  O   UNL     1       5.604   2.262  -1.821  1.00  0.00    -0.374 OA
ENDROOT
BRANCH   1   2
ATOM      2  C   UNL     1       4.809   1.438  -0.969  1.00  0.00     0.202 C 
BRANCH   2   3
ATOM      3  C   UNL     1       3.742   2.173  -0.156  1.00  0.00     0.261 C 
BRANCH   3   4
ATOM      4  O   UNL     1       2.763   2.744  -1.035  1.00  0.00    -0.459 OA
BRANCH   4   5
ATOM      5  C   UNL     1       2.342   4.004  -0.742  1.00  0.00     0.365 C 
ATOM      6  O   UNL     1       2.603   4.580   0.310  1.00  0.00    -0.245 OA
BRANCH   5   7
ATOM      7  C   UNL     1       1.553   4.674  -1.878  1.00  0.00     0.304 C 
ATOM      8  C   UNL     1      -0.098   3.452  -3.166  1.00  0.00     0.278 C 
ATOM      9  N   UNL     1       1.323   3.814  -3.078  1.00  0.00    -0.319 N 
ATOM     10  S   UNL     1      -1.094   4.697  -2.337  1.00  0.00    -0.087 SA
ATOM     11  H   UNL     1       1.595   4.325  -3.918  1.00  0.00     0.348 HD
ATOM     12  H   UNL     1       1.883   2.966  -2.996  1.00  0.00     0.348 HD
ATOM     13  C   UNL     1       0.272   5.304  -1.332  1.00  0.00     0.153 C 
BRANCH   8  14
ATOM     14  C   UNL     1      -0.394   1.997  -2.813  1.00  0.00     0.066 A 
ATOM     15  C   UNL     1      -0.214  -0.299   0.281  1.00  0.00     0.048 C 
ATOM     16  C   UNL     1      -0.480   0.201  -1.109  1.00  0.00    -0.008 A 
ATOM     17  C   UNL     1      -0.938  -0.685  -2.081  1.00  0.00     0.023 A 
ATOM     18  C   UNL     1      -0.258   1.533  -1.482  1.00  0.00     0.128 A 
ATOM     19  C   UNL     1      -1.128  -0.261  -3.396  1.00  0.00     0.021 A 
ATOM     20  Br  UNL     1      -1.918  -1.529  -4.585  1.00  0.00    -0.051 Br
ATOM     21  C   UNL     1      -0.791   1.049  -3.805  1.00  0.00    -0.023 A 
ATOM     22  C   UNL     1      -0.892   1.376  -5.278  1.00  0.00     0.046 C 
BRANCH  18  23
ATOM     23  O   UNL     1       0.068   2.426  -0.498  1.00  0.00    -0.507 OA
ATOM     24  H   UNL     1       0.161   2.134   0.387  1.00  0.00     0.293 HD
ENDBRANCH  18  23
ENDBRANCH   8  14
ENDBRANCH   5   7
ENDBRANCH   4   5
ENDBRANCH   3   4
ENDBRANCH   2   3
ENDBRANCH   1   2
BRANCH   1  25
ATOM     25  C   UNL     1       4.986   2.775  -3.001  1.00  0.00     0.202 C 
BRANCH  25  26
ATOM     26  C   UNL     1       4.804   1.792  -4.164  1.00  0.00     0.261 C 
BRANCH  26  27
ATOM     27  O   UNL     1       3.889   0.717  -3.882  1.00  0.00    -0.460 OA
BRANCH  27  28
ATOM     28  C   UNL     1       4.458  -0.504  -3.747  1.00  0.00     0.338 C 
ATOM     29  O   UNL     1       5.648  -0.780  -3.816  1.00  0.00    -0.246 OA
BRANCH  28  30
ATOM     30  C   UNL     1       3.444  -1.507  -3.369  1.00  0.00     0.060 A 
ATOM     31  C   UNL     1       2.336  -1.747  -4.177  1.00  0.00     0.016 A 
ATOM     32  C   UNL     1       3.676  -2.302  -2.239  1.00  0.00     0.016 A 
ATOM     33  C   UNL     1       1.471  -2.799  -3.854  1.00  0.00     0.010 A 
ATOM     34  C   UNL     1       2.803  -3.348  -1.919  1.00  0.00     0.010 A 
ATOM     35  C   UNL     1       1.687  -3.611  -2.723  1.00  0.00    -0.014 A 
BRANCH  35  36
ATOM     36  C   UNL     1       0.792  -4.776  -2.465  1.00  0.00     0.031 A 
ATOM     37  C   UNL     1      -0.151  -4.819  -1.294  1.00  0.00     0.074 A 
ATOM     38  C   UNL     1       0.810  -5.818  -3.319  1.00  0.00     0.049 A 
ATOM     39  N   UNL     1      -1.140  -5.648  -1.058  1.00  0.00    -0.248 NA
ATOM     40  C   UNL     1       0.021  -3.795  -0.257  1.00  0.00     0.031 C 
ATOM     41  C   UNL     1       1.705  -5.947  -4.469  1.00  0.00     0.029 A 
ATOM     42  N   UNL     1       0.054  -6.963  -3.354  1.00  0.00    -0.354 N 
ATOM     43  C   UNL     1      -1.750  -5.196   0.105  1.00  0.00     0.074 A 
ATOM     44  C   UNL     1      -0.986  -4.059   0.566  1.00  0.00     0.031 C 
ATOM     45  C   UNL     1       1.433  -7.094  -5.108  1.00  0.00     0.029 A 
ATOM     46  C   UNL     1       0.365  -7.795  -4.400  1.00  0.00     0.049 A 
ATOM     47  H   UNL     1      -0.645  -7.168  -2.691  1.00  0.00     0.167 HD
ATOM     48  C   UNL     1      -2.854  -5.676   0.724  1.00  0.00     0.037 A 
ATOM     49  C   UNL     1      -0.146  -8.992  -4.750  1.00  0.00     0.037 A 
ATOM     50  C   UNL     1      -3.553  -6.873   0.341  1.00  0.00     0.049 A 
ATOM     51  C   UNL     1      -1.278  -9.581  -3.955  1.00  0.00     0.074 A 
ATOM     52  C   UNL     1      -4.684  -7.432   0.912  1.00  0.00     0.029 A 
ATOM     53  N   UNL     1      -3.154  -7.726  -0.674  1.00  0.00    -0.354 N 
ATOM     54  N   UNL     1      -1.938  -9.066  -2.947  1.00  0.00    -0.248 NA
ATOM     55  C   UNL     1      -1.739 -10.921  -4.349  1.00  0.00     0.031 C 
ATOM     56  C   UNL     1      -4.923  -8.663   0.293  1.00  0.00     0.029 A 
ATOM     57  C   UNL     1      -3.976  -8.841  -0.702  1.00  0.00     0.049 A 
ATOM     58  H   UNL     1      -2.399  -7.565  -1.286  1.00  0.00     0.167 HD
ATOM     59  C   UNL     1      -2.897 -10.007  -2.598  1.00  0.00     0.074 A 
ATOM     60  C   UNL     1      -2.749 -11.118  -3.513  1.00  0.00     0.031 C 
ATOM     61  C   UNL     1      -3.817  -9.951  -1.605  1.00  0.00     0.037 A 
BRANCH  48  62
ATOM     62  C   UNL     1      -3.397  -4.914   1.896  1.00  0.00     0.064 A 
ATOM     63  C   UNL     1      -4.170  -3.760   1.704  1.00  0.00     0.173 A 
ATOM     64  C   UNL     1      -3.262  -5.409   3.201  1.00  0.00     0.173 A 
ATOM     65  F   UNL     1      -4.323  -3.247   0.474  1.00  0.00    -0.203 F 
ATOM     66  C   UNL     1      -4.800  -3.134   2.778  1.00  0.00     0.198 A 
ATOM     67  C   UNL     1      -3.903  -4.788   4.270  1.00  0.00     0.198 A 
ATOM     68  F   UNL     1      -2.536  -6.513   3.432  1.00  0.00    -0.203 F 
ATOM     69  F   UNL     1      -5.537  -2.034   2.573  1.00  0.00    -0.200 F 
ATOM     70  C   UNL     1      -4.675  -3.655   4.057  1.00  0.00     0.200 A 
ATOM     71  F   UNL     1      -3.789  -5.297   5.505  1.00  0.00    -0.200 F 
ATOM     72  F   UNL     1      -5.300  -3.067   5.086  1.00  0.00    -0.200 F 
ENDBRANCH  48  62
BRANCH  49  73
ATOM     73  C   UNL     1       0.421  -9.715  -5.917  1.00  0.00     0.064 A 
ATOM     74  C   UNL     1      -0.322  -9.894  -7.091  1.00  0.00     0.173 A 
ATOM     75  C   UNL     1       1.722 -10.241  -5.878  1.00  0.00     0.173 A 
ATOM     76  F   UNL     1      -1.578  -9.431  -7.166  1.00  0.00    -0.203 F 
ATOM     77  C   UNL     1       0.212 -10.581  -8.179  1.00  0.00     0.198 A 
ATOM     78  C   UNL     1       2.264 -10.902  -6.977  1.00  0.00     0.198 A 
ATOM     79  F   UNL     1       2.471 -10.098  -4.775  1.00  0.00    -0.203 F 
ATOM     80  F   UNL     1      -0.532 -10.773  -9.277  1.00  0.00    -0.200 F 
ATOM     81  C   UNL     1       1.506 -11.077  -8.124  1.00  0.00     0.200 A 
ATOM     82  F   UNL     1       3.519 -11.368  -6.923  1.00  0.00    -0.200 F 
ATOM     83  F   UNL     1       2.021 -11.730  -9.175  1.00  0.00    -0.200 F 
ENDBRANCH  49  73
BRANCH  61  84
ATOM     84  C   UNL     1      -4.736 -11.125  -1.437  1.00  0.00     0.064 A 
ATOM     85  C   UNL     1      -4.275 -12.341  -0.910  1.00  0.00     0.173 A 
ATOM     86  C   UNL     1      -6.102 -11.013  -1.736  1.00  0.00     0.173 A 
ATOM     87  F   UNL     1      -2.976 -12.501  -0.619  1.00  0.00    -0.203 F 
ATOM     88  C   UNL     1      -5.147 -13.406  -0.703  1.00  0.00     0.198 A 
ATOM     89  C   UNL     1      -6.976 -12.072  -1.502  1.00  0.00     0.198 A 
ATOM     90  F   UNL     1      -6.595  -9.869  -2.233  1.00  0.00    -0.203 F 
ATOM     91  F   UNL     1      -4.679 -14.570  -0.231  1.00  0.00    -0.200 F 
ATOM     92  C   UNL     1      -6.497 -13.268  -0.990  1.00  0.00     0.200 A 
ATOM     93  F   UNL     1      -8.282 -11.931  -1.764  1.00  0.00    -0.200 F 
ATOM     94  F   UNL     1      -7.337 -14.290  -0.774  1.00  0.00    -0.200 F 
ENDBRANCH  61  84
ENDBRANCH  35  36
ENDBRANCH  28  30
ENDBRANCH  27  28
ENDBRANCH  26  27
ENDBRANCH  25  26
ENDBRANCH   1  25
TORSDOF 16
