REMARK SMILES Cc1ccsc1C(=O)NNC(=O)[C@@H]1[C@@H](C(=O)OCCOCCOC(=O)c2ccc(-c3c4nc(c(-c5c(F)c(F)c(F)c(F)c5F)c5ccc([nH]5)c(-c5c(F)c(F)c(F)c(F)c5F)c5nc(c(-c6c(F)c(F)c(F)c(F)c6F)c6ccc3[nH]6)C=C5)C=C4)cc2)[C@H]2C=C[C@@H]1C2
REMARK SMILES IDX 19 1 18 2 17 3 15 4 16 5 14 6 13 7 92 8 89 9 91 10 93 11
REMARK SMILES IDX 90 12 11 13 10 14 12 16 9 17 7 18 8 19 6 21 1 22 2 23 3 24
REMARK SMILES IDX 4 25 5 26 20 27 21 28 22 29 23 30 24 31 25 32 26 33 27 34
REMARK SMILES IDX 88 35 28 36 87 37 29 38 30 39 31 40 81 41 32 42 86 43 80 44
REMARK SMILES IDX 82 45 33 46 85 47 79 48 78 49 34 51 66 52 46 53 65 54 47 55
REMARK SMILES IDX 50 56 64 57 83 58 48 59 49 60 63 62 84 63 51 64 35 65 36 66
REMARK SMILES IDX 44 67 37 68 38 69 42 70 45 71 39 72 40 73 43 74 41 75 67 76
REMARK SMILES IDX 68 77 76 78 69 79 70 80 74 81 77 82 71 83 72 84 75 85 73 86
REMARK SMILES IDX 52 87 53 88 61 89 54 90 55 91 59 92 62 93 56 94 57 95 60 96
REMARK SMILES IDX 58 97
REMARK H PARENT 10 15 9 20 82 50 50 61
REMARK Flexibility Score: inf
ROOT
ATOM      1  C   UNL     1       7.373  -6.756  -3.639  1.00  0.00     0.202 C 
ENDROOT
BRANCH   1   2
ATOM      2  C   UNL     1       7.272  -5.399  -2.942  1.00  0.00     0.261 C 
BRANCH   2   3
ATOM      3  O   UNL     1       6.318  -5.420  -1.870  1.00  0.00    -0.463 OA
BRANCH   3   4
ATOM      4  C   UNL     1       5.205  -4.686  -2.090  1.00  0.00     0.310 C 
ATOM      5  O   UNL     1       5.005  -3.977  -3.071  1.00  0.00    -0.252 OA
BRANCH   4   6
ATOM      6  C   UNL     1       4.189  -4.768  -0.986  1.00  0.00     0.119 C 
ATOM      7  C   UNL     1       4.532  -3.747   0.120  1.00  0.00     0.102 C 
ATOM      8  C   UNL     1       4.075  -4.484   1.404  1.00  0.00     0.025 C 
ATOM      9  C   UNL     1       3.936  -6.069  -0.189  1.00  0.00     0.027 C 
ATOM     10  C   UNL     1       5.168  -5.514   1.675  1.00  0.00    -0.027 C 
ATOM     11  C   UNL     1       3.031  -5.501   0.921  1.00  0.00     0.017 C 
ATOM     12  C   UNL     1       5.098  -6.438   0.701  1.00  0.00    -0.027 C 
BRANCH   7  13
ATOM     13  C   UNL     1       4.101  -2.328  -0.224  1.00  0.00     0.242 C 
ATOM     14  N   UNL     1       2.856  -2.017  -0.693  1.00  0.00    -0.267 N 
ATOM     15  H   UNL     1       2.775  -1.247  -1.301  1.00  0.00     0.191 HD
ATOM     16  O   UNL     1       4.933  -1.416  -0.159  1.00  0.00    -0.273 OA
BRANCH  14  17
ATOM     17  N   UNL     1       1.711  -2.702  -0.375  1.00  0.00    -0.263 N 
ATOM     18  C   UNL     1       0.518  -2.161   0.070  1.00  0.00     0.280 C 
ATOM     19  O   UNL     1      -0.363  -2.991   0.318  1.00  0.00    -0.266 OA
ATOM     20  H   UNL     1       1.741  -3.681  -0.474  1.00  0.00     0.191 HD
BRANCH  18  21
ATOM     21  C   UNL     1       0.298  -0.716   0.119  1.00  0.00     0.096 A 
ATOM     22  C   UNL     1       2.477   0.433   0.973  1.00  0.00     0.046 C 
ATOM     23  C   UNL     1       1.076   0.394   0.450  1.00  0.00    -0.027 A 
ATOM     24  C   UNL     1       0.345   1.620   0.252  1.00  0.00     0.016 A 
ATOM     25  C   UNL     1      -0.954   1.420  -0.141  1.00  0.00     0.066 A 
ATOM     26  S   UNL     1      -1.311  -0.228  -0.311  1.00  0.00    -0.138 S 
ENDBRANCH  18  21
ENDBRANCH  14  17
ENDBRANCH   7  13
ENDBRANCH   4   6
ENDBRANCH   3   4
ENDBRANCH   2   3
ENDBRANCH   1   2
BRANCH   1  27
ATOM     27  O   UNL     1       6.190  -7.259  -4.255  1.00  0.00    -0.374 OA
BRANCH  27  28
ATOM     28  C   UNL     1       5.144  -7.752  -3.420  1.00  0.00     0.202 C 
BRANCH  28  29
ATOM     29  C   UNL     1       5.406  -9.051  -2.650  1.00  0.00     0.261 C 
BRANCH  29  30
ATOM     30  O   UNL     1       6.432  -8.901  -1.651  1.00  0.00    -0.460 OA
BRANCH  30  31
ATOM     31  C   UNL     1       7.515  -9.696  -1.837  1.00  0.00     0.338 C 
ATOM     32  O   UNL     1       7.665 -10.553  -2.690  1.00  0.00    -0.246 OA
BRANCH  31  33
ATOM     33  C   UNL     1       8.623  -9.275  -0.959  1.00  0.00     0.060 A 
ATOM     34  C   UNL     1       9.843  -8.969  -1.575  1.00  0.00     0.016 A 
ATOM     35  C   UNL     1       8.515  -9.296   0.432  1.00  0.00     0.016 A 
ATOM     36  C   UNL     1      10.978  -8.746  -0.800  1.00  0.00     0.010 A 
ATOM     37  C   UNL     1       9.660  -9.077   1.210  1.00  0.00     0.010 A 
ATOM     38  C   UNL     1      10.905  -8.845   0.595  1.00  0.00    -0.014 A 
BRANCH  38  39
ATOM     39  C   UNL     1      12.165  -8.866   1.378  1.00  0.00     0.031 A 
ATOM     40  C   UNL     1      12.737 -10.188   1.813  1.00  0.00     0.074 A 
ATOM     41  C   UNL     1      12.835  -7.728   1.634  1.00  0.00     0.049 A 
ATOM     42  N   UNL     1      13.843 -10.443   2.465  1.00  0.00    -0.248 NA
ATOM     43  C   UNL     1      11.958 -11.386   1.460  1.00  0.00     0.031 C 
ATOM     44  C   UNL     1      12.409  -6.390   1.230  1.00  0.00     0.029 A 
ATOM     45  N   UNL     1      14.023  -7.521   2.289  1.00  0.00    -0.354 N 
ATOM     46  C   UNL     1      13.894 -11.825   2.597  1.00  0.00     0.074 A 
ATOM     47  C   UNL     1      12.691 -12.353   1.992  1.00  0.00     0.031 C 
ATOM     48  C   UNL     1      13.325  -5.498   1.646  1.00  0.00     0.029 A 
ATOM     49  C   UNL     1      14.387  -6.200   2.365  1.00  0.00     0.049 A 
ATOM     50  H   UNL     1      14.564  -8.252   2.669  1.00  0.00     0.167 HD
ATOM     51  C   UNL     1      14.864 -12.586   3.159  1.00  0.00     0.037 A 
ATOM     52  C   UNL     1      15.451  -5.624   2.958  1.00  0.00     0.037 A 
ATOM     53  C   UNL     1      16.063 -12.064   3.760  1.00  0.00     0.049 A 
ATOM     54  C   UNL     1      16.479  -6.489   3.640  1.00  0.00     0.074 A 
ATOM     55  C   UNL     1      17.110 -12.757   4.343  1.00  0.00     0.029 A 
ATOM     56  N   UNL     1      16.371 -10.715   3.862  1.00  0.00    -0.354 N 
ATOM     57  N   UNL     1      16.532  -7.795   3.737  1.00  0.00    -0.248 NA
ATOM     58  C   UNL     1      17.599  -5.795   4.293  1.00  0.00     0.031 C 
ATOM     59  C   UNL     1      18.028 -11.826   4.841  1.00  0.00     0.029 A 
ATOM     60  C   UNL     1      17.579 -10.555   4.522  1.00  0.00     0.049 A 
ATOM     61  H   UNL     1      15.814  -9.981   3.516  1.00  0.00     0.167 HD
ATOM     62  C   UNL     1      17.700  -8.080   4.433  1.00  0.00     0.074 A 
ATOM     63  C   UNL     1      18.334  -6.811   4.722  1.00  0.00     0.031 C 
ATOM     64  C   UNL     1      18.202  -9.286   4.799  1.00  0.00     0.037 A 
BRANCH  51  65
ATOM     65  C   UNL     1      14.658 -14.073   3.168  1.00  0.00     0.064 A 
ATOM     66  C   UNL     1      14.757 -14.837   1.996  1.00  0.00     0.173 A 
ATOM     67  C   UNL     1      14.395 -14.746   4.371  1.00  0.00     0.173 A 
ATOM     68  F   UNL     1      14.993 -14.240   0.818  1.00  0.00    -0.203 F 
ATOM     69  C   UNL     1      14.577 -16.218   2.024  1.00  0.00     0.198 A 
ATOM     70  C   UNL     1      14.243 -16.130   4.399  1.00  0.00     0.198 A 
ATOM     71  F   UNL     1      14.295 -14.062   5.520  1.00  0.00    -0.203 F 
ATOM     72  F   UNL     1      14.633 -16.923   0.885  1.00  0.00    -0.200 F 
ATOM     73  C   UNL     1      14.328 -16.864   3.226  1.00  0.00     0.200 A 
ATOM     74  F   UNL     1      14.014 -16.753   5.563  1.00  0.00    -0.200 F 
ATOM     75  F   UNL     1      14.162 -18.193   3.252  1.00  0.00    -0.200 F 
ENDBRANCH  51  65
BRANCH  52  76
ATOM     76  C   UNL     1      15.601  -4.146   2.937  1.00  0.00     0.064 A 
ATOM     77  C   UNL     1      16.627  -3.531   2.207  1.00  0.00     0.173 A 
ATOM     78  C   UNL     1      14.732  -3.319   3.665  1.00  0.00     0.173 A 
ATOM     79  F   UNL     1      17.499  -4.281   1.517  1.00  0.00    -0.203 F 
ATOM     80  C   UNL     1      16.791  -2.147   2.221  1.00  0.00     0.198 A 
ATOM     81  C   UNL     1      14.880  -1.934   3.655  1.00  0.00     0.198 A 
ATOM     82  F   UNL     1      13.736  -3.858   4.383  1.00  0.00    -0.203 F 
ATOM     83  F   UNL     1      17.810  -1.589   1.553  1.00  0.00    -0.200 F 
ATOM     84  C   UNL     1      15.914  -1.350   2.940  1.00  0.00     0.200 A 
ATOM     85  F   UNL     1      14.024  -1.167   4.344  1.00  0.00    -0.200 F 
ATOM     86  F   UNL     1      16.071  -0.019   2.952  1.00  0.00    -0.200 F 
ENDBRANCH  52  76
BRANCH  64  87
ATOM     87  C   UNL     1      19.517  -9.294   5.525  1.00  0.00     0.064 A 
ATOM     88  C   UNL     1      19.628  -8.855   6.853  1.00  0.00     0.173 A 
ATOM     89  C   UNL     1      20.673  -9.780   4.896  1.00  0.00     0.173 A 
ATOM     90  F   UNL     1      18.555  -8.368   7.495  1.00  0.00    -0.203 F 
ATOM     91  C   UNL     1      20.853  -8.877   7.514  1.00  0.00     0.198 A 
ATOM     92  C   UNL     1      21.890  -9.828   5.570  1.00  0.00     0.198 A 
ATOM     93  F   UNL     1      20.620 -10.219   3.629  1.00  0.00    -0.203 F 
ATOM     94  F   UNL     1      20.945  -8.407   8.766  1.00  0.00    -0.200 F 
ATOM     95  C   UNL     1      21.981  -9.370   6.875  1.00  0.00     0.200 A 
ATOM     96  F   UNL     1      22.976 -10.318   4.955  1.00  0.00    -0.200 F 
ATOM     97  F   UNL     1      23.159  -9.394   7.515  1.00  0.00    -0.200 F 
ENDBRANCH  64  87
ENDBRANCH  38  39
ENDBRANCH  31  33
ENDBRANCH  30  31
ENDBRANCH  29  30
ENDBRANCH  28  29
ENDBRANCH  27  28
ENDBRANCH   1  27
TORSDOF 17
