REMARK SMILES COc1cc(/C=N/NC(=O)c2cccnc2)ccc1OCC(=O)OCCOCCOC(=O)c1ccc(-c2c3nc(c(-c4c(F)c(F)c(F)c(F)c4F)c4ccc([nH]4)c(-c4c(F)c(F)c(F)c(F)c4F)c4nc(c(-c5c(F)c(F)c(F)c(F)c5F)c5ccc2[nH]5)C=C4)C=C3)cc1
REMARK SMILES IDX 25 1 24 2 22 3 23 4 21 5 20 6 19 7 3 8 4 9 5 10 18 11 17 12
REMARK SMILES IDX 2 13 1 14 6 15 7 16 8 17 9 18 10 20 11 21 12 22 16 23 13 24
REMARK SMILES IDX 15 25 14 26 26 27 27 28 28 29 29 30 30 31 31 32 32 33 33 34
REMARK SMILES IDX 34 35 95 36 35 37 94 38 36 39 37 40 38 41 88 42 39 43 93 44
REMARK SMILES IDX 87 45 89 46 40 47 92 48 86 49 85 50 41 52 73 53 53 54 72 55
REMARK SMILES IDX 54 56 57 57 71 58 90 59 55 60 56 61 70 63 91 64 58 65 42 66
REMARK SMILES IDX 43 67 51 68 44 69 45 70 49 71 52 72 46 73 47 74 50 75 48 76
REMARK SMILES IDX 74 77 75 78 83 79 76 80 77 81 81 82 84 83 78 84 79 85 82 86
REMARK SMILES IDX 80 87 59 88 60 89 68 90 61 91 62 92 66 93 69 94 63 95 64 96
REMARK SMILES IDX 67 97 65 98
REMARK H PARENT 8 19 89 51 57 62
REMARK Flexibility Score: inf
ROOT
ATOM      1  C   UNL     1       0.888  -1.684   2.566  1.00  0.00     0.261 C 
ENDROOT
BRANCH   1   2
ATOM      2  O   UNL     1       1.843  -0.734   2.040  1.00  0.00    -0.461 OA
BRANCH   2   3
ATOM      3  C   UNL     1       2.255  -0.959   0.759  1.00  0.00     0.344 C 
ATOM      4  O   UNL     1       1.880  -1.902   0.068  1.00  0.00    -0.248 OA
BRANCH   3   5
ATOM      5  C   UNL     1       3.312   0.038   0.265  1.00  0.00     0.352 C 
BRANCH   5   6
ATOM      6  O   UNL     1       3.449   1.330   0.812  1.00  0.00    -0.478 OA
BRANCH   6   7
ATOM      7  C   UNL     1       2.549   2.324   0.560  1.00  0.00     0.162 A 
ATOM      8  C   UNL     1       1.578   2.424  -0.451  1.00  0.00     0.161 A 
ATOM      9  C   UNL     1       0.661   3.498  -0.446  1.00  0.00     0.060 A 
ATOM     10  C   UNL     1       0.741   4.472   0.562  1.00  0.00    -0.002 A 
ATOM     11  C   UNL     1       2.670   3.366   1.488  1.00  0.00     0.051 A 
ATOM     12  C   UNL     1       1.779   4.433   1.494  1.00  0.00     0.014 A 
BRANCH   8  13
ATOM     13  O   UNL     1       1.640   1.593  -1.536  1.00  0.00    -0.493 OA
ATOM     14  C   UNL     1       0.572   0.656  -1.648  1.00  0.00     0.278 C 
ENDBRANCH   8  13
BRANCH  10  15
ATOM     15  C   UNL     1      -0.276   5.520   0.791  1.00  0.00     0.141 C 
ATOM     16  N   UNL     1      -1.082   5.971  -0.116  1.00  0.00    -0.180 NA
BRANCH  16  17
ATOM     17  N   UNL     1      -1.907   7.012   0.253  1.00  0.00    -0.243 N 
ATOM     18  C   UNL     1      -1.641   8.159   0.994  1.00  0.00     0.272 C 
ATOM     19  H   UNL     1      -2.837   6.931  -0.060  1.00  0.00     0.194 HD
ATOM     20  O   UNL     1      -2.554   8.923   1.303  1.00  0.00    -0.267 OA
BRANCH  18  21
ATOM     21  C   UNL     1      -0.272   8.493   1.434  1.00  0.00     0.059 A 
ATOM     22  C   UNL     1       0.860   8.286   0.645  1.00  0.00     0.017 A 
ATOM     23  C   UNL     1      -0.090   9.009   2.712  1.00  0.00     0.124 A 
ATOM     24  C   UNL     1       2.123   8.501   1.192  1.00  0.00     0.021 A 
ATOM     25  N   UNL     1       1.129   9.232   3.266  1.00  0.00    -0.264 NA
ATOM     26  C   UNL     1       2.206   8.962   2.497  1.00  0.00     0.111 A 
ENDBRANCH  18  21
ENDBRANCH  16  17
ENDBRANCH  10  15
ENDBRANCH   6   7
ENDBRANCH   5   6
ENDBRANCH   3   5
ENDBRANCH   2   3
ENDBRANCH   1   2
BRANCH   1  27
ATOM     27  C   UNL     1      -0.342  -1.011   3.187  1.00  0.00     0.202 C 
BRANCH  27  28
ATOM     28  O   UNL     1      -1.212  -0.342   2.273  1.00  0.00    -0.374 OA
BRANCH  28  29
ATOM     29  C   UNL     1      -0.752   0.906   1.762  1.00  0.00     0.202 C 
BRANCH  29  30
ATOM     30  C   UNL     1      -0.946   2.108   2.678  1.00  0.00     0.261 C 
BRANCH  30  31
ATOM     31  O   UNL     1      -0.119   2.003   3.839  1.00  0.00    -0.460 OA
BRANCH  31  32
ATOM     32  C   UNL     1      -0.816   2.013   4.994  1.00  0.00     0.338 C 
ATOM     33  O   UNL     1      -1.995   2.264   5.157  1.00  0.00    -0.246 OA
BRANCH  32  34
ATOM     34  C   UNL     1       0.033   1.474   6.061  1.00  0.00     0.060 A 
ATOM     35  C   UNL     1      -0.491   0.400   6.786  1.00  0.00     0.016 A 
ATOM     36  C   UNL     1       1.264   2.046   6.386  1.00  0.00     0.016 A 
ATOM     37  C   UNL     1       0.177  -0.051   7.912  1.00  0.00     0.010 A 
ATOM     38  C   UNL     1       1.937   1.591   7.518  1.00  0.00     0.010 A 
ATOM     39  C   UNL     1       1.362   0.583   8.310  1.00  0.00    -0.014 A 
BRANCH  39  40
ATOM     40  C   UNL     1       1.869   0.307   9.668  1.00  0.00     0.031 A 
ATOM     41  C   UNL     1       1.521   1.269  10.767  1.00  0.00     0.074 A 
ATOM     42  C   UNL     1       2.530  -0.835   9.912  1.00  0.00     0.049 A 
ATOM     43  N   UNL     1       1.782   1.200  12.045  1.00  0.00    -0.248 NA
ATOM     44  C   UNL     1       0.773   2.474  10.370  1.00  0.00     0.031 C 
ATOM     45  C   UNL     1       2.862  -1.843   8.907  1.00  0.00     0.029 A 
ATOM     46  N   UNL     1       3.020  -1.345  11.082  1.00  0.00    -0.354 N 
ATOM     47  C   UNL     1       1.228   2.345  12.603  1.00  0.00     0.074 A 
ATOM     48  C   UNL     1       0.659   3.116  11.522  1.00  0.00     0.031 C 
ATOM     49  C   UNL     1       3.490  -2.867   9.510  1.00  0.00     0.029 A 
ATOM     50  C   UNL     1       3.625  -2.567  10.932  1.00  0.00     0.049 A 
ATOM     51  H   UNL     1       2.945  -0.882  11.947  1.00  0.00     0.167 HD
ATOM     52  C   UNL     1       1.187   2.706  13.907  1.00  0.00     0.037 A 
ATOM     53  C   UNL     1       4.223  -3.345  11.852  1.00  0.00     0.037 A 
ATOM     54  C   UNL     1       1.770   1.923  14.964  1.00  0.00     0.049 A 
ATOM     55  C   UNL     1       4.230  -2.883  13.285  1.00  0.00     0.074 A 
ATOM     56  C   UNL     1       1.804   2.185  16.321  1.00  0.00     0.029 A 
ATOM     57  N   UNL     1       2.433   0.717  14.770  1.00  0.00    -0.354 N 
ATOM     58  N   UNL     1       3.693  -1.807  13.812  1.00  0.00    -0.248 NA
ATOM     59  C   UNL     1       4.919  -3.746  14.251  1.00  0.00     0.031 C 
ATOM     60  C   UNL     1       2.534   1.164  16.941  1.00  0.00     0.029 A 
ATOM     61  C   UNL     1       2.902   0.234  15.980  1.00  0.00     0.049 A 
ATOM     62  H   UNL     1       2.551   0.271  13.900  1.00  0.00     0.167 HD
ATOM     63  C   UNL     1       3.953  -1.876  15.173  1.00  0.00     0.074 A 
ATOM     64  C   UNL     1       4.681  -3.112  15.390  1.00  0.00     0.031 C 
ATOM     65  C   UNL     1       3.624  -1.002  16.158  1.00  0.00     0.037 A 
BRANCH  52  66
ATOM     66  C   UNL     1       0.523   4.013  14.242  1.00  0.00     0.064 A 
ATOM     67  C   UNL     1      -0.862   4.199  14.101  1.00  0.00     0.173 A 
ATOM     68  C   UNL     1       1.283   5.099  14.701  1.00  0.00     0.173 A 
ATOM     69  F   UNL     1      -1.634   3.200  13.647  1.00  0.00    -0.203 F 
ATOM     70  C   UNL     1      -1.453   5.431  14.374  1.00  0.00     0.198 A 
ATOM     71  C   UNL     1       0.684   6.319  15.004  1.00  0.00     0.198 A 
ATOM     72  F   UNL     1       2.611   4.979  14.854  1.00  0.00    -0.203 F 
ATOM     73  F   UNL     1      -2.767   5.601  14.172  1.00  0.00    -0.200 F 
ATOM     74  C   UNL     1      -0.681   6.488  14.830  1.00  0.00     0.200 A 
ATOM     75  F   UNL     1       1.431   7.337  15.455  1.00  0.00    -0.200 F 
ATOM     76  F   UNL     1      -1.250   7.673  15.091  1.00  0.00    -0.200 F 
ENDBRANCH  52  66
BRANCH  53  77
ATOM     77  C   UNL     1       4.841  -4.634  11.447  1.00  0.00     0.064 A 
ATOM     78  C   UNL     1       4.310  -5.859  11.873  1.00  0.00     0.173 A 
ATOM     79  C   UNL     1       5.972  -4.669  10.617  1.00  0.00     0.173 A 
ATOM     80  F   UNL     1       3.239  -5.879  12.681  1.00  0.00    -0.203 F 
ATOM     81  C   UNL     1       4.894  -7.067  11.499  1.00  0.00     0.198 A 
ATOM     82  C   UNL     1       6.538  -5.878  10.218  1.00  0.00     0.198 A 
ATOM     83  F   UNL     1       6.518  -3.526  10.176  1.00  0.00    -0.203 F 
ATOM     84  F   UNL     1       4.390  -8.222  11.954  1.00  0.00    -0.200 F 
ATOM     85  C   UNL     1       6.003  -7.076  10.666  1.00  0.00     0.200 A 
ATOM     86  F   UNL     1       7.599  -5.882   9.400  1.00  0.00    -0.200 F 
ATOM     87  F   UNL     1       6.560  -8.239  10.300  1.00  0.00    -0.200 F 
ENDBRANCH  53  77
BRANCH  65  88
ATOM     88  C   UNL     1       4.021  -1.377  17.556  1.00  0.00     0.064 A 
ATOM     89  C   UNL     1       5.361  -1.367  17.970  1.00  0.00     0.173 A 
ATOM     90  C   UNL     1       3.043  -1.728  18.499  1.00  0.00     0.173 A 
ATOM     91  F   UNL     1       6.334  -1.053  17.101  1.00  0.00    -0.203 F 
ATOM     92  C   UNL     1       5.710  -1.733  19.266  1.00  0.00     0.198 A 
ATOM     93  C   UNL     1       3.393  -2.057  19.804  1.00  0.00     0.198 A 
ATOM     94  F   UNL     1       1.746  -1.743  18.156  1.00  0.00    -0.203 F 
ATOM     95  F   UNL     1       7.001  -1.778  19.622  1.00  0.00    -0.200 F 
ATOM     96  C   UNL     1       4.726  -2.071  20.184  1.00  0.00     0.200 A 
ATOM     97  F   UNL     1       2.440  -2.367  20.694  1.00  0.00    -0.200 F 
ATOM     98  F   UNL     1       5.065  -2.420  21.432  1.00  0.00    -0.200 F 
ENDBRANCH  65  88
ENDBRANCH  39  40
ENDBRANCH  32  34
ENDBRANCH  31  32
ENDBRANCH  30  31
ENDBRANCH  29  30
ENDBRANCH  28  29
ENDBRANCH  27  28
ENDBRANCH   1  27
TORSDOF 20
