REMARK SMILES O=C(OCCOCCOC(=O)c1ccc2nc(-c3c[nH]nc3-c3ccc(F)cc3F)[nH]c2c1)c1ccc(-c2c3nc(c(-c4c(F)c(F)c(F)c(F)c4F)c4ccc([nH]4)c(-c4c(F)c(F)c(F)c(F)c4F)c4nc(c(-c5c(F)c(F)c(F)c(F)c5F)c5ccc2[nH]5)C=C4)C=C3)cc1
REMARK SMILES IDX 6 1 5 2 4 3 3 4 2 5 1 6 34 7 35 8 96 9 36 10 95 11 37 12
REMARK SMILES IDX 38 13 39 14 89 15 40 16 94 17 88 18 90 19 41 20 93 21 87 22
REMARK SMILES IDX 86 23 42 25 74 26 54 27 73 28 55 29 58 30 72 31 91 32 56 33
REMARK SMILES IDX 57 34 71 36 92 37 59 38 43 39 44 40 52 41 45 42 46 43 50 44
REMARK SMILES IDX 53 45 47 46 48 47 51 48 49 49 75 50 76 51 84 52 77 53 78 54
REMARK SMILES IDX 82 55 85 56 79 57 80 58 83 59 81 60 60 61 61 62 69 63 62 64
REMARK SMILES IDX 63 65 67 66 70 67 64 68 65 69 68 70 66 71 7 72 8 73 9 74
REMARK SMILES IDX 10 75 11 76 12 77 13 78 33 79 14 80 32 81 15 82 31 83 16 84
REMARK SMILES IDX 17 85 18 87 19 88 22 89 20 90 21 91 23 93 24 94 29 95 25 96
REMARK SMILES IDX 28 97 30 98 26 99 27 100
REMARK H PARENT 90 24 58 35 31 86 20 92
REMARK Flexibility Score: inf
ROOT
ATOM      1  O   UNL     1       4.030   1.576  -0.924  1.00  0.00    -0.374 OA
ENDROOT
BRANCH   1   2
ATOM      2  C   UNL     1       4.246   0.442  -1.764  1.00  0.00     0.202 C 
BRANCH   2   3
ATOM      3  C   UNL     1       3.927  -0.899  -1.099  1.00  0.00     0.261 C 
BRANCH   3   4
ATOM      4  O   UNL     1       2.553  -0.934  -0.683  1.00  0.00    -0.460 OA
BRANCH   4   5
ATOM      5  C   UNL     1       2.048  -0.819   0.566  1.00  0.00     0.338 C 
ATOM      6  O   UNL     1       0.835  -0.940   0.725  1.00  0.00    -0.246 OA
BRANCH   5   7
ATOM      7  C   UNL     1       2.883  -0.563   1.778  1.00  0.00     0.060 A 
ATOM      8  C   UNL     1       4.090   0.137   1.786  1.00  0.00     0.016 A 
ATOM      9  C   UNL     1       2.355  -0.975   3.014  1.00  0.00     0.016 A 
ATOM     10  C   UNL     1       4.789   0.370   2.961  1.00  0.00     0.010 A 
ATOM     11  C   UNL     1       3.027  -0.704   4.211  1.00  0.00     0.010 A 
ATOM     12  C   UNL     1       4.256  -0.039   4.180  1.00  0.00    -0.014 A 
BRANCH  12  13
ATOM     13  C   UNL     1       5.056   0.193   5.394  1.00  0.00     0.031 A 
ATOM     14  C   UNL     1       5.803  -0.957   5.989  1.00  0.00     0.074 A 
ATOM     15  C   UNL     1       5.210   1.449   5.849  1.00  0.00     0.049 A 
ATOM     16  N   UNL     1       6.563  -0.989   7.050  1.00  0.00    -0.248 NA
ATOM     17  C   UNL     1       5.697  -2.245   5.282  1.00  0.00     0.031 C 
ATOM     18  C   UNL     1       4.610   2.640   5.242  1.00  0.00     0.029 A 
ATOM     19  N   UNL     1       5.943   1.942   6.895  1.00  0.00    -0.354 N 
ATOM     20  C   UNL     1       7.009  -2.298   7.149  1.00  0.00     0.074 A 
ATOM     21  C   UNL     1       6.436  -3.035   6.046  1.00  0.00     0.031 C 
ATOM     22  C   UNL     1       5.029   3.728   5.905  1.00  0.00     0.029 A 
ATOM     23  C   UNL     1       5.867   3.307   7.023  1.00  0.00     0.049 A 
ATOM     24  H   UNL     1       6.474   1.372   7.497  1.00  0.00     0.167 HD
ATOM     25  C   UNL     1       7.824  -2.827   8.089  1.00  0.00     0.037 A 
ATOM     26  C   UNL     1       6.396   4.115   7.960  1.00  0.00     0.037 A 
ATOM     27  C   UNL     1       8.374  -2.064   9.175  1.00  0.00     0.049 A 
ATOM     28  C   UNL     1       7.217   3.483   9.052  1.00  0.00     0.074 A 
ATOM     29  C   UNL     1       9.148  -2.499  10.234  1.00  0.00     0.029 A 
ATOM     30  N   UNL     1       8.204  -0.694   9.333  1.00  0.00    -0.354 N 
ATOM     31  N   UNL     1       7.574   2.228   9.192  1.00  0.00    -0.248 NA
ATOM     32  C   UNL     1       7.691   4.366  10.125  1.00  0.00     0.031 C 
ATOM     33  C   UNL     1       9.412  -1.397  11.055  1.00  0.00     0.029 A 
ATOM     34  C   UNL     1       8.844  -0.268  10.482  1.00  0.00     0.049 A 
ATOM     35  H   UNL     1       7.702  -0.113   8.718  1.00  0.00     0.167 HD
ATOM     36  C   UNL     1       8.316   2.167  10.361  1.00  0.00     0.074 A 
ATOM     37  C   UNL     1       8.379   3.520  10.881  1.00  0.00     0.031 C 
ATOM     38  C   UNL     1       8.887   1.093  10.959  1.00  0.00     0.037 A 
BRANCH  25  39
ATOM     39  C   UNL     1       8.104  -4.297   8.009  1.00  0.00     0.064 A 
ATOM     40  C   UNL     1       7.507  -5.179   8.923  1.00  0.00     0.173 A 
ATOM     41  C   UNL     1       8.949  -4.839   7.030  1.00  0.00     0.173 A 
ATOM     42  F   UNL     1       6.684  -4.712   9.873  1.00  0.00    -0.203 F 
ATOM     43  C   UNL     1       7.750  -6.548   8.862  1.00  0.00     0.198 A 
ATOM     44  C   UNL     1       9.171  -6.212   6.956  1.00  0.00     0.198 A 
ATOM     45  F   UNL     1       9.520  -4.041   6.114  1.00  0.00    -0.203 F 
ATOM     46  F   UNL     1       7.176  -7.370   9.751  1.00  0.00    -0.200 F 
ATOM     47  C   UNL     1       8.576  -7.065   7.875  1.00  0.00     0.200 A 
ATOM     48  F   UNL     1       9.943  -6.714   5.982  1.00  0.00    -0.200 F 
ATOM     49  F   UNL     1       8.788  -8.386   7.801  1.00  0.00    -0.200 F 
ENDBRANCH  25  39
BRANCH  26  50
ATOM     50  C   UNL     1       6.133   5.578   7.920  1.00  0.00     0.064 A 
ATOM     51  C   UNL     1       4.836   6.089   8.090  1.00  0.00     0.173 A 
ATOM     52  C   UNL     1       7.164   6.498   7.688  1.00  0.00     0.173 A 
ATOM     53  F   UNL     1       3.810   5.255   8.320  1.00  0.00    -0.203 F 
ATOM     54  C   UNL     1       4.577   7.455   8.003  1.00  0.00     0.198 A 
ATOM     55  C   UNL     1       6.910   7.869   7.630  1.00  0.00     0.198 A 
ATOM     56  F   UNL     1       8.426   6.067   7.542  1.00  0.00    -0.203 F 
ATOM     57  F   UNL     1       3.323   7.908   8.132  1.00  0.00    -0.200 F 
ATOM     58  C   UNL     1       5.615   8.345   7.778  1.00  0.00     0.200 A 
ATOM     59  F   UNL     1       7.920   8.728   7.440  1.00  0.00    -0.200 F 
ATOM     60  F   UNL     1       5.370   9.661   7.709  1.00  0.00    -0.200 F 
ENDBRANCH  26  50
BRANCH  38  61
ATOM     61  C   UNL     1       9.636   1.336  12.232  1.00  0.00     0.064 A 
ATOM     62  C   UNL     1      11.035   1.242  12.259  1.00  0.00     0.173 A 
ATOM     63  C   UNL     1       8.962   1.563  13.440  1.00  0.00     0.173 A 
ATOM     64  F   UNL     1      11.719   1.017  11.127  1.00  0.00    -0.203 F 
ATOM     65  C   UNL     1      11.733   1.347  13.457  1.00  0.00     0.198 A 
ATOM     66  C   UNL     1       9.666   1.693  14.633  1.00  0.00     0.198 A 
ATOM     67  F   UNL     1       7.625   1.672  13.458  1.00  0.00    -0.203 F 
ATOM     68  F   UNL     1      13.066   1.214  13.467  1.00  0.00    -0.200 F 
ATOM     69  C   UNL     1      11.049   1.573  14.642  1.00  0.00     0.200 A 
ATOM     70  F   UNL     1       9.007   1.932  15.774  1.00  0.00    -0.200 F 
ATOM     71  F   UNL     1      11.722   1.675  15.796  1.00  0.00    -0.200 F 
ENDBRANCH  38  61
ENDBRANCH  12  13
ENDBRANCH   5   7
ENDBRANCH   4   5
ENDBRANCH   3   4
ENDBRANCH   2   3
ENDBRANCH   1   2
BRANCH   1  72
ATOM     72  C   UNL     1       2.703   2.120  -0.946  1.00  0.00     0.202 C 
BRANCH  72  73
ATOM     73  C   UNL     1       2.774   3.629  -1.193  1.00  0.00     0.261 C 
BRANCH  73  74
ATOM     74  O   UNL     1       3.311   3.847  -2.507  1.00  0.00    -0.460 OA
BRANCH  74  75
ATOM     75  C   UNL     1       4.666   3.884  -2.567  1.00  0.00     0.338 C 
ATOM     76  O   UNL     1       5.449   4.099  -1.657  1.00  0.00    -0.246 OA
BRANCH  75  77
ATOM     77  C   UNL     1       5.064   3.364  -3.892  1.00  0.00     0.062 A 
ATOM     78  C   UNL     1       4.367   3.736  -5.048  1.00  0.00     0.018 A 
ATOM     79  C   UNL     1       6.111   2.425  -3.927  1.00  0.00     0.044 A 
ATOM     80  C   UNL     1       4.724   3.201  -6.290  1.00  0.00     0.031 A 
ATOM     81  C   UNL     1       6.399   1.865  -5.171  1.00  0.00     0.067 A 
ATOM     82  C   UNL     1       5.767   2.266  -6.343  1.00  0.00     0.089 A 
ATOM     83  N   UNL     1       7.281   0.893  -5.577  1.00  0.00    -0.338 N 
ATOM     84  N   UNL     1       6.344   1.671  -7.429  1.00  0.00    -0.228 NA
ATOM     85  C   UNL     1       7.274   0.876  -6.947  1.00  0.00     0.142 A 
ATOM     86  H   UNL     1       7.819   0.314  -4.990  1.00  0.00     0.168 HD
BRANCH  85  87
ATOM     87  C   UNL     1       8.326   0.261  -7.774  1.00  0.00     0.063 A 
ATOM     88  C   UNL     1       8.613  -1.073  -7.913  1.00  0.00     0.117 A 
ATOM     89  C   UNL     1       9.281   0.956  -8.562  1.00  0.00     0.106 A 
ATOM     90  N   UNL     1       9.625  -1.120  -8.829  1.00  0.00    -0.284 N 
ATOM     91  N   UNL     1      10.097   0.089  -9.182  1.00  0.00    -0.175 NA
ATOM     92  H   UNL     1       9.977  -1.962  -9.197  1.00  0.00     0.189 HD
BRANCH  89  93
ATOM     93  C   UNL     1       9.499   2.395  -8.593  1.00  0.00     0.039 A 
ATOM     94  C   UNL     1       9.846   3.064  -7.404  1.00  0.00     0.016 A 
ATOM     95  C   UNL     1       9.330   3.137  -9.764  1.00  0.00     0.135 A 
ATOM     96  C   UNL     1      10.007   4.449  -7.396  1.00  0.00     0.040 A 
ATOM     97  C   UNL     1       9.496   4.520  -9.761  1.00  0.00     0.079 A 
ATOM     98  F   UNL     1       8.980   2.539 -10.912  1.00  0.00    -0.206 F 
ATOM     99  C   UNL     1       9.829   5.163  -8.575  1.00  0.00     0.126 A 
ATOM    100  F   UNL     1       9.981   6.493  -8.565  1.00  0.00    -0.207 F 
ENDBRANCH  89  93
ENDBRANCH  85  87
ENDBRANCH  75  77
ENDBRANCH  74  75
ENDBRANCH  73  74
ENDBRANCH  72  73
ENDBRANCH   1  72
TORSDOF 16
