REMARK SMILES O=C(Cc1sc(N2N=C(c3cccs3)C[C@@H]2c2ccco2)nc1-c1ccccc1)OCCOCCOC(=O)c1ccc(-c2c3nc(c(-c4c(F)c(F)c(F)c(F)c4F)c4ccc([nH]4)c(-c4c(F)c(F)c(F)c(F)c4F)c4nc(c(-c5c(F)c(F)c(F)c(F)c5F)c5ccc2[nH]5)C=C4)C=C3)cc1
REMARK SMILES IDX 32 1 31 2 30 3 2 4 1 5 3 6 4 7 5 8 23 9 6 10 22 11 24 12
REMARK SMILES IDX 25 13 29 14 26 15 28 16 27 17 7 18 8 19 16 20 9 21 15 22
REMARK SMILES IDX 17 23 18 24 21 25 19 26 20 27 10 28 11 29 14 30 12 31 13 32
REMARK SMILES IDX 33 33 34 34 35 35 36 36 37 37 38 38 39 39 40 40 101 41 41 42
REMARK SMILES IDX 100 43 42 44 43 45 44 46 94 47 45 48 99 49 93 50 95 51 46 52
REMARK SMILES IDX 98 53 92 54 91 55 47 57 79 58 59 59 78 60 60 61 63 62 77 63
REMARK SMILES IDX 96 64 61 65 62 66 76 68 97 69 64 70 48 71 49 72 57 73 50 74
REMARK SMILES IDX 51 75 55 76 58 77 52 78 53 79 56 80 54 81 80 82 81 83 89 84
REMARK SMILES IDX 82 85 83 86 87 87 90 88 84 89 85 90 88 91 86 92 65 93 66 94
REMARK SMILES IDX 74 95 67 96 68 97 72 98 75 99 69 100 70 101 73 102 71 103
REMARK H PARENT 95 56 63 67
REMARK Flexibility Score: inf
ROOT
ATOM      1  C   UNL     1       4.390   0.003   1.522  1.00  0.00     0.202 C 
ENDROOT
BRANCH   1   2
ATOM      2  C   UNL     1       3.453   0.935   0.744  1.00  0.00     0.261 C 
BRANCH   2   3
ATOM      3  O   UNL     1       2.114   0.512   0.490  1.00  0.00    -0.463 OA
BRANCH   3   4
ATOM      4  C   UNL     1       1.854  -0.088  -0.699  1.00  0.00     0.311 C 
ATOM      5  O   UNL     1       0.935   0.286  -1.419  1.00  0.00    -0.252 OA
BRANCH   4   6
ATOM      6  C   UNL     1       2.596  -1.368  -0.910  1.00  0.00     0.171 C 
BRANCH   6   7
ATOM      7  C   UNL     1       3.646  -1.402  -1.974  1.00  0.00     0.046 A 
ATOM      8  S   UNL     1       3.983  -2.990  -2.553  1.00  0.00    -0.099 S 
ATOM      9  C   UNL     1       4.498  -0.514  -2.628  1.00  0.00     0.087 A 
ATOM     10  C   UNL     1       5.281  -2.394  -3.498  1.00  0.00     0.207 A 
ATOM     11  N   UNL     1       5.504  -1.104  -3.381  1.00  0.00    -0.218 NA
BRANCH   9  12
ATOM     12  C   UNL     1       4.459   0.937  -2.540  1.00  0.00     0.001 A 
ATOM     13  C   UNL     1       5.497   1.635  -1.902  1.00  0.00     0.010 A 
ATOM     14  C   UNL     1       3.356   1.645  -3.030  1.00  0.00     0.010 A 
ATOM     15  C   UNL     1       5.352   2.999  -1.621  1.00  0.00     0.001 A 
ATOM     16  C   UNL     1       3.228   3.012  -2.775  1.00  0.00     0.001 A 
ATOM     17  C   UNL     1       4.206   3.678  -2.039  1.00  0.00     0.000 A 
ENDBRANCH   9  12
BRANCH  10  18
ATOM     18  N   UNL     1       5.932  -3.249  -4.318  1.00  0.00    -0.228 N 
ATOM     19  N   UNL     1       5.266  -3.982  -5.256  1.00  0.00    -0.173 NA
ATOM     20  C   UNL     1       7.375  -3.203  -4.517  1.00  0.00     0.183 C 
ATOM     21  C   UNL     1       6.155  -4.463  -6.056  1.00  0.00     0.081 C 
ATOM     22  C   UNL     1       7.575  -4.160  -5.706  1.00  0.00     0.095 C 
BRANCH  20  23
ATOM     23  C   UNL     1       8.244  -3.636  -3.362  1.00  0.00     0.128 A 
ATOM     24  C   UNL     1       9.603  -3.865  -3.240  1.00  0.00     0.048 A 
ATOM     25  O   UNL     1       7.635  -3.888  -2.164  1.00  0.00    -0.467 OA
ATOM     26  C   UNL     1       9.825  -4.293  -1.908  1.00  0.00     0.042 A 
ATOM     27  C   UNL     1       8.597  -4.281  -1.293  1.00  0.00     0.195 A 
ENDBRANCH  20  23
BRANCH  21  28
ATOM     28  C   UNL     1       5.783  -5.246  -7.194  1.00  0.00     0.050 A 
ATOM     29  C   UNL     1       6.027  -6.579  -7.443  1.00  0.00     0.022 A 
ATOM     30  S   UNL     1       4.862  -4.514  -8.433  1.00  0.00    -0.142 S 
ATOM     31  C   UNL     1       5.430  -7.005  -8.666  1.00  0.00     0.012 A 
ATOM     32  C   UNL     1       4.776  -5.978  -9.310  1.00  0.00     0.065 A 
ENDBRANCH  21  28
ENDBRANCH  10  18
ENDBRANCH   6   7
ENDBRANCH   4   6
ENDBRANCH   3   4
ENDBRANCH   2   3
ENDBRANCH   1   2
BRANCH   1  33
ATOM     33  O   UNL     1       3.899  -0.841   2.550  1.00  0.00    -0.374 OA
BRANCH  33  34
ATOM     34  C   UNL     1       2.658  -0.552   3.167  1.00  0.00     0.202 C 
BRANCH  34  35
ATOM     35  C   UNL     1       2.591   0.676   4.081  1.00  0.00     0.261 C 
BRANCH  35  36
ATOM     36  O   UNL     1       3.088   1.898   3.513  1.00  0.00    -0.460 OA
BRANCH  36  37
ATOM     37  C   UNL     1       4.359   2.231   3.855  1.00  0.00     0.338 C 
ATOM     38  O   UNL     1       5.125   1.591   4.550  1.00  0.00    -0.246 OA
BRANCH  37  39
ATOM     39  C   UNL     1       4.758   3.482   3.166  1.00  0.00     0.060 A 
ATOM     40  C   UNL     1       6.018   3.545   2.556  1.00  0.00     0.016 A 
ATOM     41  C   UNL     1       3.938   4.612   3.201  1.00  0.00     0.016 A 
ATOM     42  C   UNL     1       6.485   4.754   2.029  1.00  0.00     0.010 A 
ATOM     43  C   UNL     1       4.409   5.823   2.682  1.00  0.00     0.010 A 
ATOM     44  C   UNL     1       5.700   5.911   2.129  1.00  0.00    -0.014 A 
BRANCH  44  45
ATOM     45  C   UNL     1       6.280   7.250   1.844  1.00  0.00     0.031 A 
ATOM     46  C   UNL     1       6.801   8.066   2.994  1.00  0.00     0.074 A 
ATOM     47  C   UNL     1       6.317   7.753   0.598  1.00  0.00     0.049 A 
ATOM     48  N   UNL     1       7.270   9.288   3.004  1.00  0.00    -0.248 NA
ATOM     49  C   UNL     1       6.784   7.415   4.313  1.00  0.00     0.031 C 
ATOM     50  C   UNL     1       5.879   7.053  -0.602  1.00  0.00     0.029 A 
ATOM     51  N   UNL     1       6.726   8.982   0.140  1.00  0.00    -0.354 N 
ATOM     52  C   UNL     1       7.602   9.551   4.326  1.00  0.00     0.074 A 
ATOM     53  C   UNL     1       7.246   8.378   5.095  1.00  0.00     0.031 C 
ATOM     54  C   UNL     1       6.013   7.869  -1.662  1.00  0.00     0.029 A 
ATOM     55  C   UNL     1       6.523   9.162  -1.208  1.00  0.00     0.049 A 
ATOM     56  H   UNL     1       7.126   9.669   0.721  1.00  0.00     0.167 HD
ATOM     57  C   UNL     1       8.162  10.667   4.850  1.00  0.00     0.037 A 
ATOM     58  C   UNL     1       6.707  10.252  -1.978  1.00  0.00     0.037 A 
ATOM     59  C   UNL     1       8.498  11.841   4.088  1.00  0.00     0.049 A 
ATOM     60  C   UNL     1       7.250  11.515  -1.355  1.00  0.00     0.074 A 
ATOM     61  C   UNL     1       9.084  13.016   4.525  1.00  0.00     0.029 A 
ATOM     62  N   UNL     1       8.259  11.996   2.730  1.00  0.00    -0.354 N 
ATOM     63  N   UNL     1       7.605  11.742  -0.113  1.00  0.00    -0.248 NA
ATOM     64  C   UNL     1       7.424  12.673  -2.245  1.00  0.00     0.031 C 
ATOM     65  C   UNL     1       9.141  13.904   3.447  1.00  0.00     0.029 A 
ATOM     66  C   UNL     1       8.657  13.259   2.320  1.00  0.00     0.049 A 
ATOM     67  H   UNL     1       7.866  11.309   2.143  1.00  0.00     0.167 HD
ATOM     68  C   UNL     1       8.079  13.049  -0.081  1.00  0.00     0.074 A 
ATOM     69  C   UNL     1       7.975  13.562  -1.430  1.00  0.00     0.031 C 
ATOM     70  C   UNL     1       8.561  13.757   0.971  1.00  0.00     0.037 A 
BRANCH  57  71
ATOM     71  C   UNL     1       8.418  10.680   6.330  1.00  0.00     0.064 A 
ATOM     72  C   UNL     1       9.402   9.868   6.915  1.00  0.00     0.173 A 
ATOM     73  C   UNL     1       7.684  11.529   7.171  1.00  0.00     0.173 A 
ATOM     74  F   UNL     1      10.123   9.027   6.158  1.00  0.00    -0.203 F 
ATOM     75  C   UNL     1       9.617   9.882   8.291  1.00  0.00     0.198 A 
ATOM     76  C   UNL     1       7.925  11.566   8.541  1.00  0.00     0.198 A 
ATOM     77  F   UNL     1       6.734  12.329   6.663  1.00  0.00    -0.203 F 
ATOM     78  F   UNL     1      10.522   9.056   8.835  1.00  0.00    -0.200 F 
ATOM     79  C   UNL     1       8.883  10.735   9.102  1.00  0.00     0.200 A 
ATOM     80  F   UNL     1       7.225  12.401   9.321  1.00  0.00    -0.200 F 
ATOM     81  F   UNL     1       9.094  10.751  10.425  1.00  0.00    -0.200 F 
ENDBRANCH  57  71
BRANCH  58  82
ATOM     82  C   UNL     1       6.374  10.211  -3.428  1.00  0.00     0.064 A 
ATOM     83  C   UNL     1       7.376  10.312  -4.403  1.00  0.00     0.173 A 
ATOM     84  C   UNL     1       5.046  10.107  -3.869  1.00  0.00     0.173 A 
ATOM     85  F   UNL     1       8.659  10.442  -4.034  1.00  0.00    -0.203 F 
ATOM     86  C   UNL     1       7.062  10.336  -5.761  1.00  0.00     0.198 A 
ATOM     87  C   UNL     1       4.735  10.100  -5.227  1.00  0.00     0.198 A 
ATOM     88  F   UNL     1       4.048  10.011  -2.978  1.00  0.00    -0.203 F 
ATOM     89  F   UNL     1       8.035  10.493  -6.669  1.00  0.00    -0.200 F 
ATOM     90  C   UNL     1       5.742  10.225  -6.172  1.00  0.00     0.200 A 
ATOM     91  F   UNL     1       3.460   9.982  -5.620  1.00  0.00    -0.200 F 
ATOM     92  F   UNL     1       5.440  10.252  -7.478  1.00  0.00    -0.200 F 
ENDBRANCH  58  82
BRANCH  70  93
ATOM     93  C   UNL     1       9.063  15.149   0.703  1.00  0.00     0.064 A 
ATOM     94  C   UNL     1       8.195  16.203   0.380  1.00  0.00     0.173 A 
ATOM     95  C   UNL     1      10.431  15.441   0.820  1.00  0.00     0.173 A 
ATOM     96  F   UNL     1       6.880  15.977   0.243  1.00  0.00    -0.203 F 
ATOM     97  C   UNL     1       8.682  17.489   0.158  1.00  0.00     0.198 A 
ATOM     98  C   UNL     1      10.909  16.735   0.633  1.00  0.00     0.198 A 
ATOM     99  F   UNL     1      11.306  14.473   1.135  1.00  0.00    -0.203 F 
ATOM    100  F   UNL     1       7.840  18.469  -0.199  1.00  0.00    -0.200 F 
ATOM    101  C   UNL     1      10.036  17.756   0.294  1.00  0.00     0.200 A 
ATOM    102  F   UNL     1      12.216  16.994   0.783  1.00  0.00    -0.200 F 
ATOM    103  F   UNL     1      10.500  18.997   0.092  1.00  0.00    -0.200 F 
ENDBRANCH  70  93
ENDBRANCH  44  45
ENDBRANCH  37  39
ENDBRANCH  36  37
ENDBRANCH  35  36
ENDBRANCH  34  35
ENDBRANCH  33  34
ENDBRANCH   1  33
TORSDOF 19
