REMARK SMILES O=C(OCCOCCOC(=O)[C@@H]1[C@H](C(=O)Nc2ccccc2OC(F)F)[C@@H]2C=C[C@H]1C2)c1ccc(-c2c3nc(c(-c4c(F)c(F)c(F)c(F)c4F)c4ccc([nH]4)c(-c4c(F)c(F)c(F)c(F)c4F)c4nc(c(-c5c(F)c(F)c(F)c(F)c5F)c5ccc2[nH]5)C=C4)C=C3)cc1
REMARK SMILES IDX 7 1 6 2 5 3 4 4 3 5 2 6 1 7 32 8 33 9 94 10 34 11 93 12
REMARK SMILES IDX 35 13 36 14 37 15 87 16 38 17 92 18 86 19 88 20 39 21 91 22
REMARK SMILES IDX 85 23 84 24 40 26 72 27 52 28 71 29 53 30 56 31 70 32 89 33
REMARK SMILES IDX 54 34 55 35 69 37 90 38 57 39 41 40 42 41 50 42 43 43 44 44
REMARK SMILES IDX 48 45 51 46 45 47 46 48 49 49 47 50 73 51 74 52 82 53 75 54
REMARK SMILES IDX 76 55 80 56 83 57 77 58 78 59 81 60 79 61 58 62 59 63 67 64
REMARK SMILES IDX 60 65 61 66 65 67 68 68 62 69 63 70 66 71 64 72 8 73 9 74
REMARK SMILES IDX 10 75 11 76 12 77 13 78 30 79 27 80 29 81 31 82 28 83 14 84
REMARK SMILES IDX 15 85 16 86 17 88 18 89 22 90 19 91 21 92 20 93 23 94 24 95
REMARK SMILES IDX 25 96 26 97
REMARK H PARENT 88 25 56 36 16 87
REMARK Flexibility Score: inf
ROOT
ATOM      1  C   UNL     1       3.325  -0.482  -1.227  1.00  0.00     0.202 C 
ENDROOT
BRANCH   1   2
ATOM      2  O   UNL     1       4.569  -0.459  -0.520  1.00  0.00    -0.374 OA
BRANCH   2   3
ATOM      3  C   UNL     1       4.575  -1.190   0.704  1.00  0.00     0.202 C 
BRANCH   3   4
ATOM      4  C   UNL     1       4.091  -0.344   1.887  1.00  0.00     0.261 C 
BRANCH   4   5
ATOM      5  O   UNL     1       2.683  -0.050   1.758  1.00  0.00    -0.460 OA
BRANCH   5   6
ATOM      6  C   UNL     1       2.067   1.095   1.383  1.00  0.00     0.338 C 
ATOM      7  O   UNL     1       0.838   1.143   1.415  1.00  0.00    -0.246 OA
BRANCH   6   8
ATOM      8  C   UNL     1       2.783   2.298   0.866  1.00  0.00     0.060 A 
ATOM      9  C   UNL     1       4.021   2.250   0.234  1.00  0.00     0.016 A 
ATOM     10  C   UNL     1       2.117   3.533   0.895  1.00  0.00     0.016 A 
ATOM     11  C   UNL     1       4.554   3.321  -0.440  1.00  0.00     0.010 A 
ATOM     12  C   UNL     1       2.688   4.664   0.298  1.00  0.00     0.010 A 
ATOM     13  C   UNL     1       3.905   4.540  -0.379  1.00  0.00    -0.014 A 
BRANCH  13  14
ATOM     14  C   UNL     1       4.729   5.673  -0.797  1.00  0.00     0.031 A 
ATOM     15  C   UNL     1       5.544   6.327   0.271  1.00  0.00     0.074 A 
ATOM     16  C   UNL     1       4.945   5.885  -2.105  1.00  0.00     0.049 A 
ATOM     17  N   UNL     1       6.320   7.368   0.204  1.00  0.00    -0.248 NA
ATOM     18  C   UNL     1       5.503   5.689   1.603  1.00  0.00     0.031 C 
ATOM     19  C   UNL     1       4.382   5.080  -3.194  1.00  0.00     0.029 A 
ATOM     20  N   UNL     1       5.733   6.801  -2.738  1.00  0.00    -0.354 N 
ATOM     21  C   UNL     1       6.812   7.542   1.490  1.00  0.00     0.074 A 
ATOM     22  C   UNL     1       6.283   6.484   2.313  1.00  0.00     0.031 C 
ATOM     23  C   UNL     1       4.842   5.548  -4.366  1.00  0.00     0.029 A 
ATOM     24  C   UNL     1       5.653   6.731  -4.107  1.00  0.00     0.049 A 
ATOM     25  H   UNL     1       6.302   7.447  -2.261  1.00  0.00     0.167 HD
ATOM     26  C   UNL     1       7.612   8.537   1.930  1.00  0.00     0.037 A 
ATOM     27  C   UNL     1       6.136   7.587  -5.024  1.00  0.00     0.037 A 
ATOM     28  C   UNL     1       8.096   9.564   1.051  1.00  0.00     0.049 A 
ATOM     29  C   UNL     1       6.896   8.779  -4.499  1.00  0.00     0.074 A 
ATOM     30  C   UNL     1       8.804  10.709   1.350  1.00  0.00     0.029 A 
ATOM     31  N   UNL     1       7.901   9.552  -0.328  1.00  0.00    -0.354 N 
ATOM     32  N   UNL     1       7.238   9.059  -3.261  1.00  0.00    -0.248 NA
ATOM     33  C   UNL     1       7.311   9.784  -5.481  1.00  0.00     0.031 C 
ATOM     34  C   UNL     1       8.989  11.416   0.156  1.00  0.00     0.029 A 
ATOM     35  C   UNL     1       8.458  10.679  -0.896  1.00  0.00     0.049 A 
ATOM     36  H   UNL     1       7.434   8.841  -0.825  1.00  0.00     0.167 HD
ATOM     37  C   UNL     1       7.925  10.262  -3.312  1.00  0.00     0.074 A 
ATOM     38  C   UNL     1       7.963  10.647  -4.713  1.00  0.00     0.031 C 
ATOM     39  C   UNL     1       8.471  10.991  -2.306  1.00  0.00     0.037 A 
BRANCH  26  40
ATOM     40  C   UNL     1       7.854   8.606   3.408  1.00  0.00     0.064 A 
ATOM     41  C   UNL     1       8.637   7.662   4.091  1.00  0.00     0.173 A 
ATOM     42  C   UNL     1       7.198   9.584   4.172  1.00  0.00     0.173 A 
ATOM     43  F   UNL     1       9.247   6.676   3.416  1.00  0.00    -0.203 F 
ATOM     44  C   UNL     1       8.719   7.670   5.483  1.00  0.00     0.198 A 
ATOM     45  C   UNL     1       7.307   9.608   5.560  1.00  0.00     0.198 A 
ATOM     46  F   UNL     1       6.418  10.497   3.575  1.00  0.00    -0.203 F 
ATOM     47  F   UNL     1       9.402   6.707   6.118  1.00  0.00    -0.200 F 
ATOM     48  C   UNL     1       8.056   8.643   6.215  1.00  0.00     0.200 A 
ATOM     49  F   UNL     1       6.660  10.546   6.264  1.00  0.00    -0.200 F 
ATOM     50  F   UNL     1       8.118   8.637   7.554  1.00  0.00    -0.200 F 
ENDBRANCH  26  40
BRANCH  27  51
ATOM     51  C   UNL     1       5.833   7.407  -6.469  1.00  0.00     0.064 A 
ATOM     52  C   UNL     1       6.849   7.212  -7.414  1.00  0.00     0.173 A 
ATOM     53  C   UNL     1       4.510   7.442  -6.945  1.00  0.00     0.173 A 
ATOM     54  F   UNL     1       8.131   7.189  -7.023  1.00  0.00    -0.203 F 
ATOM     55  C   UNL     1       6.558   7.077  -8.773  1.00  0.00     0.198 A 
ATOM     56  C   UNL     1       4.218   7.274  -8.297  1.00  0.00     0.198 A 
ATOM     57  F   UNL     1       3.493   7.632  -6.091  1.00  0.00    -0.203 F 
ATOM     58  F   UNL     1       7.554   6.940  -9.658  1.00  0.00    -0.200 F 
ATOM     59  C   UNL     1       5.242   7.102  -9.212  1.00  0.00     0.200 A 
ATOM     60  F   UNL     1       2.943   7.285  -8.711  1.00  0.00    -0.200 F 
ATOM     61  F   UNL     1       4.964   6.971 -10.516  1.00  0.00    -0.200 F 
ENDBRANCH  27  51
BRANCH  39  62
ATOM     62  C   UNL     1       9.197  12.239  -2.702  1.00  0.00     0.064 A 
ATOM     63  C   UNL     1       8.512  13.385  -3.125  1.00  0.00     0.173 A 
ATOM     64  C   UNL     1      10.593  12.300  -2.583  1.00  0.00     0.173 A 
ATOM     65  F   UNL     1       7.178  13.364  -3.266  1.00  0.00    -0.203 F 
ATOM     66  C   UNL     1       9.206  14.549  -3.437  1.00  0.00     0.198 A 
ATOM     67  C   UNL     1      11.278  13.476  -2.860  1.00  0.00     0.198 A 
ATOM     68  F   UNL     1      11.285  11.227  -2.171  1.00  0.00    -0.203 F 
ATOM     69  F   UNL     1       8.541  15.623  -3.884  1.00  0.00    -0.200 F 
ATOM     70  C   UNL     1      10.586  14.596  -3.293  1.00  0.00     0.200 A 
ATOM     71  F   UNL     1      12.607  13.526  -2.700  1.00  0.00    -0.200 F 
ATOM     72  F   UNL     1      11.250  15.725  -3.576  1.00  0.00    -0.200 F 
ENDBRANCH  39  62
ENDBRANCH  13  14
ENDBRANCH   6   8
ENDBRANCH   5   6
ENDBRANCH   4   5
ENDBRANCH   3   4
ENDBRANCH   2   3
ENDBRANCH   1   2
BRANCH   1  73
ATOM     73  C   UNL     1       3.611  -1.225  -2.496  1.00  0.00     0.261 C 
BRANCH  73  74
ATOM     74  O   UNL     1       4.075  -2.512  -2.048  1.00  0.00    -0.463 OA
BRANCH  74  75
ATOM     75  C   UNL     1       4.965  -3.136  -2.841  1.00  0.00     0.310 C 
ATOM     76  O   UNL     1       5.398  -2.677  -3.897  1.00  0.00    -0.252 OA
BRANCH  75  77
ATOM     77  C   UNL     1       5.393  -4.458  -2.287  1.00  0.00     0.119 C 
ATOM     78  C   UNL     1       5.040  -5.808  -2.970  1.00  0.00     0.100 C 
ATOM     79  C   UNL     1       5.249  -4.771  -0.774  1.00  0.00     0.027 C 
ATOM     80  C   UNL     1       5.000  -6.780  -1.749  1.00  0.00     0.025 C 
ATOM     81  C   UNL     1       3.887  -5.302  -0.394  1.00  0.00    -0.027 C 
ATOM     82  C   UNL     1       5.990  -6.124  -0.769  1.00  0.00     0.017 C 
ATOM     83  C   UNL     1       3.763  -6.522  -0.937  1.00  0.00    -0.027 C 
BRANCH  78  84
ATOM     84  C   UNL     1       4.013  -6.165  -4.082  1.00  0.00     0.229 C 
ATOM     85  O   UNL     1       4.471  -6.556  -5.168  1.00  0.00    -0.274 OA
ATOM     86  N   UNL     1       2.665  -6.348  -3.916  1.00  0.00    -0.323 N 
ATOM     87  H   UNL     1       2.293  -7.101  -4.430  1.00  0.00     0.170 HD
BRANCH  86  88
ATOM     88  C   UNL     1       1.722  -5.656  -3.145  1.00  0.00     0.084 A 
ATOM     89  C   UNL     1       0.687  -6.355  -2.519  1.00  0.00     0.030 A 
ATOM     90  C   UNL     1       1.782  -4.284  -2.985  1.00  0.00     0.149 A 
ATOM     91  C   UNL     1      -0.073  -5.731  -1.520  1.00  0.00     0.002 A 
ATOM     92  C   UNL     1       1.072  -3.667  -1.951  1.00  0.00     0.049 A 
ATOM     93  C   UNL     1       0.172  -4.402  -1.186  1.00  0.00     0.004 A 
BRANCH  90  94
ATOM     94  O   UNL     1       2.614  -3.540  -3.751  1.00  0.00    -0.433 OA
BRANCH  94  95
ATOM     95  C   UNL     1       2.257  -3.292  -5.103  1.00  0.00     0.542 C 
ATOM     96  F   UNL     1       2.610  -4.338  -5.877  1.00  0.00    -0.167 F 
ATOM     97  F   UNL     1       0.925  -3.101  -5.213  1.00  0.00    -0.167 F 
ENDBRANCH  94  95
ENDBRANCH  90  94
ENDBRANCH  86  88
ENDBRANCH  78  84
ENDBRANCH  75  77
ENDBRANCH  74  75
ENDBRANCH  73  74
ENDBRANCH   1  73
TORSDOF 18
