REMARK SMILES Cc1nn(CC(F)F)c2c1c(C(F)(F)F)cc(=O)n2CC(=O)OCCOCCOC(=O)c1ccc(-c2c3nc(c(-c4c(F)c(F)c(F)c(F)c4F)c4ccc([nH]4)c(-c4c(F)c(F)c(F)c(F)c4F)c4nc(c(-c5c(F)c(F)c(F)c(F)c5F)c5ccc2[nH]5)C=C4)C=C3)cc1
REMARK SMILES IDX 25 1 24 2 23 3 21 4 22 5 20 6 19 7 1 8 2 9 3 10 10 11 4 12
REMARK SMILES IDX 9 13 11 14 16 15 17 16 18 17 5 18 6 19 7 20 8 21 12 22 13 23
REMARK SMILES IDX 14 24 15 25 26 26 27 27 28 28 29 29 30 30 31 31 32 32 33 33
REMARK SMILES IDX 94 34 34 35 93 36 35 37 36 38 37 39 87 40 38 41 92 42 86 43
REMARK SMILES IDX 88 44 39 45 91 46 85 47 84 48 40 50 72 51 52 52 71 53 53 54
REMARK SMILES IDX 56 55 70 56 89 57 54 58 55 59 69 61 90 62 57 63 41 64 42 65
REMARK SMILES IDX 50 66 43 67 44 68 48 69 51 70 45 71 46 72 49 73 47 74 73 75
REMARK SMILES IDX 74 76 82 77 75 78 76 79 80 80 83 81 77 82 78 83 81 84 79 85
REMARK SMILES IDX 58 86 59 87 67 88 60 89 61 90 65 91 68 92 62 93 63 94 66 95
REMARK SMILES IDX 64 96
REMARK H PARENT 88 49 56 60
REMARK Flexibility Score: inf
ROOT
ATOM      1  C   UNL     1      -4.261   5.885   0.461  1.00  0.00     0.202 C 
ENDROOT
BRANCH   1   2
ATOM      2  C   UNL     1      -3.116   6.906   0.475  1.00  0.00     0.261 C 
BRANCH   2   3
ATOM      3  O   UNL     1      -1.793   6.324   0.487  1.00  0.00    -0.462 OA
BRANCH   3   4
ATOM      4  C   UNL     1      -0.977   6.820   1.454  1.00  0.00     0.326 C 
ATOM      5  O   UNL     1      -1.309   7.699   2.247  1.00  0.00    -0.250 OA
BRANCH   4   6
ATOM      6  C   UNL     1       0.412   6.192   1.544  1.00  0.00     0.250 C 
BRANCH   6   7
ATOM      7  N   UNL     1       0.830   5.059   0.721  1.00  0.00    -0.282 N 
ATOM      8  C   UNL     1       0.986   0.070   0.353  1.00  0.00     0.069 C 
ATOM      9  C   UNL     1       0.907   1.467   0.863  1.00  0.00     0.069 A 
ATOM     10  N   UNL     1       0.319   1.700   2.043  1.00  0.00    -0.175 NA
ATOM     11  C   UNL     1       1.309   2.681   0.265  1.00  0.00     0.053 A 
ATOM     12  N   UNL     1       0.270   3.048   2.163  1.00  0.00    -0.243 N 
ATOM     13  C   UNL     1       0.793   3.693   1.060  1.00  0.00     0.142 A 
ATOM     14  C   UNL     1       2.020   3.025  -0.922  1.00  0.00     0.074 A 
ATOM     15  C   UNL     1       2.098   4.316  -1.286  1.00  0.00     0.085 A 
ATOM     16  C   UNL     1       1.442   5.395  -0.496  1.00  0.00     0.253 A 
ATOM     17  O   UNL     1       1.512   6.543  -0.933  1.00  0.00    -0.269 OA
BRANCH  12  18
ATOM     18  C   UNL     1      -0.518   3.550   3.262  1.00  0.00     0.219 C 
BRANCH  18  19
ATOM     19  C   UNL     1       0.229   3.782   4.544  1.00  0.00     0.363 C 
ATOM     20  F   UNL     1       1.204   4.706   4.359  1.00  0.00    -0.208 F 
ATOM     21  F   UNL     1      -0.641   4.335   5.435  1.00  0.00    -0.208 F 
ENDBRANCH  18  19
ENDBRANCH  12  18
BRANCH  14  22
ATOM     22  C   UNL     1       2.728   1.943  -1.677  1.00  0.00     0.417 C 
ATOM     23  F   UNL     1       3.518   1.177  -0.881  1.00  0.00    -0.166 F 
ATOM     24  F   UNL     1       1.863   1.107  -2.305  1.00  0.00    -0.166 F 
ATOM     25  F   UNL     1       3.544   2.440  -2.647  1.00  0.00    -0.166 F 
ENDBRANCH  14  22
ENDBRANCH   6   7
ENDBRANCH   4   6
ENDBRANCH   3   4
ENDBRANCH   2   3
ENDBRANCH   1   2
BRANCH   1  26
ATOM     26  O   UNL     1      -4.335   4.834   1.413  1.00  0.00    -0.374 OA
BRANCH  26  27
ATOM     27  C   UNL     1      -3.246   3.924   1.437  1.00  0.00     0.202 C 
BRANCH  27  28
ATOM     28  C   UNL     1      -2.982   2.959   0.265  1.00  0.00     0.261 C 
BRANCH  28  29
ATOM     29  O   UNL     1      -2.952   3.617  -1.002  1.00  0.00    -0.460 OA
BRANCH  29  30
ATOM     30  C   UNL     1      -3.788   3.083  -1.944  1.00  0.00     0.338 C 
ATOM     31  O   UNL     1      -4.193   1.951  -2.020  1.00  0.00    -0.246 OA
BRANCH  30  32
ATOM     32  C   UNL     1      -4.432   4.262  -2.566  1.00  0.00     0.060 A 
ATOM     33  C   UNL     1      -3.656   5.345  -2.991  1.00  0.00     0.016 A 
ATOM     34  C   UNL     1      -5.803   4.408  -2.290  1.00  0.00     0.016 A 
ATOM     35  C   UNL     1      -4.240   6.606  -3.019  1.00  0.00     0.010 A 
ATOM     36  C   UNL     1      -6.374   5.678  -2.293  1.00  0.00     0.010 A 
ATOM     37  C   UNL     1      -5.583   6.784  -2.615  1.00  0.00    -0.014 A 
BRANCH  37  38
ATOM     38  C   UNL     1      -6.199   8.083  -2.901  1.00  0.00     0.031 A 
ATOM     39  C   UNL     1      -6.282   8.253  -4.375  1.00  0.00     0.074 A 
ATOM     40  C   UNL     1      -6.737   8.988  -2.052  1.00  0.00     0.049 A 
ATOM     41  N   UNL     1      -5.607   9.077  -5.104  1.00  0.00    -0.248 NA
ATOM     42  C   UNL     1      -7.007   7.222  -5.140  1.00  0.00     0.031 C 
ATOM     43  C   UNL     1      -6.978   8.864  -0.616  1.00  0.00     0.029 A 
ATOM     44  N   UNL     1      -7.262  10.224  -2.334  1.00  0.00    -0.354 N 
ATOM     45  C   UNL     1      -5.966   8.783  -6.415  1.00  0.00     0.074 A 
ATOM     46  C   UNL     1      -6.644   7.519  -6.386  1.00  0.00     0.031 C 
ATOM     47  C   UNL     1      -7.787   9.870  -0.201  1.00  0.00     0.029 A 
ATOM     48  C   UNL     1      -8.025  10.781  -1.307  1.00  0.00     0.049 A 
ATOM     49  H   UNL     1      -7.113  10.682  -3.193  1.00  0.00     0.167 HD
ATOM     50  C   UNL     1      -5.941   9.753  -7.365  1.00  0.00     0.037 A 
ATOM     51  C   UNL     1      -8.820  11.884  -1.384  1.00  0.00     0.037 A 
ATOM     52  C   UNL     1      -5.101  10.846  -6.946  1.00  0.00     0.049 A 
ATOM     53  C   UNL     1      -8.357  12.672  -2.546  1.00  0.00     0.074 A 
ATOM     54  C   UNL     1      -3.755  11.034  -6.721  1.00  0.00     0.029 A 
ATOM     55  N   UNL     1      -5.761  11.862  -6.308  1.00  0.00    -0.354 N 
ATOM     56  N   UNL     1      -7.225  13.313  -2.587  1.00  0.00    -0.248 NA
ATOM     57  C   UNL     1      -9.021  12.483  -3.827  1.00  0.00     0.031 C 
ATOM     58  C   UNL     1      -3.668  12.018  -5.690  1.00  0.00     0.029 A 
ATOM     59  C   UNL     1      -4.959  12.428  -5.359  1.00  0.00     0.049 A 
ATOM     60  H   UNL     1      -6.683  12.145  -6.506  1.00  0.00     0.167 HD
ATOM     61  C   UNL     1      -6.823  13.207  -3.904  1.00  0.00     0.074 A 
ATOM     62  C   UNL     1      -8.028  12.847  -4.642  1.00  0.00     0.031 C 
ATOM     63  C   UNL     1      -5.497  13.116  -4.207  1.00  0.00     0.037 A 
BRANCH  50  64
ATOM     64  C   UNL     1      -7.054   9.941  -8.381  1.00  0.00     0.064 A 
ATOM     65  C   UNL     1      -6.949  11.001  -9.305  1.00  0.00     0.173 A 
ATOM     66  C   UNL     1      -8.336   9.350  -8.293  1.00  0.00     0.173 A 
ATOM     67  F   UNL     1      -5.792  11.663  -9.458  1.00  0.00    -0.203 F 
ATOM     68  C   UNL     1      -8.054  11.476 -10.019  1.00  0.00     0.198 A 
ATOM     69  C   UNL     1      -9.422   9.791  -9.046  1.00  0.00     0.198 A 
ATOM     70  F   UNL     1      -8.639   8.401  -7.402  1.00  0.00    -0.203 F 
ATOM     71  F   UNL     1      -7.930  12.568 -10.785  1.00  0.00    -0.200 F 
ATOM     72  C   UNL     1      -9.290  10.873  -9.886  1.00  0.00     0.200 A 
ATOM     73  F   UNL     1     -10.617   9.207  -8.878  1.00  0.00    -0.200 F 
ATOM     74  F   UNL     1     -10.362  11.360 -10.524  1.00  0.00    -0.200 F 
ENDBRANCH  50  64
BRANCH  51  75
ATOM     75  C   UNL     1     -10.106  12.221  -0.711  1.00  0.00     0.064 A 
ATOM     76  C   UNL     1     -10.658  13.517  -0.808  1.00  0.00     0.173 A 
ATOM     77  C   UNL     1     -10.976  11.216  -0.253  1.00  0.00     0.173 A 
ATOM     78  F   UNL     1      -9.916  14.538  -1.263  1.00  0.00    -0.203 F 
ATOM     79  C   UNL     1     -12.007  13.773  -0.530  1.00  0.00     0.198 A 
ATOM     80  C   UNL     1     -12.321  11.475   0.031  1.00  0.00     0.198 A 
ATOM     81  F   UNL     1     -10.568   9.943  -0.172  1.00  0.00    -0.203 F 
ATOM     82  F   UNL     1     -12.510  15.001  -0.723  1.00  0.00    -0.200 F 
ATOM     83  C   UNL     1     -12.842  12.746  -0.128  1.00  0.00     0.200 A 
ATOM     84  F   UNL     1     -13.129  10.466   0.388  1.00  0.00    -0.200 F 
ATOM     85  F   UNL     1     -14.150  12.970   0.059  1.00  0.00    -0.200 F 
ENDBRANCH  51  75
BRANCH  63  86
ATOM     86  C   UNL     1      -4.516  13.598  -3.180  1.00  0.00     0.064 A 
ATOM     87  C   UNL     1      -4.317  13.006  -1.922  1.00  0.00     0.173 A 
ATOM     88  C   UNL     1      -3.652  14.637  -3.553  1.00  0.00     0.173 A 
ATOM     89  F   UNL     1      -5.054  11.960  -1.524  1.00  0.00    -0.203 F 
ATOM     90  C   UNL     1      -3.306  13.453  -1.071  1.00  0.00     0.198 A 
ATOM     91  C   UNL     1      -2.619  15.052  -2.721  1.00  0.00     0.198 A 
ATOM     92  F   UNL     1      -3.778  15.216  -4.758  1.00  0.00    -0.203 F 
ATOM     93  F   UNL     1      -3.135  12.880   0.129  1.00  0.00    -0.200 F 
ATOM     94  C   UNL     1      -2.450  14.465  -1.478  1.00  0.00     0.200 A 
ATOM     95  F   UNL     1      -1.768  15.999  -3.139  1.00  0.00    -0.200 F 
ATOM     96  F   UNL     1      -1.444  14.857  -0.683  1.00  0.00    -0.200 F 
ENDBRANCH  63  86
ENDBRANCH  37  38
ENDBRANCH  30  32
ENDBRANCH  29  30
ENDBRANCH  28  29
ENDBRANCH  27  28
ENDBRANCH  26  27
ENDBRANCH   1  26
TORSDOF 18
