REMARK SMILES CC(C)[C@@H]1CCCN1C(=O)N1CCO[C@H](CC(=O)OCCOCCOC(=O)c2ccc(-c3c4nc(c(-c5c(F)c(F)c(F)c(F)c5F)c5ccc([nH]5)c(-c5c(F)c(F)c(F)c(F)c5F)c5nc(c(-c6c(F)c(F)c(F)c(F)c6F)c6ccc3[nH]6)C=C5)C=C4)cc2)C1
REMARK SMILES IDX 21 1 20 2 19 3 17 4 18 5 16 6 15 7 11 8 12 9 91 10 13 11
REMARK SMILES IDX 14 12 9 13 10 14 8 15 4 16 5 17 6 18 7 19 2 20 1 21 3 22
REMARK SMILES IDX 22 23 23 24 24 25 25 26 26 27 27 28 28 29 29 30 90 31 30 32
REMARK SMILES IDX 89 33 31 34 32 35 33 36 83 37 34 38 88 39 82 40 84 41 35 42
REMARK SMILES IDX 87 43 81 44 80 45 36 47 68 48 48 49 67 50 49 51 52 52 66 53
REMARK SMILES IDX 85 54 50 55 51 56 65 58 86 59 53 60 37 61 38 62 46 63 39 64
REMARK SMILES IDX 40 65 44 66 47 67 41 68 42 69 45 70 43 71 69 72 70 73 78 74
REMARK SMILES IDX 71 75 72 76 76 77 79 78 73 79 74 80 77 81 75 82 54 83 55 84
REMARK SMILES IDX 63 85 56 86 57 87 61 88 64 89 58 90 59 91 62 92 60 93
REMARK H PARENT 84 46 52 57
REMARK Flexibility Score: inf
ROOT
ATOM      1  C   UNL     1       2.888   1.200  -5.296  1.00  0.00     0.202 C 
ENDROOT
BRANCH   1   2
ATOM      2  C   UNL     1       1.365   1.134  -5.191  1.00  0.00     0.261 C 
BRANCH   2   3
ATOM      3  O   UNL     1       0.999  -0.043  -4.447  1.00  0.00    -0.463 OA
BRANCH   3   4
ATOM      4  C   UNL     1       0.196  -0.940  -5.047  1.00  0.00     0.308 C 
ATOM      5  O   UNL     1      -0.372  -0.746  -6.117  1.00  0.00    -0.252 OA
BRANCH   4   6
ATOM      6  C   UNL     1      -0.045  -2.203  -4.256  1.00  0.00     0.156 C 
BRANCH   6   7
ATOM      7  C   UNL     1       0.908  -2.786  -3.186  1.00  0.00     0.149 C 
ATOM      8  N   UNL     1       0.095  -2.262  -0.936  1.00  0.00    -0.320 N 
ATOM      9  C   UNL     1       1.432  -2.230  -0.375  1.00  0.00     0.150 C 
ATOM     10  C   UNL     1       0.051  -3.257  -1.991  1.00  0.00     0.154 C 
ATOM     11  C   UNL     1       2.499  -2.062  -1.473  1.00  0.00     0.182 C 
ATOM     12  O   UNL     1       1.988  -1.919  -2.811  1.00  0.00    -0.374 OA
BRANCH   8  13
ATOM     13  C   UNL     1      -0.989  -2.184  -0.103  1.00  0.00     0.320 C 
ATOM     14  O   UNL     1      -1.444  -3.211   0.405  1.00  0.00    -0.248 OA
BRANCH  13  15
ATOM     15  N   UNL     1      -1.609  -0.957   0.039  1.00  0.00    -0.321 N 
ATOM     16  C   UNL     1      -1.376   0.381  -0.553  1.00  0.00     0.089 C 
ATOM     17  C   UNL     1      -2.423   1.257   0.160  1.00  0.00     0.027 C 
ATOM     18  C   UNL     1      -3.606   0.330   0.295  1.00  0.00     0.024 C 
ATOM     19  C   UNL     1      -2.947  -0.998   0.630  1.00  0.00     0.122 C 
BRANCH  16  20
ATOM     20  C   UNL     1      -0.020   1.120  -0.453  1.00  0.00     0.005 C 
ATOM     21  C   UNL     1       0.785   0.904   0.823  1.00  0.00     0.009 C 
ATOM     22  C   UNL     1       0.777   0.919  -1.725  1.00  0.00     0.009 C 
ENDBRANCH  16  20
ENDBRANCH  13  15
ENDBRANCH   8  13
ENDBRANCH   6   7
ENDBRANCH   4   6
ENDBRANCH   3   4
ENDBRANCH   2   3
ENDBRANCH   1   2
BRANCH   1  23
ATOM     23  O   UNL     1       3.432   0.300  -6.265  1.00  0.00    -0.374 OA
BRANCH  23  24
ATOM     24  C   UNL     1       3.502  -1.072  -5.879  1.00  0.00     0.202 C 
BRANCH  24  25
ATOM     25  C   UNL     1       4.838  -1.493  -5.267  1.00  0.00     0.261 C 
BRANCH  25  26
ATOM     26  O   UNL     1       5.055  -0.886  -3.981  1.00  0.00    -0.460 OA
BRANCH  26  27
ATOM     27  C   UNL     1       5.775   0.257  -4.026  1.00  0.00     0.338 C 
ATOM     28  O   UNL     1       6.284   0.771  -5.008  1.00  0.00    -0.246 OA
BRANCH  27  29
ATOM     29  C   UNL     1       5.819   0.903  -2.700  1.00  0.00     0.060 A 
ATOM     30  C   UNL     1       5.755   2.301  -2.675  1.00  0.00     0.016 A 
ATOM     31  C   UNL     1       6.067   0.183  -1.528  1.00  0.00     0.016 A 
ATOM     32  C   UNL     1       6.053   2.989  -1.504  1.00  0.00     0.010 A 
ATOM     33  C   UNL     1       6.354   0.877  -0.347  1.00  0.00     0.010 A 
ATOM     34  C   UNL     1       6.417   2.282  -0.350  1.00  0.00    -0.014 A 
BRANCH  34  35
ATOM     35  C   UNL     1       7.050   3.023   0.771  1.00  0.00     0.031 A 
ATOM     36  C   UNL     1       8.545   2.946   0.944  1.00  0.00     0.074 A 
ATOM     37  C   UNL     1       6.318   3.817   1.571  1.00  0.00     0.049 A 
ATOM     38  N   UNL     1       9.312   3.531   1.830  1.00  0.00    -0.248 NA
ATOM     39  C   UNL     1       9.274   2.094  -0.008  1.00  0.00     0.031 C 
ATOM     40  C   UNL     1       4.873   4.007   1.477  1.00  0.00     0.029 A 
ATOM     41  N   UNL     1       6.699   4.620   2.616  1.00  0.00    -0.354 N 
ATOM     42  C   UNL     1      10.606   3.111   1.546  1.00  0.00     0.074 A 
ATOM     43  C   UNL     1      10.519   2.191   0.434  1.00  0.00     0.031 C 
ATOM     44  C   UNL     1       4.486   4.877   2.426  1.00  0.00     0.029 A 
ATOM     45  C   UNL     1       5.652   5.280   3.211  1.00  0.00     0.049 A 
ATOM     46  H   UNL     1       7.633   4.714   2.912  1.00  0.00     0.167 HD
ATOM     47  C   UNL     1      11.765   3.473   2.147  1.00  0.00     0.037 A 
ATOM     48  C   UNL     1       5.638   6.104   4.275  1.00  0.00     0.037 A 
ATOM     49  C   UNL     1      11.853   4.400   3.245  1.00  0.00     0.049 A 
ATOM     50  C   UNL     1       6.935   6.448   4.962  1.00  0.00     0.074 A 
ATOM     51  C   UNL     1      12.982   4.846   3.911  1.00  0.00     0.029 A 
ATOM     52  N   UNL     1      10.766   5.022   3.841  1.00  0.00    -0.354 N 
ATOM     53  N   UNL     1       8.155   6.066   4.672  1.00  0.00    -0.248 NA
ATOM     54  C   UNL     1       6.851   7.351   6.119  1.00  0.00     0.031 C 
ATOM     55  C   UNL     1      12.573   5.693   4.946  1.00  0.00     0.029 A 
ATOM     56  C   UNL     1      11.195   5.829   4.884  1.00  0.00     0.049 A 
ATOM     57  H   UNL     1       9.828   4.908   3.565  1.00  0.00     0.167 HD
ATOM     58  C   UNL     1       8.985   6.706   5.584  1.00  0.00     0.074 A 
ATOM     59  C   UNL     1       8.129   7.513   6.429  1.00  0.00     0.031 C 
ATOM     60  C   UNL     1      10.334   6.635   5.710  1.00  0.00     0.037 A 
BRANCH  47  61
ATOM     61  C   UNL     1      13.035   2.843   1.647  1.00  0.00     0.064 A 
ATOM     62  C   UNL     1      13.574   3.155   0.390  1.00  0.00     0.173 A 
ATOM     63  C   UNL     1      13.741   1.938   2.455  1.00  0.00     0.173 A 
ATOM     64  F   UNL     1      12.933   4.004  -0.427  1.00  0.00    -0.203 F 
ATOM     65  C   UNL     1      14.756   2.565  -0.051  1.00  0.00     0.198 A 
ATOM     66  C   UNL     1      14.940   1.374   2.025  1.00  0.00     0.198 A 
ATOM     67  F   UNL     1      13.274   1.606   3.668  1.00  0.00    -0.203 F 
ATOM     68  F   UNL     1      15.225   2.840  -1.276  1.00  0.00    -0.200 F 
ATOM     69  C   UNL     1      15.442   1.682   0.769  1.00  0.00     0.200 A 
ATOM     70  F   UNL     1      15.608   0.532   2.825  1.00  0.00    -0.200 F 
ATOM     71  F   UNL     1      16.584   1.121   0.347  1.00  0.00    -0.200 F 
ENDBRANCH  47  61
BRANCH  48  72
ATOM     72  C   UNL     1       4.349   6.664   4.762  1.00  0.00     0.064 A 
ATOM     73  C   UNL     1       4.071   8.035   4.672  1.00  0.00     0.173 A 
ATOM     74  C   UNL     1       3.377   5.839   5.346  1.00  0.00     0.173 A 
ATOM     75  F   UNL     1       4.979   8.868   4.142  1.00  0.00    -0.203 F 
ATOM     76  C   UNL     1       2.881   8.562   5.168  1.00  0.00     0.198 A 
ATOM     77  C   UNL     1       2.173   6.362   5.812  1.00  0.00     0.198 A 
ATOM     78  F   UNL     1       3.592   4.519   5.456  1.00  0.00    -0.203 F 
ATOM     79  F   UNL     1       2.663   9.883   5.116  1.00  0.00    -0.200 F 
ATOM     80  C   UNL     1       1.930   7.725   5.732  1.00  0.00     0.200 A 
ATOM     81  F   UNL     1       1.252   5.547   6.343  1.00  0.00    -0.200 F 
ATOM     82  F   UNL     1       0.784   8.232   6.206  1.00  0.00    -0.200 F 
ENDBRANCH  48  72
BRANCH  60  83
ATOM     83  C   UNL     1      10.975   7.491   6.767  1.00  0.00     0.064 A 
ATOM     84  C   UNL     1      10.813   7.228   8.135  1.00  0.00     0.173 A 
ATOM     85  C   UNL     1      11.787   8.576   6.401  1.00  0.00     0.173 A 
ATOM     86  F   UNL     1      10.039   6.210   8.540  1.00  0.00    -0.203 F 
ATOM     87  C   UNL     1      11.408   8.041   9.097  1.00  0.00     0.198 A 
ATOM     88  C   UNL     1      12.409   9.366   7.364  1.00  0.00     0.198 A 
ATOM     89  F   UNL     1      11.985   8.867   5.106  1.00  0.00    -0.203 F 
ATOM     90  F   UNL     1      11.189   7.807  10.398  1.00  0.00    -0.200 F 
ATOM     91  C   UNL     1      12.210   9.105   8.711  1.00  0.00     0.200 A 
ATOM     92  F   UNL     1      13.197  10.382   6.988  1.00  0.00    -0.200 F 
ATOM     93  F   UNL     1      12.784   9.884   9.638  1.00  0.00    -0.200 F 
ENDBRANCH  60  83
ENDBRANCH  34  35
ENDBRANCH  27  29
ENDBRANCH  26  27
ENDBRANCH  25  26
ENDBRANCH  24  25
ENDBRANCH  23  24
ENDBRANCH   1  23
TORSDOF 18
