REMARK SMILES C[C@]12C(=O)N(c3ccc(C(=O)OCCOCCOC(=O)c4ccc(-c5c6nc(c(-c7c(F)c(F)c(F)c(F)c7F)c7ccc([nH]7)c(-c7c(F)c(F)c(F)c(F)c7F)c7nc(c(-c8c(F)c(F)c(F)c(F)c8F)c8ccc5[nH]8)C=C7)C=C6)cc4)cc3)C(=O)[C@H]1[C@H]1c3ccccc3[C@@H]2c2ccccc21
REMARK SMILES IDX 16 1 15 2 14 3 13 4 12 5 10 6 11 7 9 8 6 9 7 10 85 11 8 12
REMARK SMILES IDX 84 13 5 14 1 15 2 16 3 17 88 18 96 19 4 20 86 21 89 22 95 23
REMARK SMILES IDX 97 24 87 25 90 26 102 27 94 28 98 29 91 30 101 31 93 32
REMARK SMILES IDX 99 33 92 34 100 35 17 36 18 37 19 38 20 39 21 40 22 41 83 42
REMARK SMILES IDX 23 43 82 44 24 45 25 46 26 47 76 48 27 49 81 50 75 51 77 52
REMARK SMILES IDX 28 53 80 54 74 55 73 56 29 58 61 59 41 60 60 61 42 62 45 63
REMARK SMILES IDX 59 64 78 65 43 66 44 67 58 69 79 70 46 71 30 72 31 73 39 74
REMARK SMILES IDX 32 75 33 76 37 77 40 78 34 79 35 80 38 81 36 82 62 83 63 84
REMARK SMILES IDX 71 85 64 86 65 87 69 88 72 89 66 90 67 91 70 92 68 93 47 94
REMARK SMILES IDX 48 95 56 96 49 97 50 98 54 99 57 100 51 101 52 102 55 103
REMARK SMILES IDX 53 104
REMARK H PARENT 77 57 45 68
REMARK Flexibility Score: inf
ROOT
ATOM      1  C   UNL     1       3.095   6.548  -7.370  1.00  0.00     0.202 C 
ENDROOT
BRANCH   1   2
ATOM      2  O   UNL     1       2.995   6.867  -8.755  1.00  0.00    -0.374 OA
BRANCH   2   3
ATOM      3  C   UNL     1       1.725   7.247  -9.277  1.00  0.00     0.202 C 
BRANCH   3   4
ATOM      4  C   UNL     1       0.619   6.188  -9.344  1.00  0.00     0.261 C 
BRANCH   4   5
ATOM      5  O   UNL     1       0.241   5.706  -8.043  1.00  0.00    -0.460 OA
BRANCH   5   6
ATOM      6  C   UNL     1       0.422   4.375  -7.872  1.00  0.00     0.338 C 
ATOM      7  O   UNL     1       0.751   3.558  -8.717  1.00  0.00    -0.246 OA
BRANCH   6   8
ATOM      8  C   UNL     1       0.384   4.034  -6.441  1.00  0.00     0.060 A 
ATOM      9  C   UNL     1       0.329   2.945  -3.859  1.00  0.00     0.052 A 
ATOM     10  C   UNL     1       1.497   2.896  -4.634  1.00  0.00     0.028 A 
ATOM     11  C   UNL     1      -0.771   3.667  -4.354  1.00  0.00     0.028 A 
ATOM     12  C   UNL     1       1.511   3.394  -5.929  1.00  0.00     0.018 A 
ATOM     13  C   UNL     1      -0.739   4.231  -5.640  1.00  0.00     0.018 A 
BRANCH   9  14
ATOM     14  N   UNL     1       0.224   2.063  -2.761  1.00  0.00    -0.250 N 
ATOM     15  C   UNL     1       1.117   0.086  -0.095  1.00  0.00     0.024 C 
ATOM     16  C   UNL     1       0.687   0.167  -1.558  1.00  0.00     0.071 C 
ATOM     17  C   UNL     1       1.247   1.429  -2.152  1.00  0.00     0.241 C 
ATOM     18  C   UNL     1      -0.870   0.136  -1.708  1.00  0.00     0.107 C 
ATOM     19  C   UNL     1       1.379  -0.943  -2.481  1.00  0.00     0.066 C 
ATOM     20  O   UNL     1       2.424   1.755  -2.081  1.00  0.00    -0.273 OA
ATOM     21  C   UNL     1      -0.910   1.671  -2.145  1.00  0.00     0.238 C 
ATOM     22  C   UNL     1      -1.208  -1.182  -2.489  1.00  0.00     0.063 C 
ATOM     23  C   UNL     1       0.749  -0.828  -3.886  1.00  0.00    -0.036 A 
ATOM     24  C   UNL     1       0.934  -2.271  -1.912  1.00  0.00    -0.036 A 
ATOM     25  O   UNL     1      -1.787   2.455  -1.768  1.00  0.00    -0.274 OA
ATOM     26  C   UNL     1      -0.659  -0.956  -3.872  1.00  0.00    -0.036 A 
ATOM     27  C   UNL     1      -0.472  -2.388  -1.867  1.00  0.00    -0.036 A 
ATOM     28  C   UNL     1       1.403  -0.539  -5.072  1.00  0.00     0.005 A 
ATOM     29  C   UNL     1       1.770  -3.304  -1.508  1.00  0.00     0.005 A 
ATOM     30  C   UNL     1      -1.421  -0.783  -5.015  1.00  0.00     0.004 A 
ATOM     31  C   UNL     1      -1.044  -3.564  -1.399  1.00  0.00     0.004 A 
ATOM     32  C   UNL     1       0.636  -0.347  -6.227  1.00  0.00     0.000 A 
ATOM     33  C   UNL     1       1.190  -4.483  -1.048  1.00  0.00     0.000 A 
ATOM     34  C   UNL     1      -0.762  -0.467  -6.198  1.00  0.00     0.000 A 
ATOM     35  C   UNL     1      -0.206  -4.611  -0.993  1.00  0.00     0.000 A 
ENDBRANCH   9  14
ENDBRANCH   6   8
ENDBRANCH   5   6
ENDBRANCH   4   5
ENDBRANCH   3   4
ENDBRANCH   2   3
ENDBRANCH   1   2
BRANCH   1  36
ATOM     36  C   UNL     1       2.977   7.683  -6.343  1.00  0.00     0.261 C 
BRANCH  36  37
ATOM     37  O   UNL     1       1.745   8.415  -6.430  1.00  0.00    -0.460 OA
BRANCH  37  38
ATOM     38  C   UNL     1       1.849   9.659  -6.944  1.00  0.00     0.338 C 
ATOM     39  O   UNL     1       2.881  10.232  -7.317  1.00  0.00    -0.246 OA
BRANCH  38  40
ATOM     40  C   UNL     1       0.508  10.209  -7.187  1.00  0.00     0.060 A 
ATOM     41  C   UNL     1      -0.432  10.292  -6.160  1.00  0.00     0.016 A 
ATOM     42  C   UNL     1       0.199  10.673  -8.473  1.00  0.00     0.016 A 
ATOM     43  C   UNL     1      -1.682  10.858  -6.421  1.00  0.00     0.010 A 
ATOM     44  C   UNL     1      -1.049  11.238  -8.732  1.00  0.00     0.010 A 
ATOM     45  C   UNL     1      -1.996  11.348  -7.704  1.00  0.00    -0.014 A 
BRANCH  45  46
ATOM     46  C   UNL     1      -3.272  12.070  -7.931  1.00  0.00     0.031 A 
ATOM     47  C   UNL     1      -4.397  11.450  -8.705  1.00  0.00     0.074 A 
ATOM     48  C   UNL     1      -3.406  13.312  -7.428  1.00  0.00     0.049 A 
ATOM     49  N   UNL     1      -5.600  11.918  -8.925  1.00  0.00    -0.248 NA
ATOM     50  C   UNL     1      -4.140  10.139  -9.316  1.00  0.00     0.031 C 
ATOM     51  C   UNL     1      -2.367  14.032  -6.692  1.00  0.00     0.029 A 
ATOM     52  N   UNL     1      -4.467  14.181  -7.447  1.00  0.00    -0.354 N 
ATOM     53  C   UNL     1      -6.253  10.952  -9.677  1.00  0.00     0.074 A 
ATOM     54  C   UNL     1      -5.293   9.896  -9.926  1.00  0.00     0.031 C 
ATOM     55  C   UNL     1      -2.854  15.217  -6.295  1.00  0.00     0.029 A 
ATOM     56  C   UNL     1      -4.226  15.355  -6.776  1.00  0.00     0.049 A 
ATOM     57  H   UNL     1      -5.319  13.983  -7.898  1.00  0.00     0.167 HD
ATOM     58  C   UNL     1      -7.540  10.941 -10.099  1.00  0.00     0.037 A 
ATOM     59  C   UNL     1      -5.022  16.421  -6.565  1.00  0.00     0.037 A 
ATOM     60  C   UNL     1      -8.485  12.005  -9.862  1.00  0.00     0.049 A 
ATOM     61  C   UNL     1      -6.430  16.405  -7.093  1.00  0.00     0.074 A 
ATOM     62  C   UNL     1      -9.820  12.067 -10.223  1.00  0.00     0.029 A 
ATOM     63  N   UNL     1      -8.193  13.199  -9.216  1.00  0.00    -0.354 N 
ATOM     64  N   UNL     1      -7.061  15.453  -7.735  1.00  0.00    -0.248 NA
ATOM     65  C   UNL     1      -7.238  17.611  -6.863  1.00  0.00     0.031 C 
ATOM     66  C   UNL     1     -10.319  13.319  -9.851  1.00  0.00     0.029 A 
ATOM     67  C   UNL     1      -9.314  14.015  -9.200  1.00  0.00     0.049 A 
ATOM     68  H   UNL     1      -7.319  13.431  -8.828  1.00  0.00     0.167 HD
ATOM     69  C   UNL     1      -8.344  15.933  -7.966  1.00  0.00     0.074 A 
ATOM     70  C   UNL     1      -8.407  17.254  -7.377  1.00  0.00     0.031 C 
ATOM     71  C   UNL     1      -9.372  15.331  -8.612  1.00  0.00     0.037 A 
BRANCH  58  72
ATOM     72  C   UNL     1      -8.023   9.735 -10.853  1.00  0.00     0.064 A 
ATOM     73  C   UNL     1      -8.206   8.500 -10.213  1.00  0.00     0.173 A 
ATOM     74  C   UNL     1      -8.391   9.833 -12.204  1.00  0.00     0.173 A 
ATOM     75  F   UNL     1      -7.866   8.351  -8.924  1.00  0.00    -0.203 F 
ATOM     76  C   UNL     1      -8.724   7.405 -10.900  1.00  0.00     0.198 A 
ATOM     77  C   UNL     1      -8.937   8.744 -12.880  1.00  0.00     0.198 A 
ATOM     78  F   UNL     1      -8.247  10.993 -12.863  1.00  0.00    -0.203 F 
ATOM     79  F   UNL     1      -8.859   6.227 -10.274  1.00  0.00    -0.200 F 
ATOM     80  C   UNL     1      -9.099   7.530 -12.229  1.00  0.00     0.200 A 
ATOM     81  F   UNL     1      -9.316   8.872 -14.159  1.00  0.00    -0.200 F 
ATOM     82  F   UNL     1      -9.616   6.481 -12.882  1.00  0.00    -0.200 F 
ENDBRANCH  58  72
BRANCH  59  83
ATOM     83  C   UNL     1      -4.508  17.574  -5.781  1.00  0.00     0.064 A 
ATOM     84  C   UNL     1      -5.016  17.859  -4.506  1.00  0.00     0.173 A 
ATOM     85  C   UNL     1      -3.485  18.396  -6.275  1.00  0.00     0.173 A 
ATOM     86  F   UNL     1      -6.009  17.114  -3.999  1.00  0.00    -0.203 F 
ATOM     87  C   UNL     1      -4.525  18.927  -3.759  1.00  0.00     0.198 A 
ATOM     88  C   UNL     1      -2.973  19.445  -5.515  1.00  0.00     0.198 A 
ATOM     89  F   UNL     1      -2.963  18.163  -7.489  1.00  0.00    -0.203 F 
ATOM     90  F   UNL     1      -5.052  19.200  -2.557  1.00  0.00    -0.200 F 
ATOM     91  C   UNL     1      -3.498  19.713  -4.259  1.00  0.00     0.200 A 
ATOM     92  F   UNL     1      -1.969  20.191  -5.995  1.00  0.00    -0.200 F 
ATOM     93  F   UNL     1      -3.016  20.731  -3.534  1.00  0.00    -0.200 F 
ENDBRANCH  59  83
BRANCH  71  94
ATOM     94  C   UNL     1     -10.669  16.083  -8.714  1.00  0.00     0.064 A 
ATOM     95  C   UNL     1     -10.803  17.207  -9.542  1.00  0.00     0.173 A 
ATOM     96  C   UNL     1     -11.811  15.632  -8.033  1.00  0.00     0.173 A 
ATOM     97  F   UNL     1      -9.741  17.688 -10.204  1.00  0.00    -0.203 F 
ATOM     98  C   UNL     1     -12.027  17.859  -9.673  1.00  0.00     0.198 A 
ATOM     99  C   UNL     1     -13.040  16.266  -8.192  1.00  0.00     0.198 A 
ATOM    100  F   UNL     1     -11.741  14.557  -7.233  1.00  0.00    -0.203 F 
ATOM    101  F   UNL     1     -12.122  18.954 -10.441  1.00  0.00    -0.200 F 
ATOM    102  C   UNL     1     -13.146  17.381  -9.008  1.00  0.00     0.200 A 
ATOM    103  F   UNL     1     -14.124  15.791  -7.563  1.00  0.00    -0.200 F 
ATOM    104  F   UNL     1     -14.327  17.998  -9.152  1.00  0.00    -0.200 F 
ENDBRANCH  71  94
ENDBRANCH  45  46
ENDBRANCH  38  40
ENDBRANCH  37  38
ENDBRANCH  36  37
ENDBRANCH   1  36
TORSDOF 15
