REMARK SMILES COc1ccc([C@@H]2[NH2+][C@H](C(=O)OCCOCCOC(=O)c3ccc(-c4c5nc(c(-c6c(F)c(F)c(F)c(F)c6F)c6ccc([nH]6)c(-c6c(F)c(F)c(F)c(F)c6F)c6nc(c(-c7c(F)c(F)c(F)c(F)c7F)c7ccc4[nH]7)C=C6)C=C5)cc3)CS2)cc1Cn1nc(C)c(Br)c1C
REMARK SMILES IDX 14 1 13 2 12 3 10 4 11 5 9 6 7 7 8 8 85 9 84 12 6 13 3 14
REMARK SMILES IDX 4 15 87 16 5 17 86 18 2 19 1 20 88 21 89 22 90 23 95 24
REMARK SMILES IDX 91 25 93 26 96 27 92 28 94 29 15 30 16 31 17 32 18 33 19 34
REMARK SMILES IDX 20 35 21 36 22 37 83 38 23 39 82 40 24 41 25 42 26 43 76 44
REMARK SMILES IDX 27 45 81 46 75 47 77 48 28 49 80 50 74 51 73 52 29 54 61 55
REMARK SMILES IDX 41 56 60 57 42 58 45 59 59 60 78 61 43 62 44 63 58 65 79 66
REMARK SMILES IDX 46 67 30 68 31 69 39 70 32 71 33 72 37 73 40 74 34 75 35 76
REMARK SMILES IDX 38 77 36 78 62 79 63 80 71 81 64 82 65 83 69 84 72 85 66 86
REMARK SMILES IDX 67 87 70 88 68 89 47 90 48 91 56 92 49 93 50 94 54 95 57 96
REMARK SMILES IDX 51 97 52 98 55 99 53 100
REMARK H PARENT 8 10 8 11 77 53 45 64
REMARK Flexibility Score: inf
ROOT
ATOM      1  C   UNL     1       5.008  -6.179  -1.556  1.00  0.00     0.202 C 
ENDROOT
BRANCH   1   2
ATOM      2  C   UNL     1       5.004  -4.847  -2.305  1.00  0.00     0.261 C 
BRANCH   2   3
ATOM      3  O   UNL     1       4.181  -4.809  -3.473  1.00  0.00    -0.459 OA
BRANCH   3   4
ATOM      4  C   UNL     1       4.749  -4.273  -4.586  1.00  0.00     0.365 C 
ATOM      5  O   UNL     1       5.906  -3.871  -4.657  1.00  0.00    -0.245 OA
BRANCH   4   6
ATOM      6  C   UNL     1       3.809  -4.260  -5.794  1.00  0.00     0.304 C 
ATOM      7  C   UNL     1       1.667  -3.239  -5.372  1.00  0.00     0.274 C 
ATOM      8  N   UNL     1       2.381  -4.511  -5.463  1.00  0.00    -0.319 N 
ATOM      9  S   UNL     1       2.419  -2.077  -6.521  1.00  0.00    -0.087 SA
ATOM     10  H   UNL     1       1.959  -5.085  -6.193  1.00  0.00     0.348 HD
ATOM     11  H   UNL     1       2.321  -4.997  -4.569  1.00  0.00     0.348 HD
ATOM     12  C   UNL     1       3.988  -2.963  -6.588  1.00  0.00     0.153 C 
BRANCH   7  13
ATOM     13  C   UNL     1       1.501  -2.698  -3.963  1.00  0.00     0.021 A 
ATOM     14  C   UNL     1       1.003  -1.503  -1.484  1.00  0.00     0.123 A 
ATOM     15  C   UNL     1      -0.016  -2.192  -2.139  1.00  0.00     0.047 A 
ATOM     16  C   UNL     1       2.315  -1.478  -1.975  1.00  0.00     0.016 A 
ATOM     17  C   UNL     1       0.234  -2.794  -3.366  1.00  0.00     0.015 A 
ATOM     18  C   UNL     1       2.533  -2.057  -3.239  1.00  0.00     0.020 A 
BRANCH  14  19
ATOM     19  O   UNL     1       0.663  -0.859  -0.329  1.00  0.00    -0.496 OA
ATOM     20  C   UNL     1       0.311   0.502  -0.581  1.00  0.00     0.278 C 
ENDBRANCH  14  19
BRANCH  16  21
ATOM     21  C   UNL     1       3.397  -0.724  -1.230  1.00  0.00     0.184 C 
BRANCH  21  22
ATOM     22  N   UNL     1       4.649  -1.454  -1.007  1.00  0.00    -0.264 N 
ATOM     23  N   UNL     1       4.784  -2.175   0.138  1.00  0.00    -0.177 NA
ATOM     24  C   UNL     1       5.826  -1.365  -1.724  1.00  0.00     0.050 A 
ATOM     25  C   UNL     1       6.063  -2.577   0.139  1.00  0.00     0.074 A 
ATOM     26  C   UNL     1       6.742  -2.087  -0.993  1.00  0.00     0.061 A 
ATOM     27  C   UNL     1       5.979  -0.649  -3.015  1.00  0.00     0.067 C 
ATOM     28  C   UNL     1       6.578  -3.448   1.225  1.00  0.00     0.070 C 
ATOM     29  Br  UNL     1       8.539  -2.421  -1.405  1.00  0.00    -0.047 Br
ENDBRANCH  21  22
ENDBRANCH  16  21
ENDBRANCH   7  13
ENDBRANCH   4   6
ENDBRANCH   3   4
ENDBRANCH   2   3
ENDBRANCH   1   2
BRANCH   1  30
ATOM     30  O   UNL     1       5.124  -7.365  -2.329  1.00  0.00    -0.374 OA
BRANCH  30  31
ATOM     31  C   UNL     1       4.061  -7.661  -3.232  1.00  0.00     0.202 C 
BRANCH  31  32
ATOM     32  C   UNL     1       2.653  -7.863  -2.649  1.00  0.00     0.261 C 
BRANCH  32  33
ATOM     33  O   UNL     1       2.123  -6.732  -1.926  1.00  0.00    -0.460 OA
BRANCH  33  34
ATOM     34  C   UNL     1       1.779  -6.998  -0.640  1.00  0.00     0.338 C 
ATOM     35  O   UNL     1       1.871  -8.069  -0.061  1.00  0.00    -0.246 OA
BRANCH  34  36
ATOM     36  C   UNL     1       1.314  -5.796   0.078  1.00  0.00     0.060 A 
ATOM     37  C   UNL     1       2.041  -5.372   1.197  1.00  0.00     0.016 A 
ATOM     38  C   UNL     1       0.052  -5.262  -0.183  1.00  0.00     0.016 A 
ATOM     39  C   UNL     1       1.478  -4.462   2.098  1.00  0.00     0.010 A 
ATOM     40  C   UNL     1      -0.507  -4.347   0.720  1.00  0.00     0.010 A 
ATOM     41  C   UNL     1       0.179  -3.979   1.894  1.00  0.00    -0.014 A 
BRANCH  41  42
ATOM     42  C   UNL     1      -0.526  -3.222   2.968  1.00  0.00     0.031 A 
ATOM     43  C   UNL     1      -1.614  -3.900   3.761  1.00  0.00     0.074 A 
ATOM     44  C   UNL     1      -0.218  -1.944   3.252  1.00  0.00     0.049 A 
ATOM     45  N   UNL     1      -2.394  -3.409   4.694  1.00  0.00    -0.248 NA
ATOM     46  C   UNL     1      -1.844  -5.325   3.478  1.00  0.00     0.031 C 
ATOM     47  C   UNL     1       0.848  -1.172   2.626  1.00  0.00     0.029 A 
ATOM     48  N   UNL     1      -0.811  -1.055   4.118  1.00  0.00    -0.354 N 
ATOM     49  C   UNL     1      -3.182  -4.467   5.125  1.00  0.00     0.074 A 
ATOM     50  C   UNL     1      -2.837  -5.611   4.308  1.00  0.00     0.031 C 
ATOM     51  C   UNL     1       0.772   0.102   3.046  1.00  0.00     0.029 A 
ATOM     52  C   UNL     1      -0.339   0.227   3.986  1.00  0.00     0.049 A 
ATOM     53  H   UNL     1      -1.504  -1.312   4.768  1.00  0.00     0.167 HD
ATOM     54  C   UNL     1      -4.082  -4.498   6.137  1.00  0.00     0.037 A 
ATOM     55  C   UNL     1      -0.769   1.379   4.535  1.00  0.00     0.037 A 
ATOM     56  C   UNL     1      -4.427  -3.373   6.966  1.00  0.00     0.049 A 
ATOM     57  C   UNL     1      -1.864   1.356   5.564  1.00  0.00     0.074 A 
ATOM     58  C   UNL     1      -5.273  -3.333   8.062  1.00  0.00     0.029 A 
ATOM     59  N   UNL     1      -3.952  -2.084   6.782  1.00  0.00    -0.354 N 
ATOM     60  N   UNL     1      -2.554   0.338   6.013  1.00  0.00    -0.248 NA
ATOM     61  C   UNL     1      -2.213   2.640   6.191  1.00  0.00     0.031 C 
ATOM     62  C   UNL     1      -5.345  -2.009   8.513  1.00  0.00     0.029 A 
ATOM     63  C   UNL     1      -4.514  -1.234   7.723  1.00  0.00     0.049 A 
ATOM     64  H   UNL     1      -3.311  -1.812   6.086  1.00  0.00     0.167 HD
ATOM     65  C   UNL     1      -3.376   0.844   7.011  1.00  0.00     0.074 A 
ATOM     66  C   UNL     1      -3.113   2.266   7.089  1.00  0.00     0.031 C 
ATOM     67  C   UNL     1      -4.251   0.180   7.804  1.00  0.00     0.037 A 
BRANCH  54  68
ATOM     68  C   UNL     1      -4.754  -5.809   6.418  1.00  0.00     0.064 A 
ATOM     69  C   UNL     1      -4.063  -6.864   7.034  1.00  0.00     0.173 A 
ATOM     70  C   UNL     1      -6.107  -6.000   6.104  1.00  0.00     0.173 A 
ATOM     71  F   UNL     1      -2.766  -6.731   7.346  1.00  0.00    -0.203 F 
ATOM     72  C   UNL     1      -4.698  -8.073   7.302  1.00  0.00     0.198 A 
ATOM     73  C   UNL     1      -6.744  -7.204   6.395  1.00  0.00     0.198 A 
ATOM     74  F   UNL     1      -6.811  -5.019   5.521  1.00  0.00    -0.203 F 
ATOM     75  F   UNL     1      -4.010  -9.081   7.856  1.00  0.00    -0.200 F 
ATOM     76  C   UNL     1      -6.038  -8.240   6.987  1.00  0.00     0.200 A 
ATOM     77  F   UNL     1      -8.042  -7.361   6.100  1.00  0.00    -0.200 F 
ATOM     78  F   UNL     1      -6.649  -9.404   7.251  1.00  0.00    -0.200 F 
ENDBRANCH  54  68
BRANCH  55  79
ATOM     79  C   UNL     1      -0.162   2.664   4.107  1.00  0.00     0.064 A 
ATOM     80  C   UNL     1       0.716   3.369   4.939  1.00  0.00     0.173 A 
ATOM     81  C   UNL     1      -0.467   3.215   2.854  1.00  0.00     0.173 A 
ATOM     82  F   UNL     1       1.015   2.891   6.155  1.00  0.00    -0.203 F 
ATOM     83  C   UNL     1       1.256   4.590   4.539  1.00  0.00     0.198 A 
ATOM     84  C   UNL     1       0.088   4.426   2.448  1.00  0.00     0.198 A 
ATOM     85  F   UNL     1      -1.303   2.576   2.022  1.00  0.00    -0.203 F 
ATOM     86  F   UNL     1       2.063   5.266   5.367  1.00  0.00    -0.200 F 
ATOM     87  C   UNL     1       0.944   5.115   3.293  1.00  0.00     0.200 A 
ATOM     88  F   UNL     1      -0.209   4.925   1.240  1.00  0.00    -0.200 F 
ATOM     89  F   UNL     1       1.462   6.290   2.910  1.00  0.00    -0.200 F 
ENDBRANCH  55  79
BRANCH  67  90
ATOM     90  C   UNL     1      -4.952   0.973   8.867  1.00  0.00     0.064 A 
ATOM     91  C   UNL     1      -5.979   1.875   8.559  1.00  0.00     0.173 A 
ATOM     92  C   UNL     1      -4.596   0.818  10.216  1.00  0.00     0.173 A 
ATOM     93  F   UNL     1      -6.342   2.074   7.283  1.00  0.00    -0.203 F 
ATOM     94  C   UNL     1      -6.607   2.614   9.559  1.00  0.00     0.198 A 
ATOM     95  C   UNL     1      -5.243   1.538  11.216  1.00  0.00     0.198 A 
ATOM     96  F   UNL     1      -3.621  -0.035  10.565  1.00  0.00    -0.203 F 
ATOM     97  F   UNL     1      -7.553   3.507   9.237  1.00  0.00    -0.200 F 
ATOM     98  C   UNL     1      -6.242   2.441  10.887  1.00  0.00     0.200 A 
ATOM     99  F   UNL     1      -4.895   1.365  12.499  1.00  0.00    -0.200 F 
ATOM    100  F   UNL     1      -6.847   3.154  11.847  1.00  0.00    -0.200 F 
ENDBRANCH  67  90
ENDBRANCH  41  42
ENDBRANCH  34  36
ENDBRANCH  33  34
ENDBRANCH  32  33
ENDBRANCH  31  32
ENDBRANCH  30  31
ENDBRANCH   1  30
TORSDOF 18
