REMARK SMILES COc1cc(/C=C2/S/C(=[NH+]\C(C)=O)NC2=O)cc(Br)c1OCC(=O)OCCOCCOC(=O)c1ccc(-c2c3nc(c(-c4c(F)c(F)c(F)c(F)c4F)c4ccc([nH]4)c(-c4c(F)c(F)c(F)c(F)c4F)c4nc(c(-c5c(F)c(F)c(F)c(F)c5F)c5ccc2[nH]5)C=C4)C=C3)cc1
REMARK SMILES IDX 27 1 26 2 25 3 23 4 24 5 22 6 21 7 20 8 3 9 4 10 5 11 18 12
REMARK SMILES IDX 17 13 19 14 2 15 1 16 6 17 7 18 8 19 15 20 9 21 14 22 16 23
REMARK SMILES IDX 10 24 11 26 12 28 13 29 28 30 29 31 30 32 31 33 32 34 33 35
REMARK SMILES IDX 34 36 35 37 96 38 36 39 95 40 37 41 38 42 39 43 89 44 40 45
REMARK SMILES IDX 94 46 88 47 90 48 41 49 93 50 87 51 86 52 42 54 74 55 54 56
REMARK SMILES IDX 73 57 55 58 58 59 72 60 91 61 56 62 57 63 71 65 92 66 59 67
REMARK SMILES IDX 43 68 44 69 52 70 45 71 46 72 50 73 53 74 47 75 48 76 51 77
REMARK SMILES IDX 49 78 75 79 76 80 84 81 77 82 78 83 82 84 85 85 79 86 80 87
REMARK SMILES IDX 83 88 81 89 60 90 61 91 69 92 62 93 63 94 67 95 70 96 64 97
REMARK SMILES IDX 65 98 68 99 66 100
REMARK H PARENT 14 25 10 27 90 53 58 64
REMARK Flexibility Score: inf
ROOT
ATOM      1  C   UNL     1      -2.775   2.988   5.797  1.00  0.00     0.202 C 
ENDROOT
BRANCH   1   2
ATOM      2  C   UNL     1      -3.652   3.254   4.572  1.00  0.00     0.261 C 
BRANCH   2   3
ATOM      3  O   UNL     1      -2.965   3.212   3.302  1.00  0.00    -0.461 OA
BRANCH   3   4
ATOM      4  C   UNL     1      -2.830   4.403   2.648  1.00  0.00     0.344 C 
ATOM      5  O   UNL     1      -3.209   5.479   3.099  1.00  0.00    -0.248 OA
BRANCH   4   6
ATOM      6  C   UNL     1      -2.273   4.256   1.213  1.00  0.00     0.352 C 
BRANCH   6   7
ATOM      7  O   UNL     1      -1.175   3.481   0.791  1.00  0.00    -0.477 OA
BRANCH   7   8
ATOM      8  C   UNL     1       0.138   3.647   1.143  1.00  0.00     0.176 A 
ATOM      9  C   UNL     1       0.913   2.475   0.918  1.00  0.00     0.162 A 
ATOM     10  C   UNL     1       2.225   2.366   1.415  1.00  0.00     0.058 A 
ATOM     11  C   UNL     1       2.811   3.418   2.126  1.00  0.00    -0.019 A 
ATOM     12  C   UNL     1       0.778   4.743   1.736  1.00  0.00     0.064 A 
ATOM     13  C   UNL     1       2.098   4.617   2.235  1.00  0.00     0.028 A 
ATOM     14  Br  UNL     1       0.019   6.473   1.911  1.00  0.00    -0.047 Br
BRANCH   9  15
ATOM     15  O   UNL     1       0.278   1.476   0.215  1.00  0.00    -0.493 OA
ATOM     16  C   UNL     1       0.948   0.239   0.029  1.00  0.00     0.278 C 
ENDBRANCH   9  15
BRANCH  11  17
ATOM     17  C   UNL     1       4.153   3.225   2.717  1.00  0.00     0.032 C 
ATOM     18  C   UNL     1       4.450   3.088   4.022  1.00  0.00     0.110 C 
ATOM     19  S   UNL     1       6.037   2.738   4.644  1.00  0.00     0.007 SA
ATOM     20  C   UNL     1       3.527   3.202   5.178  1.00  0.00     0.346 C 
ATOM     21  C   UNL     1       5.502   2.748   6.300  1.00  0.00     0.324 C 
ATOM     22  N   UNL     1       4.147   2.807   6.320  1.00  0.00    -0.199 N 
ATOM     23  O   UNL     1       2.446   3.760   5.152  1.00  0.00    -0.240 OA
ATOM     24  N   UNL     1       6.091   2.754   7.435  1.00  0.00    -0.204 N 
ATOM     25  H   UNL     1       3.635   2.572   7.127  1.00  0.00     0.316 HD
ATOM     26  C   UNL     1       7.414   2.777   7.772  1.00  0.00     0.304 C 
ATOM     27  H   UNL     1       5.479   2.740   8.206  1.00  0.00     0.316 HD
ATOM     28  C   UNL     1       8.506   3.197   6.831  1.00  0.00     0.144 C 
ATOM     29  O   UNL     1       7.744   2.532   8.934  1.00  0.00    -0.247 OA
ENDBRANCH  11  17
ENDBRANCH   7   8
ENDBRANCH   6   7
ENDBRANCH   4   6
ENDBRANCH   3   4
ENDBRANCH   2   3
ENDBRANCH   1   2
BRANCH   1  30
ATOM     30  O   UNL     1      -1.703   3.874   6.045  1.00  0.00    -0.374 OA
BRANCH  30  31
ATOM     31  C   UNL     1      -0.608   3.951   5.143  1.00  0.00     0.202 C 
BRANCH  31  32
ATOM     32  C   UNL     1      -0.211   2.752   4.278  1.00  0.00     0.261 C 
BRANCH  32  33
ATOM     33  O   UNL     1      -0.568   1.462   4.714  1.00  0.00    -0.460 OA
BRANCH  33  34
ATOM     34  C   UNL     1       0.099   0.939   5.750  1.00  0.00     0.338 C 
ATOM     35  O   UNL     1       0.979   1.404   6.445  1.00  0.00    -0.246 OA
BRANCH  34  36
ATOM     36  C   UNL     1      -0.547  -0.363   5.888  1.00  0.00     0.060 A 
ATOM     37  C   UNL     1      -1.379  -0.581   6.984  1.00  0.00     0.016 A 
ATOM     38  C   UNL     1      -0.429  -1.290   4.844  1.00  0.00     0.016 A 
ATOM     39  C   UNL     1      -2.058  -1.786   7.072  1.00  0.00     0.010 A 
ATOM     40  C   UNL     1      -1.125  -2.485   4.925  1.00  0.00     0.010 A 
ATOM     41  C   UNL     1      -1.903  -2.749   6.062  1.00  0.00    -0.014 A 
BRANCH  41  42
ATOM     42  C   UNL     1      -2.417  -4.110   6.290  1.00  0.00     0.031 A 
ATOM     43  C   UNL     1      -1.440  -5.170   6.700  1.00  0.00     0.074 A 
ATOM     44  C   UNL     1      -3.731  -4.359   6.179  1.00  0.00     0.049 A 
ATOM     45  N   UNL     1      -1.650  -6.427   6.981  1.00  0.00    -0.248 NA
ATOM     46  C   UNL     1      -0.028  -4.757   6.803  1.00  0.00     0.031 C 
ATOM     47  C   UNL     1      -4.747  -3.376   5.802  1.00  0.00     0.029 A 
ATOM     48  N   UNL     1      -4.434  -5.514   6.383  1.00  0.00    -0.354 N 
ATOM     49  C   UNL     1      -0.403  -6.952   7.292  1.00  0.00     0.074 A 
ATOM     50  C   UNL     1       0.567  -5.896   7.116  1.00  0.00     0.031 C 
ATOM     51  C   UNL     1      -5.951  -3.971   5.815  1.00  0.00     0.029 A 
ATOM     52  C   UNL     1      -5.782  -5.378   6.166  1.00  0.00     0.049 A 
ATOM     53  H   UNL     1      -4.014  -6.361   6.657  1.00  0.00     0.167 HD
ATOM     54  C   UNL     1      -0.104  -8.204   7.707  1.00  0.00     0.037 A 
ATOM     55  C   UNL     1      -6.758  -6.302   6.237  1.00  0.00     0.037 A 
ATOM     56  C   UNL     1      -1.090  -9.236   7.875  1.00  0.00     0.049 A 
ATOM     57  C   UNL     1      -6.388  -7.703   6.647  1.00  0.00     0.074 A 
ATOM     58  C   UNL     1      -0.913 -10.540   8.298  1.00  0.00     0.029 A 
ATOM     59  N   UNL     1      -2.446  -9.076   7.617  1.00  0.00    -0.354 N 
ATOM     60  N   UNL     1      -5.213  -8.191   6.969  1.00  0.00    -0.248 NA
ATOM     61  C   UNL     1      -7.481  -8.681   6.712  1.00  0.00     0.031 C 
ATOM     62  C   UNL     1      -2.152 -11.186   8.237  1.00  0.00     0.029 A 
ATOM     63  C   UNL     1      -3.114 -10.266   7.847  1.00  0.00     0.049 A 
ATOM     64  H   UNL     1      -2.869  -8.239   7.316  1.00  0.00     0.167 HD
ATOM     65  C   UNL     1      -5.428  -9.520   7.307  1.00  0.00     0.074 A 
ATOM     66  C   UNL     1      -6.851  -9.755   7.165  1.00  0.00     0.031 C 
ATOM     67  C   UNL     1      -4.536 -10.463   7.702  1.00  0.00     0.037 A 
BRANCH  54  68
ATOM     68  C   UNL     1       1.339  -8.521   7.972  1.00  0.00     0.064 A 
ATOM     69  C   UNL     1       2.042  -7.950   9.045  1.00  0.00     0.173 A 
ATOM     70  C   UNL     1       2.029  -9.419   7.144  1.00  0.00     0.173 A 
ATOM     71  F   UNL     1       1.437  -7.067   9.855  1.00  0.00    -0.203 F 
ATOM     72  C   UNL     1       3.386  -8.242   9.260  1.00  0.00     0.198 A 
ATOM     73  C   UNL     1       3.364  -9.736   7.382  1.00  0.00     0.198 A 
ATOM     74  F   UNL     1       1.409  -9.990   6.100  1.00  0.00    -0.203 F 
ATOM     75  F   UNL     1       4.051  -7.639  10.255  1.00  0.00    -0.200 F 
ATOM     76  C   UNL     1       4.044  -9.141   8.434  1.00  0.00     0.200 A 
ATOM     77  F   UNL     1       3.994 -10.612   6.588  1.00  0.00    -0.200 F 
ATOM     78  F   UNL     1       5.336  -9.426   8.645  1.00  0.00    -0.200 F 
ENDBRANCH  54  68
BRANCH  55  79
ATOM     79  C   UNL     1      -8.160  -5.929   5.919  1.00  0.00     0.064 A 
ATOM     80  C   UNL     1      -9.157  -5.938   6.904  1.00  0.00     0.173 A 
ATOM     81  C   UNL     1      -8.535  -5.558   4.618  1.00  0.00     0.173 A 
ATOM     82  F   UNL     1      -8.854  -6.300   8.159  1.00  0.00    -0.203 F 
ATOM     83  C   UNL     1     -10.478  -5.616   6.596  1.00  0.00     0.198 A 
ATOM     84  C   UNL     1      -9.849  -5.205   4.318  1.00  0.00     0.198 A 
ATOM     85  F   UNL     1      -7.620  -5.527   3.638  1.00  0.00    -0.203 F 
ATOM     86  F   UNL     1     -11.420  -5.682   7.547  1.00  0.00    -0.200 F 
ATOM     87  C   UNL     1     -10.821  -5.243   5.305  1.00  0.00     0.200 A 
ATOM     88  F   UNL     1     -10.171  -4.828   3.073  1.00  0.00    -0.200 F 
ATOM     89  F   UNL     1     -12.090  -4.929   5.011  1.00  0.00    -0.200 F 
ENDBRANCH  55  79
BRANCH  67  90
ATOM     90  C   UNL     1      -5.082 -11.816   8.055  1.00  0.00     0.064 A 
ATOM     91  C   UNL     1      -5.599 -12.683   7.081  1.00  0.00     0.173 A 
ATOM     92  C   UNL     1      -5.052 -12.264   9.385  1.00  0.00     0.173 A 
ATOM     93  F   UNL     1      -5.660 -12.298   5.797  1.00  0.00    -0.203 F 
ATOM     94  C   UNL     1      -6.099 -13.934   7.432  1.00  0.00     0.198 A 
ATOM     95  C   UNL     1      -5.516 -13.530   9.726  1.00  0.00     0.198 A 
ATOM     96  F   UNL     1      -4.557 -11.477  10.353  1.00  0.00    -0.203 F 
ATOM     97  F   UNL     1      -6.644 -14.722   6.495  1.00  0.00    -0.200 F 
ATOM     98  C   UNL     1      -6.050 -14.359   8.752  1.00  0.00     0.200 A 
ATOM     99  F   UNL     1      -5.449 -13.946  10.998  1.00  0.00    -0.200 F 
ATOM    100  F   UNL     1      -6.524 -15.567   9.086  1.00  0.00    -0.200 F 
ENDBRANCH  67  90
ENDBRANCH  41  42
ENDBRANCH  34  36
ENDBRANCH  33  34
ENDBRANCH  32  33
ENDBRANCH  31  32
ENDBRANCH  30  31
ENDBRANCH   1  30
TORSDOF 18
