REMARK SMILES CS(=O)(=O)c1ccc(-c2cc(Cl)cc3c2O[C@@H](C(F)(F)F)C(C(=O)OCCOCCOC(=O)c2ccc(-c4c5nc(c(-c6c(F)c(F)c(F)c(F)c6F)c6ccc([nH]6)c(-c6c(F)c(F)c(F)c(F)c6F)c6nc(c(-c7c(F)c(F)c(F)c(F)c7F)c7ccc4[nH]7)C=C6)C=C5)cc2)=C3)cc1
REMARK SMILES IDX 28 1 27 2 26 3 25 4 23 5 24 6 22 7 9 8 10 9 15 10 11 11
REMARK SMILES IDX 14 12 16 13 12 14 13 15 97 16 17 17 8 18 5 19 6 20 99 21
REMARK SMILES IDX 7 22 98 23 2 24 1 25 3 26 4 27 18 28 19 29 20 30 21 31 29 32
REMARK SMILES IDX 30 33 31 34 32 35 33 36 34 37 35 38 96 39 36 40 95 41 37 42
REMARK SMILES IDX 38 43 39 44 89 45 40 46 94 47 88 48 90 49 41 50 93 51 87 52
REMARK SMILES IDX 86 53 42 55 74 56 54 57 73 58 55 59 58 60 72 61 91 62 56 63
REMARK SMILES IDX 57 64 71 66 92 67 59 68 43 69 44 70 52 71 45 72 46 73 50 74
REMARK SMILES IDX 53 75 47 76 48 77 51 78 49 79 75 80 76 81 84 82 77 83 78 84
REMARK SMILES IDX 82 85 85 86 79 87 80 88 83 89 81 90 60 91 61 92 69 93 62 94
REMARK SMILES IDX 63 95 67 96 70 97 64 98 65 99 68 100 66 101
REMARK H PARENT 90 54 58 65
REMARK Flexibility Score: inf
ROOT
ATOM      1  O   UNL     1       5.581  10.290  -3.632  1.00  0.00    -0.374 OA
ENDROOT
BRANCH   1   2
ATOM      2  C   UNL     1       5.500  11.687  -3.880  1.00  0.00     0.202 C 
BRANCH   2   3
ATOM      3  C   UNL     1       4.250  12.447  -3.407  1.00  0.00     0.261 C 
BRANCH   3   4
ATOM      4  O   UNL     1       3.530  11.765  -2.370  1.00  0.00    -0.460 OA
BRANCH   4   5
ATOM      5  C   UNL     1       2.188  11.876  -2.418  1.00  0.00     0.338 C 
ATOM      6  O   UNL     1       1.568  12.619  -3.167  1.00  0.00    -0.246 OA
BRANCH   5   7
ATOM      7  C   UNL     1       1.505  10.866  -1.576  1.00  0.00     0.087 C 
ATOM      8  C   UNL     1       2.838   6.938  -1.881  1.00  0.00     0.026 A 
ATOM      9  C   UNL     1       3.448   6.859  -3.155  1.00  0.00     0.033 A 
ATOM     10  C   UNL     1       2.211   8.171  -1.598  1.00  0.00     0.135 A 
ATOM     11  C   UNL     1       3.128   7.768  -4.163  1.00  0.00     0.042 A 
ATOM     12  C   UNL     1       1.675   8.919  -2.659  1.00  0.00     0.019 A 
ATOM     13  O   UNL     1       2.548   8.875  -0.425  1.00  0.00    -0.475 OA
ATOM     14  Cl  UNL     1       3.854   7.614  -5.711  1.00  0.00    -0.084 Cl
ATOM     15  C   UNL     1       2.158   8.736  -3.948  1.00  0.00     0.032 A 
ATOM     16  C   UNL     1       0.773  10.047  -2.349  1.00  0.00     0.027 C 
ATOM     17  C   UNL     1       1.987  10.248  -0.280  1.00  0.00     0.316 C 
BRANCH   8  18
ATOM     18  C   UNL     1       2.334   5.597  -1.382  1.00  0.00    -0.015 A 
ATOM     19  C   UNL     1       1.229   2.964  -1.333  1.00  0.00     0.067 A 
ATOM     20  C   UNL     1       2.608   3.141  -1.437  1.00  0.00     0.021 A 
ATOM     21  C   UNL     1       0.398   4.075  -1.193  1.00  0.00     0.021 A 
ATOM     22  C   UNL     1       3.150   4.442  -1.434  1.00  0.00     0.010 A 
ATOM     23  C   UNL     1       0.949   5.373  -1.210  1.00  0.00     0.010 A 
BRANCH  19  24
ATOM     24  S   UNL     1       0.532   1.332  -1.539  1.00  0.00     0.175 S 
ATOM     25  C   UNL     1       0.986   0.461  -0.066  1.00  0.00     0.163 C 
ATOM     26  O   UNL     1       1.220   0.713  -2.656  1.00  0.00    -0.224 OA
ATOM     27  O   UNL     1      -0.913   1.466  -1.541  1.00  0.00    -0.224 OA
ENDBRANCH  19  24
ENDBRANCH   8  18
BRANCH  17  28
ATOM     28  C   UNL     1       2.749  11.216   0.654  1.00  0.00     0.430 C 
ATOM     29  F   UNL     1       1.881  12.153   1.128  1.00  0.00    -0.167 F 
ATOM     30  F   UNL     1       3.252  10.581   1.738  1.00  0.00    -0.167 F 
ATOM     31  F   UNL     1       3.764  11.888   0.081  1.00  0.00    -0.167 F 
ENDBRANCH  17  28
ENDBRANCH   5   7
ENDBRANCH   4   5
ENDBRANCH   3   4
ENDBRANCH   2   3
ENDBRANCH   1   2
BRANCH   1  32
ATOM     32  C   UNL     1       5.664   9.847  -2.279  1.00  0.00     0.202 C 
BRANCH  32  33
ATOM     33  C   UNL     1       6.911  10.201  -1.464  1.00  0.00     0.261 C 
BRANCH  33  34
ATOM     34  O   UNL     1       7.125  11.614  -1.323  1.00  0.00    -0.460 OA
BRANCH  34  35
ATOM     35  C   UNL     1       8.248  12.076  -1.919  1.00  0.00     0.338 C 
ATOM     36  O   UNL     1       9.080  11.434  -2.551  1.00  0.00    -0.246 OA
BRANCH  35  37
ATOM     37  C   UNL     1       8.290  13.541  -1.843  1.00  0.00     0.060 A 
ATOM     38  C   UNL     1       8.287  14.266  -3.042  1.00  0.00     0.016 A 
ATOM     39  C   UNL     1       8.443  14.187  -0.616  1.00  0.00     0.016 A 
ATOM     40  C   UNL     1       8.476  15.645  -3.019  1.00  0.00     0.010 A 
ATOM     41  C   UNL     1       8.640  15.569  -0.596  1.00  0.00     0.010 A 
ATOM     42  C   UNL     1       8.690  16.298  -1.798  1.00  0.00    -0.014 A 
BRANCH  42  43
ATOM     43  C   UNL     1       9.103  17.721  -1.789  1.00  0.00     0.031 A 
ATOM     44  C   UNL     1      10.550  18.060  -1.565  1.00  0.00     0.074 A 
ATOM     45  C   UNL     1       8.199  18.694  -1.993  1.00  0.00     0.049 A 
ATOM     46  N   UNL     1      11.123  19.231  -1.456  1.00  0.00    -0.248 NA
ATOM     47  C   UNL     1      11.475  16.922  -1.440  1.00  0.00     0.031 C 
ATOM     48  C   UNL     1       6.778  18.481  -2.259  1.00  0.00     0.029 A 
ATOM     49  N   UNL     1       8.343  20.058  -1.997  1.00  0.00    -0.354 N 
ATOM     50  C   UNL     1      12.471  18.972  -1.242  1.00  0.00     0.074 A 
ATOM     51  C   UNL     1      12.626  17.534  -1.201  1.00  0.00     0.031 C 
ATOM     52  C   UNL     1       6.176  19.675  -2.391  1.00  0.00     0.029 A 
ATOM     53  C   UNL     1       7.162  20.733  -2.179  1.00  0.00     0.049 A 
ATOM     54  H   UNL     1       9.210  20.510  -1.881  1.00  0.00     0.167 HD
ATOM     55  C   UNL     1      13.486  19.857  -1.100  1.00  0.00     0.037 A 
ATOM     56  C   UNL     1       6.906  22.055  -2.149  1.00  0.00     0.037 A 
ATOM     57  C   UNL     1      13.321  21.287  -1.143  1.00  0.00     0.049 A 
ATOM     58  C   UNL     1       8.042  23.017  -1.915  1.00  0.00     0.074 A 
ATOM     59  C   UNL     1      14.287  22.272  -1.032  1.00  0.00     0.029 A 
ATOM     60  N   UNL     1      12.104  21.936  -1.300  1.00  0.00    -0.354 N 
ATOM     61  N   UNL     1       9.318  22.768  -1.740  1.00  0.00    -0.248 NA
ATOM     62  C   UNL     1       7.701  24.446  -1.877  1.00  0.00     0.031 C 
ATOM     63  C   UNL     1      13.647  23.515  -1.059  1.00  0.00     0.029 A 
ATOM     64  C   UNL     1      12.291  23.309  -1.256  1.00  0.00     0.049 A 
ATOM     65  H   UNL     1      11.237  21.488  -1.423  1.00  0.00     0.167 HD
ATOM     66  C   UNL     1       9.935  24.006  -1.604  1.00  0.00     0.074 A 
ATOM     67  C   UNL     1       8.894  25.005  -1.732  1.00  0.00     0.031 C 
ATOM     68  C   UNL     1      11.244  24.290  -1.393  1.00  0.00     0.037 A 
BRANCH  55  69
ATOM     69  C   UNL     1      14.862  19.305  -0.855  1.00  0.00     0.064 A 
ATOM     70  C   UNL     1      15.572  18.614  -1.848  1.00  0.00     0.173 A 
ATOM     71  C   UNL     1      15.492  19.499   0.384  1.00  0.00     0.173 A 
ATOM     72  F   UNL     1      15.012  18.390  -3.047  1.00  0.00    -0.203 F 
ATOM     73  C   UNL     1      16.848  18.113  -1.601  1.00  0.00     0.198 A 
ATOM     74  C   UNL     1      16.781  19.025   0.617  1.00  0.00     0.198 A 
ATOM     75  F   UNL     1      14.862  20.156   1.369  1.00  0.00    -0.203 F 
ATOM     76  F   UNL     1      17.485  17.411  -2.549  1.00  0.00    -0.200 F 
ATOM     77  C   UNL     1      17.454  18.326  -0.372  1.00  0.00     0.200 A 
ATOM     78  F   UNL     1      17.370  19.245   1.800  1.00  0.00    -0.200 F 
ATOM     79  F   UNL     1      18.685  17.850  -0.139  1.00  0.00    -0.200 F 
ENDBRANCH  55  69
BRANCH  56  80
ATOM     80  C   UNL     1       5.515  22.547  -2.333  1.00  0.00     0.064 A 
ATOM     81  C   UNL     1       5.155  23.294  -3.463  1.00  0.00     0.173 A 
ATOM     82  C   UNL     1       4.521  22.297  -1.374  1.00  0.00     0.173 A 
ATOM     83  F   UNL     1       6.074  23.582  -4.396  1.00  0.00    -0.203 F 
ATOM     84  C   UNL     1       3.861  23.791  -3.616  1.00  0.00     0.198 A 
ATOM     85  C   UNL     1       3.220  22.765  -1.544  1.00  0.00     0.198 A 
ATOM     86  F   UNL     1       4.812  21.587  -0.274  1.00  0.00    -0.203 F 
ATOM     87  F   UNL     1       3.559  24.547  -4.680  1.00  0.00    -0.200 F 
ATOM     88  C   UNL     1       2.894  23.520  -2.660  1.00  0.00     0.200 A 
ATOM     89  F   UNL     1       2.286  22.490  -0.625  1.00  0.00    -0.200 F 
ATOM     90  F   UNL     1       1.650  23.996  -2.809  1.00  0.00    -0.200 F 
ENDBRANCH  56  80
BRANCH  68  91
ATOM     91  C   UNL     1      11.635  25.740  -1.330  1.00  0.00     0.064 A 
ATOM     92  C   UNL     1      11.272  26.558  -0.250  1.00  0.00     0.173 A 
ATOM     93  C   UNL     1      12.420  26.306  -2.346  1.00  0.00     0.173 A 
ATOM     94  F   UNL     1      10.511  26.071   0.741  1.00  0.00    -0.203 F 
ATOM     95  C   UNL     1      11.655  27.897  -0.205  1.00  0.00     0.198 A 
ATOM     96  C   UNL     1      12.831  27.635  -2.281  1.00  0.00     0.198 A 
ATOM     97  F   UNL     1      12.803  25.566  -3.398  1.00  0.00    -0.203 F 
ATOM     98  F   UNL     1      11.251  28.673   0.809  1.00  0.00    -0.200 F 
ATOM     99  C   UNL     1      12.441  28.431  -1.215  1.00  0.00     0.200 A 
ATOM    100  F   UNL     1      13.606  28.143  -3.249  1.00  0.00    -0.200 F 
ATOM    101  F   UNL     1      12.816  29.716  -1.165  1.00  0.00    -0.200 F 
ENDBRANCH  68  91
ENDBRANCH  42  43
ENDBRANCH  35  37
ENDBRANCH  34  35
ENDBRANCH  33  34
ENDBRANCH  32  33
ENDBRANCH   1  32
TORSDOF 17
