REMARK SMILES CC(C)CSc1cc2c(cc1Cl)C=C(C(=O)OCCOCCOC(=O)c1ccc(-c3c4nc(c(-c5c(F)c(F)c(F)c(F)c5F)c5ccc([nH]5)c(-c5c(F)c(F)c(F)c(F)c5F)c5nc(c(-c6c(F)c(F)c(F)c(F)c6F)c6ccc3[nH]6)C=C5)C=C4)cc1)[C@@H](C(F)(F)F)O2
REMARK SMILES IDX 19 1 18 2 17 3 15 4 16 5 14 6 6 7 7 8 11 9 8 10 10 11 12 12
REMARK SMILES IDX 9 13 94 14 13 15 89 16 5 17 4 18 2 19 1 20 3 21 90 22 91 23
REMARK SMILES IDX 92 24 93 25 20 26 21 27 22 28 23 29 24 30 25 31 26 32 27 33
REMARK SMILES IDX 88 34 28 35 87 36 29 37 30 38 31 39 81 40 32 41 86 42 80 43
REMARK SMILES IDX 82 44 33 45 85 46 79 47 78 48 34 50 66 51 46 52 65 53 47 54
REMARK SMILES IDX 50 55 64 56 83 57 48 58 49 59 63 61 84 62 51 63 35 64 36 65
REMARK SMILES IDX 44 66 37 67 38 68 42 69 45 70 39 71 40 72 43 73 41 74 67 75
REMARK SMILES IDX 68 76 76 77 69 78 70 79 74 80 77 81 71 82 72 83 75 84 73 85
REMARK SMILES IDX 52 86 53 87 61 88 54 89 55 90 59 91 62 92 56 93 57 94 60 95
REMARK SMILES IDX 58 96
REMARK H PARENT 82 49 50 60
REMARK Flexibility Score: inf
ROOT
ATOM      1  C   UNL     1      -0.191   8.223   6.467  1.00  0.00     0.202 C 
ENDROOT
BRANCH   1   2
ATOM      2  C   UNL     1       0.679   8.399   5.218  1.00  0.00     0.261 C 
BRANCH   2   3
ATOM      3  O   UNL     1       0.170   7.663   4.096  1.00  0.00    -0.460 OA
BRANCH   3   4
ATOM      4  C   UNL     1       0.949   6.626   3.707  1.00  0.00     0.338 C 
ATOM      5  O   UNL     1       2.055   6.337   4.133  1.00  0.00    -0.246 OA
BRANCH   4   6
ATOM      6  C   UNL     1       0.198   5.772   2.770  1.00  0.00     0.087 C 
ATOM      7  C   UNL     1      -1.452   1.764   0.212  1.00  0.00     0.030 A 
ATOM      8  C   UNL     1      -1.418   3.155  -0.024  1.00  0.00     0.063 A 
ATOM      9  C   UNL     1      -1.130   1.319   1.503  1.00  0.00     0.055 A 
ATOM     10  C   UNL     1      -0.959   4.051   0.943  1.00  0.00     0.129 A 
ATOM     11  C   UNL     1      -0.600   2.210   2.447  1.00  0.00     0.033 A 
ATOM     12  Cl  UNL     1      -1.391  -0.290   2.074  1.00  0.00    -0.083 Cl
ATOM     13  C   UNL     1      -0.478   3.568   2.152  1.00  0.00     0.019 A 
ATOM     14  O   UNL     1      -0.975   5.375   0.610  1.00  0.00    -0.475 OA
ATOM     15  C   UNL     1       0.199   4.465   3.066  1.00  0.00     0.027 C 
ATOM     16  C   UNL     1      -0.520   6.359   1.587  1.00  0.00     0.316 C 
BRANCH   7  17
ATOM     17  S   UNL     1      -1.926   0.798  -1.222  1.00  0.00    -0.124 SA
BRANCH  17  18
ATOM     18  C   UNL     1      -0.996  -0.782  -1.146  1.00  0.00     0.078 C 
BRANCH  18  19
ATOM     19  C   UNL     1       0.531  -0.804  -1.363  1.00  0.00    -0.007 C 
ATOM     20  C   UNL     1       1.362   0.075  -0.432  1.00  0.00     0.008 C 
ATOM     21  C   UNL     1       1.011  -2.258  -1.216  1.00  0.00     0.008 C 
ENDBRANCH  18  19
ENDBRANCH  17  18
ENDBRANCH   7  17
BRANCH  16  22
ATOM     22  C   UNL     1       0.311   7.402   0.823  1.00  0.00     0.430 C 
ATOM     23  F   UNL     1      -0.377   7.889  -0.238  1.00  0.00    -0.167 F 
ATOM     24  F   UNL     1       0.629   8.468   1.593  1.00  0.00    -0.167 F 
ATOM     25  F   UNL     1       1.467   6.880   0.354  1.00  0.00    -0.167 F 
ENDBRANCH  16  22
ENDBRANCH   4   6
ENDBRANCH   3   4
ENDBRANCH   2   3
ENDBRANCH   1   2
BRANCH   1  26
ATOM     26  O   UNL     1      -0.444   6.896   6.916  1.00  0.00    -0.374 OA
BRANCH  26  27
ATOM     27  C   UNL     1      -1.384   6.101   6.194  1.00  0.00     0.202 C 
BRANCH  27  28
ATOM     28  C   UNL     1      -2.871   6.472   6.280  1.00  0.00     0.261 C 
BRANCH  28  29
ATOM     29  O   UNL     1      -3.163   7.743   5.673  1.00  0.00    -0.460 OA
BRANCH  29  30
ATOM     30  C   UNL     1      -3.528   8.720   6.538  1.00  0.00     0.338 C 
ATOM     31  O   UNL     1      -3.665   8.630   7.749  1.00  0.00    -0.246 OA
BRANCH  30  32
ATOM     32  C   UNL     1      -3.543  10.011   5.828  1.00  0.00     0.060 A 
ATOM     33  C   UNL     1      -4.381  10.222   4.733  1.00  0.00     0.016 A 
ATOM     34  C   UNL     1      -2.722  11.040   6.308  1.00  0.00     0.016 A 
ATOM     35  C   UNL     1      -4.414  11.482   4.132  1.00  0.00     0.010 A 
ATOM     36  C   UNL     1      -2.751  12.295   5.702  1.00  0.00     0.010 A 
ATOM     37  C   UNL     1      -3.613  12.531   4.623  1.00  0.00    -0.014 A 
BRANCH  37  38
ATOM     38  C   UNL     1      -3.776  13.909   4.101  1.00  0.00     0.031 A 
ATOM     39  C   UNL     1      -2.750  14.536   3.207  1.00  0.00     0.074 A 
ATOM     40  C   UNL     1      -4.862  14.610   4.480  1.00  0.00     0.049 A 
ATOM     41  N   UNL     1      -2.754  15.725   2.657  1.00  0.00    -0.248 NA
ATOM     42  C   UNL     1      -1.563  13.729   2.891  1.00  0.00     0.031 C 
ATOM     43  C   UNL     1      -5.909  14.111   5.371  1.00  0.00     0.029 A 
ATOM     44  N   UNL     1      -5.266  15.882   4.167  1.00  0.00    -0.354 N 
ATOM     45  C   UNL     1      -1.585  15.803   1.914  1.00  0.00     0.074 A 
ATOM     46  C   UNL     1      -0.871  14.560   2.123  1.00  0.00     0.031 C 
ATOM     47  C   UNL     1      -6.850  15.056   5.513  1.00  0.00     0.029 A 
ATOM     48  C   UNL     1      -6.454  16.239   4.754  1.00  0.00     0.049 A 
ATOM     49  H   UNL     1      -4.753  16.482   3.578  1.00  0.00     0.167 HD
ATOM     50  C   UNL     1      -1.162  16.815   1.118  1.00  0.00     0.037 A 
ATOM     51  C   UNL     1      -7.147  17.392   4.692  1.00  0.00     0.037 A 
ATOM     52  C   UNL     1      -1.871  18.058   0.933  1.00  0.00     0.049 A 
ATOM     53  C   UNL     1      -6.623  18.519   3.846  1.00  0.00     0.074 A 
ATOM     54  C   UNL     1      -1.529  19.133   0.130  1.00  0.00     0.029 A 
ATOM     55  N   UNL     1      -3.057  18.400   1.568  1.00  0.00    -0.354 N 
ATOM     56  N   UNL     1      -5.547  18.562   3.100  1.00  0.00    -0.248 NA
ATOM     57  C   UNL     1      -7.416  19.756   3.828  1.00  0.00     0.031 C 
ATOM     58  C   UNL     1      -2.474  20.145   0.323  1.00  0.00     0.029 A 
ATOM     59  C   UNL     1      -3.445  19.678   1.194  1.00  0.00     0.049 A 
ATOM     60  H   UNL     1      -3.550  17.820   2.192  1.00  0.00     0.167 HD
ATOM     61  C   UNL     1      -5.546  19.815   2.502  1.00  0.00     0.074 A 
ATOM     62  C   UNL     1      -6.740  20.495   2.959  1.00  0.00     0.031 C 
ATOM     63  C   UNL     1      -4.636  20.350   1.651  1.00  0.00     0.037 A 
BRANCH  50  64
ATOM     64  C   UNL     1       0.127  16.628   0.369  1.00  0.00     0.064 A 
ATOM     65  C   UNL     1       0.225  15.730  -0.704  1.00  0.00     0.173 A 
ATOM     66  C   UNL     1       1.249  17.419   0.665  1.00  0.00     0.173 A 
ATOM     67  F   UNL     1      -0.816  14.946  -1.025  1.00  0.00    -0.203 F 
ATOM     68  C   UNL     1       1.400  15.620  -1.444  1.00  0.00     0.198 A 
ATOM     69  C   UNL     1       2.412  17.328  -0.096  1.00  0.00     0.198 A 
ATOM     70  F   UNL     1       1.208  18.301   1.675  1.00  0.00    -0.203 F 
ATOM     71  F   UNL     1       1.478  14.734  -2.446  1.00  0.00    -0.200 F 
ATOM     72  C   UNL     1       2.488  16.427  -1.147  1.00  0.00     0.200 A 
ATOM     73  F   UNL     1       3.456  18.122   0.181  1.00  0.00    -0.200 F 
ATOM     74  F   UNL     1       3.610  16.337  -1.875  1.00  0.00    -0.200 F 
ENDBRANCH  50  64
BRANCH  51  75
ATOM     75  C   UNL     1      -8.432  17.515   5.427  1.00  0.00     0.064 A 
ATOM     76  C   UNL     1      -9.650  17.591   4.737  1.00  0.00     0.173 A 
ATOM     77  C   UNL     1      -8.474  17.533   6.829  1.00  0.00     0.173 A 
ATOM     78  F   UNL     1      -9.660  17.597   3.396  1.00  0.00    -0.203 F 
ATOM     79  C   UNL     1     -10.859  17.691   5.420  1.00  0.00     0.198 A 
ATOM     80  C   UNL     1      -9.686  17.601   7.512  1.00  0.00     0.198 A 
ATOM     81  F   UNL     1      -7.337  17.458   7.536  1.00  0.00    -0.203 F 
ATOM     82  F   UNL     1     -12.006  17.800   4.736  1.00  0.00    -0.200 F 
ATOM     83  C   UNL     1     -10.877  17.687   6.807  1.00  0.00     0.200 A 
ATOM     84  F   UNL     1      -9.700  17.578   8.851  1.00  0.00    -0.200 F 
ATOM     85  F   UNL     1     -12.042  17.768   7.464  1.00  0.00    -0.200 F 
ENDBRANCH  51  75
BRANCH  63  86
ATOM     86  C   UNL     1      -4.906  21.734   1.128  1.00  0.00     0.064 A 
ATOM     87  C   UNL     1      -4.830  22.864   1.955  1.00  0.00     0.173 A 
ATOM     88  C   UNL     1      -5.197  21.936  -0.231  1.00  0.00     0.173 A 
ATOM     89  F   UNL     1      -4.568  22.727   3.264  1.00  0.00    -0.203 F 
ATOM     90  C   UNL     1      -5.061  24.141   1.448  1.00  0.00     0.198 A 
ATOM     91  C   UNL     1      -5.392  23.216  -0.742  1.00  0.00     0.198 A 
ATOM     92  F   UNL     1      -5.274  20.891  -1.069  1.00  0.00    -0.203 F 
ATOM     93  F   UNL     1      -5.033  25.201   2.268  1.00  0.00    -0.200 F 
ATOM     94  C   UNL     1      -5.332  24.317   0.099  1.00  0.00     0.200 A 
ATOM     95  F   UNL     1      -5.636  23.385  -2.049  1.00  0.00    -0.200 F 
ATOM     96  F   UNL     1      -5.542  25.547  -0.389  1.00  0.00    -0.200 F 
ENDBRANCH  63  86
ENDBRANCH  37  38
ENDBRANCH  30  32
ENDBRANCH  29  30
ENDBRANCH  28  29
ENDBRANCH  27  28
ENDBRANCH  26  27
ENDBRANCH   1  26
TORSDOF 18
