REMARK SMILES O=C(OCCOCCOC(=O)c1cc(Cl)ccc1N1C(=O)CC2(CCCC2)C1=O)c1ccc(-c2c3nc(c(-c4c(F)c(F)c(F)c(F)c4F)c4ccc([nH]4)c(-c4c(F)c(F)c(F)c(F)c4F)c4nc(c(-c5c(F)c(F)c(F)c(F)c5F)c5ccc2[nH]5)C=C4)C=C3)cc1
REMARK SMILES IDX 5 1 4 2 3 3 2 4 1 5 30 6 31 7 92 8 32 9 91 10 33 11 34 12
REMARK SMILES IDX 35 13 85 14 36 15 90 16 84 17 86 18 37 19 89 20 83 21 82 22
REMARK SMILES IDX 38 24 70 25 50 26 69 27 51 28 54 29 68 30 87 31 52 32 53 33
REMARK SMILES IDX 67 35 88 36 55 37 39 38 40 39 48 40 41 41 42 42 46 43 49 44
REMARK SMILES IDX 43 45 44 46 47 47 45 48 71 49 72 50 80 51 73 52 74 53 78 54
REMARK SMILES IDX 81 55 75 56 76 57 79 58 77 59 56 60 57 61 65 62 58 63 59 64
REMARK SMILES IDX 63 65 66 66 60 67 61 68 64 69 62 70 6 71 7 72 8 73 9 74
REMARK SMILES IDX 10 75 11 76 12 77 13 78 18 79 14 80 17 81 15 82 16 83 19 84
REMARK SMILES IDX 20 85 28 86 21 87 22 88 23 89 29 90 24 91 27 92 25 93 26 94
REMARK H PARENT 86 23 54 34
REMARK Flexibility Score: inf
ROOT
ATOM      1  C   UNL     1       3.195   0.425   1.393  1.00  0.00     0.202 C 
ENDROOT
BRANCH   1   2
ATOM      2  C   UNL     1       2.576   0.773   0.039  1.00  0.00     0.261 C 
BRANCH   2   3
ATOM      3  O   UNL     1       1.335   0.077  -0.169  1.00  0.00    -0.460 OA
BRANCH   3   4
ATOM      4  C   UNL     1       1.137  -0.759  -1.222  1.00  0.00     0.338 C 
ATOM      5  O   UNL     1       0.023  -0.877  -1.724  1.00  0.00    -0.246 OA
BRANCH   4   6
ATOM      6  C   UNL     1       2.256  -1.595  -1.751  1.00  0.00     0.060 A 
ATOM      7  C   UNL     1       3.259  -2.095  -0.930  1.00  0.00     0.016 A 
ATOM      8  C   UNL     1       2.232  -2.026  -3.080  1.00  0.00     0.016 A 
ATOM      9  C   UNL     1       4.268  -2.918  -1.396  1.00  0.00     0.010 A 
ATOM     10  C   UNL     1       3.155  -2.987  -3.524  1.00  0.00     0.010 A 
ATOM     11  C   UNL     1       4.160  -3.465  -2.667  1.00  0.00    -0.014 A 
BRANCH  11  12
ATOM     12  C   UNL     1       5.035  -4.611  -3.013  1.00  0.00     0.031 A 
ATOM     13  C   UNL     1       5.950  -4.521  -4.190  1.00  0.00     0.074 A 
ATOM     14  C   UNL     1       5.010  -5.719  -2.238  1.00  0.00     0.049 A 
ATOM     15  N   UNL     1       6.655  -5.463  -4.758  1.00  0.00    -0.248 NA
ATOM     16  C   UNL     1       6.091  -3.198  -4.818  1.00  0.00     0.031 C 
ATOM     17  C   UNL     1       4.205  -5.889  -1.021  1.00  0.00     0.029 A 
ATOM     18  N   UNL     1       5.683  -6.911  -2.341  1.00  0.00    -0.354 N 
ATOM     19  C   UNL     1       7.276  -4.862  -5.842  1.00  0.00     0.074 A 
ATOM     20  C   UNL     1       6.885  -3.470  -5.844  1.00  0.00     0.031 C 
ATOM     21  C   UNL     1       4.470  -7.081  -0.469  1.00  0.00     0.029 A 
ATOM     22  C   UNL     1       5.357  -7.816  -1.356  1.00  0.00     0.049 A 
ATOM     23  H   UNL     1       6.338  -7.101  -3.052  1.00  0.00     0.167 HD
ATOM     24  C   UNL     1       8.079  -5.443  -6.763  1.00  0.00     0.037 A 
ATOM     25  C   UNL     1       5.676  -9.116  -1.221  1.00  0.00     0.037 A 
ATOM     26  C   UNL     1       8.460  -6.830  -6.727  1.00  0.00     0.049 A 
ATOM     27  C   UNL     1       6.511  -9.746  -2.300  1.00  0.00     0.074 A 
ATOM     28  C   UNL     1       9.252  -7.531  -7.616  1.00  0.00     0.029 A 
ATOM     29  N   UNL     1       8.071  -7.726  -5.740  1.00  0.00    -0.354 N 
ATOM     30  N   UNL     1       7.058  -9.187  -3.353  1.00  0.00    -0.248 NA
ATOM     31  C   UNL     1       6.743 -11.192  -2.198  1.00  0.00     0.031 C 
ATOM     32  C   UNL     1       9.300  -8.864  -7.195  1.00  0.00     0.029 A 
ATOM     33  C   UNL     1       8.580  -8.983  -6.016  1.00  0.00     0.049 A 
ATOM     34  H   UNL     1       7.515  -7.501  -4.959  1.00  0.00     0.167 HD
ATOM     35  C   UNL     1       7.696 -10.208  -4.038  1.00  0.00     0.074 A 
ATOM     36  C   UNL     1       7.502 -11.415  -3.261  1.00  0.00     0.031 C 
ATOM     37  C   UNL     1       8.367 -10.160  -5.214  1.00  0.00     0.037 A 
BRANCH  24  38
ATOM     38  C   UNL     1       8.527  -4.602  -7.918  1.00  0.00     0.064 A 
ATOM     39  C   UNL     1       9.507  -3.609  -7.782  1.00  0.00     0.173 A 
ATOM     40  C   UNL     1       7.969  -4.807  -9.189  1.00  0.00     0.173 A 
ATOM     41  F   UNL     1      10.052  -3.356  -6.583  1.00  0.00    -0.203 F 
ATOM     42  C   UNL     1       9.901  -2.841  -8.876  1.00  0.00     0.198 A 
ATOM     43  C   UNL     1       8.382  -4.054 -10.284  1.00  0.00     0.198 A 
ATOM     44  F   UNL     1       7.022  -5.740  -9.368  1.00  0.00    -0.203 F 
ATOM     45  F   UNL     1      10.809  -1.868  -8.717  1.00  0.00    -0.200 F 
ATOM     46  C   UNL     1       9.344  -3.069 -10.126  1.00  0.00     0.200 A 
ATOM     47  F   UNL     1       7.843  -4.278 -11.491  1.00  0.00    -0.200 F 
ATOM     48  F   UNL     1       9.726  -2.330 -11.177  1.00  0.00    -0.200 F 
ENDBRANCH  24  38
BRANCH  25  49
ATOM     49  C   UNL     1       5.129  -9.927  -0.095  1.00  0.00     0.064 A 
ATOM     50  C   UNL     1       5.975 -10.529   0.846  1.00  0.00     0.173 A 
ATOM     51  C   UNL     1       3.749 -10.150   0.043  1.00  0.00     0.173 A 
ATOM     52  F   UNL     1       7.304 -10.374   0.749  1.00  0.00    -0.203 F 
ATOM     53  C   UNL     1       5.466 -11.340   1.862  1.00  0.00     0.198 A 
ATOM     54  C   UNL     1       3.239 -10.926   1.082  1.00  0.00     0.198 A 
ATOM     55  F   UNL     1       2.888  -9.607  -0.830  1.00  0.00    -0.203 F 
ATOM     56  F   UNL     1       6.304 -11.955   2.708  1.00  0.00    -0.200 F 
ATOM     57  C   UNL     1       4.099 -11.532   1.982  1.00  0.00     0.200 A 
ATOM     58  F   UNL     1       1.914 -11.094   1.202  1.00  0.00    -0.200 F 
ATOM     59  F   UNL     1       3.611 -12.312   2.957  1.00  0.00    -0.200 F 
ENDBRANCH  25  49
BRANCH  37  60
ATOM     60  C   UNL     1       8.945 -11.449  -5.712  1.00  0.00     0.064 A 
ATOM     61  C   UNL     1       8.128 -12.456  -6.245  1.00  0.00     0.173 A 
ATOM     62  C   UNL     1      10.331 -11.659  -5.692  1.00  0.00     0.173 A 
ATOM     63  F   UNL     1       6.795 -12.306  -6.264  1.00  0.00    -0.203 F 
ATOM     64  C   UNL     1       8.680 -13.639  -6.726  1.00  0.00     0.198 A 
ATOM     65  C   UNL     1      10.881 -12.830  -6.202  1.00  0.00     0.198 A 
ATOM     66  F   UNL     1      11.150 -10.721  -5.193  1.00  0.00    -0.203 F 
ATOM     67  F   UNL     1       7.880 -14.608  -7.192  1.00  0.00    -0.200 F 
ATOM     68  C   UNL     1      10.055 -13.820  -6.713  1.00  0.00     0.200 A 
ATOM     69  F   UNL     1      12.210 -12.999  -6.200  1.00  0.00    -0.200 F 
ATOM     70  F   UNL     1      10.586 -14.956  -7.187  1.00  0.00    -0.200 F 
ENDBRANCH  37  60
ENDBRANCH  11  12
ENDBRANCH   4   6
ENDBRANCH   3   4
ENDBRANCH   2   3
ENDBRANCH   1   2
BRANCH   1  71
ATOM     71  O   UNL     1       2.972  -0.920   1.776  1.00  0.00    -0.374 OA
BRANCH  71  72
ATOM     72  C   UNL     1       2.092  -1.128   2.863  1.00  0.00     0.202 C 
BRANCH  72  73
ATOM     73  C   UNL     1       2.923  -1.507   4.085  1.00  0.00     0.261 C 
BRANCH  73  74
ATOM     74  O   UNL     1       3.746  -0.392   4.474  1.00  0.00    -0.460 OA
BRANCH  74  75
ATOM     75  C   UNL     1       4.998  -0.285   3.934  1.00  0.00     0.340 C 
ATOM     76  O   UNL     1       5.571  -1.086   3.237  1.00  0.00    -0.246 OA
BRANCH  75  77
ATOM     77  C   UNL     1       5.485   1.089   4.248  1.00  0.00     0.085 A 
ATOM     78  C   UNL     1       5.029   1.683   5.444  1.00  0.00     0.038 A 
ATOM     79  C   UNL     1       6.293   1.836   3.366  1.00  0.00     0.066 A 
ATOM     80  C   UNL     1       5.329   3.008   5.736  1.00  0.00     0.042 A 
ATOM     81  C   UNL     1       6.595   3.171   3.694  1.00  0.00     0.029 A 
ATOM     82  Cl  UNL     1       4.697   3.730   7.162  1.00  0.00    -0.084 Cl
ATOM     83  C   UNL     1       6.109   3.756   4.865  1.00  0.00     0.023 A 
BRANCH  79  84
ATOM     84  N   UNL     1       6.762   1.366   2.111  1.00  0.00    -0.249 N 
ATOM     85  C   UNL     1       8.049   0.913   1.943  1.00  0.00     0.234 C 
ATOM     86  C   UNL     1       6.262   1.851   0.925  1.00  0.00     0.240 C 
ATOM     87  O   UNL     1       8.859   0.641   2.818  1.00  0.00    -0.274 OA
ATOM     88  C   UNL     1       8.409   0.992   0.474  1.00  0.00     0.118 C 
ATOM     89  C   UNL     1       7.080   1.282  -0.215  1.00  0.00     0.059 C 
ATOM     90  O   UNL     1       5.317   2.618   0.786  1.00  0.00    -0.273 OA
ATOM     91  C   UNL     1       7.142   2.232  -1.413  1.00  0.00     0.017 C 
ATOM     92  C   UNL     1       6.456   0.022  -0.817  1.00  0.00     0.017 C 
ATOM     93  C   UNL     1       7.390   1.357  -2.635  1.00  0.00     0.001 C 
ATOM     94  C   UNL     1       7.011  -0.064  -2.235  1.00  0.00     0.001 C 
ENDBRANCH  79  84
ENDBRANCH  75  77
ENDBRANCH  74  75
ENDBRANCH  73  74
ENDBRANCH  72  73
ENDBRANCH  71  72
ENDBRANCH   1  71
TORSDOF 15
