REMARK SMILES CNc1cc(-c2cncc(SCC(=O)OCCOCCOC(=O)c3ccc(-c4c5nc(c(-c6c(F)c(F)c(F)c(F)c6F)c6ccc([nH]6)c(-c6c(F)c(F)c(F)c(F)c6F)c6nc(c(-c7c(F)c(F)c(F)c(F)c7F)c7ccc4[nH]7)C=C6)C=C5)cc3)n2)c2cc[nH]c2n1
REMARK SMILES IDX 17 1 16 2 15 3 13 4 14 5 12 6 11 7 10 8 6 9 7 10 87 11 8 12
REMARK SMILES IDX 9 13 5 14 3 15 4 16 93 17 92 18 88 19 91 20 89 21 90 22 2 24
REMARK SMILES IDX 1 25 18 27 19 28 20 29 21 30 22 31 23 32 24 33 25 34 86 35
REMARK SMILES IDX 26 36 85 37 27 38 28 39 29 40 79 41 30 42 84 43 78 44 80 45
REMARK SMILES IDX 31 46 83 47 77 48 76 49 32 51 64 52 44 53 63 54 45 55 48 56
REMARK SMILES IDX 62 57 81 58 46 59 47 60 61 62 82 63 49 64 33 65 34 66 42 67
REMARK SMILES IDX 35 68 36 69 40 70 43 71 37 72 38 73 41 74 39 75 65 76 66 77
REMARK SMILES IDX 74 78 67 79 68 80 72 81 75 82 69 83 70 84 73 85 71 86 50 87
REMARK SMILES IDX 51 88 59 89 52 90 53 91 57 92 60 93 54 94 55 95 58 96 56 97
REMARK H PARENT 91 23 2 26 80 50 48 61
REMARK Flexibility Score: inf
ROOT
ATOM      1  C   UNL     1      -3.720   0.816  -8.474  1.00  0.00     0.202 C 
ENDROOT
BRANCH   1   2
ATOM      2  C   UNL     1      -3.790  -0.628  -9.010  1.00  0.00     0.261 C 
BRANCH   2   3
ATOM      3  O   UNL     1      -3.906  -1.654  -7.992  1.00  0.00    -0.463 OA
BRANCH   3   4
ATOM      4  C   UNL     1      -2.835  -2.495  -7.876  1.00  0.00     0.316 C 
ATOM      5  O   UNL     1      -1.939  -2.559  -8.717  1.00  0.00    -0.251 OA
BRANCH   4   6
ATOM      6  C   UNL     1      -2.720  -3.288  -6.572  1.00  0.00     0.199 C 
BRANCH   6   7
ATOM      7  S   UNL     1      -4.178  -3.427  -5.503  1.00  0.00    -0.093 SA
BRANCH   7   8
ATOM      8  C   UNL     1      -3.847  -2.469  -3.979  1.00  0.00     0.116 A 
ATOM      9  C   UNL     1      -2.985  -0.616  -2.810  1.00  0.00     0.091 A 
ATOM     10  C   UNL     1      -4.050  -0.722  -1.915  1.00  0.00     0.140 A 
ATOM     11  N   UNL     1      -2.864  -1.519  -3.862  1.00  0.00    -0.238 NA
ATOM     12  N   UNL     1      -5.001  -1.683  -1.994  1.00  0.00    -0.260 NA
ATOM     13  C   UNL     1      -4.876  -2.540  -3.036  1.00  0.00     0.146 A 
BRANCH   9  14
ATOM     14  C   UNL     1      -1.919   0.388  -2.579  1.00  0.00     0.016 A 
ATOM     15  C   UNL     1       0.093   1.039  -1.339  1.00  0.00     0.128 A 
ATOM     16  C   UNL     1      -0.961   0.156  -1.565  1.00  0.00     0.058 A 
ATOM     17  N   UNL     1       0.337   2.102  -2.111  1.00  0.00    -0.213 NA
ATOM     18  C   UNL     1      -0.597   2.341  -3.034  1.00  0.00     0.140 A 
ATOM     19  C   UNL     1      -1.779   1.638  -3.252  1.00  0.00     0.028 A 
ATOM     20  N   UNL     1      -0.491   3.352  -3.947  1.00  0.00    -0.346 N 
ATOM     21  C   UNL     1      -2.515   2.511  -4.115  1.00  0.00     0.030 A 
ATOM     22  C   UNL     1      -1.667   3.475  -4.621  1.00  0.00     0.085 A 
ATOM     23  H   UNL     1       0.310   3.904  -4.095  1.00  0.00     0.167 HD
BRANCH  15  24
ATOM     24  N   UNL     1       0.989   0.911  -0.316  1.00  0.00    -0.373 N 
ATOM     25  C   UNL     1       1.340  -0.330   0.309  1.00  0.00     0.141 C 
ATOM     26  H   UNL     1       1.425   1.729   0.016  1.00  0.00     0.161 HD
ENDBRANCH  15  24
ENDBRANCH   9  14
ENDBRANCH   7   8
ENDBRANCH   6   7
ENDBRANCH   4   6
ENDBRANCH   3   4
ENDBRANCH   2   3
ENDBRANCH   1   2
BRANCH   1  27
ATOM     27  O   UNL     1      -2.913   1.083  -7.339  1.00  0.00    -0.374 OA
BRANCH  27  28
ATOM     28  C   UNL     1      -3.133   0.282  -6.194  1.00  0.00     0.202 C 
BRANCH  28  29
ATOM     29  C   UNL     1      -4.517   0.269  -5.534  1.00  0.00     0.261 C 
BRANCH  29  30
ATOM     30  O   UNL     1      -5.574   0.721  -6.340  1.00  0.00    -0.460 OA
BRANCH  30  31
ATOM     31  C   UNL     1      -6.205   1.814  -5.893  1.00  0.00     0.338 C 
ATOM     32  O   UNL     1      -5.960   2.557  -4.964  1.00  0.00    -0.246 OA
BRANCH  31  33
ATOM     33  C   UNL     1      -7.337   1.899  -6.787  1.00  0.00     0.060 A 
ATOM     34  C   UNL     1      -7.247   2.756  -7.880  1.00  0.00     0.016 A 
ATOM     35  C   UNL     1      -8.408   1.024  -6.578  1.00  0.00     0.016 A 
ATOM     36  C   UNL     1      -8.307   2.796  -8.761  1.00  0.00     0.010 A 
ATOM     37  C   UNL     1      -9.454   1.047  -7.476  1.00  0.00     0.010 A 
ATOM     38  C   UNL     1      -9.418   1.967  -8.534  1.00  0.00    -0.014 A 
BRANCH  38  39
ATOM     39  C   UNL     1     -10.628   2.179  -9.329  1.00  0.00     0.031 A 
ATOM     40  C   UNL     1     -11.755   2.933  -8.700  1.00  0.00     0.074 A 
ATOM     41  C   UNL     1     -10.669   1.718 -10.585  1.00  0.00     0.049 A 
ATOM     42  N   UNL     1     -12.918   3.247  -9.200  1.00  0.00    -0.248 NA
ATOM     43  C   UNL     1     -11.548   3.385  -7.313  1.00  0.00     0.031 C 
ATOM     44  C   UNL     1      -9.586   0.994 -11.252  1.00  0.00     0.029 A 
ATOM     45  N   UNL     1     -11.656   1.797 -11.523  1.00  0.00    -0.354 N 
ATOM     46  C   UNL     1     -13.581   3.928  -8.189  1.00  0.00     0.074 A 
ATOM     47  C   UNL     1     -12.717   3.934  -7.031  1.00  0.00     0.031 C 
ATOM     48  C   UNL     1      -9.964   0.711 -12.507  1.00  0.00     0.029 A 
ATOM     49  C   UNL     1     -11.325   1.198 -12.709  1.00  0.00     0.049 A 
ATOM     50  H   UNL     1     -12.521   2.241 -11.362  1.00  0.00     0.167 HD
ATOM     51  C   UNL     1     -14.801   4.508  -8.242  1.00  0.00     0.037 A 
ATOM     52  C   UNL     1     -12.062   1.061 -13.823  1.00  0.00     0.037 A 
ATOM     53  C   UNL     1     -15.634   4.465  -9.414  1.00  0.00     0.049 A 
ATOM     54  C   UNL     1     -13.444   1.652 -13.834  1.00  0.00     0.074 A 
ATOM     55  C   UNL     1     -16.884   5.018  -9.610  1.00  0.00     0.029 A 
ATOM     56  N   UNL     1     -15.293   3.809 -10.593  1.00  0.00    -0.354 N 
ATOM     57  N   UNL     1     -14.063   2.327 -12.893  1.00  0.00    -0.248 NA
ATOM     58  C   UNL     1     -14.227   1.465 -15.058  1.00  0.00     0.031 C 
ATOM     59  C   UNL     1     -17.327   4.642 -10.883  1.00  0.00     0.029 A 
ATOM     60  C   UNL     1     -16.325   3.914 -11.510  1.00  0.00     0.049 A 
ATOM     61  H   UNL     1     -14.443   3.339 -10.752  1.00  0.00     0.167 HD
ATOM     62  C   UNL     1     -15.300   2.671 -13.418  1.00  0.00     0.074 A 
ATOM     63  C   UNL     1     -15.332   2.138 -14.768  1.00  0.00     0.031 C 
ATOM     64  C   UNL     1     -16.317   3.363 -12.844  1.00  0.00     0.037 A 
BRANCH  51  65
ATOM     65  C   UNL     1     -15.297   5.179  -6.994  1.00  0.00     0.064 A 
ATOM     66  C   UNL     1     -14.679   6.325  -6.468  1.00  0.00     0.173 A 
ATOM     67  C   UNL     1     -16.387   4.646  -6.289  1.00  0.00     0.173 A 
ATOM     68  F   UNL     1     -13.619   6.867  -7.088  1.00  0.00    -0.203 F 
ATOM     69  C   UNL     1     -15.102   6.882  -5.263  1.00  0.00     0.198 A 
ATOM     70  C   UNL     1     -16.831   5.228  -5.104  1.00  0.00     0.198 A 
ATOM     71  F   UNL     1     -17.015   3.550  -6.741  1.00  0.00    -0.203 F 
ATOM     72  F   UNL     1     -14.445   7.929  -4.743  1.00  0.00    -0.200 F 
ATOM     73  C   UNL     1     -16.180   6.336  -4.585  1.00  0.00     0.200 A 
ATOM     74  F   UNL     1     -17.881   4.704  -4.456  1.00  0.00    -0.200 F 
ATOM     75  F   UNL     1     -16.583   6.868  -3.422  1.00  0.00    -0.200 F 
ENDBRANCH  51  65
BRANCH  52  76
ATOM     76  C   UNL     1     -11.485   0.368 -15.001  1.00  0.00     0.064 A 
ATOM     77  C   UNL     1     -11.163   1.079 -16.164  1.00  0.00     0.173 A 
ATOM     78  C   UNL     1     -11.197  -1.005 -14.972  1.00  0.00     0.173 A 
ATOM     79  F   UNL     1     -11.427   2.391 -16.241  1.00  0.00    -0.203 F 
ATOM     80  C   UNL     1     -10.583   0.441 -17.258  1.00  0.00     0.198 A 
ATOM     81  C   UNL     1     -10.592  -1.636 -16.056  1.00  0.00     0.198 A 
ATOM     82  F   UNL     1     -11.474  -1.727 -13.877  1.00  0.00    -0.203 F 
ATOM     83  F   UNL     1     -10.310   1.139 -18.369  1.00  0.00    -0.200 F 
ATOM     84  C   UNL     1     -10.291  -0.914 -17.201  1.00  0.00     0.200 A 
ATOM     85  F   UNL     1     -10.291  -2.940 -15.988  1.00  0.00    -0.200 F 
ATOM     86  F   UNL     1      -9.719  -1.523 -18.248  1.00  0.00    -0.200 F 
ENDBRANCH  52  76
BRANCH  64  87
ATOM     87  C   UNL     1     -17.531   3.606 -13.693  1.00  0.00     0.064 A 
ATOM     88  C   UNL     1     -18.408   2.569 -14.039  1.00  0.00     0.173 A 
ATOM     89  C   UNL     1     -17.838   4.904 -14.130  1.00  0.00     0.173 A 
ATOM     90  F   UNL     1     -18.149   1.309 -13.658  1.00  0.00    -0.203 F 
ATOM     91  C   UNL     1     -19.533   2.817 -14.820  1.00  0.00     0.198 A 
ATOM     92  C   UNL     1     -18.983   5.154 -14.877  1.00  0.00     0.198 A 
ATOM     93  F   UNL     1     -17.034   5.932 -13.817  1.00  0.00    -0.203 F 
ATOM     94  F   UNL     1     -20.326   1.802 -15.189  1.00  0.00    -0.200 F 
ATOM     95  C   UNL     1     -19.824   4.110 -15.230  1.00  0.00     0.200 A 
ATOM     96  F   UNL     1     -19.273   6.406 -15.257  1.00  0.00    -0.200 F 
ATOM     97  F   UNL     1     -20.913   4.348 -15.974  1.00  0.00    -0.200 F 
ENDBRANCH  64  87
ENDBRANCH  38  39
ENDBRANCH  31  33
ENDBRANCH  30  31
ENDBRANCH  29  30
ENDBRANCH  28  29
ENDBRANCH  27  28
ENDBRANCH   1  27
TORSDOF 18
