REMARK SMILES COc1ccc(C(C)(C)C)cc1CC(=O)OCCOCCOC(=O)c1ccc(-c2c3nc(c(-c4c(F)c(F)c(F)c(F)c4F)c4ccc([nH]4)c(-c4c(F)c(F)c(F)c(F)c4F)c4nc(c(-c5c(F)c(F)c(F)c(F)c5F)c5ccc2[nH]5)C=C4)C=C3)cc1
REMARK SMILES IDX 19 1 18 2 17 3 16 4 14 5 15 6 13 7 12 8 3 9 4 10 5 11 11 12
REMARK SMILES IDX 6 13 2 14 1 15 7 16 8 17 9 18 10 19 20 20 21 21 22 22 23 23
REMARK SMILES IDX 24 24 25 25 26 26 87 27 27 28 86 29 28 30 29 31 30 32 80 33
REMARK SMILES IDX 31 34 85 35 79 36 81 37 32 38 84 39 78 40 77 41 33 43 65 44
REMARK SMILES IDX 45 45 64 46 46 47 49 48 63 49 82 50 47 51 48 52 62 54 83 55
REMARK SMILES IDX 50 56 34 57 35 58 43 59 36 60 37 61 41 62 44 63 38 64 39 65
REMARK SMILES IDX 42 66 40 67 66 68 67 69 75 70 68 71 69 72 73 73 76 74 70 75
REMARK SMILES IDX 71 76 74 77 72 78 51 79 52 80 60 81 53 82 54 83 58 84 61 85
REMARK SMILES IDX 55 86 56 87 59 88 57 89
REMARK H PARENT 81 42 49 53
REMARK Flexibility Score: inf
ROOT
ATOM      1  O   UNL     1       6.844  -2.273   2.660  1.00  0.00    -0.374 OA
ENDROOT
BRANCH   1   2
ATOM      2  C   UNL     1       6.165  -1.325   3.489  1.00  0.00     0.202 C 
BRANCH   2   3
ATOM      3  C   UNL     1       5.269  -0.318   2.760  1.00  0.00     0.261 C 
BRANCH   3   4
ATOM      4  O   UNL     1       4.230  -0.988   2.031  1.00  0.00    -0.463 OA
BRANCH   4   5
ATOM      5  C   UNL     1       3.978  -0.502   0.786  1.00  0.00     0.310 C 
ATOM      6  O   UNL     1       4.399   0.569   0.359  1.00  0.00    -0.252 OA
BRANCH   5   7
ATOM      7  C   UNL     1       3.287  -1.510  -0.106  1.00  0.00     0.162 C 
BRANCH   7   8
ATOM      8  C   UNL     1       2.288  -2.438   0.546  1.00  0.00     0.005 A 
ATOM      9  C   UNL     1       1.116  -1.946   1.126  1.00  0.00     0.122 A 
ATOM     10  C   UNL     1       0.195  -2.812   1.702  1.00  0.00     0.047 A 
ATOM     11  C   UNL     1       0.426  -4.191   1.686  1.00  0.00     0.008 A 
ATOM     12  C   UNL     1       2.508  -3.835   0.541  1.00  0.00     0.012 A 
ATOM     13  C   UNL     1       1.592  -4.738   1.115  1.00  0.00    -0.042 A 
BRANCH   9  14
ATOM     14  O   UNL     1       0.882  -0.602   1.224  1.00  0.00    -0.496 OA
ATOM     15  C   UNL     1       0.320  -0.068   0.024  1.00  0.00     0.278 C 
ENDBRANCH   9  14
BRANCH  13  16
ATOM     16  C   UNL     1       1.818  -6.264   1.150  1.00  0.00    -0.013 C 
ATOM     17  C   UNL     1       1.799  -6.749   2.618  1.00  0.00     0.016 C 
ATOM     18  C   UNL     1       0.696  -6.976   0.364  1.00  0.00     0.016 C 
ATOM     19  C   UNL     1       3.151  -6.737   0.527  1.00  0.00     0.016 C 
ENDBRANCH  13  16
ENDBRANCH   7   8
ENDBRANCH   5   7
ENDBRANCH   4   5
ENDBRANCH   3   4
ENDBRANCH   2   3
ENDBRANCH   1   2
BRANCH   1  20
ATOM     20  C   UNL     1       6.055  -3.291   2.045  1.00  0.00     0.202 C 
BRANCH  20  21
ATOM     21  C   UNL     1       5.510  -4.379   2.973  1.00  0.00     0.261 C 
BRANCH  21  22
ATOM     22  O   UNL     1       4.662  -3.858   4.003  1.00  0.00    -0.460 OA
BRANCH  22  23
ATOM     23  C   UNL     1       4.943  -4.335   5.235  1.00  0.00     0.338 C 
ATOM     24  O   UNL     1       5.718  -5.234   5.530  1.00  0.00    -0.246 OA
BRANCH  23  25
ATOM     25  C   UNL     1       4.291  -3.510   6.259  1.00  0.00     0.060 A 
ATOM     26  C   UNL     1       5.122  -2.809   7.139  1.00  0.00     0.016 A 
ATOM     27  C   UNL     1       2.907  -3.535   6.444  1.00  0.00     0.016 A 
ATOM     28  C   UNL     1       4.575  -2.185   8.255  1.00  0.00     0.010 A 
ATOM     29  C   UNL     1       2.359  -2.909   7.568  1.00  0.00     0.010 A 
ATOM     30  C   UNL     1       3.197  -2.273   8.501  1.00  0.00    -0.014 A 
BRANCH  30  31
ATOM     31  C   UNL     1       2.684  -1.823   9.817  1.00  0.00     0.031 A 
ATOM     32  C   UNL     1       2.488  -2.834  10.912  1.00  0.00     0.074 A 
ATOM     33  C   UNL     1       2.481  -0.516  10.055  1.00  0.00     0.049 A 
ATOM     34  N   UNL     1       2.152  -2.649  12.164  1.00  0.00    -0.248 NA
ATOM     35  C   UNL     1       2.702  -4.244  10.549  1.00  0.00     0.031 C 
ATOM     36  C   UNL     1       2.659   0.555   9.076  1.00  0.00     0.029 A 
ATOM     37  N   UNL     1       2.095   0.132  11.200  1.00  0.00    -0.354 N 
ATOM     38  C   UNL     1       2.122  -3.914  12.737  1.00  0.00     0.074 A 
ATOM     39  C   UNL     1       2.437  -4.862  11.691  1.00  0.00     0.031 C 
ATOM     40  C   UNL     1       2.393   1.732   9.667  1.00  0.00     0.029 A 
ATOM     41  C   UNL     1       2.014   1.495  11.058  1.00  0.00     0.049 A 
ATOM     42  H   UNL     1       1.895  -0.335  12.043  1.00  0.00     0.167 HD
ATOM     43  C   UNL     1       1.869  -4.251  14.024  1.00  0.00     0.037 A 
ATOM     44  C   UNL     1       1.674   2.440  11.955  1.00  0.00     0.037 A 
ATOM     45  C   UNL     1       1.558  -3.306  15.064  1.00  0.00     0.049 A 
ATOM     46  C   UNL     1       1.361   2.035  13.370  1.00  0.00     0.074 A 
ATOM     47  C   UNL     1       1.306  -3.544  16.403  1.00  0.00     0.029 A 
ATOM     48  N   UNL     1       1.449  -1.936  14.873  1.00  0.00    -0.354 N 
ATOM     49  N   UNL     1       1.379   0.842  13.914  1.00  0.00    -0.248 NA
ATOM     50  C   UNL     1       0.992   3.111  14.300  1.00  0.00     0.031 C 
ATOM     51  C   UNL     1       1.004  -2.322  17.015  1.00  0.00     0.029 A 
ATOM     52  C   UNL     1       1.111  -1.318  16.066  1.00  0.00     0.049 A 
ATOM     53  H   UNL     1       1.592  -1.472  14.017  1.00  0.00     0.167 HD
ATOM     54  C   UNL     1       1.049   1.025  15.250  1.00  0.00     0.074 A 
ATOM     55  C   UNL     1       0.851   2.447  15.439  1.00  0.00     0.031 C 
ATOM     56  C   UNL     1       0.920   0.100  16.233  1.00  0.00     0.037 A 
BRANCH  43  57
ATOM     57  C   UNL     1       1.902  -5.710  14.375  1.00  0.00     0.064 A 
ATOM     58  C   UNL     1       3.110  -6.420  14.456  1.00  0.00     0.173 A 
ATOM     59  C   UNL     1       0.714  -6.398  14.662  1.00  0.00     0.173 A 
ATOM     60  F   UNL     1       4.271  -5.810  14.177  1.00  0.00    -0.203 F 
ATOM     61  C   UNL     1       3.124  -7.772  14.788  1.00  0.00     0.198 A 
ATOM     62  C   UNL     1       0.735  -7.744  15.018  1.00  0.00     0.198 A 
ATOM     63  F   UNL     1      -0.466  -5.764  14.602  1.00  0.00    -0.203 F 
ATOM     64  F   UNL     1       4.285  -8.441  14.818  1.00  0.00    -0.200 F 
ATOM     65  C   UNL     1       1.938  -8.431  15.074  1.00  0.00     0.200 A 
ATOM     66  F   UNL     1      -0.412  -8.378  15.303  1.00  0.00    -0.200 F 
ATOM     67  F   UNL     1       1.953  -9.732  15.398  1.00  0.00    -0.200 F 
ENDBRANCH  43  57
BRANCH  44  68
ATOM     68  C   UNL     1       1.632   3.867  11.543  1.00  0.00     0.064 A 
ATOM     69  C   UNL     1       2.580   4.785  12.015  1.00  0.00     0.173 A 
ATOM     70  C   UNL     1       0.638   4.340  10.675  1.00  0.00     0.173 A 
ATOM     71  F   UNL     1       3.534   4.384  12.867  1.00  0.00    -0.203 F 
ATOM     72  C   UNL     1       2.526   6.128  11.645  1.00  0.00     0.198 A 
ATOM     73  C   UNL     1       0.600   5.677  10.286  1.00  0.00     0.198 A 
ATOM     74  F   UNL     1      -0.292   3.501  10.198  1.00  0.00    -0.203 F 
ATOM     75  F   UNL     1       3.419   6.994  12.143  1.00  0.00    -0.200 F 
ATOM     76  C   UNL     1       1.540   6.571  10.776  1.00  0.00     0.200 A 
ATOM     77  F   UNL     1      -0.348   6.100   9.439  1.00  0.00    -0.200 F 
ATOM     78  F   UNL     1       1.490   7.862  10.418  1.00  0.00    -0.200 F 
ENDBRANCH  44  68
BRANCH  56  79
ATOM     79  C   UNL     1       0.571   0.603  17.603  1.00  0.00     0.064 A 
ATOM     80  C   UNL     1      -0.715   1.073  17.906  1.00  0.00     0.173 A 
ATOM     81  C   UNL     1       1.527   0.589  18.630  1.00  0.00     0.173 A 
ATOM     82  F   UNL     1      -1.659   1.119  16.954  1.00  0.00    -0.203 F 
ATOM     83  C   UNL     1      -1.023   1.539  19.181  1.00  0.00     0.198 A 
ATOM     84  C   UNL     1       1.208   1.031  19.911  1.00  0.00     0.198 A 
ATOM     85  F   UNL     1       2.769   0.142  18.392  1.00  0.00    -0.203 F 
ATOM     86  F   UNL     1      -2.243   2.030  19.436  1.00  0.00    -0.200 F 
ATOM     87  C   UNL     1      -0.064   1.513  20.183  1.00  0.00     0.200 A 
ATOM     88  F   UNL     1       2.132   0.994  20.881  1.00  0.00    -0.200 F 
ATOM     89  F   UNL     1      -0.363   1.961  21.410  1.00  0.00    -0.200 F 
ENDBRANCH  56  79
ENDBRANCH  30  31
ENDBRANCH  23  25
ENDBRANCH  22  23
ENDBRANCH  21  22
ENDBRANCH  20  21
ENDBRANCH   1  20
TORSDOF 17
