REMARK SMILES Nc1ccc(-c2cc(Cl)cc3c2O[C@H](C(F)(F)F)C(C(=O)OCCOCCOC(=O)c2ccc(-c4c5nc(c(-c6c(F)c(F)c(F)c(F)c6F)c6ccc([nH]6)c(-c6c(F)c(F)c(F)c(F)c6F)c6nc(c(-c7c(F)c(F)c(F)c(F)c7F)c7ccc4[nH]7)C=C6)C=C5)cc2)=C3)cc1
REMARK SMILES IDX 25 1 24 2 23 3 22 4 20 5 21 6 19 7 6 8 7 9 12 10 8 11 11 12
REMARK SMILES IDX 13 13 9 14 10 15 94 16 14 17 5 18 2 19 3 20 96 21 4 22 95 23
REMARK SMILES IDX 1 24 15 27 16 28 17 29 18 30 26 31 27 32 28 33 29 34 30 35
REMARK SMILES IDX 31 36 32 37 93 38 33 39 92 40 34 41 35 42 36 43 86 44 37 45
REMARK SMILES IDX 91 46 85 47 87 48 38 49 90 50 84 51 83 52 39 54 71 55 51 56
REMARK SMILES IDX 70 57 52 58 55 59 69 60 88 61 53 62 54 63 68 65 89 66 56 67
REMARK SMILES IDX 40 68 41 69 49 70 42 71 43 72 47 73 50 74 44 75 45 76 48 77
REMARK SMILES IDX 46 78 72 79 73 80 81 81 74 82 75 83 79 84 82 85 76 86 77 87
REMARK SMILES IDX 80 88 78 89 57 90 58 91 66 92 59 93 60 94 64 95 67 96 61 97
REMARK SMILES IDX 62 98 65 99 63 100
REMARK H PARENT 1 25 1 26 87 53 55 64
REMARK Flexibility Score: inf
ROOT
ATOM      1  O   UNL     1      -8.274  -2.057   6.087  1.00  0.00    -0.374 OA
ENDROOT
BRANCH   1   2
ATOM      2  C   UNL     1      -7.502  -3.120   6.635  1.00  0.00     0.202 C 
BRANCH   2   3
ATOM      3  C   UNL     1      -6.773  -4.054   5.664  1.00  0.00     0.261 C 
BRANCH   3   4
ATOM      4  O   UNL     1      -5.910  -3.341   4.768  1.00  0.00    -0.460 OA
BRANCH   4   5
ATOM      5  C   UNL     1      -6.336  -3.323   3.482  1.00  0.00     0.338 C 
ATOM      6  O   UNL     1      -7.293  -3.923   3.020  1.00  0.00    -0.246 OA
BRANCH   5   7
ATOM      7  C   UNL     1      -5.540  -2.356   2.704  1.00  0.00     0.087 C 
ATOM      8  C   UNL     1      -3.329   0.026   0.070  1.00  0.00     0.026 A 
ATOM      9  C   UNL     1      -4.024   0.703  -0.950  1.00  0.00     0.033 A 
ATOM     10  C   UNL     1      -4.080  -0.688   1.028  1.00  0.00     0.135 A 
ATOM     11  C   UNL     1      -5.416   0.673  -1.009  1.00  0.00     0.042 A 
ATOM     12  C   UNL     1      -5.476  -0.752   0.933  1.00  0.00     0.019 A 
ATOM     13  O   UNL     1      -3.394  -1.281   2.057  1.00  0.00    -0.475 OA
ATOM     14  Cl  UNL     1      -6.238   1.505  -2.271  1.00  0.00    -0.084 Cl
ATOM     15  C   UNL     1      -6.145  -0.053  -0.075  1.00  0.00     0.032 A 
ATOM     16  C   UNL     1      -6.227  -1.610   1.831  1.00  0.00     0.027 C 
ATOM     17  C   UNL     1      -4.053  -2.272   2.887  1.00  0.00     0.316 C 
BRANCH   8  18
ATOM     18  C   UNL     1      -1.854   0.029   0.066  1.00  0.00    -0.014 A 
ATOM     19  C   UNL     1       0.983   0.018   0.013  1.00  0.00     0.031 A 
ATOM     20  C   UNL     1       0.267  -1.178  -0.005  1.00  0.00     0.026 A 
ATOM     21  C   UNL     1       0.273   1.219   0.013  1.00  0.00     0.026 A 
ATOM     22  C   UNL     1      -1.131  -1.174   0.028  1.00  0.00     0.011 A 
ATOM     23  C   UNL     1      -1.127   1.227   0.051  1.00  0.00     0.011 A 
BRANCH  19  24
ATOM     24  N   UNL     1       2.363   0.013  -0.097  1.00  0.00    -0.399 N 
ATOM     25  H   UNL     1       2.853  -0.841  -0.095  1.00  0.00     0.156 HD
ATOM     26  H   UNL     1       2.854   0.862  -0.176  1.00  0.00     0.156 HD
ENDBRANCH  19  24
ENDBRANCH   8  18
BRANCH  17  27
ATOM     27  C   UNL     1      -3.351  -3.622   2.679  1.00  0.00     0.430 C 
ATOM     28  F   UNL     1      -2.007  -3.503   2.802  1.00  0.00    -0.167 F 
ATOM     29  F   UNL     1      -3.741  -4.538   3.596  1.00  0.00    -0.167 F 
ATOM     30  F   UNL     1      -3.602  -4.139   1.456  1.00  0.00    -0.167 F 
ENDBRANCH  17  27
ENDBRANCH   5   7
ENDBRANCH   4   5
ENDBRANCH   3   4
ENDBRANCH   2   3
ENDBRANCH   1   2
BRANCH   1  31
ATOM     31  C   UNL     1      -7.598  -0.926   5.540  1.00  0.00     0.202 C 
BRANCH  31  32
ATOM     32  C   UNL     1      -6.875   0.030   6.497  1.00  0.00     0.261 C 
BRANCH  32  33
ATOM     33  O   UNL     1      -5.793  -0.596   7.207  1.00  0.00    -0.460 OA
BRANCH  33  34
ATOM     34  C   UNL     1      -6.017  -0.781   8.531  1.00  0.00     0.338 C 
ATOM     35  O   UNL     1      -7.003  -0.449   9.172  1.00  0.00    -0.246 OA
BRANCH  34  36
ATOM     36  C   UNL     1      -4.958  -1.639   9.093  1.00  0.00     0.060 A 
ATOM     37  C   UNL     1      -3.612  -1.291   8.985  1.00  0.00     0.016 A 
ATOM     38  C   UNL     1      -5.345  -2.792   9.791  1.00  0.00     0.016 A 
ATOM     39  C   UNL     1      -2.652  -2.087   9.614  1.00  0.00     0.010 A 
ATOM     40  C   UNL     1      -4.384  -3.584  10.418  1.00  0.00     0.010 A 
ATOM     41  C   UNL     1      -3.032  -3.223  10.356  1.00  0.00    -0.014 A 
BRANCH  41  42
ATOM     42  C   UNL     1      -2.030  -3.934  11.187  1.00  0.00     0.031 A 
ATOM     43  C   UNL     1      -1.513  -5.289  10.814  1.00  0.00     0.074 A 
ATOM     44  C   UNL     1      -1.595  -3.331  12.310  1.00  0.00     0.049 A 
ATOM     45  N   UNL     1      -0.566  -5.991  11.384  1.00  0.00    -0.248 NA
ATOM     46  C   UNL     1      -2.142  -5.949   9.661  1.00  0.00     0.031 C 
ATOM     47  C   UNL     1      -2.072  -2.037  12.802  1.00  0.00     0.029 A 
ATOM     48  N   UNL     1      -0.654  -3.712  13.232  1.00  0.00    -0.354 N 
ATOM     49  C   UNL     1      -0.465  -7.162  10.647  1.00  0.00     0.074 A 
ATOM     50  C   UNL     1      -1.488  -7.103   9.623  1.00  0.00     0.031 C 
ATOM     51  C   UNL     1      -1.389  -1.710  13.908  1.00  0.00     0.029 A 
ATOM     52  C   UNL     1      -0.449  -2.783  14.222  1.00  0.00     0.049 A 
ATOM     53  H   UNL     1      -0.172  -4.570  13.189  1.00  0.00     0.167 HD
ATOM     54  C   UNL     1       0.420  -8.176  10.800  1.00  0.00     0.037 A 
ATOM     55  C   UNL     1       0.408  -2.786  15.261  1.00  0.00     0.037 A 
ATOM     56  C   UNL     1       1.423  -8.232  11.834  1.00  0.00     0.049 A 
ATOM     57  C   UNL     1       1.351  -3.946  15.431  1.00  0.00     0.074 A 
ATOM     58  C   UNL     1       2.391  -9.199  12.043  1.00  0.00     0.029 A 
ATOM     59  N   UNL     1       1.579  -7.290  12.842  1.00  0.00    -0.354 N 
ATOM     60  N   UNL     1       1.504  -5.003  14.672  1.00  0.00    -0.248 NA
ATOM     61  C   UNL     1       2.243  -3.910  16.598  1.00  0.00     0.031 C 
ATOM     62  C   UNL     1       3.091  -8.876  13.209  1.00  0.00     0.029 A 
ATOM     63  C   UNL     1       2.604  -7.672  13.693  1.00  0.00     0.049 A 
ATOM     64  H   UNL     1       1.041  -6.471  12.938  1.00  0.00     0.167 HD
ATOM     65  C   UNL     1       2.522  -5.746  15.252  1.00  0.00     0.074 A 
ATOM     66  C   UNL     1       2.963  -5.010  16.419  1.00  0.00     0.031 C 
ATOM     67  C   UNL     1       3.041  -6.932  14.851  1.00  0.00     0.037 A 
BRANCH  54  68
ATOM     68  C   UNL     1       0.365  -9.312   9.819  1.00  0.00     0.064 A 
ATOM     69  C   UNL     1       0.766  -9.142   8.485  1.00  0.00     0.173 A 
ATOM     70  C   UNL     1       0.001 -10.603  10.233  1.00  0.00     0.173 A 
ATOM     71  F   UNL     1       1.122  -7.929   8.037  1.00  0.00    -0.203 F 
ATOM     72  C   UNL     1       0.790 -10.217   7.600  1.00  0.00     0.198 A 
ATOM     73  C   UNL     1       0.055 -11.681   9.353  1.00  0.00     0.198 A 
ATOM     74  F   UNL     1      -0.379 -10.825  11.501  1.00  0.00    -0.203 F 
ATOM     75  F   UNL     1       1.148 -10.023   6.323  1.00  0.00    -0.200 F 
ATOM     76  C   UNL     1       0.445 -11.487   8.037  1.00  0.00     0.200 A 
ATOM     77  F   UNL     1      -0.261 -12.911   9.783  1.00  0.00    -0.200 F 
ATOM     78  F   UNL     1       0.489 -12.524   7.189  1.00  0.00    -0.200 F 
ENDBRANCH  54  68
BRANCH  55  79
ATOM     79  C   UNL     1       0.442  -1.624  16.185  1.00  0.00     0.064 A 
ATOM     80  C   UNL     1       1.542  -0.755  16.207  1.00  0.00     0.173 A 
ATOM     81  C   UNL     1      -0.634  -1.336  17.037  1.00  0.00     0.173 A 
ATOM     82  F   UNL     1       2.602  -0.997  15.422  1.00  0.00    -0.203 F 
ATOM     83  C   UNL     1       1.567   0.353  17.052  1.00  0.00     0.198 A 
ATOM     84  C   UNL     1      -0.621  -0.211  17.859  1.00  0.00     0.198 A 
ATOM     85  F   UNL     1      -1.713  -2.132  17.049  1.00  0.00    -0.203 F 
ATOM     86  F   UNL     1       2.644   1.149  17.076  1.00  0.00    -0.200 F 
ATOM     87  C   UNL     1       0.482   0.629  17.870  1.00  0.00     0.200 A 
ATOM     88  F   UNL     1      -1.679   0.063  18.634  1.00  0.00    -0.200 F 
ATOM     89  F   UNL     1       0.500   1.704  18.670  1.00  0.00    -0.200 F 
ENDBRANCH  55  79
BRANCH  67  90
ATOM     90  C   UNL     1       4.161  -7.517  15.664  1.00  0.00     0.064 A 
ATOM     91  C   UNL     1       3.936  -8.065  16.935  1.00  0.00     0.173 A 
ATOM     92  C   UNL     1       5.455  -7.613  15.127  1.00  0.00     0.173 A 
ATOM     93  F   UNL     1       2.722  -7.987  17.499  1.00  0.00    -0.203 F 
ATOM     94  C   UNL     1       4.967  -8.681  17.642  1.00  0.00     0.198 A 
ATOM     95  C   UNL     1       6.474  -8.257  15.823  1.00  0.00     0.198 A 
ATOM     96  F   UNL     1       5.722  -7.111  13.912  1.00  0.00    -0.203 F 
ATOM     97  F   UNL     1       4.736  -9.171  18.867  1.00  0.00    -0.200 F 
ATOM     98  C   UNL     1       6.230  -8.787  17.080  1.00  0.00     0.200 A 
ATOM     99  F   UNL     1       7.690  -8.375  15.270  1.00  0.00    -0.200 F 
ATOM    100  F   UNL     1       7.214  -9.402  17.751  1.00  0.00    -0.200 F 
ENDBRANCH  67  90
ENDBRANCH  41  42
ENDBRANCH  34  36
ENDBRANCH  33  34
ENDBRANCH  32  33
ENDBRANCH  31  32
ENDBRANCH   1  31
TORSDOF 17
