REMARK SMILES Cc1ccccc1-c1c(Cl)ccc2c1C=C(C(=O)OCCOCCOC(=O)c1ccc(-c3c4nc(c(-c5c(F)c(F)c(F)c(F)c5F)c5ccc([nH]5)c(-c5c(F)c(F)c(F)c(F)c5F)c5nc(c(-c6c(F)c(F)c(F)c(F)c6F)c6ccc3[nH]6)C=C5)C=C4)cc1)[C@@H](C(F)(F)F)O2
REMARK SMILES IDX 23 1 22 2 21 3 20 4 19 5 17 6 18 7 16 8 8 9 9 10 14 11 10 12
REMARK SMILES IDX 11 13 13 14 15 15 12 16 96 17 91 18 7 19 1 20 2 21 3 22 4 23
REMARK SMILES IDX 6 24 5 25 92 26 93 27 94 28 95 29 24 30 25 31 26 32 27 33
REMARK SMILES IDX 28 34 29 35 90 36 30 37 89 38 31 39 32 40 33 41 83 42 34 43
REMARK SMILES IDX 88 44 82 45 84 46 35 47 87 48 81 49 80 50 36 52 68 53 48 54
REMARK SMILES IDX 67 55 49 56 52 57 66 58 85 59 50 60 51 61 65 63 86 64 53 65
REMARK SMILES IDX 37 66 38 67 46 68 39 69 40 70 44 71 47 72 41 73 42 74 45 75
REMARK SMILES IDX 43 76 69 77 70 78 78 79 71 80 72 81 76 82 79 83 73 84 74 85
REMARK SMILES IDX 77 86 75 87 54 88 55 89 63 90 56 91 57 92 61 93 64 94 58 95
REMARK SMILES IDX 59 96 62 97 60 98
REMARK H PARENT 84 51 52 62
REMARK Flexibility Score: inf
ROOT
ATOM      1  C   UNL     1       7.489   2.410  -4.965  1.00  0.00     0.202 C 
ENDROOT
BRANCH   1   2
ATOM      2  O   UNL     1       6.923   1.926  -3.757  1.00  0.00    -0.374 OA
BRANCH   2   3
ATOM      3  C   UNL     1       6.629   0.531  -3.730  1.00  0.00     0.202 C 
BRANCH   3   4
ATOM      4  C   UNL     1       5.570   0.343  -2.667  1.00  0.00     0.261 C 
BRANCH   4   5
ATOM      5  O   UNL     1       4.308   0.897  -3.082  1.00  0.00    -0.460 OA
BRANCH   5   6
ATOM      6  C   UNL     1       4.100   2.162  -2.651  1.00  0.00     0.338 C 
ATOM      7  O   UNL     1       4.820   2.807  -1.903  1.00  0.00    -0.246 OA
BRANCH   6   8
ATOM      8  C   UNL     1       2.843   2.737  -3.178  1.00  0.00     0.087 C 
ATOM      9  C   UNL     1       0.448   2.696  -0.396  1.00  0.00     0.012 A 
ATOM     10  C   UNL     1       0.274   3.579   0.706  1.00  0.00     0.049 A 
ATOM     11  C   UNL     1       1.245   3.170  -1.482  1.00  0.00     0.027 A 
ATOM     12  Cl  UNL     1      -0.578   3.113   2.146  1.00  0.00    -0.084 Cl
ATOM     13  C   UNL     1       0.805   4.875   0.713  1.00  0.00     0.025 A 
ATOM     14  C   UNL     1       1.750   4.494  -1.458  1.00  0.00     0.128 A 
ATOM     15  C   UNL     1       1.750   2.272  -2.551  1.00  0.00     0.028 C 
ATOM     16  C   UNL     1       1.528   5.337  -0.374  1.00  0.00     0.049 A 
ATOM     17  O   UNL     1       2.535   5.054  -2.436  1.00  0.00    -0.475 OA
ATOM     18  C   UNL     1       2.968   4.194  -3.504  1.00  0.00     0.316 C 
BRANCH   9  19
ATOM     19  C   UNL     1      -0.261   1.376  -0.415  1.00  0.00    -0.013 A 
ATOM     20  C   UNL     1       1.835  -0.135  -0.326  1.00  0.00     0.045 C 
ATOM     21  C   UNL     1       0.355   0.102  -0.398  1.00  0.00    -0.043 A 
ATOM     22  C   UNL     1      -0.435  -1.066  -0.424  1.00  0.00     0.004 A 
ATOM     23  C   UNL     1      -1.823  -1.000  -0.410  1.00  0.00     0.000 A 
ATOM     24  C   UNL     1      -1.675   1.403  -0.417  1.00  0.00     0.009 A 
ATOM     25  C   UNL     1      -2.445   0.237  -0.390  1.00  0.00     0.001 A 
ENDBRANCH   9  19
BRANCH  18  26
ATOM     26  C   UNL     1       2.227   4.508  -4.809  1.00  0.00     0.430 C 
ATOM     27  F   UNL     1       2.496   5.763  -5.238  1.00  0.00    -0.167 F 
ATOM     28  F   UNL     1       2.613   3.667  -5.802  1.00  0.00    -0.167 F 
ATOM     29  F   UNL     1       0.885   4.397  -4.687  1.00  0.00    -0.167 F 
ENDBRANCH  18  26
ENDBRANCH   6   8
ENDBRANCH   5   6
ENDBRANCH   4   5
ENDBRANCH   3   4
ENDBRANCH   2   3
ENDBRANCH   1   2
BRANCH   1  30
ATOM     30  C   UNL     1       8.842   1.777  -5.317  1.00  0.00     0.261 C 
BRANCH  30  31
ATOM     31  O   UNL     1       9.833   2.176  -4.353  1.00  0.00    -0.460 OA
BRANCH  31  32
ATOM     32  C   UNL     1      10.197   1.213  -3.466  1.00  0.00     0.338 C 
ATOM     33  O   UNL     1      10.579   0.089  -3.760  1.00  0.00    -0.246 OA
BRANCH  32  34
ATOM     34  C   UNL     1       9.791   1.625  -2.097  1.00  0.00     0.060 A 
ATOM     35  C   UNL     1       9.805   0.686  -1.050  1.00  0.00     0.016 A 
ATOM     36  C   UNL     1       9.116   2.833  -1.942  1.00  0.00     0.016 A 
ATOM     37  C   UNL     1       9.021   0.900   0.089  1.00  0.00     0.010 A 
ATOM     38  C   UNL     1       8.252   2.978  -0.883  1.00  0.00     0.010 A 
ATOM     39  C   UNL     1       8.185   2.012   0.130  1.00  0.00    -0.014 A 
BRANCH  39  40
ATOM     40  C   UNL     1       7.153   2.275   1.128  1.00  0.00     0.031 A 
ATOM     41  C   UNL     1       7.229   3.511   1.946  1.00  0.00     0.074 A 
ATOM     42  C   UNL     1       5.991   1.585   1.082  1.00  0.00     0.049 A 
ATOM     43  N   UNL     1       6.424   3.797   2.910  1.00  0.00    -0.248 NA
ATOM     44  C   UNL     1       8.239   4.543   1.748  1.00  0.00     0.031 C 
ATOM     45  C   UNL     1       4.701   2.015   1.605  1.00  0.00     0.029 A 
ATOM     46  N   UNL     1       5.747   0.274   0.647  1.00  0.00    -0.354 N 
ATOM     47  C   UNL     1       6.552   5.138   3.193  1.00  0.00     0.074 A 
ATOM     48  C   UNL     1       7.763   5.529   2.514  1.00  0.00     0.031 C 
ATOM     49  C   UNL     1       3.938   0.938   1.820  1.00  0.00     0.029 A 
ATOM     50  C   UNL     1       4.738  -0.225   1.485  1.00  0.00     0.049 A 
ATOM     51  H   UNL     1       6.193  -0.199  -0.092  1.00  0.00     0.167 HD
ATOM     52  C   UNL     1       5.524   5.758   3.849  1.00  0.00     0.037 A 
ATOM     53  C   UNL     1       4.866  -1.365   2.206  1.00  0.00     0.037 A 
ATOM     54  C   UNL     1       4.500   4.770   4.242  1.00  0.00     0.049 A 
ATOM     55  C   UNL     1       4.581  -1.022   3.629  1.00  0.00     0.074 A 
ATOM     56  C   UNL     1       3.231   4.487   3.761  1.00  0.00     0.029 A 
ATOM     57  N   UNL     1       4.851   3.689   5.059  1.00  0.00    -0.354 N 
ATOM     58  N   UNL     1       4.890   0.145   4.134  1.00  0.00    -0.248 NA
ATOM     59  C   UNL     1       3.729  -1.828   4.496  1.00  0.00     0.031 C 
ATOM     60  C   UNL     1       2.850   3.207   4.244  1.00  0.00     0.029 A 
ATOM     61  C   UNL     1       3.876   2.709   5.034  1.00  0.00     0.049 A 
ATOM     62  H   UNL     1       5.684   3.634   5.582  1.00  0.00     0.167 HD
ATOM     63  C   UNL     1       4.146   0.321   5.263  1.00  0.00     0.074 A 
ATOM     64  C   UNL     1       3.502  -0.963   5.500  1.00  0.00     0.031 C 
ATOM     65  C   UNL     1       3.951   1.523   5.874  1.00  0.00     0.037 A 
BRANCH  52  66
ATOM     66  C   UNL     1       5.292   7.268   3.911  1.00  0.00     0.064 A 
ATOM     67  C   UNL     1       4.016   7.796   4.227  1.00  0.00     0.173 A 
ATOM     68  C   UNL     1       6.257   8.259   3.635  1.00  0.00     0.173 A 
ATOM     69  F   UNL     1       3.001   7.006   4.598  1.00  0.00    -0.203 F 
ATOM     70  C   UNL     1       3.722   9.167   4.183  1.00  0.00     0.198 A 
ATOM     71  C   UNL     1       5.957   9.626   3.557  1.00  0.00     0.198 A 
ATOM     72  F   UNL     1       7.550   7.968   3.493  1.00  0.00    -0.203 F 
ATOM     73  F   UNL     1       2.487   9.592   4.487  1.00  0.00    -0.200 F 
ATOM     74  C   UNL     1       4.688  10.081   3.825  1.00  0.00     0.200 A 
ATOM     75  F   UNL     1       6.923  10.498   3.231  1.00  0.00    -0.200 F 
ATOM     76  F   UNL     1       4.406  11.390   3.767  1.00  0.00    -0.200 F 
ENDBRANCH  52  66
BRANCH  53  77
ATOM     77  C   UNL     1       5.816  -2.318   1.578  1.00  0.00     0.064 A 
ATOM     78  C   UNL     1       5.393  -2.868   0.345  1.00  0.00     0.173 A 
ATOM     79  C   UNL     1       7.196  -2.257   1.810  1.00  0.00     0.173 A 
ATOM     80  F   UNL     1       4.082  -2.931   0.059  1.00  0.00    -0.203 F 
ATOM     81  C   UNL     1       6.301  -3.168  -0.670  1.00  0.00     0.198 A 
ATOM     82  C   UNL     1       8.105  -2.583   0.794  1.00  0.00     0.198 A 
ATOM     83  F   UNL     1       7.668  -1.738   2.952  1.00  0.00    -0.203 F 
ATOM     84  F   UNL     1       5.853  -3.509  -1.887  1.00  0.00    -0.200 F 
ATOM     85  C   UNL     1       7.655  -2.987  -0.456  1.00  0.00     0.200 A 
ATOM     86  F   UNL     1       9.419  -2.394   0.986  1.00  0.00    -0.200 F 
ATOM     87  F   UNL     1       8.518  -3.143  -1.471  1.00  0.00    -0.200 F 
ENDBRANCH  53  77
BRANCH  65  88
ATOM     88  C   UNL     1       3.665   1.636   7.341  1.00  0.00     0.064 A 
ATOM     89  C   UNL     1       4.072   0.651   8.258  1.00  0.00     0.173 A 
ATOM     90  C   UNL     1       3.175   2.838   7.896  1.00  0.00     0.173 A 
ATOM     91  F   UNL     1       4.645  -0.491   7.852  1.00  0.00    -0.203 F 
ATOM     92  C   UNL     1       3.957   0.837   9.632  1.00  0.00     0.198 A 
ATOM     93  C   UNL     1       3.114   3.040   9.271  1.00  0.00     0.198 A 
ATOM     94  F   UNL     1       2.787   3.866   7.128  1.00  0.00    -0.203 F 
ATOM     95  F   UNL     1       4.334  -0.143  10.464  1.00  0.00    -0.200 F 
ATOM     96  C   UNL     1       3.494   2.036  10.138  1.00  0.00     0.200 A 
ATOM     97  F   UNL     1       2.715   4.227   9.749  1.00  0.00    -0.200 F 
ATOM     98  F   UNL     1       3.439   2.232  11.461  1.00  0.00    -0.200 F 
ENDBRANCH  65  88
ENDBRANCH  39  40
ENDBRANCH  32  34
ENDBRANCH  31  32
ENDBRANCH  30  31
ENDBRANCH   1  30
TORSDOF 16
