REMARK SMILES C[C@H]1OCC[C@@H]1C(=O)Nc1sc2c(c1C(=O)OCCOCCOC(=O)c1ccc(-c3c4nc(c(-c5c(F)c(F)c(F)c(F)c5F)c5ccc([nH]5)c(-c5c(F)c(F)c(F)c(F)c5F)c5nc(c(-c6c(F)c(F)c(F)c(F)c6F)c6ccc3[nH]6)C=C5)C=C4)cc1)CCC2
REMARK SMILES IDX 20 1 19 2 18 3 17 4 15 5 16 6 14 7 10 8 11 9 12 10 13 11
REMARK SMILES IDX 91 12 89 13 90 14 9 15 7 16 8 17 6 19 1 20 2 21 3 22 4 23
REMARK SMILES IDX 5 24 21 25 22 26 23 27 24 28 25 29 26 30 27 31 88 32 28 33
REMARK SMILES IDX 87 34 29 35 30 36 31 37 81 38 32 39 86 40 80 41 82 42 33 43
REMARK SMILES IDX 85 44 79 45 78 46 34 48 66 49 46 50 65 51 47 52 50 53 64 54
REMARK SMILES IDX 83 55 48 56 49 57 63 59 84 60 51 61 35 62 36 63 44 64 37 65
REMARK SMILES IDX 38 66 42 67 45 68 39 69 40 70 43 71 41 72 67 73 68 74 76 75
REMARK SMILES IDX 69 76 70 77 74 78 77 79 71 80 72 81 75 82 73 83 52 84 53 85
REMARK SMILES IDX 61 86 54 87 55 88 59 89 62 90 56 91 57 92 60 93 58 94
REMARK H PARENT 9 18 82 47 50 58
REMARK Flexibility Score: inf
ROOT
ATOM      1  O   UNL     1      -3.482  -0.756  -2.650  1.00  0.00    -0.374 OA
ENDROOT
BRANCH   1   2
ATOM      2  C   UNL     1      -4.127   0.141  -1.722  1.00  0.00     0.202 C 
BRANCH   2   3
ATOM      3  C   UNL     1      -4.427  -0.485  -0.342  1.00  0.00     0.261 C 
BRANCH   3   4
ATOM      4  O   UNL     1      -3.515  -0.012   0.692  1.00  0.00    -0.460 OA
BRANCH   4   5
ATOM      5  C   UNL     1      -3.427  -0.820   1.808  1.00  0.00     0.341 C 
ATOM      6  O   UNL     1      -4.053  -1.865   1.933  1.00  0.00    -0.246 OA
BRANCH   5   7
ATOM      7  C   UNL     1      -2.477  -0.348   2.827  1.00  0.00     0.098 A 
ATOM      8  C   UNL     1      -1.403  -1.094   3.318  1.00  0.00     0.110 A 
ATOM      9  S   UNL     1      -0.636  -0.409   4.692  1.00  0.00    -0.122 S 
ATOM     10  C   UNL     1      -1.488   0.999   4.457  1.00  0.00     0.011 A 
ATOM     11  C   UNL     1      -2.420   0.938   3.453  1.00  0.00    -0.017 A 
ATOM     12  C   UNL     1      -1.377   2.308   5.132  1.00  0.00     0.047 C 
ATOM     13  C   UNL     1      -3.093   2.256   3.308  1.00  0.00     0.038 C 
ATOM     14  C   UNL     1      -2.148   3.204   4.122  1.00  0.00     0.010 C 
BRANCH   8  15
ATOM     15  N   UNL     1      -0.868  -2.315   2.973  1.00  0.00    -0.317 N 
ATOM     16  C   UNL     1       0.321  -2.434   2.297  1.00  0.00     0.230 C 
ATOM     17  O   UNL     1       1.069  -3.363   2.627  1.00  0.00    -0.274 OA
ATOM     18  H   UNL     1      -1.356  -3.133   3.221  1.00  0.00     0.170 HD
BRANCH  16  19
ATOM     19  C   UNL     1       0.734  -1.555   1.122  1.00  0.00     0.110 C 
ATOM     20  C   UNL     1       2.721  -0.256   0.302  1.00  0.00     0.039 C 
ATOM     21  C   UNL     1       1.632  -0.356   1.376  1.00  0.00     0.127 C 
ATOM     22  O   UNL     1       0.833   0.831   1.238  1.00  0.00    -0.378 OA
ATOM     23  C   UNL     1      -0.347   0.508   0.515  1.00  0.00     0.161 C 
ATOM     24  C   UNL     1      -0.371  -0.990   0.300  1.00  0.00     0.044 C 
ENDBRANCH  16  19
ENDBRANCH   8  15
ENDBRANCH   5   7
ENDBRANCH   4   5
ENDBRANCH   3   4
ENDBRANCH   2   3
ENDBRANCH   1   2
BRANCH   1  25
ATOM     25  C   UNL     1      -2.127  -1.046  -2.340  1.00  0.00     0.202 C 
BRANCH  25  26
ATOM     26  C   UNL     1      -1.077  -0.311  -3.170  1.00  0.00     0.261 C 
BRANCH  26  27
ATOM     27  O   UNL     1      -1.142   1.074  -2.866  1.00  0.00    -0.460 OA
BRANCH  27  28
ATOM     28  C   UNL     1      -2.056   1.757  -3.599  1.00  0.00     0.338 C 
ATOM     29  O   UNL     1      -2.776   1.353  -4.471  1.00  0.00    -0.246 OA
BRANCH  28  30
ATOM     30  C   UNL     1      -1.839   3.167  -3.267  1.00  0.00     0.060 A 
ATOM     31  C   UNL     1      -1.969   4.023  -4.350  1.00  0.00     0.016 A 
ATOM     32  C   UNL     1      -1.269   3.567  -2.045  1.00  0.00     0.016 A 
ATOM     33  C   UNL     1      -1.312   5.220  -4.283  1.00  0.00     0.010 A 
ATOM     34  C   UNL     1      -0.627   4.784  -1.970  1.00  0.00     0.010 A 
ATOM     35  C   UNL     1      -0.594   5.559  -3.120  1.00  0.00    -0.014 A 
BRANCH  35  36
ATOM     36  C   UNL     1       0.026   6.863  -3.150  1.00  0.00     0.031 A 
ATOM     37  C   UNL     1      -0.988   7.929  -3.310  1.00  0.00     0.074 A 
ATOM     38  C   UNL     1       1.350   7.078  -3.118  1.00  0.00     0.049 A 
ATOM     39  N   UNL     1      -1.200   8.645  -4.363  1.00  0.00    -0.248 NA
ATOM     40  C   UNL     1      -2.031   8.033  -2.278  1.00  0.00     0.031 C 
ATOM     41  C   UNL     1       2.434   6.177  -2.738  1.00  0.00     0.029 A 
ATOM     42  N   UNL     1       1.994   8.240  -3.397  1.00  0.00    -0.354 N 
ATOM     43  C   UNL     1      -2.325   9.405  -4.075  1.00  0.00     0.074 A 
ATOM     44  C   UNL     1      -2.882   8.877  -2.859  1.00  0.00     0.031 C 
ATOM     45  C   UNL     1       3.574   6.897  -2.596  1.00  0.00     0.029 A 
ATOM     46  C   UNL     1       3.323   8.269  -3.010  1.00  0.00     0.049 A 
ATOM     47  H   UNL     1       1.552   9.000  -3.840  1.00  0.00     0.167 HD
ATOM     48  C   UNL     1      -2.566  10.559  -4.749  1.00  0.00     0.037 A 
ATOM     49  C   UNL     1       4.094   9.384  -2.964  1.00  0.00     0.037 A 
ATOM     50  C   UNL     1      -1.923  10.544  -6.040  1.00  0.00     0.049 A 
ATOM     51  C   UNL     1       3.458  10.402  -3.847  1.00  0.00     0.074 A 
ATOM     52  C   UNL     1      -2.049   9.757  -7.170  1.00  0.00     0.029 A 
ATOM     53  N   UNL     1      -0.723  11.198  -6.181  1.00  0.00    -0.354 N 
ATOM     54  N   UNL     1       3.426  10.315  -5.147  1.00  0.00    -0.248 NA
ATOM     55  C   UNL     1       2.455  11.280  -3.257  1.00  0.00     0.031 C 
ATOM     56  C   UNL     1      -0.724   9.614  -7.678  1.00  0.00     0.029 A 
ATOM     57  C   UNL     1       0.125  10.364  -6.864  1.00  0.00     0.049 A 
ATOM     58  H   UNL     1      -0.510  12.101  -5.851  1.00  0.00     0.167 HD
ATOM     59  C   UNL     1       2.163  10.766  -5.502  1.00  0.00     0.074 A 
ATOM     60  C   UNL     1       1.639  11.418  -4.305  1.00  0.00     0.031 C 
ATOM     61  C   UNL     1       1.549  10.320  -6.637  1.00  0.00     0.037 A 
BRANCH  48  62
ATOM     62  C   UNL     1      -3.004  11.825  -4.051  1.00  0.00     0.064 A 
ATOM     63  C   UNL     1      -3.181  12.991  -4.819  1.00  0.00     0.173 A 
ATOM     64  C   UNL     1      -2.950  12.025  -2.651  1.00  0.00     0.173 A 
ATOM     65  F   UNL     1      -3.252  12.925  -6.157  1.00  0.00    -0.203 F 
ATOM     66  C   UNL     1      -3.182  14.262  -4.240  1.00  0.00     0.198 A 
ATOM     67  C   UNL     1      -2.999  13.290  -2.075  1.00  0.00     0.198 A 
ATOM     68  F   UNL     1      -2.741  11.031  -1.782  1.00  0.00    -0.203 F 
ATOM     69  F   UNL     1      -3.210  15.347  -5.024  1.00  0.00    -0.200 F 
ATOM     70  C   UNL     1      -3.075  14.411  -2.870  1.00  0.00     0.200 A 
ATOM     71  F   UNL     1      -2.882  13.410  -0.745  1.00  0.00    -0.200 F 
ATOM     72  F   UNL     1      -3.000  15.629  -2.319  1.00  0.00    -0.200 F 
ENDBRANCH  48  62
BRANCH  49  73
ATOM     73  C   UNL     1       5.117   9.755  -1.958  1.00  0.00     0.064 A 
ATOM     74  C   UNL     1       5.965  10.855  -2.175  1.00  0.00     0.173 A 
ATOM     75  C   UNL     1       5.083   9.241  -0.647  1.00  0.00     0.173 A 
ATOM     76  F   UNL     1       6.027  11.432  -3.384  1.00  0.00    -0.203 F 
ATOM     77  C   UNL     1       6.701  11.431  -1.134  1.00  0.00     0.198 A 
ATOM     78  C   UNL     1       5.824   9.811   0.388  1.00  0.00     0.198 A 
ATOM     79  F   UNL     1       4.254   8.240  -0.319  1.00  0.00    -0.203 F 
ATOM     80  F   UNL     1       7.439  12.525  -1.364  1.00  0.00    -0.200 F 
ATOM     81  C   UNL     1       6.619  10.917   0.149  1.00  0.00     0.200 A 
ATOM     82  F   UNL     1       5.708   9.326   1.632  1.00  0.00    -0.200 F 
ATOM     83  F   UNL     1       7.267  11.510   1.160  1.00  0.00    -0.200 F 
ENDBRANCH  49  73
BRANCH  61  84
ATOM     84  C   UNL     1       2.379   9.533  -7.613  1.00  0.00     0.064 A 
ATOM     85  C   UNL     1       3.002   8.309  -7.311  1.00  0.00     0.173 A 
ATOM     86  C   UNL     1       2.446   9.979  -8.940  1.00  0.00     0.173 A 
ATOM     87  F   UNL     1       2.893   7.761  -6.093  1.00  0.00    -0.203 F 
ATOM     88  C   UNL     1       3.708   7.599  -8.281  1.00  0.00     0.198 A 
ATOM     89  C   UNL     1       3.116   9.248  -9.916  1.00  0.00     0.198 A 
ATOM     90  F   UNL     1       1.822  11.112  -9.300  1.00  0.00    -0.203 F 
ATOM     91  F   UNL     1       4.315   6.446  -7.963  1.00  0.00    -0.200 F 
ATOM     92  C   UNL     1       3.760   8.067  -9.584  1.00  0.00     0.200 A 
ATOM     93  F   UNL     1       3.120   9.679 -11.185  1.00  0.00    -0.200 F 
ATOM     94  F   UNL     1       4.407   7.367 -10.526  1.00  0.00    -0.200 F 
ENDBRANCH  61  84
ENDBRANCH  35  36
ENDBRANCH  28  30
ENDBRANCH  27  28
ENDBRANCH  26  27
ENDBRANCH  25  26
ENDBRANCH   1  25
TORSDOF 16
