REMARK SMILES C[C@H]1[C@@H](C(=O)OCCOCCOC(=O)c2ccc(-c3c4nc(c(-c5c(F)c(F)c(F)c(F)c5F)c5ccc([nH]5)c(-c5c(F)c(F)c(F)c(F)c5F)c5nc(c(-c6c(F)c(F)c(F)c(F)c6F)c6ccc3[nH]6)C=C5)C=C4)cc2)CCN1C(=O)c1n[nH]c(N)n1
REMARK SMILES IDX 8 1 7 2 6 3 4 4 5 5 3 6 1 7 2 8 80 9 78 10 79 11 81 12 82 13
REMARK SMILES IDX 83 14 84 15 88 16 85 17 86 18 87 20 9 23 10 24 11 25 12 26
REMARK SMILES IDX 13 27 14 28 15 29 16 30 77 31 17 32 76 33 18 34 19 35 20 36
REMARK SMILES IDX 70 37 21 38 75 39 69 40 71 41 22 42 74 43 68 44 67 45 23 47
REMARK SMILES IDX 55 48 35 49 54 50 36 51 39 52 53 53 72 54 37 55 38 56 52 58
REMARK SMILES IDX 73 59 40 60 24 61 25 62 33 63 26 64 27 65 31 66 34 67 28 68
REMARK SMILES IDX 29 69 32 70 30 71 56 72 57 73 65 74 58 75 59 76 63 77 66 78
REMARK SMILES IDX 60 79 61 80 64 81 62 82 41 83 42 84 50 85 43 86 44 87 48 88
REMARK SMILES IDX 51 89 45 90 46 91 49 92 47 93
REMARK H PARENT 85 19 87 21 87 22 71 46 39 57
REMARK Flexibility Score: inf
ROOT
ATOM      1  C   UNL     1       1.349   2.478  -3.562  1.00  0.00     0.202 C 
ENDROOT
BRANCH   1   2
ATOM      2  C   UNL     1       1.457   3.285  -2.266  1.00  0.00     0.261 C 
BRANCH   2   3
ATOM      3  O   UNL     1       1.351   2.383  -1.147  1.00  0.00    -0.463 OA
BRANCH   3   4
ATOM      4  C   UNL     1       0.355   2.587  -0.264  1.00  0.00     0.311 C 
ATOM      5  O   UNL     1      -0.356   3.587  -0.253  1.00  0.00    -0.252 OA
BRANCH   4   6
ATOM      6  C   UNL     1       0.131   1.435   0.706  1.00  0.00     0.123 C 
ATOM      7  C   UNL     1       2.182   0.037  -0.206  1.00  0.00     0.032 C 
ATOM      8  C   UNL     1       1.011   0.160   0.769  1.00  0.00     0.096 C 
ATOM      9  N   UNL     1       0.076  -0.966   0.620  1.00  0.00    -0.332 N 
ATOM     10  C   UNL     1      -1.317   0.927   0.555  1.00  0.00     0.039 C 
ATOM     11  C   UNL     1      -1.224  -0.536   0.177  1.00  0.00     0.121 C 
BRANCH   9  12
ATOM     12  C   UNL     1       0.330  -2.332   0.785  1.00  0.00     0.293 C 
ATOM     13  O   UNL     1      -0.489  -3.172   0.403  1.00  0.00    -0.265 OA
BRANCH  12  14
ATOM     14  C   UNL     1       1.613  -2.735   1.403  1.00  0.00     0.241 A 
ATOM     15  N   UNL     1       2.129  -2.159   2.510  1.00  0.00    -0.147 NA
ATOM     16  N   UNL     1       2.419  -3.727   0.868  1.00  0.00    -0.187 NA
ATOM     17  N   UNL     1       3.273  -2.844   2.663  1.00  0.00    -0.245 N 
ATOM     18  C   UNL     1       3.456  -3.751   1.661  1.00  0.00     0.216 A 
ATOM     19  H   UNL     1       3.904  -2.708   3.407  1.00  0.00     0.193 HD
BRANCH  18  20
ATOM     20  N   UNL     1       4.553  -4.505   1.558  1.00  0.00    -0.368 N 
ATOM     21  H   UNL     1       5.269  -4.427   2.229  1.00  0.00     0.159 HD
ATOM     22  H   UNL     1       4.646  -5.138   0.810  1.00  0.00     0.159 HD
ENDBRANCH  18  20
ENDBRANCH  12  14
ENDBRANCH   9  12
ENDBRANCH   4   6
ENDBRANCH   3   4
ENDBRANCH   2   3
ENDBRANCH   1   2
BRANCH   1  23
ATOM     23  O   UNL     1       0.009   2.125  -3.916  1.00  0.00    -0.374 OA
BRANCH  23  24
ATOM     24  C   UNL     1      -0.553   1.006  -3.231  1.00  0.00     0.202 C 
BRANCH  24  25
ATOM     25  C   UNL     1      -0.330  -0.342  -3.919  1.00  0.00     0.261 C 
BRANCH  25  26
ATOM     26  O   UNL     1       1.067  -0.681  -3.932  1.00  0.00    -0.460 OA
BRANCH  26  27
ATOM     27  C   UNL     1       1.676  -0.485  -5.120  1.00  0.00     0.338 C 
ATOM     28  O   UNL     1       1.147  -0.168  -6.179  1.00  0.00    -0.246 OA
BRANCH  27  29
ATOM     29  C   UNL     1       3.141  -0.557  -4.969  1.00  0.00     0.060 A 
ATOM     30  C   UNL     1       3.896   0.353  -5.718  1.00  0.00     0.016 A 
ATOM     31  C   UNL     1       3.776  -1.527  -4.185  1.00  0.00     0.016 A 
ATOM     32  C   UNL     1       5.280   0.241  -5.762  1.00  0.00     0.010 A 
ATOM     33  C   UNL     1       5.171  -1.636  -4.226  1.00  0.00     0.010 A 
ATOM     34  C   UNL     1       5.922  -0.788  -5.060  1.00  0.00    -0.014 A 
BRANCH  34  35
ATOM     35  C   UNL     1       7.344  -1.067  -5.375  1.00  0.00     0.031 A 
ATOM     36  C   UNL     1       7.668  -2.170  -6.346  1.00  0.00     0.074 A 
ATOM     37  C   UNL     1       8.322  -0.283  -4.889  1.00  0.00     0.049 A 
ATOM     38  N   UNL     1       8.823  -2.518  -6.855  1.00  0.00    -0.248 NA
ATOM     39  C   UNL     1       6.536  -2.988  -6.812  1.00  0.00     0.031 C 
ATOM     40  C   UNL     1       8.128   0.832  -3.966  1.00  0.00     0.029 A 
ATOM     41  N   UNL     1       9.674  -0.297  -5.125  1.00  0.00    -0.354 N 
ATOM     42  C   UNL     1       8.555  -3.586  -7.702  1.00  0.00     0.074 A 
ATOM     43  C   UNL     1       7.138  -3.860  -7.606  1.00  0.00     0.031 C 
ATOM     44  C   UNL     1       9.319   1.405  -3.720  1.00  0.00     0.029 A 
ATOM     45  C   UNL     1      10.358   0.687  -4.458  1.00  0.00     0.049 A 
ATOM     46  H   UNL     1      10.111  -0.951  -5.717  1.00  0.00     0.167 HD
ATOM     47  C   UNL     1       9.409  -4.266  -8.504  1.00  0.00     0.037 A 
ATOM     48  C   UNL     1      11.673   0.976  -4.449  1.00  0.00     0.037 A 
ATOM     49  C   UNL     1      10.818  -3.991  -8.603  1.00  0.00     0.049 A 
ATOM     50  C   UNL     1      12.611   0.176  -5.316  1.00  0.00     0.074 A 
ATOM     51  C   UNL     1      11.767  -4.615  -9.393  1.00  0.00     0.029 A 
ATOM     52  N   UNL     1      11.481  -3.009  -7.881  1.00  0.00    -0.354 N 
ATOM     53  N   UNL     1      12.342  -0.808  -6.140  1.00  0.00    -0.248 NA
ATOM     54  C   UNL     1      14.034   0.539  -5.261  1.00  0.00     0.031 C 
ATOM     55  C   UNL     1      13.012  -4.041  -9.116  1.00  0.00     0.029 A 
ATOM     56  C   UNL     1      12.831  -3.025  -8.192  1.00  0.00     0.049 A 
ATOM     57  H   UNL     1      11.055  -2.393  -7.243  1.00  0.00     0.167 HD
ATOM     58  C   UNL     1      13.553  -1.161  -6.722  1.00  0.00     0.074 A 
ATOM     59  C   UNL     1      14.555  -0.275  -6.168  1.00  0.00     0.031 C 
ATOM     60  C   UNL     1      13.813  -2.131  -7.633  1.00  0.00     0.037 A 
BRANCH  47  61
ATOM     61  C   UNL     1       8.841  -5.387  -9.324  1.00  0.00     0.064 A 
ATOM     62  C   UNL     1       8.009  -5.145 -10.427  1.00  0.00     0.173 A 
ATOM     63  C   UNL     1       9.153  -6.720  -9.017  1.00  0.00     0.173 A 
ATOM     64  F   UNL     1       7.669  -3.889 -10.753  1.00  0.00    -0.203 F 
ATOM     65  C   UNL     1       7.489  -6.197 -11.177  1.00  0.00     0.198 A 
ATOM     66  C   UNL     1       8.654  -7.768  -9.785  1.00  0.00     0.198 A 
ATOM     67  F   UNL     1       9.946  -7.006  -7.973  1.00  0.00    -0.203 F 
ATOM     68  F   UNL     1       6.659  -5.944 -12.199  1.00  0.00    -0.200 F 
ATOM     69  C   UNL     1       7.817  -7.507 -10.860  1.00  0.00     0.200 A 
ATOM     70  F   UNL     1       8.980  -9.033  -9.483  1.00  0.00    -0.200 F 
ATOM     71  F   UNL     1       7.321  -8.518 -11.585  1.00  0.00    -0.200 F 
ENDBRANCH  47  61
BRANCH  48  72
ATOM     72  C   UNL     1      12.184   2.084  -3.600  1.00  0.00     0.064 A 
ATOM     73  C   UNL     1      12.692   3.260  -4.168  1.00  0.00     0.173 A 
ATOM     74  C   UNL     1      12.190   1.979  -2.202  1.00  0.00     0.173 A 
ATOM     75  F   UNL     1      12.730   3.397  -5.502  1.00  0.00    -0.203 F 
ATOM     76  C   UNL     1      13.206   4.281  -3.371  1.00  0.00     0.198 A 
ATOM     77  C   UNL     1      12.678   3.012  -1.404  1.00  0.00     0.198 A 
ATOM     78  F   UNL     1      11.714   0.874  -1.609  1.00  0.00    -0.203 F 
ATOM     79  F   UNL     1      13.729   5.375  -3.941  1.00  0.00    -0.200 F 
ATOM     80  C   UNL     1      13.193   4.158  -1.989  1.00  0.00     0.200 A 
ATOM     81  F   UNL     1      12.653   2.893  -0.070  1.00  0.00    -0.200 F 
ATOM     82  F   UNL     1      13.685   5.141  -1.223  1.00  0.00    -0.200 F 
ENDBRANCH  48  72
BRANCH  60  83
ATOM     83  C   UNL     1      15.231  -2.262  -8.112  1.00  0.00     0.064 A 
ATOM     84  C   UNL     1      16.244  -2.768  -7.285  1.00  0.00     0.173 A 
ATOM     85  C   UNL     1      15.573  -1.900  -9.424  1.00  0.00     0.173 A 
ATOM     86  F   UNL     1      15.970  -3.116  -6.018  1.00  0.00    -0.203 F 
ATOM     87  C   UNL     1      17.554  -2.876  -7.742  1.00  0.00     0.198 A 
ATOM     88  C   UNL     1      16.878  -2.038  -9.888  1.00  0.00     0.198 A 
ATOM     89  F   UNL     1      14.640  -1.419 -10.258  1.00  0.00    -0.203 F 
ATOM     90  F   UNL     1      18.516  -3.312  -6.917  1.00  0.00    -0.200 F 
ATOM     91  C   UNL     1      17.869  -2.517  -9.044  1.00  0.00     0.200 A 
ATOM     92  F   UNL     1      17.178  -1.703 -11.150  1.00  0.00    -0.200 F 
ATOM     93  F   UNL     1      19.131  -2.623  -9.483  1.00  0.00    -0.200 F 
ENDBRANCH  60  83
ENDBRANCH  34  35
ENDBRANCH  27  29
ENDBRANCH  26  27
ENDBRANCH  25  26
ENDBRANCH  24  25
ENDBRANCH  23  24
ENDBRANCH   1  23
TORSDOF 17
