REMARK SMILES O=C(OCCOCCOC(=O)[C@H]1[C@H]2CC[C@H](C2)[C@@H]1C(=O)N[C@H]1CCCc2ccccc21)c1ccc(-c2c3nc(c(-c4c(F)c(F)c(F)c(F)c4F)c4ccc([nH]4)c(-c4c(F)c(F)c(F)c(F)c4F)c4nc(c(-c5c(F)c(F)c(F)c(F)c5F)c5ccc2[nH]5)C=C4)C=C3)cc1
REMARK SMILES IDX 6 1 5 2 4 3 3 4 2 5 1 6 32 7 33 8 94 9 34 10 93 11 35 12
REMARK SMILES IDX 36 13 37 14 87 15 38 16 92 17 86 18 88 19 39 20 91 21 85 22
REMARK SMILES IDX 84 23 40 25 72 26 52 27 71 28 53 29 56 30 70 31 89 32 54 33
REMARK SMILES IDX 55 34 69 36 90 37 57 38 41 39 42 40 50 41 43 42 44 43 48 44
REMARK SMILES IDX 51 45 45 46 46 47 49 48 47 49 73 50 74 51 82 52 75 53 76 54
REMARK SMILES IDX 80 55 83 56 77 57 78 58 81 59 79 60 58 61 59 62 67 63 60 64
REMARK SMILES IDX 61 65 65 66 68 67 62 68 63 69 66 70 64 71 7 72 8 73 9 74
REMARK SMILES IDX 10 75 11 76 12 77 13 78 18 79 14 80 17 81 16 82 15 83 19 84
REMARK SMILES IDX 20 85 21 86 22 88 23 89 31 90 24 91 26 92 30 93 25 94 27 95
REMARK SMILES IDX 29 96 28 97
REMARK H PARENT 88 24 56 35 21 87
REMARK Flexibility Score: inf
ROOT
ATOM      1  O   UNL     1      -3.074  -4.282  -3.618  1.00  0.00    -0.374 OA
ENDROOT
BRANCH   1   2
ATOM      2  C   UNL     1      -2.095  -3.871  -4.572  1.00  0.00     0.202 C 
BRANCH   2   3
ATOM      3  C   UNL     1      -2.658  -3.163  -5.804  1.00  0.00     0.261 C 
BRANCH   3   4
ATOM      4  O   UNL     1      -3.578  -2.137  -5.415  1.00  0.00    -0.460 OA
BRANCH   4   5
ATOM      5  C   UNL     1      -4.893  -2.328  -5.155  1.00  0.00     0.338 C 
ATOM      6  O   UNL     1      -5.536  -1.432  -4.612  1.00  0.00    -0.246 OA
BRANCH   5   7
ATOM      7  C   UNL     1      -5.626  -3.552  -5.588  1.00  0.00     0.060 A 
ATOM      8  C   UNL     1      -5.135  -4.857  -5.497  1.00  0.00     0.016 A 
ATOM      9  C   UNL     1      -6.939  -3.369  -6.042  1.00  0.00     0.016 A 
ATOM     10  C   UNL     1      -5.888  -5.949  -5.861  1.00  0.00     0.010 A 
ATOM     11  C   UNL     1      -7.725  -4.468  -6.389  1.00  0.00     0.010 A 
ATOM     12  C   UNL     1      -7.189  -5.757  -6.294  1.00  0.00    -0.014 A 
BRANCH  12  13
ATOM     13  C   UNL     1      -7.904  -6.943  -6.763  1.00  0.00     0.031 A 
ATOM     14  C   UNL     1      -8.027  -7.133  -8.235  1.00  0.00     0.074 A 
ATOM     15  C   UNL     1      -8.280  -7.874  -5.872  1.00  0.00     0.049 A 
ATOM     16  N   UNL     1      -8.722  -8.009  -8.900  1.00  0.00    -0.248 NA
ATOM     17  C   UNL     1      -7.250  -6.205  -9.076  1.00  0.00     0.031 C 
ATOM     18  C   UNL     1      -8.011  -7.821  -4.431  1.00  0.00     0.029 A 
ATOM     19  N   UNL     1      -8.940  -9.056  -6.046  1.00  0.00    -0.354 N 
ATOM     20  C   UNL     1      -8.516  -7.702 -10.236  1.00  0.00     0.074 A 
ATOM     21  C   UNL     1      -7.618  -6.573 -10.293  1.00  0.00     0.031 C 
ATOM     22  C   UNL     1      -8.500  -8.929  -3.854  1.00  0.00     0.029 A 
ATOM     23  C   UNL     1      -9.194  -9.711  -4.867  1.00  0.00     0.049 A 
ATOM     24  H   UNL     1      -9.207  -9.403  -6.927  1.00  0.00     0.167 HD
ATOM     25  C   UNL     1      -9.066  -8.315 -11.307  1.00  0.00     0.037 A 
ATOM     26  C   UNL     1      -9.964 -10.790  -4.647  1.00  0.00     0.037 A 
ATOM     27  C   UNL     1      -9.950  -9.441 -11.176  1.00  0.00     0.049 A 
ATOM     28  C   UNL     1     -10.647 -11.396  -5.843  1.00  0.00     0.074 A 
ATOM     29  C   UNL     1     -10.646 -10.122 -12.153  1.00  0.00     0.029 A 
ATOM     30  N   UNL     1     -10.251 -10.053  -9.961  1.00  0.00    -0.354 N 
ATOM     31  N   UNL     1     -10.561 -11.046  -7.107  1.00  0.00    -0.248 NA
ATOM     32  C   UNL     1     -11.549 -12.522  -5.589  1.00  0.00     0.031 C 
ATOM     33  C   UNL     1     -11.406 -11.114 -11.523  1.00  0.00     0.029 A 
ATOM     34  C   UNL     1     -11.136 -11.095 -10.161  1.00  0.00     0.049 A 
ATOM     35  H   UNL     1      -9.886  -9.782  -9.088  1.00  0.00     0.167 HD
ATOM     36  C   UNL     1     -11.379 -11.918  -7.805  1.00  0.00     0.074 A 
ATOM     37  C   UNL     1     -11.942 -12.824  -6.819  1.00  0.00     0.031 C 
ATOM     38  C   UNL     1     -11.649 -11.972  -9.134  1.00  0.00     0.037 A 
BRANCH  25  39
ATOM     39  C   UNL     1      -8.805  -7.700 -12.649  1.00  0.00     0.064 A 
ATOM     40  C   UNL     1      -7.537  -7.718 -13.251  1.00  0.00     0.173 A 
ATOM     41  C   UNL     1      -9.830  -7.005 -13.310  1.00  0.00     0.173 A 
ATOM     42  F   UNL     1      -6.511  -8.336 -12.646  1.00  0.00    -0.203 F 
ATOM     43  C   UNL     1      -7.296  -7.029 -14.439  1.00  0.00     0.198 A 
ATOM     44  C   UNL     1      -9.594  -6.345 -14.513  1.00  0.00     0.198 A 
ATOM     45  F   UNL     1     -11.058  -6.943 -12.774  1.00  0.00    -0.203 F 
ATOM     46  F   UNL     1      -6.059  -6.994 -14.953  1.00  0.00    -0.200 F 
ATOM     47  C   UNL     1      -8.325  -6.346 -15.069  1.00  0.00     0.200 A 
ATOM     48  F   UNL     1     -10.591  -5.686 -15.120  1.00  0.00    -0.200 F 
ATOM     49  F   UNL     1      -8.088  -5.671 -16.203  1.00  0.00    -0.200 F 
ENDBRANCH  25  39
BRANCH  26  50
ATOM     50  C   UNL     1     -10.173 -11.295  -3.264  1.00  0.00     0.064 A 
ATOM     51  C   UNL     1      -9.721 -12.563  -2.876  1.00  0.00     0.173 A 
ATOM     52  C   UNL     1     -10.817 -10.512  -2.291  1.00  0.00     0.173 A 
ATOM     53  F   UNL     1      -9.115 -13.360  -3.768  1.00  0.00    -0.203 F 
ATOM     54  C   UNL     1      -9.915 -13.031  -1.576  1.00  0.00     0.198 A 
ATOM     55  C   UNL     1     -10.981 -10.967  -0.985  1.00  0.00     0.198 A 
ATOM     56  F   UNL     1     -11.271  -9.289  -2.604  1.00  0.00    -0.203 F 
ATOM     57  F   UNL     1      -9.508 -14.264  -1.244  1.00  0.00    -0.200 F 
ATOM     58  C   UNL     1     -10.537 -12.231  -0.630  1.00  0.00     0.200 A 
ATOM     59  F   UNL     1     -11.568 -10.182  -0.071  1.00  0.00    -0.200 F 
ATOM     60  F   UNL     1     -10.715 -12.679   0.620  1.00  0.00    -0.200 F 
ENDBRANCH  26  50
BRANCH  38  61
ATOM     61  C   UNL     1     -12.548 -13.079  -9.589  1.00  0.00     0.064 A 
ATOM     62  C   UNL     1     -13.927 -13.057  -9.341  1.00  0.00     0.173 A 
ATOM     63  C   UNL     1     -12.023 -14.142 -10.337  1.00  0.00     0.173 A 
ATOM     64  F   UNL     1     -14.468 -12.067  -8.614  1.00  0.00    -0.203 F 
ATOM     65  C   UNL     1     -14.748 -14.075  -9.812  1.00  0.00     0.198 A 
ATOM     66  C   UNL     1     -12.852 -15.139 -10.835  1.00  0.00     0.198 A 
ATOM     67  F   UNL     1     -10.709 -14.199 -10.604  1.00  0.00    -0.203 F 
ATOM     68  F   UNL     1     -16.058 -14.062  -9.528  1.00  0.00    -0.200 F 
ATOM     69  C   UNL     1     -14.212 -15.109 -10.567  1.00  0.00     0.200 A 
ATOM     70  F   UNL     1     -12.336 -16.127 -11.579  1.00  0.00    -0.200 F 
ATOM     71  F   UNL     1     -15.008 -16.080 -11.034  1.00  0.00    -0.200 F 
ENDBRANCH  38  61
ENDBRANCH  12  13
ENDBRANCH   5   7
ENDBRANCH   4   5
ENDBRANCH   3   4
ENDBRANCH   2   3
ENDBRANCH   1   2
BRANCH   1  72
ATOM     72  C   UNL     1      -3.291  -3.392  -2.530  1.00  0.00     0.202 C 
BRANCH  72  73
ATOM     73  C   UNL     1      -2.658  -3.958  -1.262  1.00  0.00     0.261 C 
BRANCH  73  74
ATOM     74  O   UNL     1      -1.245  -4.157  -1.465  1.00  0.00    -0.463 OA
BRANCH  74  75
ATOM     75  C   UNL     1      -0.909  -5.385  -1.956  1.00  0.00     0.310 C 
ATOM     76  O   UNL     1      -1.695  -6.311  -2.112  1.00  0.00    -0.252 OA
BRANCH  75  77
ATOM     77  C   UNL     1       0.567  -5.431  -2.304  1.00  0.00     0.115 C 
ATOM     78  C   UNL     1       1.228  -6.742  -1.781  1.00  0.00     0.004 C 
ATOM     79  C   UNL     1       0.867  -5.491  -3.816  1.00  0.00     0.096 C 
ATOM     80  C   UNL     1       0.649  -8.044  -2.381  1.00  0.00     0.005 C 
ATOM     81  C   UNL     1       2.543  -6.694  -2.545  1.00  0.00     0.009 C 
ATOM     82  C   UNL     1       1.866  -6.665  -3.920  1.00  0.00     0.002 C 
ATOM     83  C   UNL     1       1.066  -7.980  -3.856  1.00  0.00     0.005 C 
BRANCH  79  84
ATOM     84  C   UNL     1       1.235  -4.210  -4.601  1.00  0.00     0.224 C 
ATOM     85  O   UNL     1       0.585  -3.947  -5.625  1.00  0.00    -0.275 OA
ATOM     86  N   UNL     1       2.214  -3.318  -4.323  1.00  0.00    -0.349 N 
ATOM     87  H   UNL     1       2.120  -2.458  -4.791  1.00  0.00     0.164 HD
BRANCH  86  88
ATOM     88  C   UNL     1       3.376  -3.401  -3.460  1.00  0.00     0.112 C 
ATOM     89  C   UNL     1       4.401  -4.347  -4.099  1.00  0.00     0.030 C 
ATOM     90  C   UNL     1       4.091  -2.076  -3.186  1.00  0.00    -0.022 A 
ATOM     91  C   UNL     1       5.498  -4.624  -3.089  1.00  0.00     0.007 C 
ATOM     92  C   UNL     1       5.471  -2.092  -2.847  1.00  0.00    -0.043 A 
ATOM     93  C   UNL     1       3.425  -0.839  -3.199  1.00  0.00     0.006 A 
ATOM     94  C   UNL     1       6.302  -3.358  -2.853  1.00  0.00     0.036 C 
ATOM     95  C   UNL     1       6.143  -0.895  -2.559  1.00  0.00     0.004 A 
ATOM     96  C   UNL     1       4.115   0.347  -2.920  1.00  0.00     0.000 A 
ATOM     97  C   UNL     1       5.470   0.319  -2.599  1.00  0.00     0.000 A 
ENDBRANCH  86  88
ENDBRANCH  79  84
ENDBRANCH  75  77
ENDBRANCH  74  75
ENDBRANCH  73  74
ENDBRANCH  72  73
ENDBRANCH   1  72
TORSDOF 16
