REMARK SMILES CC1=C[C@H](C)[C@@H](C(=O)OCCOCCOC(=O)c2ccc(-c3c4nc(c(-c5c(F)c(F)c(F)c(F)c5F)c5ccc([nH]5)c(-c5c(F)c(F)c(F)c(F)c5F)c5nc(c(-c6c(F)c(F)c(F)c(F)c6F)c6ccc3[nH]6)C=C5)C=C4)cc2)[C@H](C(=O)Nc2cccnc2)C1
REMARK SMILES IDX 12 1 11 2 10 3 9 4 7 5 8 6 6 7 1 8 2 9 3 10 91 11 4 12 81 13
REMARK SMILES IDX 5 14 82 15 83 16 84 17 85 19 86 20 90 21 87 22 89 23 88 24
REMARK SMILES IDX 13 25 14 26 15 27 16 28 17 29 18 30 19 31 80 32 20 33 79 34
REMARK SMILES IDX 21 35 22 36 23 37 73 38 24 39 78 40 72 41 74 42 25 43 77 44
REMARK SMILES IDX 71 45 70 46 26 48 58 49 38 50 57 51 39 52 42 53 56 54 75 55
REMARK SMILES IDX 40 56 41 57 55 59 76 60 43 61 27 62 28 63 36 64 29 65 30 66
REMARK SMILES IDX 34 67 37 68 31 69 32 70 35 71 33 72 59 73 60 74 68 75 61 76
REMARK SMILES IDX 62 77 66 78 69 79 63 80 64 81 67 82 65 83 44 84 45 85 53 86
REMARK SMILES IDX 46 87 47 88 51 89 54 90 48 91 49 92 52 93 50 94
REMARK H PARENT 84 18 74 47 42 58
REMARK Flexibility Score: inf
ROOT
ATOM      1  O   UNL     1       1.564   1.181   7.861  1.00  0.00    -0.374 OA
ENDROOT
BRANCH   1   2
ATOM      2  C   UNL     1       2.721   0.610   7.263  1.00  0.00     0.202 C 
BRANCH   2   3
ATOM      3  C   UNL     1       2.537  -0.662   6.437  1.00  0.00     0.261 C 
BRANCH   3   4
ATOM      4  O   UNL     1       1.696  -0.474   5.291  1.00  0.00    -0.463 OA
BRANCH   4   5
ATOM      5  C   UNL     1       0.450  -1.023   5.383  1.00  0.00     0.310 C 
ATOM      6  O   UNL     1      -0.022  -1.544   6.385  1.00  0.00    -0.252 OA
BRANCH   5   7
ATOM      7  C   UNL     1      -0.243  -1.049   4.030  1.00  0.00     0.118 C 
ATOM      8  C   UNL     1       1.318  -0.465  -0.107  1.00  0.00     0.039 C 
ATOM      9  C   UNL     1       0.868  -0.695   1.308  1.00  0.00    -0.076 C 
ATOM     10  C   UNL     1       0.776  -1.928   1.831  1.00  0.00    -0.024 C 
ATOM     11  C   UNL     1       0.584   0.541   2.109  1.00  0.00     0.044 C 
ATOM     12  C   UNL     1       0.464  -2.201   3.272  1.00  0.00     0.023 C 
ATOM     13  C   UNL     1      -0.261   0.346   3.373  1.00  0.00     0.097 C 
ATOM     14  C   UNL     1      -0.292  -3.524   3.475  1.00  0.00     0.013 C 
BRANCH  13  15
ATOM     15  C   UNL     1      -1.666   0.977   3.274  1.00  0.00     0.228 C 
ATOM     16  O   UNL     1      -2.047   1.727   4.182  1.00  0.00    -0.274 OA
ATOM     17  N   UNL     1      -2.474   0.857   2.179  1.00  0.00    -0.324 N 
ATOM     18  H   UNL     1      -3.153   1.564   2.086  1.00  0.00     0.169 HD
BRANCH  17  19
ATOM     19  C   UNL     1      -2.490  -0.109   1.169  1.00  0.00     0.059 A 
ATOM     20  C   UNL     1      -2.425  -1.464   1.453  1.00  0.00     0.029 A 
ATOM     21  C   UNL     1      -2.663   0.255  -0.161  1.00  0.00     0.137 A 
ATOM     22  C   UNL     1      -2.391  -2.392   0.415  1.00  0.00     0.022 A 
ATOM     23  N   UNL     1      -2.630  -0.619  -1.196  1.00  0.00    -0.263 NA
ATOM     24  C   UNL     1      -2.467  -1.923  -0.884  1.00  0.00     0.111 A 
ENDBRANCH  17  19
ENDBRANCH  13  15
ENDBRANCH   5   7
ENDBRANCH   4   5
ENDBRANCH   3   4
ENDBRANCH   2   3
ENDBRANCH   1   2
BRANCH   1  25
ATOM     25  C   UNL     1       0.648   1.882   7.021  1.00  0.00     0.202 C 
BRANCH  25  26
ATOM     26  C   UNL     1       1.091   3.249   6.485  1.00  0.00     0.261 C 
BRANCH  26  27
ATOM     27  O   UNL     1       2.228   3.166   5.601  1.00  0.00    -0.460 OA
BRANCH  27  28
ATOM     28  C   UNL     1       3.357   3.737   6.081  1.00  0.00     0.338 C 
ATOM     29  O   UNL     1       3.493   4.348   7.135  1.00  0.00    -0.246 OA
BRANCH  28  30
ATOM     30  C   UNL     1       4.515   3.391   5.240  1.00  0.00     0.060 A 
ATOM     31  C   UNL     1       5.599   2.758   5.862  1.00  0.00     0.016 A 
ATOM     32  C   UNL     1       4.598   3.794   3.906  1.00  0.00     0.016 A 
ATOM     33  C   UNL     1       6.795   2.580   5.171  1.00  0.00     0.010 A 
ATOM     34  C   UNL     1       5.803   3.623   3.216  1.00  0.00     0.010 A 
ATOM     35  C   UNL     1       6.919   3.057   3.860  1.00  0.00    -0.014 A 
BRANCH  35  36
ATOM     36  C   UNL     1       8.265   3.118   3.239  1.00  0.00     0.031 A 
ATOM     37  C   UNL     1       9.014   4.423   3.254  1.00  0.00     0.074 A 
ATOM     38  C   UNL     1       8.835   2.019   2.716  1.00  0.00     0.049 A 
ATOM     39  N   UNL     1      10.189   4.715   2.756  1.00  0.00    -0.248 NA
ATOM     40  C   UNL     1       8.348   5.551   3.924  1.00  0.00     0.031 C 
ATOM     41  C   UNL     1       8.231   0.689   2.686  1.00  0.00     0.029 A 
ATOM     42  N   UNL     1      10.053   1.852   2.105  1.00  0.00    -0.354 N 
ATOM     43  C   UNL     1      10.400   6.056   3.049  1.00  0.00     0.074 A 
ATOM     44  C   UNL     1       9.220   6.530   3.738  1.00  0.00     0.031 C 
ATOM     45  C   UNL     1       9.076  -0.158   2.075  1.00  0.00     0.029 A 
ATOM     46  C   UNL     1      10.265   0.577   1.644  1.00  0.00     0.049 A 
ATOM     47  H   UNL     1      10.711   2.578   2.006  1.00  0.00     0.167 HD
ATOM     48  C   UNL     1      11.486   6.820   2.777  1.00  0.00     0.037 A 
ATOM     49  C   UNL     1      11.292   0.069   0.935  1.00  0.00     0.037 A 
ATOM     50  C   UNL     1      12.659   6.346   2.091  1.00  0.00     0.049 A 
ATOM     51  C   UNL     1      12.455   0.958   0.578  1.00  0.00     0.074 A 
ATOM     52  C   UNL     1      13.814   7.039   1.776  1.00  0.00     0.029 A 
ATOM     53  N   UNL     1      12.822   5.056   1.608  1.00  0.00    -0.354 N 
ATOM     54  N   UNL     1      12.655   2.220   0.872  1.00  0.00    -0.248 NA
ATOM     55  C   UNL     1      13.539   0.349  -0.207  1.00  0.00     0.031 C 
ATOM     56  C   UNL     1      14.656   6.183   1.057  1.00  0.00     0.029 A 
ATOM     57  C   UNL     1      14.049   4.940   0.973  1.00  0.00     0.049 A 
ATOM     58  H   UNL     1      12.164   4.330   1.701  1.00  0.00     0.167 HD
ATOM     59  C   UNL     1      13.893   2.548   0.334  1.00  0.00     0.074 A 
ATOM     60  C   UNL     1      14.406   1.348  -0.293  1.00  0.00     0.031 C 
ATOM     61  C   UNL     1      14.547   3.736   0.358  1.00  0.00     0.037 A 
BRANCH  48  62
ATOM     62  C   UNL     1      11.442   8.259   3.201  1.00  0.00     0.064 A 
ATOM     63  C   UNL     1      11.519   8.633   4.551  1.00  0.00     0.173 A 
ATOM     64  C   UNL     1      11.351   9.279   2.242  1.00  0.00     0.173 A 
ATOM     65  F   UNL     1      11.593   7.697   5.509  1.00  0.00    -0.203 F 
ATOM     66  C   UNL     1      11.479   9.974   4.926  1.00  0.00     0.198 A 
ATOM     67  C   UNL     1      11.341  10.619   2.619  1.00  0.00     0.198 A 
ATOM     68  F   UNL     1      11.279   8.976   0.937  1.00  0.00    -0.203 F 
ATOM     69  F   UNL     1      11.506  10.307   6.224  1.00  0.00    -0.200 F 
ATOM     70  C   UNL     1      11.397  10.966   3.960  1.00  0.00     0.200 A 
ATOM     71  F   UNL     1      11.274  11.576   1.683  1.00  0.00    -0.200 F 
ATOM     72  F   UNL     1      11.364  12.256   4.322  1.00  0.00    -0.200 F 
ENDBRANCH  48  62
BRANCH  49  73
ATOM     73  C   UNL     1      11.258  -1.351   0.498  1.00  0.00     0.064 A 
ATOM     74  C   UNL     1      12.148  -2.296   1.026  1.00  0.00     0.173 A 
ATOM     75  C   UNL     1      10.341  -1.788  -0.469  1.00  0.00     0.173 A 
ATOM     76  F   UNL     1      13.061  -1.920   1.935  1.00  0.00    -0.203 F 
ATOM     77  C   UNL     1      12.133  -3.620   0.593  1.00  0.00     0.198 A 
ATOM     78  C   UNL     1      10.307  -3.119  -0.881  1.00  0.00     0.198 A 
ATOM     79  F   UNL     1       9.469  -0.924  -1.008  1.00  0.00    -0.203 F 
ATOM     80  F   UNL     1      13.025  -4.492   1.081  1.00  0.00    -0.200 F 
ATOM     81  C   UNL     1      11.208  -4.032  -0.356  1.00  0.00     0.200 A 
ATOM     82  F   UNL     1       9.403  -3.514  -1.788  1.00  0.00    -0.200 F 
ATOM     83  F   UNL     1      11.191  -5.306  -0.769  1.00  0.00    -0.200 F 
ENDBRANCH  49  73
BRANCH  61  84
ATOM     84  C   UNL     1      15.905   3.791  -0.282  1.00  0.00     0.064 A 
ATOM     85  C   UNL     1      16.066   3.747  -1.674  1.00  0.00     0.173 A 
ATOM     86  C   UNL     1      17.056   3.932   0.508  1.00  0.00     0.173 A 
ATOM     87  F   UNL     1      14.998   3.598  -2.473  1.00  0.00    -0.203 F 
ATOM     88  C   UNL     1      17.331   3.818  -2.251  1.00  0.00     0.198 A 
ATOM     89  C   UNL     1      18.317   4.034  -0.073  1.00  0.00     0.198 A 
ATOM     90  F   UNL     1      16.957   3.987   1.845  1.00  0.00    -0.203 F 
ATOM     91  F   UNL     1      17.465   3.727  -3.582  1.00  0.00    -0.200 F 
ATOM     92  C   UNL     1      18.454   3.969  -1.452  1.00  0.00     0.200 A 
ATOM     93  F   UNL     1      19.399   4.194   0.701  1.00  0.00    -0.200 F 
ATOM     94  F   UNL     1      19.671   4.045  -2.009  1.00  0.00    -0.200 F 
ENDBRANCH  61  84
ENDBRANCH  35  36
ENDBRANCH  28  30
ENDBRANCH  27  28
ENDBRANCH  26  27
ENDBRANCH  25  26
ENDBRANCH   1  25
TORSDOF 16
