REMARK SMILES C/C(=C(/F)C(=O)OCCOCCOC(=O)c1ccc(-c2c3nc(c(-c4c(F)c(F)c(F)c(F)c4F)c4ccc([nH]4)c(-c4c(F)c(F)c(F)c(F)c4F)c4nc(c(-c5c(F)c(F)c(F)c(F)c5F)c5ccc2[nH]5)C=C4)C=C3)cc1)c1ccccc1F
REMARK SMILES IDX 11 1 10 2 9 3 8 4 7 5 5 6 6 7 3 8 1 9 2 10 4 11 79 12 80 13
REMARK SMILES IDX 84 14 81 15 83 16 85 17 82 18 12 19 13 20 14 21 15 22 16 23
REMARK SMILES IDX 17 24 78 25 18 26 77 27 19 28 20 29 21 30 71 31 22 32 76 33
REMARK SMILES IDX 70 34 72 35 23 36 75 37 69 38 68 39 24 41 56 42 36 43 55 44
REMARK SMILES IDX 37 45 40 46 54 47 73 48 38 49 39 50 53 52 74 53 41 54 25 55
REMARK SMILES IDX 26 56 34 57 27 58 28 59 32 60 35 61 29 62 30 63 33 64 31 65
REMARK SMILES IDX 57 66 58 67 66 68 59 69 60 70 64 71 67 72 61 73 62 74 65 75
REMARK SMILES IDX 63 76 42 77 43 78 51 79 44 80 45 81 49 82 52 83 46 84 47 85
REMARK SMILES IDX 50 86 48 87
REMARK H PARENT 72 40 40 51
REMARK Flexibility Score: inf
ROOT
ATOM      1  C   UNL     1       1.173   3.068  -1.455  1.00  0.00     0.202 C 
ENDROOT
BRANCH   1   2
ATOM      2  O   UNL     1       0.338   3.032  -2.615  1.00  0.00    -0.374 OA
BRANCH   2   3
ATOM      3  C   UNL     1      -0.917   3.708  -2.529  1.00  0.00     0.202 C 
BRANCH   3   4
ATOM      4  C   UNL     1      -2.047   2.910  -1.874  1.00  0.00     0.261 C 
BRANCH   4   5
ATOM      5  O   UNL     1      -1.725   2.622  -0.505  1.00  0.00    -0.458 OA
BRANCH   5   6
ATOM      6  C   UNL     1      -1.590   1.304  -0.210  1.00  0.00     0.367 C 
ATOM      7  O   UNL     1      -1.934   0.365  -0.911  1.00  0.00    -0.243 OA
BRANCH   6   8
ATOM      8  C   UNL     1      -0.878   1.169   1.083  1.00  0.00     0.211 C 
ATOM      9  C   UNL     1       0.806  -0.468   0.188  1.00  0.00     0.048 C 
ATOM     10  C   UNL     1       0.168   0.344   1.293  1.00  0.00     0.002 C 
ATOM     11  F   UNL     1      -1.328   2.005   2.047  1.00  0.00    -0.199 F 
BRANCH  10  12
ATOM     12  C   UNL     1       0.765   0.189   2.655  1.00  0.00     0.016 A 
ATOM     13  C   UNL     1      -0.063   0.175   3.793  1.00  0.00     0.011 A 
ATOM     14  C   UNL     1       2.136  -0.037   2.868  1.00  0.00     0.130 A 
ATOM     15  C   UNL     1       0.457  -0.045   5.075  1.00  0.00     0.001 A 
ATOM     16  C   UNL     1       2.658  -0.272   4.142  1.00  0.00     0.040 A 
ATOM     17  F   UNL     1       3.006  -0.026   1.848  1.00  0.00    -0.206 F 
ATOM     18  C   UNL     1       1.817  -0.276   5.249  1.00  0.00     0.003 A 
ENDBRANCH  10  12
ENDBRANCH   6   8
ENDBRANCH   5   6
ENDBRANCH   4   5
ENDBRANCH   3   4
ENDBRANCH   2   3
ENDBRANCH   1   2
BRANCH   1  19
ATOM     19  C   UNL     1       1.985   4.352  -1.250  1.00  0.00     0.261 C 
BRANCH  19  20
ATOM     20  O   UNL     1       1.136   5.468  -0.922  1.00  0.00    -0.460 OA
BRANCH  20  21
ATOM     21  C   UNL     1       1.040   6.415  -1.883  1.00  0.00     0.338 C 
ATOM     22  O   UNL     1       1.659   6.470  -2.937  1.00  0.00    -0.246 OA
BRANCH  21  23
ATOM     23  C   UNL     1      -0.077   7.328  -1.579  1.00  0.00     0.060 A 
ATOM     24  C   UNL     1      -1.013   7.561  -2.595  1.00  0.00     0.016 A 
ATOM     25  C   UNL     1      -0.178   7.992  -0.355  1.00  0.00     0.016 A 
ATOM     26  C   UNL     1      -2.026   8.499  -2.409  1.00  0.00     0.010 A 
ATOM     27  C   UNL     1      -1.191   8.939  -0.172  1.00  0.00     0.010 A 
ATOM     28  C   UNL     1      -2.097   9.222  -1.211  1.00  0.00    -0.014 A 
BRANCH  28  29
ATOM     29  C   UNL     1      -3.031  10.368  -1.104  1.00  0.00     0.031 A 
ATOM     30  C   UNL     1      -2.505  11.760  -1.319  1.00  0.00     0.074 A 
ATOM     31  C   UNL     1      -4.336  10.170  -0.847  1.00  0.00     0.049 A 
ATOM     32  N   UNL     1      -3.132  12.906  -1.248  1.00  0.00    -0.248 NA
ATOM     33  C   UNL     1      -1.077  11.874  -1.656  1.00  0.00     0.031 C 
ATOM     34  C   UNL     1      -4.968   8.867  -0.654  1.00  0.00     0.029 A 
ATOM     35  N   UNL     1      -5.361  11.070  -0.698  1.00  0.00    -0.354 N 
ATOM     36  C   UNL     1      -2.178  13.876  -1.526  1.00  0.00     0.074 A 
ATOM     37  C   UNL     1      -0.923  13.188  -1.738  1.00  0.00     0.031 C 
ATOM     38  C   UNL     1      -6.275   9.052  -0.399  1.00  0.00     0.029 A 
ATOM     39  C   UNL     1      -6.562  10.486  -0.382  1.00  0.00     0.049 A 
ATOM     40  H   UNL     1      -5.246  12.042  -0.806  1.00  0.00     0.167 HD
ATOM     41  C   UNL     1      -2.337  15.218  -1.606  1.00  0.00     0.037 A 
ATOM     42  C   UNL     1      -7.752  11.048  -0.093  1.00  0.00     0.037 A 
ATOM     43  C   UNL     1      -3.588  15.900  -1.399  1.00  0.00     0.049 A 
ATOM     44  C   UNL     1      -7.889  12.548  -0.129  1.00  0.00     0.074 A 
ATOM     45  C   UNL     1      -3.857  17.255  -1.485  1.00  0.00     0.029 A 
ATOM     46  N   UNL     1      -4.778  15.277  -1.057  1.00  0.00    -0.354 N 
ATOM     47  N   UNL     1      -6.990  13.456  -0.425  1.00  0.00    -0.248 NA
ATOM     48  C   UNL     1      -9.209  13.101   0.205  1.00  0.00     0.031 C 
ATOM     49  C   UNL     1      -5.199  17.456  -1.146  1.00  0.00     0.029 A 
ATOM     50  C   UNL     1      -5.779  16.222  -0.901  1.00  0.00     0.049 A 
ATOM     51  H   UNL     1      -4.895  14.306  -0.942  1.00  0.00     0.167 HD
ATOM     52  C   UNL     1      -7.639  14.680  -0.340  1.00  0.00     0.074 A 
ATOM     53  C   UNL     1      -9.012  14.400   0.023  1.00  0.00     0.031 C 
ATOM     54  C   UNL     1      -7.144  15.925  -0.546  1.00  0.00     0.037 A 
BRANCH  41  55
ATOM     55  C   UNL     1      -1.121  16.044  -1.908  1.00  0.00     0.064 A 
ATOM     56  C   UNL     1      -0.536  16.056  -3.183  1.00  0.00     0.173 A 
ATOM     57  C   UNL     1      -0.557  16.863  -0.918  1.00  0.00     0.173 A 
ATOM     58  F   UNL     1      -1.029  15.280  -4.160  1.00  0.00    -0.203 F 
ATOM     59  C   UNL     1       0.584  16.840  -3.449  1.00  0.00     0.198 A 
ATOM     60  C   UNL     1       0.545  17.666  -1.195  1.00  0.00     0.198 A 
ATOM     61  F   UNL     1      -1.082  16.891   0.316  1.00  0.00    -0.203 F 
ATOM     62  F   UNL     1       1.153  16.804  -4.662  1.00  0.00    -0.200 F 
ATOM     63  C   UNL     1       1.119  17.650  -2.458  1.00  0.00     0.200 A 
ATOM     64  F   UNL     1       1.054  18.457  -0.239  1.00  0.00    -0.200 F 
ATOM     65  F   UNL     1       2.192  18.410  -2.717  1.00  0.00    -0.200 F 
ENDBRANCH  41  55
BRANCH  42  66
ATOM     66  C   UNL     1      -8.909  10.189   0.268  1.00  0.00     0.064 A 
ATOM     67  C   UNL     1     -10.016  10.070  -0.582  1.00  0.00     0.173 A 
ATOM     68  C   UNL     1      -8.938   9.483   1.480  1.00  0.00     0.173 A 
ATOM     69  F   UNL     1     -10.047  10.746  -1.740  1.00  0.00    -0.203 F 
ATOM     70  C   UNL     1     -11.116   9.291  -0.227  1.00  0.00     0.198 A 
ATOM     71  C   UNL     1     -10.025   8.683   1.822  1.00  0.00     0.198 A 
ATOM     72  F   UNL     1      -7.904   9.566   2.331  1.00  0.00    -0.203 F 
ATOM     73  F   UNL     1     -12.181   9.230  -1.037  1.00  0.00    -0.200 F 
ATOM     74  C   UNL     1     -11.117   8.593   0.972  1.00  0.00     0.200 A 
ATOM     75  F   UNL     1     -10.017   8.003   2.977  1.00  0.00    -0.200 F 
ATOM     76  F   UNL     1     -12.173   7.843   1.312  1.00  0.00    -0.200 F 
ENDBRANCH  42  66
BRANCH  54  77
ATOM     77  C   UNL     1      -8.097  17.078  -0.419  1.00  0.00     0.064 A 
ATOM     78  C   UNL     1      -8.578  17.502   0.828  1.00  0.00     0.173 A 
ATOM     79  C   UNL     1      -8.499  17.795  -1.557  1.00  0.00     0.173 A 
ATOM     80  F   UNL     1      -8.235  16.842   1.944  1.00  0.00    -0.203 F 
ATOM     81  C   UNL     1      -9.445  18.588   0.929  1.00  0.00     0.198 A 
ATOM     82  C   UNL     1      -9.342  18.897  -1.450  1.00  0.00     0.198 A 
ATOM     83  F   UNL     1      -8.061  17.434  -2.773  1.00  0.00    -0.203 F 
ATOM     84  F   UNL     1      -9.927  18.948   2.126  1.00  0.00    -0.200 F 
ATOM     85  C   UNL     1      -9.820  19.288  -0.208  1.00  0.00     0.200 A 
ATOM     86  F   UNL     1      -9.693  19.580  -2.548  1.00  0.00    -0.200 F 
ATOM     87  F   UNL     1     -10.648  20.337  -0.108  1.00  0.00    -0.200 F 
ENDBRANCH  54  77
ENDBRANCH  28  29
ENDBRANCH  21  23
ENDBRANCH  20  21
ENDBRANCH  19  20
ENDBRANCH   1  19
TORSDOF 15
