REMARK SMILES N#Cc1nccn1-c1ccc(F)cc1C(=O)OCCOCCOC(=O)c1ccc(-c2c3nc(c(-c4c(F)c(F)c(F)c(F)c4F)c4ccc([nH]4)c(-c4c(F)c(F)c(F)c(F)c4F)c4nc(c(-c5c(F)c(F)c(F)c(F)c5F)c5ccc2[nH]5)C=C4)C=C3)cc1
REMARK SMILES IDX 20 1 19 2 18 3 17 4 15 5 16 6 14 7 8 8 9 9 10 10 13 11 11 12
REMARK SMILES IDX 12 13 7 14 3 15 4 16 5 17 6 18 2 19 1 20 21 21 22 22 23 23
REMARK SMILES IDX 24 24 25 25 26 26 27 27 88 28 28 29 87 30 29 31 30 32 31 33
REMARK SMILES IDX 81 34 32 35 86 36 80 37 82 38 33 39 85 40 79 41 78 42 34 44
REMARK SMILES IDX 66 45 46 46 65 47 47 48 50 49 64 50 83 51 48 52 49 53 63 55
REMARK SMILES IDX 84 56 51 57 35 58 36 59 44 60 37 61 38 62 42 63 45 64 39 65
REMARK SMILES IDX 40 66 43 67 41 68 67 69 68 70 76 71 69 72 70 73 74 74 77 75
REMARK SMILES IDX 71 76 72 77 75 78 73 79 52 80 53 81 61 82 54 83 55 84 59 85
REMARK SMILES IDX 62 86 56 87 57 88 60 89 58 90
REMARK H PARENT 82 43 50 54
REMARK Flexibility Score: inf
ROOT
ATOM      1  O   UNL     1       5.677  -2.692   4.962  1.00  0.00    -0.374 OA
ENDROOT
BRANCH   1   2
ATOM      2  C   UNL     1       6.407  -1.582   4.442  1.00  0.00     0.202 C 
BRANCH   2   3
ATOM      3  C   UNL     1       6.989  -1.695   3.035  1.00  0.00     0.261 C 
BRANCH   3   4
ATOM      4  O   UNL     1       5.974  -1.936   2.047  1.00  0.00    -0.460 OA
BRANCH   4   5
ATOM      5  C   UNL     1       6.105  -3.094   1.360  1.00  0.00     0.340 C 
ATOM      6  O   UNL     1       6.980  -3.931   1.499  1.00  0.00    -0.246 OA
BRANCH   5   7
ATOM      7  C   UNL     1       4.927  -3.329   0.491  1.00  0.00     0.087 A 
ATOM      8  C   UNL     1       4.284  -2.377  -0.324  1.00  0.00     0.062 A 
ATOM      9  C   UNL     1       3.183  -2.775  -1.109  1.00  0.00     0.030 A 
ATOM     10  C   UNL     1       2.695  -4.081  -1.037  1.00  0.00     0.041 A 
ATOM     11  C   UNL     1       4.400  -4.631   0.575  1.00  0.00     0.057 A 
ATOM     12  C   UNL     1       3.290  -4.988  -0.176  1.00  0.00     0.124 A 
ATOM     13  F   UNL     1       2.789  -6.224  -0.067  1.00  0.00    -0.207 F 
BRANCH   8  14
ATOM     14  N   UNL     1       4.688  -1.015  -0.375  1.00  0.00    -0.291 N 
ATOM     15  C   UNL     1       3.867   0.105  -0.349  1.00  0.00     0.217 A 
ATOM     16  N   UNL     1       4.574   1.220  -0.317  1.00  0.00    -0.227 NA
ATOM     17  C   UNL     1       5.882   0.831  -0.359  1.00  0.00     0.132 A 
ATOM     18  C   UNL     1       5.979  -0.537  -0.432  1.00  0.00     0.114 A 
BRANCH  15  19
ATOM     19  C   UNL     1       2.439   0.092  -0.231  1.00  0.00     0.139 C 
ATOM     20  N   UNL     1       1.290   0.045  -0.119  1.00  0.00    -0.189 NA
ENDBRANCH  15  19
ENDBRANCH   8  14
ENDBRANCH   5   7
ENDBRANCH   4   5
ENDBRANCH   3   4
ENDBRANCH   2   3
ENDBRANCH   1   2
BRANCH   1  21
ATOM     21  C   UNL     1       4.479  -3.125   4.329  1.00  0.00     0.202 C 
BRANCH  21  22
ATOM     22  C   UNL     1       3.262  -2.212   4.360  1.00  0.00     0.261 C 
BRANCH  22  23
ATOM     23  O   UNL     1       3.538  -0.901   3.891  1.00  0.00    -0.460 OA
BRANCH  23  24
ATOM     24  C   UNL     1       3.704  -0.002   4.892  1.00  0.00     0.338 C 
ATOM     25  O   UNL     1       3.987  -0.233   6.055  1.00  0.00    -0.246 OA
BRANCH  24  26
ATOM     26  C   UNL     1       3.273   1.314   4.416  1.00  0.00     0.060 A 
ATOM     27  C   UNL     1       3.338   2.359   5.336  1.00  0.00     0.016 A 
ATOM     28  C   UNL     1       2.453   1.368   3.286  1.00  0.00     0.016 A 
ATOM     29  C   UNL     1       2.344   3.311   5.287  1.00  0.00     0.010 A 
ATOM     30  C   UNL     1       1.474   2.323   3.231  1.00  0.00     0.010 A 
ATOM     31  C   UNL     1       1.351   3.199   4.302  1.00  0.00    -0.014 A 
BRANCH  31  32
ATOM     32  C   UNL     1       0.277   4.168   4.255  1.00  0.00     0.031 A 
ATOM     33  C   UNL     1       0.807   5.448   3.738  1.00  0.00     0.074 A 
ATOM     34  C   UNL     1      -1.011   3.890   4.550  1.00  0.00     0.049 A 
ATOM     35  N   UNL     1       1.103   6.482   4.450  1.00  0.00    -0.248 NA
ATOM     36  C   UNL     1       1.356   5.490   2.369  1.00  0.00     0.031 C 
ATOM     37  C   UNL     1      -1.630   2.604   4.881  1.00  0.00     0.029 A 
ATOM     38  N   UNL     1      -2.082   4.742   4.557  1.00  0.00    -0.354 N 
ATOM     39  C   UNL     1       1.629   7.398   3.552  1.00  0.00     0.074 A 
ATOM     40  C   UNL     1       2.008   6.654   2.384  1.00  0.00     0.031 C 
ATOM     41  C   UNL     1      -2.981   2.716   4.819  1.00  0.00     0.029 A 
ATOM     42  C   UNL     1      -3.332   4.104   4.582  1.00  0.00     0.049 A 
ATOM     43  H   UNL     1      -1.984   5.722   4.545  1.00  0.00     0.167 HD
ATOM     44  C   UNL     1       1.376   8.723   3.716  1.00  0.00     0.037 A 
ATOM     45  C   UNL     1      -4.535   4.716   4.377  1.00  0.00     0.037 A 
ATOM     46  C   UNL     1       0.907   8.986   5.054  1.00  0.00     0.049 A 
ATOM     47  C   UNL     1      -4.321   6.164   4.652  1.00  0.00     0.074 A 
ATOM     48  C   UNL     1       1.452   8.839   6.314  1.00  0.00     0.029 A 
ATOM     49  N   UNL     1      -0.455   9.035   5.225  1.00  0.00    -0.354 N 
ATOM     50  N   UNL     1      -4.047   6.628   5.840  1.00  0.00    -0.248 NA
ATOM     51  C   UNL     1      -3.881   6.981   3.530  1.00  0.00     0.031 C 
ATOM     52  C   UNL     1       0.383   8.366   7.130  1.00  0.00     0.029 A 
ATOM     53  C   UNL     1      -0.784   8.355   6.367  1.00  0.00     0.049 A 
ATOM     54  H   UNL     1      -1.091   9.486   4.623  1.00  0.00     0.167 HD
ATOM     55  C   UNL     1      -3.011   7.524   5.621  1.00  0.00     0.074 A 
ATOM     56  C   UNL     1      -2.971   7.720   4.170  1.00  0.00     0.031 C 
ATOM     57  C   UNL     1      -2.084   7.767   6.592  1.00  0.00     0.037 A 
BRANCH  44  58
ATOM     58  C   UNL     1       1.129   9.667   2.571  1.00  0.00     0.064 A 
ATOM     59  C   UNL     1       0.691   9.265   1.289  1.00  0.00     0.173 A 
ATOM     60  C   UNL     1       1.056  11.047   2.833  1.00  0.00     0.173 A 
ATOM     61  F   UNL     1       0.561   7.980   0.943  1.00  0.00    -0.203 F 
ATOM     62  C   UNL     1       0.246  10.172   0.332  1.00  0.00     0.198 A 
ATOM     63  C   UNL     1       0.552  11.948   1.891  1.00  0.00     0.198 A 
ATOM     64  F   UNL     1       1.393  11.530   4.037  1.00  0.00    -0.203 F 
ATOM     65  F   UNL     1      -0.167   9.720  -0.860  1.00  0.00    -0.200 F 
ATOM     66  C   UNL     1       0.154  11.511   0.640  1.00  0.00     0.200 A 
ATOM     67  F   UNL     1       0.398  13.236   2.222  1.00  0.00    -0.200 F 
ATOM     68  F   UNL     1      -0.364  12.367  -0.249  1.00  0.00    -0.200 F 
ENDBRANCH  44  58
BRANCH  45  69
ATOM     69  C   UNL     1      -5.711   4.264   3.575  1.00  0.00     0.064 A 
ATOM     70  C   UNL     1      -5.575   3.303   2.558  1.00  0.00     0.173 A 
ATOM     71  C   UNL     1      -6.910   5.010   3.560  1.00  0.00     0.173 A 
ATOM     72  F   UNL     1      -4.457   2.574   2.450  1.00  0.00    -0.203 F 
ATOM     73  C   UNL     1      -6.541   3.137   1.559  1.00  0.00     0.198 A 
ATOM     74  C   UNL     1      -7.878   4.842   2.560  1.00  0.00     0.198 A 
ATOM     75  F   UNL     1      -7.117   5.975   4.469  1.00  0.00    -0.203 F 
ATOM     76  F   UNL     1      -6.324   2.264   0.566  1.00  0.00    -0.200 F 
ATOM     77  C   UNL     1      -7.682   3.919   1.548  1.00  0.00     0.200 A 
ATOM     78  F   UNL     1      -8.967   5.624   2.539  1.00  0.00    -0.200 F 
ATOM     79  F   UNL     1      -8.565   3.811   0.545  1.00  0.00    -0.200 F 
ENDBRANCH  45  69
BRANCH  57  80
ATOM     80  C   UNL     1      -2.349   7.242   7.977  1.00  0.00     0.064 A 
ATOM     81  C   UNL     1      -2.369   8.173   9.023  1.00  0.00     0.173 A 
ATOM     82  C   UNL     1      -2.398   5.879   8.323  1.00  0.00     0.173 A 
ATOM     83  F   UNL     1      -2.279   9.484   8.752  1.00  0.00    -0.203 F 
ATOM     84  C   UNL     1      -2.410   7.769  10.353  1.00  0.00     0.198 A 
ATOM     85  C   UNL     1      -2.478   5.477   9.658  1.00  0.00     0.198 A 
ATOM     86  F   UNL     1      -2.300   4.925   7.387  1.00  0.00    -0.203 F 
ATOM     87  F   UNL     1      -2.349   8.687  11.327  1.00  0.00    -0.200 F 
ATOM     88  C   UNL     1      -2.470   6.423  10.671  1.00  0.00     0.200 A 
ATOM     89  F   UNL     1      -2.516   4.172   9.969  1.00  0.00    -0.200 F 
ATOM     90  F   UNL     1      -2.491   6.037  11.955  1.00  0.00    -0.200 F 
ENDBRANCH  57  80
ENDBRANCH  31  32
ENDBRANCH  24  26
ENDBRANCH  23  24
ENDBRANCH  22  23
ENDBRANCH  21  22
ENDBRANCH   1  21
TORSDOF 16
