REMARK SMILES O=C(Cc1ccc(F)c(F)c1)NC1(C(=O)OCCOCCOC(=O)c2ccc(-c3c4nc(c(-c5c(F)c(F)c(F)c(F)c5F)c5ccc([nH]5)c(-c5c(F)c(F)c(F)c(F)c5F)c5nc(c(-c6c(F)c(F)c(F)c(F)c6F)c6ccc3[nH]6)C=C5)C=C4)cc2)CCCC1
REMARK SMILES IDX 18 1 17 2 16 3 14 4 15 5 13 6 88 7 91 8 89 9 90 10 12 11
REMARK SMILES IDX 1 12 2 13 3 15 4 16 5 17 11 18 6 19 9 20 7 21 10 22 8 23
REMARK SMILES IDX 19 24 20 25 21 26 22 27 23 28 24 29 25 30 26 31 87 32 27 33
REMARK SMILES IDX 86 34 28 35 29 36 30 37 80 38 31 39 85 40 79 41 81 42 32 43
REMARK SMILES IDX 84 44 78 45 77 46 33 48 65 49 45 50 64 51 46 52 49 53 63 54
REMARK SMILES IDX 82 55 47 56 48 57 62 59 83 60 50 61 34 62 35 63 43 64 36 65
REMARK SMILES IDX 37 66 41 67 44 68 38 69 39 70 42 71 40 72 66 73 67 74 75 75
REMARK SMILES IDX 68 76 69 77 73 78 76 79 70 80 71 81 74 82 72 83 51 84 52 85
REMARK SMILES IDX 60 86 53 87 54 88 58 89 61 90 55 91 56 92 59 93 57 94
REMARK H PARENT 12 14 81 47 49 58
REMARK Flexibility Score: inf
ROOT
ATOM      1  C   UNL     1       5.172  -0.421   5.707  1.00  0.00     0.202 C 
ENDROOT
BRANCH   1   2
ATOM      2  C   UNL     1       4.272   0.786   5.430  1.00  0.00     0.261 C 
BRANCH   2   3
ATOM      3  O   UNL     1       3.121   0.420   4.649  1.00  0.00    -0.461 OA
BRANCH   3   4
ATOM      4  C   UNL     1       3.051   0.993   3.420  1.00  0.00     0.331 C 
ATOM      5  O   UNL     1       3.828   1.853   3.009  1.00  0.00    -0.249 OA
BRANCH   4   6
ATOM      6  C   UNL     1       1.921   0.427   2.521  1.00  0.00     0.138 C 
ATOM      7  C   UNL     1       0.722   1.378   2.585  1.00  0.00     0.040 C 
ATOM      8  C   UNL     1       1.342  -0.928   2.962  1.00  0.00     0.040 C 
ATOM      9  C   UNL     1      -0.045   0.901   3.813  1.00  0.00     0.003 C 
ATOM     10  C   UNL     1       0.114  -0.613   3.818  1.00  0.00     0.003 C 
BRANCH   6  11
ATOM     11  N   UNL     1       2.576   0.381   1.200  1.00  0.00    -0.340 N 
ATOM     12  O   UNL     1       0.847  -0.363  -0.102  1.00  0.00    -0.275 OA
ATOM     13  C   UNL     1       2.003   0.034   0.004  1.00  0.00     0.225 C 
ATOM     14  H   UNL     1       3.530   0.626   1.175  1.00  0.00     0.164 HD
BRANCH  13  15
ATOM     15  C   UNL     1       2.945   0.087  -1.194  1.00  0.00     0.135 C 
BRANCH  15  16
ATOM     16  C   UNL     1       3.843   1.307  -1.256  1.00  0.00    -0.036 A 
ATOM     17  C   UNL     1       5.238   1.160  -1.346  1.00  0.00     0.007 A 
ATOM     18  C   UNL     1       3.296   2.600  -1.240  1.00  0.00     0.046 A 
ATOM     19  C   UNL     1       6.069   2.283  -1.403  1.00  0.00     0.043 A 
ATOM     20  C   UNL     1       4.132   3.713  -1.293  1.00  0.00     0.159 A 
ATOM     21  C   UNL     1       5.510   3.556  -1.373  1.00  0.00     0.158 A 
ATOM     22  F   UNL     1       3.594   4.940  -1.267  1.00  0.00    -0.204 F 
ATOM     23  F   UNL     1       6.311   4.628  -1.427  1.00  0.00    -0.204 F 
ENDBRANCH  15  16
ENDBRANCH  13  15
ENDBRANCH   6  11
ENDBRANCH   4   6
ENDBRANCH   3   4
ENDBRANCH   2   3
ENDBRANCH   1   2
BRANCH   1  24
ATOM     24  O   UNL     1       5.811  -1.008   4.575  1.00  0.00    -0.374 OA
BRANCH  24  25
ATOM     25  C   UNL     1       5.029  -1.862   3.740  1.00  0.00     0.202 C 
BRANCH  25  26
ATOM     26  C   UNL     1       4.695  -3.253   4.297  1.00  0.00     0.261 C 
BRANCH  26  27
ATOM     27  O   UNL     1       3.834  -3.192   5.450  1.00  0.00    -0.460 OA
BRANCH  27  28
ATOM     28  C   UNL     1       4.383  -3.668   6.593  1.00  0.00     0.338 C 
ATOM     29  O   UNL     1       5.476  -4.207   6.722  1.00  0.00    -0.246 OA
BRANCH  28  30
ATOM     30  C   UNL     1       3.559  -3.300   7.758  1.00  0.00     0.060 A 
ATOM     31  C   UNL     1       4.197  -2.627   8.809  1.00  0.00     0.016 A 
ATOM     32  C   UNL     1       2.222  -3.688   7.872  1.00  0.00     0.016 A 
ATOM     33  C   UNL     1       3.516  -2.387  10.000  1.00  0.00     0.010 A 
ATOM     34  C   UNL     1       1.543  -3.454   9.075  1.00  0.00     0.010 A 
ATOM     35  C   UNL     1       2.198  -2.837  10.156  1.00  0.00    -0.014 A 
BRANCH  35  36
ATOM     36  C   UNL     1       1.569  -2.787  11.499  1.00  0.00     0.031 A 
ATOM     37  C   UNL     1       1.593  -4.017  12.364  1.00  0.00     0.074 A 
ATOM     38  C   UNL     1       1.034  -1.646  11.967  1.00  0.00     0.049 A 
ATOM     39  N   UNL     1       1.106  -4.195  13.566  1.00  0.00    -0.248 NA
ATOM     40  C   UNL     1       2.258  -5.203  11.803  1.00  0.00     0.031 C 
ATOM     41  C   UNL     1       0.995  -0.377  11.245  1.00  0.00     0.029 A 
ATOM     42  N   UNL     1       0.424  -1.373  13.166  1.00  0.00    -0.354 N 
ATOM     43  C   UNL     1       1.407  -5.508  13.904  1.00  0.00     0.074 A 
ATOM     44  C   UNL     1       2.093  -6.092  12.772  1.00  0.00     0.031 C 
ATOM     45  C   UNL     1       0.390   0.543  12.016  1.00  0.00     0.029 A 
ATOM     46  C   UNL     1      -0.025  -0.080  13.273  1.00  0.00     0.049 A 
ATOM     47  H   UNL     1       0.318  -2.041  13.882  1.00  0.00     0.167 HD
ATOM     48  C   UNL     1       1.144  -6.163  15.059  1.00  0.00     0.037 A 
ATOM     49  C   UNL     1      -0.707   0.526  14.265  1.00  0.00     0.037 A 
ATOM     50  C   UNL     1       0.468  -5.583  16.189  1.00  0.00     0.049 A 
ATOM     51  C   UNL     1      -1.054  -0.246  15.510  1.00  0.00     0.074 A 
ATOM     52  C   UNL     1       0.172  -6.167  17.408  1.00  0.00     0.029 A 
ATOM     53  N   UNL     1      -0.020  -4.286  16.236  1.00  0.00    -0.354 N 
ATOM     54  N   UNL     1      -0.757  -1.483  15.824  1.00  0.00    -0.248 NA
ATOM     55  C   UNL     1      -1.833   0.461  16.538  1.00  0.00     0.031 C 
ATOM     56  C   UNL     1      -0.535  -5.238  18.177  1.00  0.00     0.029 A 
ATOM     57  C   UNL     1      -0.638  -4.060  17.455  1.00  0.00     0.049 A 
ATOM     58  H   UNL     1       0.061  -3.625  15.511  1.00  0.00     0.167 HD
ATOM     59  C   UNL     1      -1.292  -1.698  17.087  1.00  0.00     0.074 A 
ATOM     60  C   UNL     1      -1.925  -0.459  17.489  1.00  0.00     0.031 C 
ATOM     61  C   UNL     1      -1.262  -2.821  17.844  1.00  0.00     0.037 A 
BRANCH  48  62
ATOM     62  C   UNL     1       1.578  -7.594  15.165  1.00  0.00     0.064 A 
ATOM     63  C   UNL     1       0.629  -8.626  15.151  1.00  0.00     0.173 A 
ATOM     64  C   UNL     1       2.925  -7.938  15.352  1.00  0.00     0.173 A 
ATOM     65  F   UNL     1      -0.672  -8.347  14.979  1.00  0.00    -0.203 F 
ATOM     66  C   UNL     1       1.011  -9.952  15.334  1.00  0.00     0.198 A 
ATOM     67  C   UNL     1       3.306  -9.268  15.512  1.00  0.00     0.198 A 
ATOM     68  F   UNL     1       3.870  -6.986  15.360  1.00  0.00    -0.203 F 
ATOM     69  F   UNL     1       0.085 -10.920  15.345  1.00  0.00    -0.200 F 
ATOM     70  C   UNL     1       2.349 -10.272  15.512  1.00  0.00     0.200 A 
ATOM     71  F   UNL     1       4.601  -9.578  15.664  1.00  0.00    -0.200 F 
ATOM     72  F   UNL     1       2.716 -11.549  15.683  1.00  0.00    -0.200 F 
ENDBRANCH  48  62
BRANCH  49  73
ATOM     73  C   UNL     1      -1.109   1.948  14.115  1.00  0.00     0.064 A 
ATOM     74  C   UNL     1      -2.100   2.329  13.197  1.00  0.00     0.173 A 
ATOM     75  C   UNL     1      -0.502   2.955  14.876  1.00  0.00     0.173 A 
ATOM     76  F   UNL     1      -2.712   1.401  12.447  1.00  0.00    -0.203 F 
ATOM     77  C   UNL     1      -2.453   3.666  13.033  1.00  0.00     0.198 A 
ATOM     78  C   UNL     1      -0.873   4.290  14.728  1.00  0.00     0.198 A 
ATOM     79  F   UNL     1       0.431   2.637  15.785  1.00  0.00    -0.203 F 
ATOM     80  F   UNL     1      -3.381   4.005  12.128  1.00  0.00    -0.200 F 
ATOM     81  C   UNL     1      -1.841   4.646  13.800  1.00  0.00     0.200 A 
ATOM     82  F   UNL     1      -0.298   5.232  15.489  1.00  0.00    -0.200 F 
ATOM     83  F   UNL     1      -2.189   5.931  13.650  1.00  0.00    -0.200 F 
ENDBRANCH  49  73
BRANCH  61  84
ATOM     84  C   UNL     1      -1.916  -2.775  19.193  1.00  0.00     0.064 A 
ATOM     85  C   UNL     1      -1.139  -2.790  20.361  1.00  0.00     0.173 A 
ATOM     86  C   UNL     1      -3.311  -2.804  19.329  1.00  0.00     0.173 A 
ATOM     87  F   UNL     1       0.200  -2.772  20.283  1.00  0.00    -0.203 F 
ATOM     88  C   UNL     1      -1.736  -2.854  21.617  1.00  0.00     0.198 A 
ATOM     89  C   UNL     1      -3.905  -2.844  20.588  1.00  0.00     0.198 A 
ATOM     90  F   UNL     1      -4.096  -2.780  18.242  1.00  0.00    -0.203 F 
ATOM     91  F   UNL     1      -0.973  -2.904  22.719  1.00  0.00    -0.200 F 
ATOM     92  C   UNL     1      -3.117  -2.879  21.730  1.00  0.00     0.200 A 
ATOM     93  F   UNL     1      -5.240  -2.848  20.697  1.00  0.00    -0.200 F 
ATOM     94  F   UNL     1      -3.691  -2.937  22.940  1.00  0.00    -0.200 F 
ENDBRANCH  61  84
ENDBRANCH  35  36
ENDBRANCH  28  30
ENDBRANCH  27  28
ENDBRANCH  26  27
ENDBRANCH  25  26
ENDBRANCH  24  25
ENDBRANCH   1  24
TORSDOF 17
