REMARK SMILES CCCC[C@@H](Sc1nc(OCCC2CCCCC2)cc(OCCC2CCCCC2)n1)C(=O)OCCOCCOC(=O)c1ccc(-c2c3nc(c(-c4c(F)c(F)c(F)c(F)c4F)c4ccc([nH]4)c(-c4c(F)c(F)c(F)c(F)c4F)c4nc(c(-c5c(F)c(F)c(F)c(F)c5F)c5ccc2[nH]5)C=C4)C=C3)cc1
REMARK SMILES IDX 34 1 33 2 31 3 32 4 5 5 4 6 3 7 2 8 1 9 6 10 7 11 8 12 30 13
REMARK SMILES IDX 9 14 20 15 19 16 10 17 11 18 12 19 13 20 14 21 18 22 15 23
REMARK SMILES IDX 17 24 16 25 21 26 22 27 23 28 24 29 25 30 29 31 26 32 28 33
REMARK SMILES IDX 27 34 35 35 36 36 37 37 38 38 39 39 40 40 41 41 42 42 43 43
REMARK SMILES IDX 104 44 44 45 103 46 45 47 46 48 47 49 97 50 48 51 102 52
REMARK SMILES IDX 96 53 98 54 49 55 101 56 95 57 94 58 50 60 82 61 62 62 81 63
REMARK SMILES IDX 63 64 66 65 80 66 99 67 64 68 65 69 79 71 100 72 67 73 51 74
REMARK SMILES IDX 52 75 60 76 53 77 54 78 58 79 61 80 55 81 56 82 59 83 57 84
REMARK SMILES IDX 83 85 84 86 92 87 85 88 86 89 90 90 93 91 87 92 88 93 91 94
REMARK SMILES IDX 89 95 68 96 69 97 77 98 70 99 71 100 75 101 78 102 72 103
REMARK SMILES IDX 73 104 76 105 74 106
REMARK H PARENT 98 59 66 70
REMARK Flexibility Score: inf
ROOT
ATOM      1  C   UNL     1      -2.489   0.646   5.675  1.00  0.00     0.261 C 
ENDROOT
BRANCH   1   2
ATOM      2  O   UNL     1      -1.522  -0.197   5.024  1.00  0.00    -0.462 OA
BRANCH   2   3
ATOM      3  C   UNL     1      -1.914  -0.757   3.844  1.00  0.00     0.319 C 
ATOM      4  O   UNL     1      -3.010  -0.592   3.320  1.00  0.00    -0.251 OA
BRANCH   3   5
ATOM      5  C   UNL     1      -0.824  -1.621   3.226  1.00  0.00     0.164 C 
BRANCH   5   6
ATOM      6  C   UNL     1       0.568  -0.946   3.284  1.00  0.00     0.027 C 
BRANCH   6   7
ATOM      7  C   UNL     1       1.535  -1.127   2.098  1.00  0.00     0.001 C 
BRANCH   7   8
ATOM      8  C   UNL     1       1.013  -0.732   0.709  1.00  0.00    -0.003 C 
ATOM      9  C   UNL     1       1.063   0.764   0.444  1.00  0.00     0.004 C 
ENDBRANCH   7   8
ENDBRANCH   6   7
ENDBRANCH   5   6
BRANCH   5  10
ATOM     10  S   UNL     1      -0.928  -3.267   4.062  1.00  0.00    -0.071 SA
BRANCH  10  11
ATOM     11  C   UNL     1      -0.735  -4.233   2.598  1.00  0.00     0.195 A 
ATOM     12  N   UNL     1       0.328  -3.892   1.871  1.00  0.00    -0.187 NA
ATOM     13  N   UNL     1      -1.714  -5.046   2.196  1.00  0.00    -0.187 NA
ATOM     14  C   UNL     1       0.368  -4.269   0.600  1.00  0.00     0.221 A 
ATOM     15  C   UNL     1      -1.601  -5.486   0.937  1.00  0.00     0.221 A 
ATOM     16  C   UNL     1      -0.615  -5.054   0.076  1.00  0.00     0.136 A 
BRANCH  14  17
ATOM     17  O   UNL     1       1.476  -3.790  -0.023  1.00  0.00    -0.477 OA
BRANCH  17  18
ATOM     18  C   UNL     1       1.760  -4.080  -1.382  1.00  0.00     0.231 C 
BRANCH  18  19
ATOM     19  C   UNL     1       2.659  -5.313  -1.594  1.00  0.00     0.045 C 
BRANCH  19  20
ATOM     20  C   UNL     1       2.337  -6.491  -0.670  1.00  0.00    -0.008 C 
ATOM     21  C   UNL     1       2.749  -7.858  -1.222  1.00  0.00     0.004 C 
ATOM     22  C   UNL     1       2.960  -6.332   0.728  1.00  0.00     0.004 C 
ATOM     23  C   UNL     1       2.193  -8.959  -0.309  1.00  0.00     0.000 C 
ATOM     24  C   UNL     1       2.335  -7.351   1.670  1.00  0.00     0.000 C 
ATOM     25  C   UNL     1       2.573  -8.771   1.164  1.00  0.00     0.000 C 
ENDBRANCH  19  20
ENDBRANCH  18  19
ENDBRANCH  17  18
ENDBRANCH  14  17
BRANCH  15  26
ATOM     26  O   UNL     1      -2.623  -6.295   0.500  1.00  0.00    -0.477 OA
BRANCH  26  27
ATOM     27  C   UNL     1      -2.198  -7.515  -0.114  1.00  0.00     0.231 C 
BRANCH  27  28
ATOM     28  C   UNL     1      -2.950  -7.799  -1.431  1.00  0.00     0.045 C 
BRANCH  28  29
ATOM     29  C   UNL     1      -2.774  -6.808  -2.614  1.00  0.00    -0.008 C 
ATOM     30  C   UNL     1      -3.500  -5.477  -2.360  1.00  0.00     0.004 C 
ATOM     31  C   UNL     1      -1.311  -6.706  -3.086  1.00  0.00     0.004 C 
ATOM     32  C   UNL     1      -3.148  -4.389  -3.361  1.00  0.00     0.000 C 
ATOM     33  C   UNL     1      -0.932  -5.434  -3.847  1.00  0.00     0.000 C 
ATOM     34  C   UNL     1      -1.648  -4.170  -3.386  1.00  0.00     0.000 C 
ENDBRANCH  28  29
ENDBRANCH  27  28
ENDBRANCH  26  27
ENDBRANCH  15  26
ENDBRANCH  10  11
ENDBRANCH   5  10
ENDBRANCH   3   5
ENDBRANCH   2   3
ENDBRANCH   1   2
BRANCH   1  35
ATOM     35  C   UNL     1      -1.936   2.054   5.908  1.00  0.00     0.202 C 
BRANCH  35  36
ATOM     36  O   UNL     1      -1.837   2.903   4.765  1.00  0.00    -0.374 OA
BRANCH  36  37
ATOM     37  C   UNL     1      -0.876   2.570   3.767  1.00  0.00     0.202 C 
BRANCH  37  38
ATOM     38  C   UNL     1       0.598   2.800   4.136  1.00  0.00     0.261 C 
BRANCH  38  39
ATOM     39  O   UNL     1       1.036   1.976   5.236  1.00  0.00    -0.460 OA
BRANCH  39  40
ATOM     40  C   UNL     1       1.522   2.659   6.294  1.00  0.00     0.338 C 
ATOM     41  O   UNL     1       1.703   3.875   6.377  1.00  0.00    -0.246 OA
BRANCH  40  42
ATOM     42  C   UNL     1       1.690   1.787   7.464  1.00  0.00     0.060 A 
ATOM     43  C   UNL     1       0.910   2.068   8.592  1.00  0.00     0.016 A 
ATOM     44  C   UNL     1       2.705   0.829   7.525  1.00  0.00     0.016 A 
ATOM     45  C   UNL     1       1.182   1.438   9.803  1.00  0.00     0.010 A 
ATOM     46  C   UNL     1       2.980   0.199   8.747  1.00  0.00     0.010 A 
ATOM     47  C   UNL     1       2.251   0.536   9.902  1.00  0.00    -0.014 A 
BRANCH  47  48
ATOM     48  C   UNL     1       2.682   0.088  11.251  1.00  0.00     0.031 A 
ATOM     49  C   UNL     1       3.850   0.769  11.915  1.00  0.00     0.074 A 
ATOM     50  C   UNL     1       1.988  -0.852  11.916  1.00  0.00     0.049 A 
ATOM     51  N   UNL     1       4.352   0.584  13.111  1.00  0.00    -0.248 NA
ATOM     52  C   UNL     1       4.542   1.801  11.127  1.00  0.00     0.031 C 
ATOM     53  C   UNL     1       0.818  -1.557  11.400  1.00  0.00     0.029 A 
ATOM     54  N   UNL     1       2.163  -1.364  13.178  1.00  0.00    -0.354 N 
ATOM     55  C   UNL     1       5.412   1.475  13.219  1.00  0.00     0.074 A 
ATOM     56  C   UNL     1       5.507   2.175  11.956  1.00  0.00     0.031 C 
ATOM     57  C   UNL     1       0.374  -2.410  12.339  1.00  0.00     0.029 A 
ATOM     58  C   UNL     1       1.242  -2.326  13.513  1.00  0.00     0.049 A 
ATOM     59  H   UNL     1       2.880  -1.069  13.785  1.00  0.00     0.167 HD
ATOM     60  C   UNL     1       6.226   1.700  14.279  1.00  0.00     0.037 A 
ATOM     61  C   UNL     1       1.119  -3.059  14.636  1.00  0.00     0.037 A 
ATOM     62  C   UNL     1       6.133   1.008  15.538  1.00  0.00     0.049 A 
ATOM     63  C   UNL     1       2.074  -2.831  15.779  1.00  0.00     0.074 A 
ATOM     64  C   UNL     1       6.902   1.177  16.676  1.00  0.00     0.029 A 
ATOM     65  N   UNL     1       5.214   0.008  15.823  1.00  0.00    -0.354 N 
ATOM     66  N   UNL     1       3.055  -1.967  15.882  1.00  0.00    -0.248 NA
ATOM     67  C   UNL     1       1.896  -3.677  16.968  1.00  0.00     0.031 C 
ATOM     68  C   UNL     1       6.481   0.246  17.633  1.00  0.00     0.029 A 
ATOM     69  C   UNL     1       5.414  -0.466  17.110  1.00  0.00     0.049 A 
ATOM     70  H   UNL     1       4.522  -0.317  15.202  1.00  0.00     0.167 HD
ATOM     71  C   UNL     1       3.592  -2.146  17.150  1.00  0.00     0.074 A 
ATOM     72  C   UNL     1       2.816  -3.189  17.788  1.00  0.00     0.031 C 
ATOM     73  C   UNL     1       4.633  -1.503  17.735  1.00  0.00     0.037 A 
BRANCH  60  74
ATOM     74  C   UNL     1       7.308   2.728  14.116  1.00  0.00     0.064 A 
ATOM     75  C   UNL     1       7.019   4.100  14.064  1.00  0.00     0.173 A 
ATOM     76  C   UNL     1       8.654   2.338  14.048  1.00  0.00     0.173 A 
ATOM     77  F   UNL     1       5.748   4.525  14.113  1.00  0.00    -0.203 F 
ATOM     78  C   UNL     1       8.037   5.041  13.925  1.00  0.00     0.198 A 
ATOM     79  C   UNL     1       9.670   3.283  13.937  1.00  0.00     0.198 A 
ATOM     80  F   UNL     1       8.985   1.039  14.099  1.00  0.00    -0.203 F 
ATOM     81  F   UNL     1       7.735   6.344  13.835  1.00  0.00    -0.200 F 
ATOM     82  C   UNL     1       9.361   4.633  13.869  1.00  0.00     0.200 A 
ATOM     83  F   UNL     1      10.950   2.887  13.895  1.00  0.00    -0.200 F 
ATOM     84  F   UNL     1      10.339   5.540  13.743  1.00  0.00    -0.200 F 
ENDBRANCH  60  74
BRANCH  61  85
ATOM     85  C   UNL     1       0.047  -4.083  14.738  1.00  0.00     0.064 A 
ATOM     86  C   UNL     1      -1.027  -3.924  15.624  1.00  0.00     0.173 A 
ATOM     87  C   UNL     1       0.088  -5.253  13.965  1.00  0.00     0.173 A 
ATOM     88  F   UNL     1      -1.095  -2.836  16.405  1.00  0.00    -0.203 F 
ATOM     89  C   UNL     1      -2.011  -4.903  15.744  1.00  0.00     0.198 A 
ATOM     90  C   UNL     1      -0.911  -6.218  14.065  1.00  0.00     0.198 A 
ATOM     91  F   UNL     1       1.098  -5.455  13.106  1.00  0.00    -0.203 F 
ATOM     92  F   UNL     1      -3.002  -4.748  16.633  1.00  0.00    -0.200 F 
ATOM     93  C   UNL     1      -1.956  -6.046  14.961  1.00  0.00     0.200 A 
ATOM     94  F   UNL     1      -0.858  -7.316  13.300  1.00  0.00    -0.200 F 
ATOM     95  F   UNL     1      -2.903  -6.987  15.077  1.00  0.00    -0.200 F 
ENDBRANCH  61  85
BRANCH  73  96
ATOM     96  C   UNL     1       4.975  -1.888  19.146  1.00  0.00     0.064 A 
ATOM     97  C   UNL     1       5.566  -3.122  19.451  1.00  0.00     0.173 A 
ATOM     98  C   UNL     1       4.730  -0.998  20.204  1.00  0.00     0.173 A 
ATOM     99  F   UNL     1       5.809  -4.014  18.478  1.00  0.00    -0.203 F 
ATOM    100  C   UNL     1       5.870  -3.465  20.767  1.00  0.00     0.198 A 
ATOM    101  C   UNL     1       5.063  -1.332  21.514  1.00  0.00     0.198 A 
ATOM    102  F   UNL     1       4.173   0.199  19.966  1.00  0.00    -0.203 F 
ATOM    103  F   UNL     1       6.386  -4.672  21.041  1.00  0.00    -0.200 F 
ATOM    104  C   UNL     1       5.624  -2.568  21.795  1.00  0.00     0.200 A 
ATOM    105  F   UNL     1       4.837  -0.458  22.505  1.00  0.00    -0.200 F 
ATOM    106  F   UNL     1       5.919  -2.899  23.060  1.00  0.00    -0.200 F 
ENDBRANCH  73  96
ENDBRANCH  47  48
ENDBRANCH  40  42
ENDBRANCH  39  40
ENDBRANCH  38  39
ENDBRANCH  37  38
ENDBRANCH  36  37
ENDBRANCH  35  36
ENDBRANCH   1  35
TORSDOF 27
