REMARK SMILES C=CCN(CC(=O)OCCOCCOC(=O)c1ccc(-c2c3nc(c(-c4c(F)c(F)c(F)c(F)c4F)c4ccc([nH]4)c(-c4c(F)c(F)c(F)c(F)c4F)c4nc(c(-c5c(F)c(F)c(F)c(F)c5F)c5ccc2[nH]5)C=C4)C=C3)cc1)S(=O)(=O)c1ccccc1OC
REMARK SMILES IDX 10 1 9 2 8 3 6 4 7 5 5 6 4 7 3 8 2 9 1 10 80 11 81 12 82 13
REMARK SMILES IDX 83 14 84 15 88 16 85 17 87 18 86 19 89 20 90 21 11 22 12 23
REMARK SMILES IDX 13 24 14 25 15 26 16 27 17 28 18 29 79 30 19 31 78 32 20 33
REMARK SMILES IDX 21 34 22 35 72 36 23 37 77 38 71 39 73 40 24 41 76 42 70 43
REMARK SMILES IDX 69 44 25 46 57 47 37 48 56 49 38 50 41 51 55 52 74 53 39 54
REMARK SMILES IDX 40 55 54 57 75 58 42 59 26 60 27 61 35 62 28 63 29 64 33 65
REMARK SMILES IDX 36 66 30 67 31 68 34 69 32 70 58 71 59 72 67 73 60 74 61 75
REMARK SMILES IDX 65 76 68 77 62 78 63 79 66 80 64 81 43 82 44 83 52 84 45 85
REMARK SMILES IDX 46 86 50 87 53 88 47 89 48 90 51 91 49 92
REMARK H PARENT 73 45 41 56
REMARK Flexibility Score: inf
ROOT
ATOM      1  C   UNL     1      -4.623  -2.272  -0.460  1.00  0.00     0.202 C 
ENDROOT
BRANCH   1   2
ATOM      2  C   UNL     1      -4.830  -0.769  -0.245  1.00  0.00     0.261 C 
BRANCH   2   3
ATOM      3  O   UNL     1      -3.713  -0.209   0.471  1.00  0.00    -0.462 OA
BRANCH   3   4
ATOM      4  C   UNL     1      -3.988   0.895   1.216  1.00  0.00     0.321 C 
ATOM      5  O   UNL     1      -5.032   1.533   1.141  1.00  0.00    -0.251 OA
BRANCH   4   6
ATOM      6  C   UNL     1      -2.925   1.179   2.261  1.00  0.00     0.225 C 
BRANCH   6   7
ATOM      7  N   UNL     1      -1.543   0.631   2.063  1.00  0.00    -0.183 NA
BRANCH   7   8
ATOM      8  C   UNL     1      -1.020   1.067   0.718  1.00  0.00     0.130 C 
BRANCH   8   9
ATOM      9  C   UNL     1       0.451   1.323   0.628  1.00  0.00    -0.018 C 
ATOM     10  C   UNL     1       1.324   0.542  -0.019  1.00  0.00     0.005 C 
ENDBRANCH   8   9
ENDBRANCH   7   8
BRANCH   7  11
ATOM     11  S   UNL     1      -0.484   0.858   3.404  1.00  0.00     0.247 S 
ATOM     12  O   UNL     1       0.654  -0.019   3.241  1.00  0.00    -0.207 OA
ATOM     13  O   UNL     1      -0.287   2.293   3.517  1.00  0.00    -0.207 OA
BRANCH  11  14
ATOM     14  C   UNL     1      -1.392   0.368   4.863  1.00  0.00     0.124 A 
ATOM     15  C   UNL     1      -2.136   1.370   5.515  1.00  0.00     0.026 A 
ATOM     16  C   UNL     1      -1.296  -0.908   5.429  1.00  0.00     0.138 A 
ATOM     17  C   UNL     1      -2.804   1.097   6.705  1.00  0.00     0.002 A 
ATOM     18  C   UNL     1      -1.942  -1.158   6.650  1.00  0.00     0.048 A 
ATOM     19  C   UNL     1      -2.701  -0.165   7.277  1.00  0.00     0.004 A 
BRANCH  16  20
ATOM     20  O   UNL     1      -0.520  -1.857   4.831  1.00  0.00    -0.495 OA
ATOM     21  C   UNL     1      -1.059  -3.175   4.831  1.00  0.00     0.278 C 
ENDBRANCH  16  20
ENDBRANCH  11  14
ENDBRANCH   7  11
ENDBRANCH   6   7
ENDBRANCH   4   6
ENDBRANCH   3   4
ENDBRANCH   2   3
ENDBRANCH   1   2
BRANCH   1  22
ATOM     22  O   UNL     1      -4.684  -3.093   0.713  1.00  0.00    -0.374 OA
BRANCH  22  23
ATOM     23  C   UNL     1      -3.826  -2.755   1.799  1.00  0.00     0.202 C 
BRANCH  23  24
ATOM     24  C   UNL     1      -2.327  -3.027   1.618  1.00  0.00     0.261 C 
BRANCH  24  25
ATOM     25  O   UNL     1      -1.850  -2.800   0.290  1.00  0.00    -0.460 OA
BRANCH  25  26
ATOM     26  C   UNL     1      -1.099  -3.799  -0.220  1.00  0.00     0.338 C 
ATOM     27  O   UNL     1      -0.729  -4.829   0.321  1.00  0.00    -0.246 OA
BRANCH  26  28
ATOM     28  C   UNL     1      -0.790  -3.474  -1.614  1.00  0.00     0.060 A 
ATOM     29  C   UNL     1      -1.623  -3.950  -2.629  1.00  0.00     0.016 A 
ATOM     30  C   UNL     1       0.378  -2.773  -1.909  1.00  0.00     0.016 A 
ATOM     31  C   UNL     1      -1.262  -3.743  -3.959  1.00  0.00     0.010 A 
ATOM     32  C   UNL     1       0.713  -2.525  -3.239  1.00  0.00     0.010 A 
ATOM     33  C   UNL     1      -0.083  -3.046  -4.272  1.00  0.00    -0.014 A 
BRANCH  33  34
ATOM     34  C   UNL     1       0.389  -2.981  -5.676  1.00  0.00     0.031 A 
ATOM     35  C   UNL     1       1.545  -3.844  -6.101  1.00  0.00     0.074 A 
ATOM     36  C   UNL     1      -0.222  -2.173  -6.561  1.00  0.00     0.049 A 
ATOM     37  N   UNL     1       2.116  -3.950  -7.274  1.00  0.00    -0.248 NA
ATOM     38  C   UNL     1       2.146  -4.696  -5.062  1.00  0.00     0.031 C 
ATOM     39  C   UNL     1      -1.348  -1.291  -6.259  1.00  0.00     0.029 A 
ATOM     40  N   UNL     1       0.020  -1.967  -7.895  1.00  0.00    -0.354 N 
ATOM     41  C   UNL     1       3.143  -4.870  -7.111  1.00  0.00     0.074 A 
ATOM     42  C   UNL     1       3.146  -5.263  -5.719  1.00  0.00     0.031 C 
ATOM     43  C   UNL     1      -1.711  -0.648  -7.381  1.00  0.00     0.029 A 
ATOM     44  C   UNL     1      -0.828  -1.055  -8.472  1.00  0.00     0.049 A 
ATOM     45  H   UNL     1       0.734  -2.429  -8.392  1.00  0.00     0.167 HD
ATOM     46  C   UNL     1       3.995  -5.359  -8.043  1.00  0.00     0.037 A 
ATOM     47  C   UNL     1      -0.882  -0.603  -9.740  1.00  0.00     0.037 A 
ATOM     48  C   UNL     1       3.979  -4.976  -9.429  1.00  0.00     0.049 A 
ATOM     49  C   UNL     1       0.087  -1.149 -10.754  1.00  0.00     0.074 A 
ATOM     50  C   UNL     1       4.782  -5.427 -10.461  1.00  0.00     0.029 A 
ATOM     51  N   UNL     1       3.107  -4.046  -9.975  1.00  0.00    -0.354 N 
ATOM     52  N   UNL     1       1.029  -2.047 -10.598  1.00  0.00    -0.248 NA
ATOM     53  C   UNL     1      -0.019  -0.623 -12.122  1.00  0.00     0.031 C 
ATOM     54  C   UNL     1       4.418  -4.744 -11.627  1.00  0.00     0.029 A 
ATOM     55  C   UNL     1       3.362  -3.897 -11.328  1.00  0.00     0.049 A 
ATOM     56  H   UNL     1       2.410  -3.562  -9.475  1.00  0.00     0.167 HD
ATOM     57  C   UNL     1       1.613  -2.210 -11.846  1.00  0.00     0.074 A 
ATOM     58  C   UNL     1       0.909  -1.328 -12.755  1.00  0.00     0.031 C 
ATOM     59  C   UNL     1       2.641  -3.016 -12.210  1.00  0.00     0.037 A 
BRANCH  46  60
ATOM     60  C   UNL     1       5.019  -6.355  -7.584  1.00  0.00     0.064 A 
ATOM     61  C   UNL     1       4.662  -7.666  -7.234  1.00  0.00     0.173 A 
ATOM     62  C   UNL     1       6.373  -6.000  -7.504  1.00  0.00     0.173 A 
ATOM     63  F   UNL     1       3.377  -8.051  -7.279  1.00  0.00    -0.203 F 
ATOM     64  C   UNL     1       5.620  -8.576  -6.793  1.00  0.00     0.198 A 
ATOM     65  C   UNL     1       7.332  -6.920  -7.087  1.00  0.00     0.198 A 
ATOM     66  F   UNL     1       6.768  -4.760  -7.830  1.00  0.00    -0.203 F 
ATOM     67  F   UNL     1       5.248  -9.808  -6.418  1.00  0.00    -0.200 F 
ATOM     68  C   UNL     1       6.954  -8.204  -6.724  1.00  0.00     0.200 A 
ATOM     69  F   UNL     1       8.622  -6.562  -7.029  1.00  0.00    -0.200 F 
ATOM     70  F   UNL     1       7.874  -9.081  -6.300  1.00  0.00    -0.200 F 
ENDBRANCH  46  60
BRANCH  47  71
ATOM     71  C   UNL     1      -1.906   0.402 -10.123  1.00  0.00     0.064 A 
ATOM     72  C   UNL     1      -2.986   0.053 -10.946  1.00  0.00     0.173 A 
ATOM     73  C   UNL     1      -1.831   1.728  -9.671  1.00  0.00     0.173 A 
ATOM     74  F   UNL     1      -3.089  -1.197 -11.420  1.00  0.00    -0.203 F 
ATOM     75  C   UNL     1      -3.946   0.995 -11.311  1.00  0.00     0.198 A 
ATOM     76  C   UNL     1      -2.805   2.662 -10.018  1.00  0.00     0.198 A 
ATOM     77  F   UNL     1      -0.818   2.111  -8.881  1.00  0.00    -0.203 F 
ATOM     78  F   UNL     1      -4.950   0.643 -12.126  1.00  0.00    -0.200 F 
ATOM     79  C   UNL     1      -3.858   2.297 -10.841  1.00  0.00     0.200 A 
ATOM     80  F   UNL     1      -2.723   3.916  -9.552  1.00  0.00    -0.200 F 
ATOM     81  F   UNL     1      -4.786   3.200 -11.186  1.00  0.00    -0.200 F 
ENDBRANCH  47  71
BRANCH  59  82
ATOM     82  C   UNL     1       3.047  -2.997 -13.653  1.00  0.00     0.064 A 
ATOM     83  C   UNL     1       3.769  -1.925 -14.195  1.00  0.00     0.173 A 
ATOM     84  C   UNL     1       2.748  -4.084 -14.489  1.00  0.00     0.173 A 
ATOM     85  F   UNL     1       4.065  -0.858 -13.438  1.00  0.00    -0.203 F 
ATOM     86  C   UNL     1       4.162  -1.933 -15.531  1.00  0.00     0.198 A 
ATOM     87  C   UNL     1       3.163  -4.098 -15.817  1.00  0.00     0.198 A 
ATOM     88  F   UNL     1       2.064  -5.135 -14.013  1.00  0.00    -0.203 F 
ATOM     89  F   UNL     1       4.818  -0.881 -16.040  1.00  0.00    -0.200 F 
ATOM     90  C   UNL     1       3.865  -3.021 -16.338  1.00  0.00     0.200 A 
ATOM     91  F   UNL     1       2.883  -5.154 -16.593  1.00  0.00    -0.200 F 
ATOM     92  F   UNL     1       4.248  -3.029 -17.622  1.00  0.00    -0.200 F 
ENDBRANCH  59  82
ENDBRANCH  33  34
ENDBRANCH  26  28
ENDBRANCH  25  26
ENDBRANCH  24  25
ENDBRANCH  23  24
ENDBRANCH  22  23
ENDBRANCH   1  22
TORSDOF 20
