REMARK SMILES CCCCSc1ccccc1C(=O)OCCOCCOC(=O)c1ccc(-c2c3nc(c(-c4c(F)c(F)c(F)c(F)c4F)c4ccc([nH]4)c(-c4c(F)c(F)c(F)c(F)c4F)c4nc(c(-c5c(F)c(F)c(F)c(F)c5F)c5ccc2[nH]5)C=C4)C=C3)cc1
REMARK SMILES IDX 16 1 15 2 14 3 12 4 13 5 11 6 6 7 7 8 8 9 10 10 9 11 5 12
REMARK SMILES IDX 4 13 3 14 2 15 1 16 17 17 18 18 19 19 20 20 21 21 22 22
REMARK SMILES IDX 23 23 24 24 85 25 25 26 84 27 26 28 27 29 28 30 78 31 29 32
REMARK SMILES IDX 83 33 77 34 79 35 30 36 82 37 76 38 75 39 31 41 63 42 43 43
REMARK SMILES IDX 62 44 44 45 47 46 61 47 80 48 45 49 46 50 60 52 81 53 48 54
REMARK SMILES IDX 32 55 33 56 41 57 34 58 35 59 39 60 42 61 36 62 37 63 40 64
REMARK SMILES IDX 38 65 64 66 65 67 73 68 66 69 67 70 71 71 74 72 68 73 69 74
REMARK SMILES IDX 72 75 70 76 49 77 50 78 58 79 51 80 52 81 56 82 59 83 53 84
REMARK SMILES IDX 54 85 57 86 55 87
REMARK H PARENT 79 40 47 51
REMARK Flexibility Score: inf
ROOT
ATOM      1  C   UNL     1       0.895  -1.599   4.927  1.00  0.00     0.202 C 
ENDROOT
BRANCH   1   2
ATOM      2  C   UNL     1       1.195  -1.143   3.499  1.00  0.00     0.261 C 
BRANCH   2   3
ATOM      3  O   UNL     1       0.034  -0.630   2.820  1.00  0.00    -0.460 OA
BRANCH   3   4
ATOM      4  C   UNL     1      -0.274  -1.242   1.654  1.00  0.00     0.339 C 
ATOM      5  O   UNL     1       0.271  -2.249   1.220  1.00  0.00    -0.246 OA
BRANCH   4   6
ATOM      6  C   UNL     1      -1.397  -0.607   0.913  1.00  0.00     0.073 A 
ATOM      7  C   UNL     1      -1.676   0.772   0.863  1.00  0.00     0.022 A 
ATOM      8  C   UNL     1      -2.686   1.221  -0.011  1.00  0.00     0.016 A 
ATOM      9  C   UNL     1      -3.394   0.333  -0.825  1.00  0.00     0.001 A 
ATOM     10  C   UNL     1      -2.131  -1.492   0.096  1.00  0.00     0.017 A 
ATOM     11  C   UNL     1      -3.122  -1.027  -0.767  1.00  0.00     0.001 A 
BRANCH   7  12
ATOM     12  S   UNL     1      -0.870   2.039   1.837  1.00  0.00    -0.125 SA
BRANCH  12  13
ATOM     13  C   UNL     1       0.401   2.638   0.662  1.00  0.00     0.075 C 
BRANCH  13  14
ATOM     14  C   UNL     1       1.752   1.943   0.863  1.00  0.00     0.011 C 
BRANCH  14  15
ATOM     15  C   UNL     1       1.938   0.680   0.021  1.00  0.00    -0.003 C 
ATOM     16  C   UNL     1       2.381   0.964  -1.403  1.00  0.00     0.004 C 
ENDBRANCH  14  15
ENDBRANCH  13  14
ENDBRANCH  12  13
ENDBRANCH   7  12
ENDBRANCH   4   6
ENDBRANCH   3   4
ENDBRANCH   2   3
ENDBRANCH   1   2
BRANCH   1  17
ATOM     17  O   UNL     1       0.067  -2.745   5.104  1.00  0.00    -0.374 OA
BRANCH  17  18
ATOM     18  C   UNL     1      -1.247  -2.717   4.558  1.00  0.00     0.202 C 
BRANCH  18  19
ATOM     19  C   UNL     1      -2.283  -1.795   5.216  1.00  0.00     0.261 C 
BRANCH  19  20
ATOM     20  O   UNL     1      -1.844  -0.442   5.420  1.00  0.00    -0.460 OA
BRANCH  20  21
ATOM     21  C   UNL     1      -1.609  -0.126   6.715  1.00  0.00     0.338 C 
ATOM     22  O   UNL     1      -1.745  -0.851   7.694  1.00  0.00    -0.246 OA
BRANCH  21  23
ATOM     23  C   UNL     1      -1.048   1.227   6.850  1.00  0.00     0.060 A 
ATOM     24  C   UNL     1       0.212   1.347   7.450  1.00  0.00     0.016 A 
ATOM     25  C   UNL     1      -1.830   2.358   6.605  1.00  0.00     0.016 A 
ATOM     26  C   UNL     1       0.661   2.592   7.880  1.00  0.00     0.010 A 
ATOM     27  C   UNL     1      -1.381   3.609   7.048  1.00  0.00     0.010 A 
ATOM     28  C   UNL     1      -0.161   3.718   7.739  1.00  0.00    -0.014 A 
BRANCH  28  29
ATOM     29  C   UNL     1       0.178   4.941   8.509  1.00  0.00     0.031 A 
ATOM     30  C   UNL     1      -0.446   5.141   9.865  1.00  0.00     0.074 A 
ATOM     31  C   UNL     1       1.085   5.820   8.051  1.00  0.00     0.049 A 
ATOM     32  N   UNL     1      -0.238   6.087  10.747  1.00  0.00    -0.248 NA
ATOM     33  C   UNL     1      -1.436   4.136  10.285  1.00  0.00     0.031 C 
ATOM     34  C   UNL     1       1.778   5.726   6.770  1.00  0.00     0.029 A 
ATOM     35  N   UNL     1       1.583   6.962   8.626  1.00  0.00    -0.354 N 
ATOM     36  C   UNL     1      -1.065   5.790  11.822  1.00  0.00     0.074 A 
ATOM     37  C   UNL     1      -1.804   4.596  11.472  1.00  0.00     0.031 C 
ATOM     38  C   UNL     1       2.616   6.771   6.653  1.00  0.00     0.029 A 
ATOM     39  C   UNL     1       2.509   7.609   7.847  1.00  0.00     0.049 A 
ATOM     40  H   UNL     1       1.304   7.286   9.512  1.00  0.00     0.167 HD
ATOM     41  C   UNL     1      -1.190   6.444  13.002  1.00  0.00     0.037 A 
ATOM     42  C   UNL     1       3.191   8.747   8.075  1.00  0.00     0.037 A 
ATOM     43  C   UNL     1      -0.458   7.630  13.358  1.00  0.00     0.049 A 
ATOM     44  C   UNL     1       3.013   9.474   9.381  1.00  0.00     0.074 A 
ATOM     45  C   UNL     1      -0.506   8.356  14.535  1.00  0.00     0.029 A 
ATOM     46  N   UNL     1       0.454   8.268  12.531  1.00  0.00    -0.354 N 
ATOM     47  N   UNL     1       2.256   9.166  10.406  1.00  0.00    -0.248 NA
ATOM     48  C   UNL     1       3.799  10.703   9.567  1.00  0.00     0.031 C 
ATOM     49  C   UNL     1       0.352   9.454  14.407  1.00  0.00     0.029 A 
ATOM     50  C   UNL     1       0.964   9.389  13.166  1.00  0.00     0.049 A 
ATOM     51  H   UNL     1       0.704   7.968  11.627  1.00  0.00     0.167 HD
ATOM     52  C   UNL     1       2.489  10.144  11.363  1.00  0.00     0.074 A 
ATOM     53  C   UNL     1       3.470  11.050  10.803  1.00  0.00     0.031 C 
ATOM     54  C   UNL     1       1.941  10.280  12.596  1.00  0.00     0.037 A 
BRANCH  41  55
ATOM     55  C   UNL     1      -2.176   5.894  13.989  1.00  0.00     0.064 A 
ATOM     56  C   UNL     1      -1.916   4.720  14.711  1.00  0.00     0.173 A 
ATOM     57  C   UNL     1      -3.389   6.558  14.227  1.00  0.00     0.173 A 
ATOM     58  F   UNL     1      -0.777   4.041  14.507  1.00  0.00    -0.203 F 
ATOM     59  C   UNL     1      -2.845   4.217  15.618  1.00  0.00     0.198 A 
ATOM     60  C   UNL     1      -4.305   6.065  15.152  1.00  0.00     0.198 A 
ATOM     61  F   UNL     1      -3.683   7.686  13.563  1.00  0.00    -0.203 F 
ATOM     62  F   UNL     1      -2.595   3.071  16.266  1.00  0.00    -0.200 F 
ATOM     63  C   UNL     1      -4.036   4.892  15.841  1.00  0.00     0.200 A 
ATOM     64  F   UNL     1      -5.452   6.723  15.372  1.00  0.00    -0.200 F 
ATOM     65  F   UNL     1      -4.929   4.408  16.715  1.00  0.00    -0.200 F 
ENDBRANCH  41  55
BRANCH  42  66
ATOM     66  C   UNL     1       4.121   9.265   7.041  1.00  0.00     0.064 A 
ATOM     67  C   UNL     1       5.509   9.215   7.226  1.00  0.00     0.173 A 
ATOM     68  C   UNL     1       3.638   9.825   5.850  1.00  0.00     0.173 A 
ATOM     69  F   UNL     1       6.016   8.712   8.360  1.00  0.00    -0.203 F 
ATOM     70  C   UNL     1       6.380   9.719   6.261  1.00  0.00     0.198 A 
ATOM     71  C   UNL     1       4.510  10.307   4.877  1.00  0.00     0.198 A 
ATOM     72  F   UNL     1       2.317   9.897   5.630  1.00  0.00    -0.203 F 
ATOM     73  F   UNL     1       7.702   9.694   6.478  1.00  0.00    -0.200 F 
ATOM     74  C   UNL     1       5.880  10.259   5.086  1.00  0.00     0.200 A 
ATOM     75  F   UNL     1       4.023  10.820   3.739  1.00  0.00    -0.200 F 
ATOM     76  F   UNL     1       6.718  10.739   4.157  1.00  0.00    -0.200 F 
ENDBRANCH  42  66
BRANCH  54  77
ATOM     77  C   UNL     1       2.409  11.435  13.432  1.00  0.00     0.064 A 
ATOM     78  C   UNL     1       2.018  12.752  13.149  1.00  0.00     0.173 A 
ATOM     79  C   UNL     1       3.238  11.219  14.543  1.00  0.00     0.173 A 
ATOM     80  F   UNL     1       1.238  13.011  12.089  1.00  0.00    -0.203 F 
ATOM     81  C   UNL     1       2.463  13.813  13.932  1.00  0.00     0.198 A 
ATOM     82  C   UNL     1       3.660  12.280  15.338  1.00  0.00     0.198 A 
ATOM     83  F   UNL     1       3.635   9.977  14.859  1.00  0.00    -0.203 F 
ATOM     84  F   UNL     1       2.115  15.069  13.616  1.00  0.00    -0.200 F 
ATOM     85  C   UNL     1       3.279  13.577  15.028  1.00  0.00     0.200 A 
ATOM     86  F   UNL     1       4.442  12.049  16.403  1.00  0.00    -0.200 F 
ATOM     87  F   UNL     1       3.706  14.600  15.780  1.00  0.00    -0.200 F 
ENDBRANCH  54  77
ENDBRANCH  28  29
ENDBRANCH  21  23
ENDBRANCH  20  21
ENDBRANCH  19  20
ENDBRANCH  18  19
ENDBRANCH  17  18
ENDBRANCH   1  17
TORSDOF 18
