REMARK SMILES O=C(OCCOCCOC(=O)[C@@H]1CCCCN1c1ccccc1[N+](=O)[O-])c1ccc(-c2c3nc(c(-c4c(F)c(F)c(F)c(F)c4F)c4ccc([nH]4)c(-c4c(F)c(F)c(F)c(F)c4F)c4nc(c(-c5c(F)c(F)c(F)c(F)c5F)c5ccc2[nH]5)C=C4)C=C3)cc1
REMARK SMILES IDX 6 1 5 2 4 3 3 4 2 5 1 6 27 7 28 8 89 9 29 10 88 11 30 12
REMARK SMILES IDX 31 13 32 14 82 15 33 16 87 17 81 18 83 19 34 20 86 21 80 22
REMARK SMILES IDX 79 23 35 25 67 26 47 27 66 28 48 29 51 30 65 31 84 32 49 33
REMARK SMILES IDX 50 34 64 36 85 37 52 38 36 39 37 40 45 41 38 42 39 43 43 44
REMARK SMILES IDX 46 45 40 46 41 47 44 48 42 49 68 50 69 51 77 52 70 53 71 54
REMARK SMILES IDX 75 55 78 56 72 57 73 58 76 59 74 60 53 61 54 62 62 63 55 64
REMARK SMILES IDX 56 65 60 66 63 67 57 68 58 69 61 70 59 71 7 72 8 73 9 74
REMARK SMILES IDX 10 75 11 76 12 77 13 78 17 79 14 80 16 81 15 82 18 83 19 84
REMARK SMILES IDX 23 85 20 86 22 87 21 88 24 89 25 90 26 91
REMARK H PARENT 83 24 51 35
REMARK Flexibility Score: inf
ROOT
ATOM      1  O   UNL     1       4.162  -1.159   1.672  1.00  0.00    -0.374 OA
ENDROOT
BRANCH   1   2
ATOM      2  C   UNL     1       4.836  -0.006   1.153  1.00  0.00     0.202 C 
BRANCH   2   3
ATOM      3  C   UNL     1       4.564   0.416  -0.308  1.00  0.00     0.261 C 
BRANCH   3   4
ATOM      4  O   UNL     1       3.150   0.588  -0.594  1.00  0.00    -0.460 OA
BRANCH   4   5
ATOM      5  C   UNL     1       2.325  -0.201  -1.333  1.00  0.00     0.338 C 
ATOM      6  O   UNL     1       1.169   0.131  -1.573  1.00  0.00    -0.246 OA
BRANCH   5   7
ATOM      7  C   UNL     1       2.849  -1.471  -1.868  1.00  0.00     0.060 A 
ATOM      8  C   UNL     1       3.761  -2.188  -1.122  1.00  0.00     0.016 A 
ATOM      9  C   UNL     1       2.458  -1.977  -3.107  1.00  0.00     0.016 A 
ATOM     10  C   UNL     1       4.500  -3.196  -1.645  1.00  0.00     0.010 A 
ATOM     11  C   UNL     1       3.058  -3.150  -3.582  1.00  0.00     0.010 A 
ATOM     12  C   UNL     1       4.096  -3.739  -2.846  1.00  0.00    -0.014 A 
BRANCH  12  13
ATOM     13  C   UNL     1       4.874  -4.910  -3.236  1.00  0.00     0.031 A 
ATOM     14  C   UNL     1       5.860  -4.748  -4.335  1.00  0.00     0.074 A 
ATOM     15  C   UNL     1       4.860  -5.967  -2.397  1.00  0.00     0.049 A 
ATOM     16  N   UNL     1       6.618  -5.649  -4.885  1.00  0.00    -0.248 NA
ATOM     17  C   UNL     1       6.032  -3.390  -4.886  1.00  0.00     0.031 C 
ATOM     18  C   UNL     1       4.061  -6.055  -1.161  1.00  0.00     0.029 A 
ATOM     19  N   UNL     1       5.590  -7.118  -2.389  1.00  0.00    -0.354 N 
ATOM     20  C   UNL     1       7.290  -4.991  -5.902  1.00  0.00     0.074 A 
ATOM     21  C   UNL     1       6.901  -3.602  -5.863  1.00  0.00     0.031 C 
ATOM     22  C   UNL     1       4.398  -7.163  -0.490  1.00  0.00     0.029 A 
ATOM     23  C   UNL     1       5.304  -7.935  -1.321  1.00  0.00     0.049 A 
ATOM     24  H   UNL     1       6.255  -7.342  -3.079  1.00  0.00     0.167 HD
ATOM     25  C   UNL     1       8.119  -5.553  -6.806  1.00  0.00     0.037 A 
ATOM     26  C   UNL     1       5.672  -9.209  -1.105  1.00  0.00     0.037 A 
ATOM     27  C   UNL     1       8.472  -6.944  -6.751  1.00  0.00     0.049 A 
ATOM     28  C   UNL     1       6.522  -9.831  -2.175  1.00  0.00     0.074 A 
ATOM     29  C   UNL     1       9.227  -7.688  -7.632  1.00  0.00     0.029 A 
ATOM     30  N   UNL     1       8.083  -7.801  -5.723  1.00  0.00    -0.354 N 
ATOM     31  N   UNL     1       7.051  -9.264  -3.236  1.00  0.00    -0.248 NA
ATOM     32  C   UNL     1       6.787 -11.265  -2.059  1.00  0.00     0.031 C 
ATOM     33  C   UNL     1       9.254  -9.006  -7.162  1.00  0.00     0.029 A 
ATOM     34  C   UNL     1       8.559  -9.075  -5.961  1.00  0.00     0.049 A 
ATOM     35  H   UNL     1       7.546  -7.537  -4.941  1.00  0.00     0.167 HD
ATOM     36  C   UNL     1       7.700 -10.271  -3.926  1.00  0.00     0.074 A 
ATOM     37  C   UNL     1       7.535 -11.477  -3.132  1.00  0.00     0.031 C 
ATOM     38  C   UNL     1       8.353 -10.224  -5.114  1.00  0.00     0.037 A 
BRANCH  25  39
ATOM     39  C   UNL     1       8.559  -4.704  -7.956  1.00  0.00     0.064 A 
ATOM     40  C   UNL     1       9.507  -3.680  -7.825  1.00  0.00     0.173 A 
ATOM     41  C   UNL     1       7.978  -4.902  -9.219  1.00  0.00     0.173 A 
ATOM     42  F   UNL     1      10.058  -3.419  -6.630  1.00  0.00    -0.203 F 
ATOM     43  C   UNL     1       9.851  -2.880  -8.914  1.00  0.00     0.198 A 
ATOM     44  C   UNL     1       8.340  -4.116 -10.310  1.00  0.00     0.198 A 
ATOM     45  F   UNL     1       7.045  -5.850  -9.392  1.00  0.00    -0.203 F 
ATOM     46  F   UNL     1      10.724  -1.875  -8.757  1.00  0.00    -0.200 F 
ATOM     47  C   UNL     1       9.273  -3.103 -10.156  1.00  0.00     0.200 A 
ATOM     48  F   UNL     1       7.773  -4.330 -11.505  1.00  0.00    -0.200 F 
ATOM     49  F   UNL     1       9.602  -2.331 -11.200  1.00  0.00    -0.200 F 
ENDBRANCH  25  39
BRANCH  26  50
ATOM     50  C   UNL     1       5.122  -9.982   0.043  1.00  0.00     0.064 A 
ATOM     51  C   UNL     1       5.957 -10.568   1.003  1.00  0.00     0.173 A 
ATOM     52  C   UNL     1       3.736 -10.172   0.197  1.00  0.00     0.173 A 
ATOM     53  F   UNL     1       7.288 -10.438   0.900  1.00  0.00    -0.203 F 
ATOM     54  C   UNL     1       5.434 -11.325   2.052  1.00  0.00     0.198 A 
ATOM     55  C   UNL     1       3.212 -10.893   1.268  1.00  0.00     0.198 A 
ATOM     56  F   UNL     1       2.879  -9.646  -0.691  1.00  0.00    -0.203 F 
ATOM     57  F   UNL     1       6.261 -11.922   2.921  1.00  0.00    -0.200 F 
ATOM     58  C   UNL     1       4.062 -11.481   2.188  1.00  0.00     0.200 A 
ATOM     59  F   UNL     1       1.885 -11.020   1.401  1.00  0.00    -0.200 F 
ATOM     60  F   UNL     1       3.561 -12.209   3.195  1.00  0.00    -0.200 F 
ENDBRANCH  26  50
BRANCH  38  61
ATOM     61  C   UNL     1       8.934 -11.516  -5.587  1.00  0.00     0.064 A 
ATOM     62  C   UNL     1       8.120 -12.530  -6.109  1.00  0.00     0.173 A 
ATOM     63  C   UNL     1      10.320 -11.715  -5.556  1.00  0.00     0.173 A 
ATOM     64  F   UNL     1       6.787 -12.382  -6.133  1.00  0.00    -0.203 F 
ATOM     65  C   UNL     1       8.678 -13.716  -6.569  1.00  0.00     0.198 A 
ATOM     66  C   UNL     1      10.876 -12.889  -6.047  1.00  0.00     0.198 A 
ATOM     67  F   UNL     1      11.130 -10.764  -5.067  1.00  0.00    -0.203 F 
ATOM     68  F   UNL     1       7.884 -14.695  -7.021  1.00  0.00    -0.200 F 
ATOM     69  C   UNL     1      10.055 -13.890  -6.546  1.00  0.00     0.200 A 
ATOM     70  F   UNL     1      12.206 -13.051  -6.038  1.00  0.00    -0.200 F 
ATOM     71  F   UNL     1      10.592 -15.029  -7.002  1.00  0.00    -0.200 F 
ENDBRANCH  38  61
ENDBRANCH  12  13
ENDBRANCH   5   7
ENDBRANCH   4   5
ENDBRANCH   3   4
ENDBRANCH   2   3
ENDBRANCH   1   2
BRANCH   1  72
ATOM     72  C   UNL     1       2.751  -1.056   1.898  1.00  0.00     0.202 C 
BRANCH  72  73
ATOM     73  C   UNL     1       2.423  -1.155   3.381  1.00  0.00     0.261 C 
BRANCH  73  74
ATOM     74  O   UNL     1       2.769   0.094   3.992  1.00  0.00    -0.462 OA
BRANCH  74  75
ATOM     75  C   UNL     1       4.092   0.242   4.251  1.00  0.00     0.328 C 
ATOM     76  O   UNL     1       4.893  -0.687   4.318  1.00  0.00    -0.250 OA
BRANCH  75  77
ATOM     77  C   UNL     1       4.477   1.665   4.600  1.00  0.00     0.192 C 
ATOM     78  C   UNL     1       3.989   1.883   6.036  1.00  0.00     0.037 C 
ATOM     79  N   UNL     1       4.095   2.847   3.753  1.00  0.00    -0.353 N 
ATOM     80  C   UNL     1       4.506   3.200   6.593  1.00  0.00     0.005 C 
ATOM     81  C   UNL     1       4.645   4.115   4.253  1.00  0.00     0.118 C 
ATOM     82  C   UNL     1       4.132   4.354   5.669  1.00  0.00     0.022 C 
BRANCH  79  83
ATOM     83  C   UNL     1       3.460   2.912   2.524  1.00  0.00     0.116 A 
ATOM     84  C   UNL     1       2.111   2.538   2.425  1.00  0.00     0.033 A 
ATOM     85  C   UNL     1       4.018   3.475   1.345  1.00  0.00     0.292 A 
ATOM     86  C   UNL     1       1.366   2.709   1.245  1.00  0.00     0.003 A 
ATOM     87  C   UNL     1       3.270   3.683   0.166  1.00  0.00     0.088 A 
ATOM     88  C   UNL     1       1.938   3.297   0.122  1.00  0.00     0.007 A 
BRANCH  85  89
ATOM     89  N   UNL     1       5.445   3.775   1.246  1.00  0.00     0.064 N 
ATOM     90  O   UNL     1       5.766   4.827   0.674  1.00  0.00    -0.258 OA
ATOM     91  O   UNL     1       6.249   2.932   1.672  1.00  0.00    -0.258 OA
ENDBRANCH  85  89
ENDBRANCH  79  83
ENDBRANCH  75  77
ENDBRANCH  74  75
ENDBRANCH  73  74
ENDBRANCH  72  73
ENDBRANCH   1  72
TORSDOF 16
