REMARK SMILES COc1cccc(CC(=O)N[C@@](C)(C(=O)OCCOCCOC(=O)c2ccc(-c3c4nc(c(-c5c(F)c(F)c(F)c(F)c5F)c5ccc([nH]5)c(-c5c(F)c(F)c(F)c(F)c5F)c5nc(c(-c6c(F)c(F)c(F)c(F)c6F)c6ccc3[nH]6)C=C5)C=C4)cc2)C(F)(F)F)c1
REMARK SMILES IDX 18 1 17 2 16 3 14 4 15 5 12 6 13 7 11 8 9 9 10 10 8 12 7 13
REMARK SMILES IDX 3 14 4 15 92 16 5 17 6 18 2 19 1 20 88 21 89 22 90 23 91 24
REMARK SMILES IDX 19 25 20 26 21 27 22 28 23 29 24 30 25 31 26 32 87 33 27 34
REMARK SMILES IDX 86 35 28 36 29 37 30 38 80 39 31 40 85 41 79 42 81 43 32 44
REMARK SMILES IDX 84 45 78 46 77 47 33 49 65 50 45 51 64 52 46 53 49 54 63 55
REMARK SMILES IDX 82 56 47 57 48 58 62 60 83 61 50 62 34 63 35 64 43 65 36 66
REMARK SMILES IDX 37 67 41 68 44 69 38 70 39 71 42 72 40 73 66 74 67 75 75 76
REMARK SMILES IDX 68 77 69 78 73 79 76 80 70 81 71 82 74 83 72 84 51 85 52 86
REMARK SMILES IDX 60 87 53 88 54 89 58 90 61 91 55 92 56 93 59 94 57 95
REMARK H PARENT 11 11 81 48 49 59
REMARK Flexibility Score: inf
ROOT
ATOM      1  C   UNL     1       7.690   3.909   0.915  1.00  0.00     0.202 C 
ENDROOT
BRANCH   1   2
ATOM      2  C   UNL     1       6.518   4.822   1.303  1.00  0.00     0.261 C 
BRANCH   2   3
ATOM      3  O   UNL     1       5.654   4.226   2.282  1.00  0.00    -0.461 OA
BRANCH   3   4
ATOM      4  C   UNL     1       4.321   4.351   2.027  1.00  0.00     0.341 C 
ATOM      5  O   UNL     1       3.864   5.148   1.216  1.00  0.00    -0.249 OA
BRANCH   4   6
ATOM      6  C   UNL     1       3.463   3.364   2.841  1.00  0.00     0.231 C 
ATOM      7  C   UNL     1       2.355   4.211   3.486  1.00  0.00     0.058 C 
BRANCH   6   8
ATOM      8  N   UNL     1       4.278   2.759   3.964  1.00  0.00    -0.333 N 
ATOM      9  C   UNL     1       4.258   1.635   4.726  1.00  0.00     0.225 C 
ATOM     10  O   UNL     1       4.845   1.726   5.812  1.00  0.00    -0.275 OA
ATOM     11  H   UNL     1       5.032   3.342   4.211  1.00  0.00     0.164 HD
BRANCH   9  12
ATOM     12  C   UNL     1       3.743   0.281   4.273  1.00  0.00     0.135 C 
BRANCH  12  13
ATOM     13  C   UNL     1       2.256   0.115   4.135  1.00  0.00    -0.035 A 
ATOM     14  C   UNL     1       0.376  -0.529   2.732  1.00  0.00     0.119 A 
ATOM     15  C   UNL     1      -0.503  -0.057   3.705  1.00  0.00     0.046 A 
ATOM     16  C   UNL     1       1.747  -0.520   2.987  1.00  0.00     0.050 A 
ATOM     17  C   UNL     1      -0.012   0.466   4.903  1.00  0.00     0.004 A 
ATOM     18  C   UNL     1       1.364   0.560   5.116  1.00  0.00     0.004 A 
BRANCH  14  19
ATOM     19  O   UNL     1      -0.189  -0.942   1.557  1.00  0.00    -0.497 OA
ATOM     20  C   UNL     1       0.607  -0.732   0.390  1.00  0.00     0.278 C 
ENDBRANCH  14  19
ENDBRANCH  12  13
ENDBRANCH   9  12
ENDBRANCH   6   8
BRANCH   6  21
ATOM     21  C   UNL     1       2.876   2.442   1.764  1.00  0.00     0.422 C 
ATOM     22  F   UNL     1       3.668   1.369   1.532  1.00  0.00    -0.168 F 
ATOM     23  F   UNL     1       1.660   1.995   2.141  1.00  0.00    -0.168 F 
ATOM     24  F   UNL     1       2.672   3.029   0.565  1.00  0.00    -0.168 F 
ENDBRANCH   6  21
ENDBRANCH   4   6
ENDBRANCH   3   4
ENDBRANCH   2   3
ENDBRANCH   1   2
BRANCH   1  25
ATOM     25  O   UNL     1       7.414   2.521   0.770  1.00  0.00    -0.374 OA
BRANCH  25  26
ATOM     26  C   UNL     1       7.075   1.770   1.938  1.00  0.00     0.202 C 
BRANCH  26  27
ATOM     27  C   UNL     1       8.029   1.816   3.141  1.00  0.00     0.261 C 
BRANCH  27  28
ATOM     28  O   UNL     1       8.147   3.131   3.722  1.00  0.00    -0.460 OA
BRANCH  28  29
ATOM     29  C   UNL     1       9.420   3.574   3.850  1.00  0.00     0.338 C 
ATOM     30  O   UNL     1      10.450   2.969   3.575  1.00  0.00    -0.246 OA
BRANCH  29  31
ATOM     31  C   UNL     1       9.450   4.999   4.214  1.00  0.00     0.060 A 
ATOM     32  C   UNL     1      10.034   5.890   3.303  1.00  0.00     0.016 A 
ATOM     33  C   UNL     1       9.090   5.424   5.494  1.00  0.00     0.016 A 
ATOM     34  C   UNL     1      10.323   7.195   3.692  1.00  0.00     0.010 A 
ATOM     35  C   UNL     1       9.390   6.734   5.887  1.00  0.00     0.010 A 
ATOM     36  C   UNL     1      10.055   7.607   5.005  1.00  0.00    -0.014 A 
BRANCH  36  37
ATOM     37  C   UNL     1      10.671   8.864   5.498  1.00  0.00     0.031 A 
ATOM     38  C   UNL     1      11.977   8.784   6.243  1.00  0.00     0.074 A 
ATOM     39  C   UNL     1      10.121  10.060   5.227  1.00  0.00     0.049 A 
ATOM     40  N   UNL     1      12.715   9.745   6.739  1.00  0.00    -0.248 NA
ATOM     41  C   UNL     1      12.529   7.436   6.452  1.00  0.00     0.031 C 
ATOM     42  C   UNL     1       8.890  10.271   4.472  1.00  0.00     0.029 A 
ATOM     43  N   UNL     1      10.540  11.326   5.554  1.00  0.00    -0.354 N 
ATOM     44  C   UNL     1      13.813   9.119   7.315  1.00  0.00     0.074 A 
ATOM     45  C   UNL     1      13.631   7.695   7.139  1.00  0.00     0.031 C 
ATOM     46  C   UNL     1       8.650  11.591   4.391  1.00  0.00     0.029 A 
ATOM     47  C   UNL     1       9.700  12.315   5.107  1.00  0.00     0.049 A 
ATOM     48  H   UNL     1      11.365  11.507   6.060  1.00  0.00     0.167 HD
ATOM     49  C   UNL     1      14.886   9.680   7.923  1.00  0.00     0.037 A 
ATOM     50  C   UNL     1       9.770  13.650   5.268  1.00  0.00     0.037 A 
ATOM     51  C   UNL     1      15.068  11.096   8.103  1.00  0.00     0.049 A 
ATOM     52  C   UNL     1      10.938  14.247   6.011  1.00  0.00     0.074 A 
ATOM     53  C   UNL     1      16.114  11.764   8.715  1.00  0.00     0.029 A 
ATOM     54  N   UNL     1      14.173  12.064   7.670  1.00  0.00    -0.354 N 
ATOM     55  N   UNL     1      11.977  13.649   6.540  1.00  0.00    -0.248 NA
ATOM     56  C   UNL     1      10.943  15.708   6.172  1.00  0.00     0.031 C 
ATOM     57  C   UNL     1      15.833  13.134   8.688  1.00  0.00     0.029 A 
ATOM     58  C   UNL     1      14.636  13.323   8.016  1.00  0.00     0.049 A 
ATOM     59  H   UNL     1      13.334  11.883   7.189  1.00  0.00     0.167 HD
ATOM     60  C   UNL     1      12.776  14.659   7.062  1.00  0.00     0.074 A 
ATOM     61  C   UNL     1      12.103  15.910   6.781  1.00  0.00     0.031 C 
ATOM     62  C   UNL     1      13.963  14.559   7.711  1.00  0.00     0.037 A 
BRANCH  49  63
ATOM     63  C   UNL     1      15.934   8.751   8.461  1.00  0.00     0.064 A 
ATOM     64  C   UNL     1      16.797   8.044   7.610  1.00  0.00     0.173 A 
ATOM     65  C   UNL     1      16.086   8.574   9.845  1.00  0.00     0.173 A 
ATOM     66  F   UNL     1      16.683   8.167   6.279  1.00  0.00    -0.203 F 
ATOM     67  C   UNL     1      17.755   7.173   8.124  1.00  0.00     0.198 A 
ATOM     68  C   UNL     1      17.062   7.723  10.356  1.00  0.00     0.198 A 
ATOM     69  F   UNL     1      15.288   9.228  10.702  1.00  0.00    -0.203 F 
ATOM     70  F   UNL     1      18.535   6.470   7.291  1.00  0.00    -0.200 F 
ATOM     71  C   UNL     1      17.889   7.016   9.496  1.00  0.00     0.200 A 
ATOM     72  F   UNL     1      17.197   7.580  11.681  1.00  0.00    -0.200 F 
ATOM     73  F   UNL     1      18.811   6.178   9.989  1.00  0.00    -0.200 F 
ENDBRANCH  49  63
BRANCH  50  74
ATOM     74  C   UNL     1       8.707  14.522   4.705  1.00  0.00     0.064 A 
ATOM     75  C   UNL     1       8.970  15.379   3.627  1.00  0.00     0.173 A 
ATOM     76  C   UNL     1       7.412  14.529   5.244  1.00  0.00     0.173 A 
ATOM     77  F   UNL     1      10.200  15.426   3.094  1.00  0.00    -0.203 F 
ATOM     78  C   UNL     1       7.982  16.221   3.119  1.00  0.00     0.198 A 
ATOM     79  C   UNL     1       6.418  15.353   4.719  1.00  0.00     0.198 A 
ATOM     80  F   UNL     1       7.111  13.730   6.278  1.00  0.00    -0.203 F 
ATOM     81  F   UNL     1       8.272  17.061   2.117  1.00  0.00    -0.200 F 
ATOM     82  C   UNL     1       6.706  16.203   3.662  1.00  0.00     0.200 A 
ATOM     83  F   UNL     1       5.184  15.325   5.240  1.00  0.00    -0.200 F 
ATOM     84  F   UNL     1       5.756  17.011   3.173  1.00  0.00    -0.200 F 
ENDBRANCH  50  74
BRANCH  62  85
ATOM     85  C   UNL     1      14.637  15.838   8.116  1.00  0.00     0.064 A 
ATOM     86  C   UNL     1      14.159  16.622   9.176  1.00  0.00     0.173 A 
ATOM     87  C   UNL     1      15.803  16.260   7.458  1.00  0.00     0.173 A 
ATOM     88  F   UNL     1      13.041  16.268   9.827  1.00  0.00    -0.203 F 
ATOM     89  C   UNL     1      14.809  17.797   9.545  1.00  0.00     0.198 A 
ATOM     90  C   UNL     1      16.466  17.420   7.849  1.00  0.00     0.198 A 
ATOM     91  F   UNL     1      16.305  15.541   6.443  1.00  0.00    -0.203 F 
ATOM     92  F   UNL     1      14.309  18.555  10.530  1.00  0.00    -0.200 F 
ATOM     93  C   UNL     1      15.965  18.191   8.886  1.00  0.00     0.200 A 
ATOM     94  F   UNL     1      17.589  17.793   7.219  1.00  0.00    -0.200 F 
ATOM     95  F   UNL     1      16.591  19.320   9.247  1.00  0.00    -0.200 F 
ENDBRANCH  62  85
ENDBRANCH  36  37
ENDBRANCH  29  31
ENDBRANCH  28  29
ENDBRANCH  27  28
ENDBRANCH  26  27
ENDBRANCH  25  26
ENDBRANCH   1  25
TORSDOF 19
