REMARK SMILES CCc1cc([C@H]([NH3+])C(=O)OCCOCCOC(=O)c2ccc(-c3c4nc(c(-c5c(F)c(F)c(F)c(F)c5F)c5ccc([nH]5)c(-c5c(F)c(F)c(F)c(F)c5F)c5nc(c(-c6c(F)c(F)c(F)c(F)c6F)c6ccc3[nH]6)C=C5)C=C4)cc2)cc(CC)c1N
REMARK SMILES IDX 13 1 12 2 11 3 10 4 8 5 9 6 6 7 5 8 3 9 4 10 86 11 83 12
REMARK SMILES IDX 82 13 2 14 1 15 87 16 84 19 85 20 7 21 14 25 15 26 16 27
REMARK SMILES IDX 17 28 18 29 19 30 20 31 81 32 21 33 80 34 22 35 23 36 24 37
REMARK SMILES IDX 74 38 25 39 79 40 73 41 75 42 26 43 78 44 72 45 71 46 27 48
REMARK SMILES IDX 59 49 39 50 58 51 40 52 43 53 57 54 76 55 41 56 42 57 56 59
REMARK SMILES IDX 77 60 44 61 28 62 29 63 37 64 30 65 31 66 35 67 38 68 32 69
REMARK SMILES IDX 33 70 36 71 34 72 60 73 61 74 69 75 62 76 63 77 67 78 70 79
REMARK SMILES IDX 64 80 65 81 68 82 66 83 45 84 46 85 54 86 47 87 48 88 52 89
REMARK SMILES IDX 55 90 49 91 50 92 53 93 51 94
REMARK H PARENT 87 17 87 18 7 22 7 23 7 24 75 47 43 58
REMARK Flexibility Score: inf
ROOT
ATOM      1  O   UNL     1       6.797  -2.746  -2.182  1.00  0.00    -0.374 OA
ENDROOT
BRANCH   1   2
ATOM      2  C   UNL     1       6.711  -1.374  -2.561  1.00  0.00     0.202 C 
BRANCH   2   3
ATOM      3  C   UNL     1       6.207  -1.069  -3.974  1.00  0.00     0.261 C 
BRANCH   3   4
ATOM      4  O   UNL     1       4.830  -1.441  -4.137  1.00  0.00    -0.459 OA
BRANCH   4   5
ATOM      5  C   UNL     1       4.608  -2.511  -4.962  1.00  0.00     0.369 C 
ATOM      6  O   UNL     1       5.476  -3.093  -5.605  1.00  0.00    -0.245 OA
BRANCH   5   7
ATOM      7  C   UNL     1       3.107  -2.880  -5.031  1.00  0.00     0.323 C 
BRANCH   7   8
ATOM      8  C   UNL     1       2.477  -2.127  -6.183  1.00  0.00     0.021 A 
ATOM      9  C   UNL     1       1.248  -0.249  -7.144  1.00  0.00    -0.024 A 
ATOM     10  C   UNL     1       1.643  -1.019  -6.032  1.00  0.00     0.016 A 
ATOM     11  C   UNL     1       1.694  -0.591  -8.444  1.00  0.00     0.038 A 
ATOM     12  C   UNL     1       2.551  -1.699  -8.598  1.00  0.00    -0.024 A 
ATOM     13  C   UNL     1       2.882  -2.475  -7.475  1.00  0.00     0.016 A 
BRANCH   9  14
ATOM     14  C   UNL     1       0.345   0.940  -6.878  1.00  0.00     0.034 C 
ATOM     15  C   UNL     1      -1.113   0.625  -7.182  1.00  0.00     0.009 C 
ENDBRANCH   9  14
BRANCH  11  16
ATOM     16  N   UNL     1       1.413   0.248  -9.518  1.00  0.00    -0.398 N 
ATOM     17  H   UNL     1       0.813   1.020  -9.397  1.00  0.00     0.156 HD
ATOM     18  H   UNL     1       1.814   0.071 -10.400  1.00  0.00     0.156 HD
ENDBRANCH  11  16
BRANCH  12  19
ATOM     19  C   UNL     1       3.218  -2.093  -9.900  1.00  0.00     0.034 C 
ATOM     20  C   UNL     1       4.722  -1.830  -9.864  1.00  0.00     0.009 C 
ENDBRANCH  12  19
ENDBRANCH   7   8
BRANCH   7  21
ATOM     21  N   UNL     1       2.432  -2.701  -3.724  1.00  0.00    -0.342 N 
ATOM     22  H   UNL     1       2.492  -1.723  -3.442  1.00  0.00     0.345 HD
ATOM     23  H   UNL     1       2.886  -3.286  -3.023  1.00  0.00     0.345 HD
ATOM     24  H   UNL     1       1.451  -2.970  -3.808  1.00  0.00     0.345 HD
ENDBRANCH   7  21
ENDBRANCH   5   7
ENDBRANCH   4   5
ENDBRANCH   3   4
ENDBRANCH   2   3
ENDBRANCH   1   2
BRANCH   1  25
ATOM     25  C   UNL     1       5.584  -3.448  -1.917  1.00  0.00     0.202 C 
BRANCH  25  26
ATOM     26  C   UNL     1       4.878  -3.156  -0.588  1.00  0.00     0.261 C 
BRANCH  26  27
ATOM     27  O   UNL     1       4.504  -1.775  -0.440  1.00  0.00    -0.460 OA
BRANCH  27  28
ATOM     28  C   UNL     1       5.202  -1.105   0.505  1.00  0.00     0.338 C 
ATOM     29  O   UNL     1       6.042  -1.559   1.273  1.00  0.00    -0.246 OA
BRANCH  28  30
ATOM     30  C   UNL     1       4.941   0.341   0.414  1.00  0.00     0.060 A 
ATOM     31  C   UNL     1       6.053   1.187   0.319  1.00  0.00     0.016 A 
ATOM     32  C   UNL     1       3.653   0.870   0.525  1.00  0.00     0.016 A 
ATOM     33  C   UNL     1       5.887   2.566   0.399  1.00  0.00     0.010 A 
ATOM     34  C   UNL     1       3.488   2.257   0.612  1.00  0.00     0.010 A 
ATOM     35  C   UNL     1       4.609   3.107   0.592  1.00  0.00    -0.014 A 
BRANCH  35  36
ATOM     36  C   UNL     1       4.486   4.547   0.925  1.00  0.00     0.031 A 
ATOM     37  C   UNL     1       4.362   4.957   2.366  1.00  0.00     0.074 A 
ATOM     38  C   UNL     1       4.551   5.481  -0.039  1.00  0.00     0.049 A 
ATOM     39  N   UNL     1       4.300   6.157   2.887  1.00  0.00    -0.248 NA
ATOM     40  C   UNL     1       4.303   3.868   3.354  1.00  0.00     0.031 C 
ATOM     41  C   UNL     1       4.697   5.209  -1.467  1.00  0.00     0.029 A 
ATOM     42  N   UNL     1       4.507   6.850   0.043  1.00  0.00    -0.354 N 
ATOM     43  C   UNL     1       4.202   5.967   4.259  1.00  0.00     0.074 A 
ATOM     44  C   UNL     1       4.172   4.538   4.489  1.00  0.00     0.031 C 
ATOM     45  C   UNL     1       4.729   6.378  -2.131  1.00  0.00     0.029 A 
ATOM     46  C   UNL     1       4.590   7.476  -1.175  1.00  0.00     0.049 A 
ATOM     47  H   UNL     1       4.425   7.337   0.895  1.00  0.00     0.167 HD
ATOM     48  C   UNL     1       4.156   6.899   5.240  1.00  0.00     0.037 A 
ATOM     49  C   UNL     1       4.551   8.787  -1.483  1.00  0.00     0.037 A 
ATOM     50  C   UNL     1       4.183   8.320   5.013  1.00  0.00     0.049 A 
ATOM     51  C   UNL     1       4.448   9.805  -0.378  1.00  0.00     0.074 A 
ATOM     52  C   UNL     1       4.156   9.345   5.942  1.00  0.00     0.029 A 
ATOM     53  N   UNL     1       4.236   8.916   3.761  1.00  0.00    -0.354 N 
ATOM     54  N   UNL     1       4.391   9.617   0.918  1.00  0.00    -0.248 NA
ATOM     55  C   UNL     1       4.415  11.218  -0.780  1.00  0.00     0.031 C 
ATOM     56  C   UNL     1       4.148  10.562   5.251  1.00  0.00     0.029 A 
ATOM     57  C   UNL     1       4.220  10.296   3.893  1.00  0.00     0.049 A 
ATOM     58  H   UNL     1       4.280   8.431   2.906  1.00  0.00     0.167 HD
ATOM     59  C   UNL     1       4.341  10.883   1.486  1.00  0.00     0.074 A 
ATOM     60  C   UNL     1       4.386  11.833   0.394  1.00  0.00     0.031 C 
ATOM     61  C   UNL     1       4.268  11.228   2.796  1.00  0.00     0.037 A 
BRANCH  48  62
ATOM     62  C   UNL     1       4.053   6.407   6.654  1.00  0.00     0.064 A 
ATOM     63  C   UNL     1       5.139   5.797   7.300  1.00  0.00     0.173 A 
ATOM     64  C   UNL     1       2.863   6.567   7.378  1.00  0.00     0.173 A 
ATOM     65  F   UNL     1       6.295   5.608   6.646  1.00  0.00    -0.203 F 
ATOM     66  C   UNL     1       5.028   5.341   8.611  1.00  0.00     0.198 A 
ATOM     67  C   UNL     1       2.764   6.134   8.698  1.00  0.00     0.198 A 
ATOM     68  F   UNL     1       1.797   7.147   6.808  1.00  0.00    -0.203 F 
ATOM     69  F   UNL     1       6.063   4.720   9.193  1.00  0.00    -0.200 F 
ATOM     70  C   UNL     1       3.843   5.515   9.311  1.00  0.00     0.200 A 
ATOM     71  F   UNL     1       1.621   6.312   9.376  1.00  0.00    -0.200 F 
ATOM     72  F   UNL     1       3.738   5.079  10.573  1.00  0.00    -0.200 F 
ENDBRANCH  48  62
BRANCH  49  73
ATOM     73  C   UNL     1       4.618   9.209  -2.905  1.00  0.00     0.064 A 
ATOM     74  C   UNL     1       5.752   9.851  -3.419  1.00  0.00     0.173 A 
ATOM     75  C   UNL     1       3.547   8.974  -3.780  1.00  0.00     0.173 A 
ATOM     76  F   UNL     1       6.791  10.118  -2.614  1.00  0.00    -0.203 F 
ATOM     77  C   UNL     1       5.809  10.252  -4.752  1.00  0.00     0.198 A 
ATOM     78  C   UNL     1       3.614   9.353  -5.118  1.00  0.00     0.198 A 
ATOM     79  F   UNL     1       2.438   8.364  -3.335  1.00  0.00    -0.203 F 
ATOM     80  F   UNL     1       6.891  10.896  -5.210  1.00  0.00    -0.200 F 
ATOM     81  C   UNL     1       4.743   9.996  -5.602  1.00  0.00     0.200 A 
ATOM     82  F   UNL     1       2.586   9.094  -5.938  1.00  0.00    -0.200 F 
ATOM     83  F   UNL     1       4.801  10.376  -6.886  1.00  0.00    -0.200 F 
ENDBRANCH  49  73
BRANCH  61  84
ATOM     84  C   UNL     1       4.260  12.692   3.125  1.00  0.00     0.064 A 
ATOM     85  C   UNL     1       3.134  13.493   2.886  1.00  0.00     0.173 A 
ATOM     86  C   UNL     1       5.377  13.291   3.727  1.00  0.00     0.173 A 
ATOM     87  F   UNL     1       2.046  12.970   2.299  1.00  0.00    -0.203 F 
ATOM     88  C   UNL     1       3.134  14.845   3.218  1.00  0.00     0.198 A 
ATOM     89  C   UNL     1       5.364  14.637   4.082  1.00  0.00     0.198 A 
ATOM     90  F   UNL     1       6.476  12.566   3.983  1.00  0.00    -0.203 F 
ATOM     91  F   UNL     1       2.063  15.601   2.942  1.00  0.00    -0.200 F 
ATOM     92  C   UNL     1       4.246  15.414   3.822  1.00  0.00     0.200 A 
ATOM     93  F   UNL     1       6.435  15.182   4.676  1.00  0.00    -0.200 F 
ATOM     94  F   UNL     1       4.242  16.714   4.146  1.00  0.00    -0.200 F 
ENDBRANCH  61  84
ENDBRANCH  35  36
ENDBRANCH  28  30
ENDBRANCH  27  28
ENDBRANCH  26  27
ENDBRANCH  25  26
ENDBRANCH   1  25
TORSDOF 19
