REMARK SMILES O=C(OCCOCCOC(=O)c1ccc2nc(C3CCCCC3)[nH]c2c1)c1ccc(-c2c3nc(c(-c4c(F)c(F)c(F)c(F)c4F)c4ccc([nH]4)c(-c4c(F)c(F)c(F)c(F)c4F)c4nc(c(-c5c(F)c(F)c(F)c(F)c5F)c5ccc2[nH]5)C=C4)C=C3)cc1
REMARK SMILES IDX 5 1 4 2 3 3 2 4 1 5 27 6 28 7 89 8 29 9 88 10 30 11 31 12
REMARK SMILES IDX 32 13 82 14 33 15 87 16 81 17 83 18 34 19 86 20 80 21 79 22
REMARK SMILES IDX 35 24 67 25 47 26 66 27 48 28 51 29 65 30 84 31 49 32 50 33
REMARK SMILES IDX 64 35 85 36 52 37 36 38 37 39 45 40 38 41 39 42 43 43 46 44
REMARK SMILES IDX 40 45 41 46 44 47 42 48 68 49 69 50 77 51 70 52 71 53 75 54
REMARK SMILES IDX 78 55 72 56 73 57 76 58 74 59 53 60 54 61 62 62 55 63 56 64
REMARK SMILES IDX 60 65 63 66 57 67 58 68 61 69 59 70 6 71 7 72 8 73 9 74
REMARK SMILES IDX 10 75 11 76 12 77 13 78 26 79 14 80 25 81 15 82 24 83 16 84
REMARK SMILES IDX 17 85 18 87 19 88 23 89 20 90 22 91 21 92
REMARK H PARENT 83 23 51 34 24 86
REMARK Flexibility Score: inf
ROOT
ATOM      1  C   UNL     1       4.300   1.553  -0.932  1.00  0.00     0.202 C 
ENDROOT
BRANCH   1   2
ATOM      2  C   UNL     1       3.954   0.138  -1.412  1.00  0.00     0.261 C 
BRANCH   2   3
ATOM      3  O   UNL     1       2.593  -0.199  -1.085  1.00  0.00    -0.460 OA
BRANCH   3   4
ATOM      4  C   UNL     1       2.137  -1.020  -0.109  1.00  0.00     0.338 C 
ATOM      5  O   UNL     1       0.934  -1.265  -0.056  1.00  0.00    -0.246 OA
BRANCH   4   6
ATOM      6  C   UNL     1       3.021  -1.653   0.917  1.00  0.00     0.060 A 
ATOM      7  C   UNL     1       4.245  -1.133   1.329  1.00  0.00     0.016 A 
ATOM      8  C   UNL     1       2.544  -2.802   1.574  1.00  0.00     0.016 A 
ATOM      9  C   UNL     1       5.016  -1.760   2.289  1.00  0.00     0.010 A 
ATOM     10  C   UNL     1       3.286  -3.409   2.596  1.00  0.00     0.010 A 
ATOM     11  C   UNL     1       4.537  -2.890   2.944  1.00  0.00    -0.014 A 
BRANCH  11  12
ATOM     12  C   UNL     1       5.437  -3.509   3.933  1.00  0.00     0.031 A 
ATOM     13  C   UNL     1       6.163  -4.761   3.557  1.00  0.00     0.074 A 
ATOM     14  C   UNL     1       5.739  -2.821   5.050  1.00  0.00     0.049 A 
ATOM     15  N   UNL     1       7.057  -5.432   4.232  1.00  0.00    -0.248 NA
ATOM     16  C   UNL     1       5.863  -5.322   2.229  1.00  0.00     0.031 C 
ATOM     17  C   UNL     1       5.160  -1.525   5.420  1.00  0.00     0.029 A 
ATOM     18  N   UNL     1       6.645  -3.074   6.044  1.00  0.00    -0.354 N 
ATOM     19  C   UNL     1       7.419  -6.495   3.418  1.00  0.00     0.074 A 
ATOM     20  C   UNL     1       6.639  -6.394   2.205  1.00  0.00     0.031 C 
ATOM     21  C   UNL     1       5.755  -1.079   6.536  1.00  0.00     0.029 A 
ATOM     22  C   UNL     1       6.700  -2.088   6.999  1.00  0.00     0.049 A 
ATOM     23  H   UNL     1       7.203  -3.885   6.072  1.00  0.00     0.167 HD
ATOM     24  C   UNL     1       8.328  -7.465   3.671  1.00  0.00     0.037 A 
ATOM     25  C   UNL     1       7.415  -2.030   8.137  1.00  0.00     0.037 A 
ATOM     26  C   UNL     1       9.079  -7.542   4.894  1.00  0.00     0.049 A 
ATOM     27  C   UNL     1       8.341  -3.178   8.438  1.00  0.00     0.074 A 
ATOM     28  C   UNL     1       9.950  -8.527   5.319  1.00  0.00     0.029 A 
ATOM     29  N   UNL     1       9.042  -6.577   5.895  1.00  0.00    -0.354 N 
ATOM     30  N   UNL     1       8.618  -4.231   7.703  1.00  0.00    -0.248 NA
ATOM     31  C   UNL     1       9.044  -3.141   9.725  1.00  0.00     0.031 C 
ATOM     32  C   UNL     1      10.411  -8.176   6.593  1.00  0.00     0.029 A 
ATOM     33  C   UNL     1       9.869  -6.948   6.941  1.00  0.00     0.049 A 
ATOM     34  H   UNL     1       8.507  -5.751   5.863  1.00  0.00     0.167 HD
ATOM     35  C   UNL     1       9.530  -4.978   8.433  1.00  0.00     0.074 A 
ATOM     36  C   UNL     1       9.787  -4.236   9.653  1.00  0.00     0.031 C 
ATOM     37  C   UNL     1      10.095  -6.175   8.137  1.00  0.00     0.037 A 
BRANCH  24  38
ATOM     38  C   UNL     1       8.493  -8.532   2.631  1.00  0.00     0.064 A 
ATOM     39  C   UNL     1       9.125  -8.280   1.404  1.00  0.00     0.173 A 
ATOM     40  C   UNL     1       7.980  -9.819   2.852  1.00  0.00     0.173 A 
ATOM     41  F   UNL     1       9.604  -7.057   1.130  1.00  0.00    -0.203 F 
ATOM     42  C   UNL     1       9.213  -9.270   0.427  1.00  0.00     0.198 A 
ATOM     43  C   UNL     1       8.093 -10.813   1.884  1.00  0.00     0.198 A 
ATOM     44  F   UNL     1       7.357 -10.110   4.004  1.00  0.00    -0.203 F 
ATOM     45  F   UNL     1       9.769  -8.989  -0.760  1.00  0.00    -0.200 F 
ATOM     46  C   UNL     1       8.701 -10.535   0.669  1.00  0.00     0.200 A 
ATOM     47  F   UNL     1       7.598 -12.036   2.120  1.00  0.00    -0.200 F 
ATOM     48  F   UNL     1       8.779 -11.483  -0.275  1.00  0.00    -0.200 F 
ENDBRANCH  24  38
BRANCH  25  49
ATOM     49  C   UNL     1       7.233  -0.902   9.091  1.00  0.00     0.064 A 
ATOM     50  C   UNL     1       8.285  -0.038   9.424  1.00  0.00     0.173 A 
ATOM     51  C   UNL     1       5.996  -0.687   9.723  1.00  0.00     0.173 A 
ATOM     52  F   UNL     1       9.494  -0.209   8.869  1.00  0.00    -0.203 F 
ATOM     53  C   UNL     1       8.116   0.975  10.369  1.00  0.00     0.198 A 
ATOM     54  C   UNL     1       5.818   0.348  10.638  1.00  0.00     0.198 A 
ATOM     55  F   UNL     1       4.953  -1.484   9.448  1.00  0.00    -0.203 F 
ATOM     56  F   UNL     1       9.156   1.746  10.715  1.00  0.00    -0.200 F 
ATOM     57  C   UNL     1       6.882   1.171  10.971  1.00  0.00     0.200 A 
ATOM     58  F   UNL     1       4.619   0.540  11.204  1.00  0.00    -0.200 F 
ATOM     59  F   UNL     1       6.722   2.141  11.881  1.00  0.00    -0.200 F 
ENDBRANCH  25  49
BRANCH  37  60
ATOM     60  C   UNL     1      11.057  -6.728   9.144  1.00  0.00     0.064 A 
ATOM     61  C   UNL     1      10.618  -7.230  10.378  1.00  0.00     0.173 A 
ATOM     62  C   UNL     1      12.429  -6.778   8.860  1.00  0.00     0.173 A 
ATOM     63  F   UNL     1       9.316  -7.188  10.700  1.00  0.00    -0.203 F 
ATOM     64  C   UNL     1      11.525  -7.732  11.306  1.00  0.00     0.198 A 
ATOM     65  C   UNL     1      13.329  -7.311   9.776  1.00  0.00     0.198 A 
ATOM     66  F   UNL     1      12.895  -6.316   7.689  1.00  0.00    -0.203 F 
ATOM     67  F   UNL     1      11.092  -8.153  12.502  1.00  0.00    -0.200 F 
ATOM     68  C   UNL     1      12.878  -7.778  11.002  1.00  0.00     0.200 A 
ATOM     69  F   UNL     1      14.633  -7.369   9.476  1.00  0.00    -0.200 F 
ATOM     70  F   UNL     1      13.749  -8.265  11.895  1.00  0.00    -0.200 F 
ENDBRANCH  37  60
ENDBRANCH  11  12
ENDBRANCH   4   6
ENDBRANCH   3   4
ENDBRANCH   2   3
ENDBRANCH   1   2
BRANCH   1  71
ATOM     71  O   UNL     1       4.066   1.776   0.461  1.00  0.00    -0.374 OA
BRANCH  71  72
ATOM     72  C   UNL     1       2.729   2.161   0.804  1.00  0.00     0.202 C 
BRANCH  72  73
ATOM     73  C   UNL     1       2.753   3.473   1.592  1.00  0.00     0.261 C 
BRANCH  73  74
ATOM     74  O   UNL     1       3.318   4.493   0.755  1.00  0.00    -0.460 OA
BRANCH  74  75
ATOM     75  C   UNL     1       4.670   4.592   0.825  1.00  0.00     0.338 C 
ATOM     76  O   UNL     1       5.398   4.190   1.717  1.00  0.00    -0.246 OA
BRANCH  75  77
ATOM     77  C   UNL     1       5.162   5.071  -0.485  1.00  0.00     0.062 A 
ATOM     78  C   UNL     1       4.446   6.016  -1.232  1.00  0.00     0.018 A 
ATOM     79  C   UNL     1       6.345   4.491  -0.977  1.00  0.00     0.044 A 
ATOM     80  C   UNL     1       4.902   6.419  -2.493  1.00  0.00     0.031 A 
ATOM     81  C   UNL     1       6.761   4.904  -2.242  1.00  0.00     0.066 A 
ATOM     82  C   UNL     1       6.084   5.855  -2.995  1.00  0.00     0.089 A 
ATOM     83  N   UNL     1       7.832   4.554  -3.022  1.00  0.00    -0.342 N 
ATOM     84  N   UNL     1       6.751   6.114  -4.163  1.00  0.00    -0.233 NA
ATOM     85  C   UNL     1       7.841   5.373  -4.126  1.00  0.00     0.110 A 
ATOM     86  H   UNL     1       8.481   3.840  -2.826  1.00  0.00     0.168 HD
BRANCH  85  87
ATOM     87  C   UNL     1       8.984   5.450  -5.093  1.00  0.00     0.055 C 
ATOM     88  C   UNL     1      10.341   5.479  -4.373  1.00  0.00     0.011 C 
ATOM     89  C   UNL     1       8.937   4.325  -6.133  1.00  0.00     0.011 C 
ATOM     90  C   UNL     1      11.494   5.605  -5.363  1.00  0.00     0.001 C 
ATOM     91  C   UNL     1      10.093   4.453  -7.125  1.00  0.00     0.001 C 
ATOM     92  C   UNL     1      11.446   4.504  -6.419  1.00  0.00     0.000 C 
ENDBRANCH  85  87
ENDBRANCH  75  77
ENDBRANCH  74  75
ENDBRANCH  73  74
ENDBRANCH  72  73
ENDBRANCH  71  72
ENDBRANCH   1  71
TORSDOF 15
