REMARK SMILES CC1(C)C[C@](CC(=O)OCCOCCOC(=O)c2ccc(-c3c4nc(c(-c5c(F)c(F)c(F)c(F)c5F)c5ccc([nH]5)c(-c5c(F)c(F)c(F)c(F)c5F)c5nc(c(-c6c(F)c(F)c(F)c(F)c6F)c6ccc3[nH]6)C=C5)C=C4)cc2)([NH+]2CCCC2)C(C)(C)O1
REMARK SMILES IDX 12 1 11 2 10 3 9 4 7 5 8 6 6 7 5 8 1 9 2 10 3 11 4 12 89 13
REMARK SMILES IDX 86 14 87 15 88 16 81 17 82 18 85 19 83 21 84 22 13 23 14 24
REMARK SMILES IDX 15 25 16 26 17 27 18 28 19 29 80 30 20 31 79 32 21 33 22 34
REMARK SMILES IDX 23 35 73 36 24 37 78 38 72 39 74 40 25 41 77 42 71 43 70 44
REMARK SMILES IDX 26 46 58 47 38 48 57 49 39 50 42 51 56 52 75 53 40 54 41 55
REMARK SMILES IDX 55 57 76 58 43 59 27 60 28 61 36 62 29 63 30 64 34 65 37 66
REMARK SMILES IDX 31 67 32 68 35 69 33 70 59 71 60 72 68 73 61 74 62 75 66 76
REMARK SMILES IDX 69 77 63 78 64 79 67 80 65 81 44 82 45 83 53 84 46 85 47 86
REMARK SMILES IDX 51 87 54 88 48 89 49 90 52 91 50 92
REMARK H PARENT 81 20 74 45 42 56
REMARK Flexibility Score: inf
ROOT
ATOM      1  O   UNL     1      -0.961  -9.036   1.305  1.00  0.00    -0.374 OA
ENDROOT
BRANCH   1   2
ATOM      2  C   UNL     1      -0.322  -8.329   2.367  1.00  0.00     0.202 C 
BRANCH   2   3
ATOM      3  C   UNL     1       0.892  -7.478   1.976  1.00  0.00     0.261 C 
BRANCH   3   4
ATOM      4  O   UNL     1       0.574  -6.197   1.373  1.00  0.00    -0.463 OA
BRANCH   4   5
ATOM      5  C   UNL     1       0.999  -6.036   0.097  1.00  0.00     0.312 C 
ATOM      6  O   UNL     1       1.420  -6.959  -0.598  1.00  0.00    -0.252 OA
BRANCH   5   7
ATOM      7  C   UNL     1       1.079  -4.608  -0.409  1.00  0.00     0.194 C 
BRANCH   7   8
ATOM      8  C   UNL     1       0.229  -3.382   0.070  1.00  0.00     0.140 C 
ATOM      9  C   UNL     1       2.203  -0.296   0.314  1.00  0.00     0.042 C 
ATOM     10  C   UNL     1       0.812  -0.943   0.204  1.00  0.00     0.070 C 
ATOM     11  C   UNL     1      -0.132   0.177  -0.262  1.00  0.00     0.042 C 
ATOM     12  C   UNL     1       0.827  -2.162  -0.723  1.00  0.00     0.107 C 
ATOM     13  O   UNL     1       0.412  -1.424   1.499  1.00  0.00    -0.363 OA
ATOM     14  C   UNL     1       0.505  -2.881   1.544  1.00  0.00     0.118 C 
ATOM     15  C   UNL     1       1.917  -3.209   2.074  1.00  0.00     0.049 C 
ATOM     16  C   UNL     1      -0.480  -3.351   2.622  1.00  0.00     0.049 C 
BRANCH   8  17
ATOM     17  N   UNL     1      -1.186  -3.508  -0.389  1.00  0.00    -0.327 N 
ATOM     18  C   UNL     1      -1.889  -4.752  -0.133  1.00  0.00     0.263 C 
ATOM     19  C   UNL     1      -2.127  -2.410  -0.175  1.00  0.00     0.263 C 
ATOM     20  H   UNL     1      -0.906  -3.474  -1.369  1.00  0.00     0.348 HD
ATOM     21  C   UNL     1      -3.342  -4.450  -0.451  1.00  0.00     0.067 C 
ATOM     22  C   UNL     1      -3.507  -3.024   0.007  1.00  0.00     0.067 C 
ENDBRANCH   8  17
ENDBRANCH   7   8
ENDBRANCH   5   7
ENDBRANCH   4   5
ENDBRANCH   3   4
ENDBRANCH   2   3
ENDBRANCH   1   2
BRANCH   1  23
ATOM     23  C   UNL     1      -1.802  -8.274   0.442  1.00  0.00     0.202 C 
BRANCH  23  24
ATOM     24  C   UNL     1      -3.142  -7.875   1.069  1.00  0.00     0.261 C 
BRANCH  24  25
ATOM     25  O   UNL     1      -2.923  -6.910   2.114  1.00  0.00    -0.460 OA
BRANCH  25  26
ATOM     26  C   UNL     1      -3.861  -6.919   3.085  1.00  0.00     0.338 C 
ATOM     27  O   UNL     1      -4.968  -7.422   3.036  1.00  0.00    -0.246 OA
BRANCH  26  28
ATOM     28  C   UNL     1      -3.252  -6.424   4.333  1.00  0.00     0.060 A 
ATOM     29  C   UNL     1      -2.938  -7.375   5.308  1.00  0.00     0.016 A 
ATOM     30  C   UNL     1      -3.076  -5.063   4.588  1.00  0.00     0.016 A 
ATOM     31  C   UNL     1      -2.524  -6.963   6.573  1.00  0.00     0.010 A 
ATOM     32  C   UNL     1      -2.642  -4.651   5.858  1.00  0.00     0.010 A 
ATOM     33  C   UNL     1      -2.419  -5.596   6.877  1.00  0.00    -0.014 A 
BRANCH  33  34
ATOM     34  C   UNL     1      -2.248  -5.202   8.305  1.00  0.00     0.031 A 
ATOM     35  C   UNL     1      -3.442  -4.707   9.083  1.00  0.00     0.074 A 
ATOM     36  C   UNL     1      -1.081  -5.397   8.947  1.00  0.00     0.049 A 
ATOM     37  N   UNL     1      -3.557  -4.473  10.368  1.00  0.00    -0.248 NA
ATOM     38  C   UNL     1      -4.668  -4.445   8.316  1.00  0.00     0.031 C 
ATOM     39  C   UNL     1       0.152  -5.880   8.330  1.00  0.00     0.029 A 
ATOM     40  N   UNL     1      -0.753  -5.234  10.272  1.00  0.00    -0.354 N 
ATOM     41  C   UNL     1      -4.867  -4.051  10.561  1.00  0.00     0.074 A 
ATOM     42  C   UNL     1      -5.493  -4.010   9.257  1.00  0.00     0.031 C 
ATOM     43  C   UNL     1       1.097  -5.997   9.279  1.00  0.00     0.029 A 
ATOM     44  C   UNL     1       0.541  -5.586  10.569  1.00  0.00     0.049 A 
ATOM     45  H   UNL     1      -1.386  -4.895  10.946  1.00  0.00     0.167 HD
ATOM     46  C   UNL     1      -5.504  -3.750  11.718  1.00  0.00     0.037 A 
ATOM     47  C   UNL     1       1.201  -5.589  11.744  1.00  0.00     0.037 A 
ATOM     48  C   UNL     1      -4.901  -3.796  13.024  1.00  0.00     0.049 A 
ATOM     49  C   UNL     1       0.484  -5.199  13.012  1.00  0.00     0.074 A 
ATOM     50  C   UNL     1      -5.487  -3.545  14.253  1.00  0.00     0.029 A 
ATOM     51  N   UNL     1      -3.573  -4.105  13.271  1.00  0.00    -0.354 N 
ATOM     52  N   UNL     1      -0.772  -4.870  13.188  1.00  0.00    -0.248 NA
ATOM     53  C   UNL     1       1.280  -5.195  14.250  1.00  0.00     0.031 C 
ATOM     54  C   UNL     1      -4.502  -3.652  15.239  1.00  0.00     0.029 A 
ATOM     55  C   UNL     1      -3.314  -4.019  14.630  1.00  0.00     0.049 A 
ATOM     56  H   UNL     1      -2.912  -4.349  12.583  1.00  0.00     0.167 HD
ATOM     57  C   UNL     1      -0.923  -4.647  14.552  1.00  0.00     0.074 A 
ATOM     58  C   UNL     1       0.365  -4.894  15.162  1.00  0.00     0.031 C 
ATOM     59  C   UNL     1      -2.032  -4.271  15.235  1.00  0.00     0.037 A 
BRANCH  46  60
ATOM     60  C   UNL     1      -6.943  -3.335  11.626  1.00  0.00     0.064 A 
ATOM     61  C   UNL     1      -7.956  -4.260  11.332  1.00  0.00     0.173 A 
ATOM     62  C   UNL     1      -7.317  -2.008  11.880  1.00  0.00     0.173 A 
ATOM     63  F   UNL     1      -7.647  -5.539  11.070  1.00  0.00    -0.203 F 
ATOM     64  C   UNL     1      -9.290  -3.866  11.274  1.00  0.00     0.198 A 
ATOM     65  C   UNL     1      -8.655  -1.623  11.848  1.00  0.00     0.198 A 
ATOM     66  F   UNL     1      -6.387  -1.087  12.173  1.00  0.00    -0.203 F 
ATOM     67  F   UNL     1     -10.237  -4.757  10.952  1.00  0.00    -0.200 F 
ATOM     68  C   UNL     1      -9.639  -2.550  11.539  1.00  0.00     0.200 A 
ATOM     69  F   UNL     1      -8.992  -0.354  12.117  1.00  0.00    -0.200 F 
ATOM     70  F   UNL     1     -10.924  -2.174  11.492  1.00  0.00    -0.200 F 
ENDBRANCH  46  60
BRANCH  47  71
ATOM     71  C   UNL     1       2.632  -5.989  11.790  1.00  0.00     0.064 A 
ATOM     72  C   UNL     1       3.035  -7.176  12.419  1.00  0.00     0.173 A 
ATOM     73  C   UNL     1       3.628  -5.172  11.236  1.00  0.00     0.173 A 
ATOM     74  F   UNL     1       2.122  -7.975  12.989  1.00  0.00    -0.203 F 
ATOM     75  C   UNL     1       4.382  -7.520  12.508  1.00  0.00     0.198 A 
ATOM     76  C   UNL     1       4.973  -5.531  11.302  1.00  0.00     0.198 A 
ATOM     77  F   UNL     1       3.295  -4.024  10.629  1.00  0.00    -0.203 F 
ATOM     78  F   UNL     1       4.745  -8.635  13.158  1.00  0.00    -0.200 F 
ATOM     79  C   UNL     1       5.349  -6.700  11.945  1.00  0.00     0.200 A 
ATOM     80  F   UNL     1       5.902  -4.741  10.750  1.00  0.00    -0.200 F 
ATOM     81  F   UNL     1       6.645  -7.032  12.032  1.00  0.00    -0.200 F 
ENDBRANCH  47  71
BRANCH  59  82
ATOM     82  C   UNL     1      -1.916  -4.125  16.726  1.00  0.00     0.064 A 
ATOM     83  C   UNL     1      -1.211  -3.061  17.308  1.00  0.00     0.173 A 
ATOM     84  C   UNL     1      -2.555  -5.035  17.583  1.00  0.00     0.173 A 
ATOM     85  F   UNL     1      -0.572  -2.171  16.535  1.00  0.00    -0.203 F 
ATOM     86  C   UNL     1      -1.129  -2.928  18.693  1.00  0.00     0.198 A 
ATOM     87  C   UNL     1      -2.495  -4.882  18.966  1.00  0.00     0.198 A 
ATOM     88  F   UNL     1      -3.249  -6.065  17.078  1.00  0.00    -0.203 F 
ATOM     89  F   UNL     1      -0.412  -1.930  19.227  1.00  0.00    -0.200 F 
ATOM     90  C   UNL     1      -1.776  -3.834  19.520  1.00  0.00     0.200 A 
ATOM     91  F   UNL     1      -3.133  -5.751  19.763  1.00  0.00    -0.200 F 
ATOM     92  F   UNL     1      -1.702  -3.700  20.851  1.00  0.00    -0.200 F 
ENDBRANCH  59  82
ENDBRANCH  33  34
ENDBRANCH  26  28
ENDBRANCH  25  26
ENDBRANCH  24  25
ENDBRANCH  23  24
ENDBRANCH   1  23
TORSDOF 16
