REMARK SMILES C[C@@H](C(=O)OCCOCCOC(=O)c1ccc(-c2c3nc(c(-c4c(F)c(F)c(F)c(F)c4F)c4ccc([nH]4)c(-c4c(F)c(F)c(F)c(F)c4F)c4nc(c(-c5c(F)c(F)c(F)c(F)c5F)c5ccc2[nH]5)C=C4)C=C3)cc1)c1cccn(C(F)F)c1=O
REMARK SMILES IDX 8 1 7 2 6 3 5 4 3 5 4 6 2 7 1 8 77 9 78 10 85 11 79 12 81 13
REMARK SMILES IDX 86 14 80 15 82 16 83 17 84 18 9 19 10 20 11 21 12 22 13 23
REMARK SMILES IDX 14 24 15 25 76 26 16 27 75 28 17 29 18 30 19 31 69 32 20 33
REMARK SMILES IDX 74 34 68 35 70 36 21 37 73 38 67 39 66 40 22 42 54 43 34 44
REMARK SMILES IDX 53 45 35 46 38 47 52 48 71 49 36 50 37 51 51 53 72 54 39 55
REMARK SMILES IDX 23 56 24 57 32 58 25 59 26 60 30 61 33 62 27 63 28 64 31 65
REMARK SMILES IDX 29 66 55 67 56 68 64 69 57 70 58 71 62 72 65 73 59 74 60 75
REMARK SMILES IDX 63 76 61 77 40 78 41 79 49 80 42 81 43 82 47 83 50 84 44 85
REMARK SMILES IDX 45 86 48 87 46 88
REMARK H PARENT 70 41 38 52
REMARK Flexibility Score: inf
ROOT
ATOM      1  O   UNL     1       0.840   3.274  -3.197  1.00  0.00    -0.374 OA
ENDROOT
BRANCH   1   2
ATOM      2  C   UNL     1       2.116   3.653  -2.690  1.00  0.00     0.202 C 
BRANCH   2   3
ATOM      3  C   UNL     1       2.204   4.038  -1.208  1.00  0.00     0.261 C 
BRANCH   3   4
ATOM      4  O   UNL     1       1.910   2.949  -0.316  1.00  0.00    -0.463 OA
BRANCH   4   5
ATOM      5  C   UNL     1       0.601   2.880   0.066  1.00  0.00     0.313 C 
ATOM      6  O   UNL     1      -0.247   3.669  -0.332  1.00  0.00    -0.252 OA
BRANCH   5   7
ATOM      7  C   UNL     1       0.334   1.688   1.016  1.00  0.00     0.132 C 
ATOM      8  C   UNL     1       1.198   0.469   0.651  1.00  0.00     0.025 C 
BRANCH   7   9
ATOM      9  C   UNL     1      -1.161   1.397   0.985  1.00  0.00     0.032 A 
ATOM     10  C   UNL     1      -1.767   0.264   0.579  1.00  0.00     0.012 A 
ATOM     11  C   UNL     1      -2.048   2.561   1.354  1.00  0.00     0.259 A 
ATOM     12  C   UNL     1      -3.194   0.214   0.365  1.00  0.00     0.019 A 
ATOM     13  N   UNL     1      -3.318   2.526   0.812  1.00  0.00    -0.258 N 
ATOM     14  O   UNL     1      -1.612   3.479   2.044  1.00  0.00    -0.269 OA
ATOM     15  C   UNL     1      -3.906   1.347   0.402  1.00  0.00     0.095 A 
BRANCH  13  16
ATOM     16  C   UNL     1      -4.048   3.763   0.784  1.00  0.00     0.451 C 
ATOM     17  F   UNL     1      -4.813   3.823  -0.341  1.00  0.00    -0.185 F 
ATOM     18  F   UNL     1      -4.911   3.814   1.830  1.00  0.00    -0.185 F 
ENDBRANCH  13  16
ENDBRANCH   7   9
ENDBRANCH   5   7
ENDBRANCH   4   5
ENDBRANCH   3   4
ENDBRANCH   2   3
ENDBRANCH   1   2
BRANCH   1  19
ATOM     19  C   UNL     1       0.429   1.921  -2.999  1.00  0.00     0.202 C 
BRANCH  19  20
ATOM     20  C   UNL     1       1.034   0.887  -3.954  1.00  0.00     0.261 C 
BRANCH  20  21
ATOM     21  O   UNL     1       2.443   0.719  -3.713  1.00  0.00    -0.460 OA
BRANCH  21  22
ATOM     22  C   UNL     1       3.243   1.145  -4.716  1.00  0.00     0.338 C 
ATOM     23  O   UNL     1       2.900   1.521  -5.830  1.00  0.00    -0.246 OA
BRANCH  22  24
ATOM     24  C   UNL     1       4.631   1.282  -4.238  1.00  0.00     0.060 A 
ATOM     25  C   UNL     1       5.275   2.502  -4.486  1.00  0.00     0.016 A 
ATOM     26  C   UNL     1       5.315   0.229  -3.628  1.00  0.00     0.016 A 
ATOM     27  C   UNL     1       6.627   2.651  -4.187  1.00  0.00     0.010 A 
ATOM     28  C   UNL     1       6.676   0.377  -3.337  1.00  0.00     0.010 A 
ATOM     29  C   UNL     1       7.346   1.573  -3.654  1.00  0.00    -0.014 A 
BRANCH  29  30
ATOM     30  C   UNL     1       8.825   1.650  -3.595  1.00  0.00     0.031 A 
ATOM     31  C   UNL     1       9.629   1.010  -4.693  1.00  0.00     0.074 A 
ATOM     32  C   UNL     1       9.444   2.319  -2.606  1.00  0.00     0.049 A 
ATOM     33  N   UNL     1      10.928   0.936  -4.840  1.00  0.00    -0.248 NA
ATOM     34  C   UNL     1       8.864   0.367  -5.773  1.00  0.00     0.031 C 
ATOM     35  C   UNL     1       8.773   3.017  -1.512  1.00  0.00     0.029 A 
ATOM     36  N   UNL     1      10.780   2.515  -2.365  1.00  0.00    -0.354 N 
ATOM     37  C   UNL     1      11.134   0.240  -6.024  1.00  0.00     0.074 A 
ATOM     38  C   UNL     1       9.831  -0.116  -6.540  1.00  0.00     0.031 C 
ATOM     39  C   UNL     1       9.704   3.556  -0.706  1.00  0.00     0.029 A 
ATOM     40  C   UNL     1      11.033   3.217  -1.213  1.00  0.00     0.049 A 
ATOM     41  H   UNL     1      11.491   2.185  -2.962  1.00  0.00     0.167 HD
ATOM     42  C   UNL     1      12.306  -0.064  -6.631  1.00  0.00     0.037 A 
ATOM     43  C   UNL     1      12.204   3.530  -0.626  1.00  0.00     0.037 A 
ATOM     44  C   UNL     1      13.602   0.291  -6.117  1.00  0.00     0.049 A 
ATOM     45  C   UNL     1      13.495   3.119  -1.286  1.00  0.00     0.074 A 
ATOM     46  C   UNL     1      14.847   0.036  -6.664  1.00  0.00     0.029 A 
ATOM     47  N   UNL     1      13.818   0.975  -4.930  1.00  0.00    -0.354 N 
ATOM     48  N   UNL     1      13.682   2.476  -2.413  1.00  0.00    -0.248 NA
ATOM     49  C   UNL     1      14.740   3.481  -0.591  1.00  0.00     0.031 C 
ATOM     50  C   UNL     1      15.819   0.525  -5.784  1.00  0.00     0.029 A 
ATOM     51  C   UNL     1      15.178   1.130  -4.715  1.00  0.00     0.049 A 
ATOM     52  H   UNL     1      13.110   1.302  -4.330  1.00  0.00     0.167 HD
ATOM     53  C   UNL     1      15.058   2.381  -2.577  1.00  0.00     0.074 A 
ATOM     54  C   UNL     1      15.660   3.043  -1.439  1.00  0.00     0.031 C 
ATOM     55  C   UNL     1      15.761   1.798  -3.580  1.00  0.00     0.037 A 
BRANCH  42  56
ATOM     56  C   UNL     1      12.238  -0.841  -7.913  1.00  0.00     0.064 A 
ATOM     57  C   UNL     1      11.787  -0.255  -9.106  1.00  0.00     0.173 A 
ATOM     58  C   UNL     1      12.660  -2.178  -7.957  1.00  0.00     0.173 A 
ATOM     59  F   UNL     1      11.357   1.016  -9.114  1.00  0.00    -0.203 F 
ATOM     60  C   UNL     1      11.739  -0.988 -10.290  1.00  0.00     0.198 A 
ATOM     61  C   UNL     1      12.637  -2.898  -9.148  1.00  0.00     0.198 A 
ATOM     62  F   UNL     1      13.103  -2.784  -6.845  1.00  0.00    -0.203 F 
ATOM     63  F   UNL     1      11.262  -0.421 -11.407  1.00  0.00    -0.200 F 
ATOM     64  C   UNL     1      12.170  -2.305 -10.311  1.00  0.00     0.200 A 
ATOM     65  F   UNL     1      13.064  -4.168  -9.169  1.00  0.00    -0.200 F 
ATOM     66  F   UNL     1      12.129  -3.007 -11.452  1.00  0.00    -0.200 F 
ENDBRANCH  42  56
BRANCH  43  67
ATOM     67  C   UNL     1      12.213   4.259   0.669  1.00  0.00     0.064 A 
ATOM     68  C   UNL     1      12.680   5.577   0.757  1.00  0.00     0.173 A 
ATOM     69  C   UNL     1      11.768   3.643   1.849  1.00  0.00     0.173 A 
ATOM     70  F   UNL     1      13.140   6.199  -0.338  1.00  0.00    -0.203 F 
ATOM     71  C   UNL     1      12.719   6.245   1.980  1.00  0.00     0.198 A 
ATOM     72  C   UNL     1      11.781   4.322   3.065  1.00  0.00     0.198 A 
ATOM     73  F   UNL     1      11.313   2.382   1.818  1.00  0.00    -0.203 F 
ATOM     74  F   UNL     1      13.215   7.489   2.045  1.00  0.00    -0.200 F 
ATOM     75  C   UNL     1      12.264   5.620   3.131  1.00  0.00     0.200 A 
ATOM     76  F   UNL     1      11.331   3.717   4.172  1.00  0.00    -0.200 F 
ATOM     77  F   UNL     1      12.300   6.264   4.305  1.00  0.00    -0.200 F 
ENDBRANCH  43  67
BRANCH  55  78
ATOM     78  C   UNL     1      17.258   1.879  -3.512  1.00  0.00     0.064 A 
ATOM     79  C   UNL     1      17.995   1.123  -2.588  1.00  0.00     0.173 A 
ATOM     80  C   UNL     1      17.967   2.689  -4.412  1.00  0.00     0.173 A 
ATOM     81  F   UNL     1      17.363   0.343  -1.697  1.00  0.00    -0.203 F 
ATOM     82  C   UNL     1      19.385   1.193  -2.553  1.00  0.00     0.198 A 
ATOM     83  C   UNL     1      19.358   2.735  -4.393  1.00  0.00     0.198 A 
ATOM     84  F   UNL     1      17.310   3.426  -5.320  1.00  0.00    -0.203 F 
ATOM     85  F   UNL     1      20.066   0.496  -1.632  1.00  0.00    -0.200 F 
ATOM     86  C   UNL     1      20.066   1.993  -3.459  1.00  0.00     0.200 A 
ATOM     87  F   UNL     1      20.015   3.497  -5.278  1.00  0.00    -0.200 F 
ATOM     88  F   UNL     1      21.404   2.053  -3.428  1.00  0.00    -0.200 F 
ENDBRANCH  55  78
ENDBRANCH  29  30
ENDBRANCH  22  24
ENDBRANCH  21  22
ENDBRANCH  20  21
ENDBRANCH  19  20
ENDBRANCH   1  19
TORSDOF 16
