REMARK SMILES O=C1C[C@H](c2cn[nH]c2C(=O)OCCOCCOC(=O)c2ccc(-c3c4nc(c(-c5c(F)c(F)c(F)c(F)c5F)c5ccc([nH]5)c(-c5c(F)c(F)c(F)c(F)c5F)c5nc(c(-c6c(F)c(F)c(F)c(F)c6F)c6ccc3[nH]6)C=C5)C=C4)cc2)c2c(-c3cccs3)n[nH]c2N1
REMARK SMILES IDX 15 1 14 2 13 3 12 4 10 5 11 6 9 7 5 8 6 9 7 10 8 11 4 13
REMARK SMILES IDX 1 14 2 15 3 16 94 17 93 18 84 20 92 21 85 22 91 23 86 25
REMARK SMILES IDX 87 26 90 27 88 28 89 29 16 30 17 31 18 32 19 33 20 34 21 35
REMARK SMILES IDX 22 36 83 37 23 38 82 39 24 40 25 41 26 42 76 43 27 44 81 45
REMARK SMILES IDX 75 46 77 47 28 48 80 49 74 50 73 51 29 53 61 54 41 55 60 56
REMARK SMILES IDX 42 57 45 58 59 59 78 60 43 61 44 62 58 64 79 65 46 66 30 67
REMARK SMILES IDX 31 68 39 69 32 70 33 71 37 72 40 73 34 74 35 75 38 76 36 77
REMARK SMILES IDX 62 78 63 79 71 80 64 81 65 82 69 83 72 84 66 85 67 86 70 87
REMARK SMILES IDX 68 88 47 89 48 90 56 91 49 92 50 93 54 94 57 95 51 96 52 97
REMARK SMILES IDX 55 98 53 99
REMARK H PARENT 8 12 94 19 92 24 77 52 45 63
REMARK Flexibility Score: inf
ROOT
ATOM      1  O   UNL     1       6.084  -2.675  -4.280  1.00  0.00    -0.374 OA
ENDROOT
BRANCH   1   2
ATOM      2  C   UNL     1       6.449  -2.862  -2.909  1.00  0.00     0.202 C 
BRANCH   2   3
ATOM      3  C   UNL     1       7.220  -1.718  -2.261  1.00  0.00     0.261 C 
BRANCH   3   4
ATOM      4  O   UNL     1       6.360  -0.587  -2.004  1.00  0.00    -0.459 OA
BRANCH   4   5
ATOM      5  C   UNL     1       6.732   0.569  -2.611  1.00  0.00     0.356 C 
ATOM      6  O   UNL     1       7.697   0.681  -3.356  1.00  0.00    -0.244 OA
BRANCH   5   7
ATOM      7  C   UNL     1       5.755   1.616  -2.455  1.00  0.00     0.147 A 
ATOM      8  C   UNL     1       4.883   2.109  -1.480  1.00  0.00     0.013 A 
ATOM      9  C   UNL     1       4.327   3.268  -2.110  1.00  0.00     0.140 A 
ATOM     10  N   UNL     1       4.739   3.449  -3.358  1.00  0.00    -0.183 NA
ATOM     11  N   UNL     1       5.620   2.464  -3.530  1.00  0.00    -0.271 N 
ATOM     12  H   UNL     1       6.135   2.352  -4.361  1.00  0.00     0.190 HD
BRANCH   8  13
ATOM     13  C   UNL     1       4.572   1.780  -0.026  1.00  0.00     0.069 C 
ATOM     14  O   UNL     1       1.220   0.178   0.066  1.00  0.00    -0.275 OA
ATOM     15  C   UNL     1       2.421   0.332   0.287  1.00  0.00     0.226 C 
ATOM     16  C   UNL     1       3.049   1.716   0.253  1.00  0.00     0.114 C 
ATOM     17  N   UNL     1       3.196  -0.728   0.693  1.00  0.00    -0.311 N 
ATOM     18  C   UNL     1       4.543  -0.569   0.809  1.00  0.00     0.132 A 
ATOM     19  H   UNL     1       2.780  -1.596   0.898  1.00  0.00     0.171 HD
ATOM     20  C   UNL     1       5.232   0.577   0.533  1.00  0.00     0.031 A 
ATOM     21  N   UNL     1       5.456  -1.515   1.156  1.00  0.00    -0.262 N 
ATOM     22  C   UNL     1       6.571   0.263   0.856  1.00  0.00     0.108 A 
ATOM     23  N   UNL     1       6.718  -1.039   1.155  1.00  0.00    -0.173 NA
ATOM     24  H   UNL     1       5.222  -2.445   1.382  1.00  0.00     0.192 HD
BRANCH  22  25
ATOM     25  C   UNL     1       7.716   1.208   0.723  1.00  0.00     0.055 A 
ATOM     26  C   UNL     1       8.844   0.943  -0.021  1.00  0.00     0.022 A 
ATOM     27  S   UNL     1       7.729   2.780   1.382  1.00  0.00    -0.142 S 
ATOM     28  C   UNL     1       9.667   2.100  -0.151  1.00  0.00     0.012 A 
ATOM     29  C   UNL     1       9.206   3.151   0.610  1.00  0.00     0.065 A 
ENDBRANCH  22  25
ENDBRANCH   8  13
ENDBRANCH   5   7
ENDBRANCH   4   5
ENDBRANCH   3   4
ENDBRANCH   2   3
ENDBRANCH   1   2
BRANCH   1  30
ATOM     30  C   UNL     1       5.119  -1.682  -4.607  1.00  0.00     0.202 C 
BRANCH  30  31
ATOM     31  C   UNL     1       3.675  -2.018  -4.295  1.00  0.00     0.261 C 
BRANCH  31  32
ATOM     32  O   UNL     1       3.536  -2.455  -2.960  1.00  0.00    -0.460 OA
BRANCH  32  33
ATOM     33  C   UNL     1       3.379  -3.790  -2.797  1.00  0.00     0.338 C 
ATOM     34  O   UNL     1       3.706  -4.690  -3.539  1.00  0.00    -0.246 OA
BRANCH  33  35
ATOM     35  C   UNL     1       2.562  -3.941  -1.592  1.00  0.00     0.060 A 
ATOM     36  C   UNL     1       2.302  -5.216  -1.091  1.00  0.00     0.016 A 
ATOM     37  C   UNL     1       1.856  -2.814  -1.154  1.00  0.00     0.016 A 
ATOM     38  C   UNL     1       1.164  -5.378  -0.326  1.00  0.00     0.010 A 
ATOM     39  C   UNL     1       0.804  -2.959  -0.310  1.00  0.00     0.010 A 
ATOM     40  C   UNL     1       0.383  -4.248  -0.064  1.00  0.00    -0.014 A 
BRANCH  40  41
ATOM     41  C   UNL     1      -0.974  -4.356   0.401  1.00  0.00     0.031 A 
ATOM     42  C   UNL     1      -1.055  -4.707   1.824  1.00  0.00     0.074 A 
ATOM     43  C   UNL     1      -1.998  -3.941  -0.373  1.00  0.00     0.049 A 
ATOM     44  N   UNL     1      -1.366  -5.853   2.321  1.00  0.00    -0.248 NA
ATOM     45  C   UNL     1      -0.495  -3.754   2.796  1.00  0.00     0.031 C 
ATOM     46  C   UNL     1      -1.967  -3.249  -1.670  1.00  0.00     0.029 A 
ATOM     47  N   UNL     1      -3.322  -3.981  -0.089  1.00  0.00    -0.354 N 
ATOM     48  C   UNL     1      -1.270  -5.689   3.695  1.00  0.00     0.074 A 
ATOM     49  C   UNL     1      -0.494  -4.497   3.904  1.00  0.00     0.031 C 
ATOM     50  C   UNL     1      -3.193  -2.745  -1.944  1.00  0.00     0.029 A 
ATOM     51  C   UNL     1      -4.119  -3.216  -0.934  1.00  0.00     0.049 A 
ATOM     52  H   UNL     1      -3.690  -4.510   0.655  1.00  0.00     0.167 HD
ATOM     53  C   UNL     1      -2.093  -6.383   4.526  1.00  0.00     0.037 A 
ATOM     54  C   UNL     1      -5.436  -2.965  -0.728  1.00  0.00     0.037 A 
ATOM     55  C   UNL     1      -2.732  -7.468   3.815  1.00  0.00     0.049 A 
ATOM     56  C   UNL     1      -5.921  -3.995   0.236  1.00  0.00     0.074 A 
ATOM     57  C   UNL     1      -2.267  -8.592   3.160  1.00  0.00     0.029 A 
ATOM     58  N   UNL     1      -4.005  -7.254   3.337  1.00  0.00    -0.354 N 
ATOM     59  N   UNL     1      -5.979  -5.271  -0.047  1.00  0.00    -0.248 NA
ATOM     60  C   UNL     1      -5.825  -3.678   1.655  1.00  0.00     0.031 C 
ATOM     61  C   UNL     1      -3.083  -8.707   1.995  1.00  0.00     0.029 A 
ATOM     62  C   UNL     1      -4.054  -7.704   2.041  1.00  0.00     0.049 A 
ATOM     63  H   UNL     1      -4.750  -6.849   3.837  1.00  0.00     0.167 HD
ATOM     64  C   UNL     1      -5.520  -5.916   1.096  1.00  0.00     0.074 A 
ATOM     65  C   UNL     1      -5.492  -4.883   2.130  1.00  0.00     0.031 C 
ATOM     66  C   UNL     1      -4.913  -7.139   1.023  1.00  0.00     0.037 A 
BRANCH  53  67
ATOM     67  C   UNL     1      -2.621  -5.860   5.837  1.00  0.00     0.064 A 
ATOM     68  C   UNL     1      -3.378  -6.727   6.647  1.00  0.00     0.173 A 
ATOM     69  C   UNL     1      -2.665  -4.496   6.203  1.00  0.00     0.173 A 
ATOM     70  F   UNL     1      -3.408  -8.045   6.396  1.00  0.00    -0.203 F 
ATOM     71  C   UNL     1      -4.192  -6.252   7.677  1.00  0.00     0.198 A 
ATOM     72  C   UNL     1      -3.437  -4.032   7.265  1.00  0.00     0.198 A 
ATOM     73  F   UNL     1      -2.061  -3.536   5.496  1.00  0.00    -0.203 F 
ATOM     74  F   UNL     1      -4.995  -7.101   8.332  1.00  0.00    -0.200 F 
ATOM     75  C   UNL     1      -4.229  -4.904   7.978  1.00  0.00     0.200 A 
ATOM     76  F   UNL     1      -3.464  -2.719   7.533  1.00  0.00    -0.200 F 
ATOM     77  F   UNL     1      -5.058  -4.437   8.920  1.00  0.00    -0.200 F 
ENDBRANCH  53  67
BRANCH  54  78
ATOM     78  C   UNL     1      -6.171  -1.708  -1.006  1.00  0.00     0.064 A 
ATOM     79  C   UNL     1      -7.571  -1.682  -1.096  1.00  0.00     0.173 A 
ATOM     80  C   UNL     1      -5.526  -0.457  -0.922  1.00  0.00     0.173 A 
ATOM     81  F   UNL     1      -8.263  -2.829  -1.128  1.00  0.00    -0.203 F 
ATOM     82  C   UNL     1      -8.284  -0.476  -1.091  1.00  0.00     0.198 A 
ATOM     83  C   UNL     1      -6.237   0.744  -0.919  1.00  0.00     0.198 A 
ATOM     84  F   UNL     1      -4.198  -0.382  -0.747  1.00  0.00    -0.203 F 
ATOM     85  F   UNL     1      -9.624  -0.491  -1.128  1.00  0.00    -0.200 F 
ATOM     86  C   UNL     1      -7.617   0.734  -0.994  1.00  0.00     0.200 A 
ATOM     87  F   UNL     1      -5.582   1.905  -0.781  1.00  0.00    -0.200 F 
ATOM     88  F   UNL     1      -8.302   1.885  -0.930  1.00  0.00    -0.200 F 
ENDBRANCH  54  78
BRANCH  66  89
ATOM     89  C   UNL     1      -4.953  -7.868  -0.295  1.00  0.00     0.064 A 
ATOM     90  C   UNL     1      -4.300  -7.425  -1.460  1.00  0.00     0.173 A 
ATOM     91  C   UNL     1      -5.516  -9.149  -0.326  1.00  0.00     0.173 A 
ATOM     92  F   UNL     1      -3.654  -6.255  -1.484  1.00  0.00    -0.203 F 
ATOM     93  C   UNL     1      -4.240  -8.218  -2.607  1.00  0.00     0.198 A 
ATOM     94  C   UNL     1      -5.425  -9.954  -1.459  1.00  0.00     0.198 A 
ATOM     95  F   UNL     1      -6.102  -9.649   0.773  1.00  0.00    -0.203 F 
ATOM     96  F   UNL     1      -3.606  -7.772  -3.702  1.00  0.00    -0.200 F 
ATOM     97  C   UNL     1      -4.794  -9.487  -2.601  1.00  0.00     0.200 A 
ATOM     98  F   UNL     1      -5.918 -11.200  -1.430  1.00  0.00    -0.200 F 
ATOM     99  F   UNL     1      -4.693 -10.271  -3.683  1.00  0.00    -0.200 F 
ENDBRANCH  66  89
ENDBRANCH  40  41
ENDBRANCH  33  35
ENDBRANCH  32  33
ENDBRANCH  31  32
ENDBRANCH  30  31
ENDBRANCH   1  30
TORSDOF 16
