REMARK SMILES N#Cc1cccnc1N1CC[NH+]([C@@H](C(=O)OCCOCCOC(=O)c2ccc(-c3c4nc(c(-c5c(F)c(F)c(F)c(F)c5F)c5ccc([nH]5)c(-c5c(F)c(F)c(F)c(F)c5F)c5nc(c(-c6c(F)c(F)c(F)c(F)c6F)c6ccc3[nH]6)C=C5)C=C4)cc2)c2c[nH]c3cc(CO)ccc23)CC1
REMARK SMILES IDX 18 1 17 2 16 3 14 4 15 5 13 6 12 7 9 8 10 9 100 10 11 11
REMARK SMILES IDX 99 12 8 14 3 15 4 16 5 17 7 18 6 19 2 20 1 21 88 22 89 23
REMARK SMILES IDX 98 24 90 25 91 26 97 27 92 29 96 30 93 31 94 32 95 33 19 35
REMARK SMILES IDX 20 36 21 37 22 38 23 39 24 40 25 41 26 42 87 43 27 44 86 45
REMARK SMILES IDX 28 46 29 47 30 48 80 49 31 50 85 51 79 52 81 53 32 54 84 55
REMARK SMILES IDX 78 56 77 57 33 59 65 60 45 61 64 62 46 63 49 64 63 65 82 66
REMARK SMILES IDX 47 67 48 68 62 70 83 71 50 72 34 73 35 74 43 75 36 76 37 77
REMARK SMILES IDX 41 78 44 79 38 80 39 81 42 82 40 83 66 84 67 85 75 86 68 87
REMARK SMILES IDX 69 88 73 89 76 90 70 91 71 92 74 93 72 94 51 95 52 96 60 97
REMARK SMILES IDX 53 98 54 99 58 100 61 101 55 102 56 103 59 104 57 105
REMARK H PARENT 12 13 90 28 95 34 81 58 49 69
REMARK Flexibility Score: inf
ROOT
ATOM      1  C   UNL     1      -2.263  -3.997   2.941  1.00  0.00     0.202 C 
ENDROOT
BRANCH   1   2
ATOM      2  C   UNL     1      -0.912  -4.723   2.975  1.00  0.00     0.261 C 
BRANCH   2   3
ATOM      3  O   UNL     1      -0.202  -4.700   1.717  1.00  0.00    -0.459 OA
BRANCH   3   4
ATOM      4  C   UNL     1      -0.075  -5.904   1.081  1.00  0.00     0.370 C 
ATOM      5  O   UNL     1      -0.532  -6.949   1.543  1.00  0.00    -0.245 OA
BRANCH   4   6
ATOM      6  C   UNL     1       0.651  -5.863  -0.283  1.00  0.00     0.328 C 
BRANCH   6   7
ATOM      7  N   UNL     1       1.791  -4.900  -0.528  1.00  0.00    -0.316 N 
ATOM      8  N   UNL     1       1.490  -1.978  -0.979  1.00  0.00    -0.344 N 
ATOM      9  C   UNL     1       1.032  -2.999  -1.922  1.00  0.00     0.179 C 
ATOM     10  C   UNL     1       1.683  -2.499   0.410  1.00  0.00     0.179 C 
ATOM     11  C   UNL     1       1.962  -4.205  -1.802  1.00  0.00     0.285 C 
ATOM     12  C   UNL     1       2.243  -3.962   0.510  1.00  0.00     0.285 C 
ATOM     13  H   UNL     1       2.372  -5.738  -0.520  1.00  0.00     0.349 HD
BRANCH   8  14
ATOM     14  C   UNL     1       0.797  -0.769  -1.161  1.00  0.00     0.146 A 
ATOM     15  C   UNL     1       1.397   0.481  -0.988  1.00  0.00     0.095 A 
ATOM     16  C   UNL     1       0.599   1.640  -1.009  1.00  0.00     0.025 A 
ATOM     17  C   UNL     1      -0.771   1.540  -1.218  1.00  0.00     0.022 A 
ATOM     18  N   UNL     1      -0.527  -0.841  -1.460  1.00  0.00    -0.238 NA
ATOM     19  C   UNL     1      -1.279   0.286  -1.470  1.00  0.00     0.113 A 
BRANCH  15  20
ATOM     20  C   UNL     1       2.804   0.618  -0.747  1.00  0.00     0.103 C 
ATOM     21  N   UNL     1       3.921   0.791  -0.518  1.00  0.00    -0.192 NA
ENDBRANCH  15  20
ENDBRANCH   8  14
ENDBRANCH   6   7
BRANCH   6  22
ATOM     22  C   UNL     1      -0.228  -6.355  -1.502  1.00  0.00     0.046 A 
ATOM     23  C   UNL     1       0.282  -7.261  -2.438  1.00  0.00     0.094 A 
ATOM     24  C   UNL     1      -1.166  -5.673  -2.360  1.00  0.00     0.009 A 
ATOM     25  N   UNL     1       0.567  -6.396  -3.494  1.00  0.00    -0.361 N 
ATOM     26  C   UNL     1      -0.426  -5.437  -3.518  1.00  0.00     0.046 A 
ATOM     27  C   UNL     1      -2.534  -5.351  -2.443  1.00  0.00     0.011 A 
ATOM     28  H   UNL     1       1.333  -6.458  -4.109  1.00  0.00     0.166 HD
ATOM     29  C   UNL     1      -0.747  -4.430  -4.430  1.00  0.00     0.032 A 
ATOM     30  C   UNL     1      -2.957  -4.463  -3.452  1.00  0.00     0.007 A 
ATOM     31  C   UNL     1      -2.036  -3.890  -4.341  1.00  0.00    -0.021 A 
BRANCH  31  32
ATOM     32  C   UNL     1      -2.430  -2.713  -5.197  1.00  0.00     0.191 C 
BRANCH  32  33
ATOM     33  O   UNL     1      -2.594  -1.543  -4.399  1.00  0.00    -0.392 OA
ATOM     34  H   UNL     1      -3.294  -1.693  -3.744  1.00  0.00     0.211 HD
ENDBRANCH  32  33
ENDBRANCH  31  32
ENDBRANCH   6  22
ENDBRANCH   4   6
ENDBRANCH   3   4
ENDBRANCH   2   3
ENDBRANCH   1   2
BRANCH   1  35
ATOM     35  O   UNL     1      -3.203  -4.375   1.944  1.00  0.00    -0.374 OA
BRANCH  35  36
ATOM     36  C   UNL     1      -2.844  -4.199   0.581  1.00  0.00     0.202 C 
BRANCH  36  37
ATOM     37  C   UNL     1      -2.582  -2.785   0.073  1.00  0.00     0.261 C 
BRANCH  37  38
ATOM     38  O   UNL     1      -1.666  -2.053   0.901  1.00  0.00    -0.460 OA
BRANCH  38  39
ATOM     39  C   UNL     1      -2.205  -0.941   1.444  1.00  0.00     0.338 C 
ATOM     40  O   UNL     1      -3.344  -0.528   1.271  1.00  0.00    -0.246 OA
BRANCH  39  41
ATOM     41  C   UNL     1      -1.292  -0.218   2.351  1.00  0.00     0.060 A 
ATOM     42  C   UNL     1      -1.889   0.432   3.422  1.00  0.00     0.016 A 
ATOM     43  C   UNL     1       0.043   0.041   2.050  1.00  0.00     0.016 A 
ATOM     44  C   UNL     1      -1.220   1.478   4.035  1.00  0.00     0.010 A 
ATOM     45  C   UNL     1       0.733   1.081   2.662  1.00  0.00     0.010 A 
ATOM     46  C   UNL     1       0.058   1.855   3.596  1.00  0.00    -0.014 A 
BRANCH  46  47
ATOM     47  C   UNL     1       0.662   3.065   4.162  1.00  0.00     0.031 A 
ATOM     48  C   UNL     1       0.602   4.369   3.428  1.00  0.00     0.074 A 
ATOM     49  C   UNL     1       1.155   2.961   5.402  1.00  0.00     0.049 A 
ATOM     50  N   UNL     1       0.846   5.573   3.873  1.00  0.00    -0.248 NA
ATOM     51  C   UNL     1       0.229   4.319   2.006  1.00  0.00     0.031 C 
ATOM     52  C   UNL     1       1.292   1.705   6.141  1.00  0.00     0.029 A 
ATOM     53  N   UNL     1       1.583   3.921   6.269  1.00  0.00    -0.354 N 
ATOM     54  C   UNL     1       0.624   6.427   2.800  1.00  0.00     0.074 A 
ATOM     55  C   UNL     1       0.298   5.598   1.659  1.00  0.00     0.031 C 
ATOM     56  C   UNL     1       1.726   1.978   7.378  1.00  0.00     0.029 A 
ATOM     57  C   UNL     1       1.910   3.419   7.500  1.00  0.00     0.049 A 
ATOM     58  H   UNL     1       1.651   4.875   6.034  1.00  0.00     0.167 HD
ATOM     59  C   UNL     1       0.659   7.781   2.797  1.00  0.00     0.037 A 
ATOM     60  C   UNL     1       2.296   4.070   8.608  1.00  0.00     0.037 A 
ATOM     61  C   UNL     1       0.996   8.566   3.959  1.00  0.00     0.049 A 
ATOM     62  C   UNL     1       2.324   5.572   8.568  1.00  0.00     0.074 A 
ATOM     63  C   UNL     1       1.039   9.942   4.096  1.00  0.00     0.029 A 
ATOM     64  N   UNL     1       1.356   8.032   5.191  1.00  0.00    -0.354 N 
ATOM     65  N   UNL     1       2.019   6.385   7.583  1.00  0.00    -0.248 NA
ATOM     66  C   UNL     1       2.720   6.248   9.806  1.00  0.00     0.031 C 
ATOM     67  C   UNL     1       1.476  10.239   5.392  1.00  0.00     0.029 A 
ATOM     68  C   UNL     1       1.638   9.050   6.087  1.00  0.00     0.049 A 
ATOM     69  H   UNL     1       1.403   7.070   5.397  1.00  0.00     0.167 HD
ATOM     70  C   UNL     1       2.163   7.668   8.090  1.00  0.00     0.074 A 
ATOM     71  C   UNL     1       2.538   7.518   9.482  1.00  0.00     0.031 C 
ATOM     72  C   UNL     1       2.011   8.864   7.467  1.00  0.00     0.037 A 
BRANCH  59  73
ATOM     73  C   UNL     1       0.303   8.505   1.527  1.00  0.00     0.064 A 
ATOM     74  C   UNL     1      -1.006   8.495   1.021  1.00  0.00     0.173 A 
ATOM     75  C   UNL     1       1.252   9.292   0.855  1.00  0.00     0.173 A 
ATOM     76  F   UNL     1      -1.955   7.757   1.617  1.00  0.00    -0.203 F 
ATOM     77  C   UNL     1      -1.348   9.233  -0.111  1.00  0.00     0.198 A 
ATOM     78  C   UNL     1       0.900  10.052  -0.259  1.00  0.00     0.198 A 
ATOM     79  F   UNL     1       2.519   9.347   1.295  1.00  0.00    -0.203 F 
ATOM     80  F   UNL     1      -2.599   9.180  -0.591  1.00  0.00    -0.200 F 
ATOM     81  C   UNL     1      -0.398  10.019  -0.743  1.00  0.00     0.200 A 
ATOM     82  F   UNL     1       1.817  10.826  -0.857  1.00  0.00    -0.200 F 
ATOM     83  F   UNL     1      -0.733  10.745  -1.819  1.00  0.00    -0.200 F 
ENDBRANCH  59  73
BRANCH  60  84
ATOM     84  C   UNL     1       2.659   3.307   9.826  1.00  0.00     0.064 A 
ATOM     85  C   UNL     1       1.924   3.428  11.012  1.00  0.00     0.173 A 
ATOM     86  C   UNL     1       3.770   2.450   9.829  1.00  0.00     0.173 A 
ATOM     87  F   UNL     1       0.848   4.228  11.057  1.00  0.00    -0.203 F 
ATOM     88  C   UNL     1       2.324   2.770  12.172  1.00  0.00     0.198 A 
ATOM     89  C   UNL     1       4.142   1.758  10.977  1.00  0.00     0.198 A 
ATOM     90  F   UNL     1       4.489   2.275   8.711  1.00  0.00    -0.203 F 
ATOM     91  F   UNL     1       1.651   2.966  13.314  1.00  0.00    -0.200 F 
ATOM     92  C   UNL     1       3.431   1.936  12.154  1.00  0.00     0.200 A 
ATOM     93  F   UNL     1       5.193   0.928  10.944  1.00  0.00    -0.200 F 
ATOM     94  F   UNL     1       3.820   1.310  13.273  1.00  0.00    -0.200 F 
ENDBRANCH  60  84
BRANCH  72  95
ATOM     95  C   UNL     1       2.221  10.089   8.312  1.00  0.00     0.064 A 
ATOM     96  C   UNL     1       3.479  10.416   8.842  1.00  0.00     0.173 A 
ATOM     97  C   UNL     1       1.144  10.937   8.611  1.00  0.00     0.173 A 
ATOM     98  F   UNL     1       4.540   9.632   8.596  1.00  0.00    -0.203 F 
ATOM     99  C   UNL     1       3.636  11.507   9.691  1.00  0.00     0.198 A 
ATOM    100  C   UNL     1       1.315  12.055   9.421  1.00  0.00     0.198 A 
ATOM    101  F   UNL     1      -0.078  10.681   8.120  1.00  0.00    -0.203 F 
ATOM    102  F   UNL     1       4.826  11.742  10.261  1.00  0.00    -0.200 F 
ATOM    103  C   UNL     1       2.556  12.328   9.976  1.00  0.00     0.200 A 
ATOM    104  F   UNL     1       0.275  12.860   9.677  1.00  0.00    -0.200 F 
ATOM    105  F   UNL     1       2.708  13.374  10.799  1.00  0.00    -0.200 F 
ENDBRANCH  72  95
ENDBRANCH  46  47
ENDBRANCH  39  41
ENDBRANCH  38  39
ENDBRANCH  37  38
ENDBRANCH  36  37
ENDBRANCH  35  36
ENDBRANCH   1  35
TORSDOF 20
