REMARK SMILES O=C(COc1ccc(Br)cc1/C=C1\C(=O)Nc2ccc(Br)cc21)OCCOCCOC(=O)c1ccc(-c2c3nc(c(-c4c(F)c(F)c(F)c(F)c4F)c4ccc([nH]4)c(-c4c(F)c(F)c(F)c(F)c4F)c4nc(c(-c5c(F)c(F)c(F)c(F)c5F)c5ccc2[nH]5)C=C4)C=C3)cc1
REMARK SMILES IDX 26 1 25 2 24 3 2 4 1 5 3 6 4 7 5 8 6 9 11 10 7 11 10 12 8 13
REMARK SMILES IDX 9 14 12 15 13 16 14 17 23 18 15 19 16 20 17 21 22 22 18 24
REMARK SMILES IDX 20 25 19 26 21 27 27 28 28 29 29 30 30 31 31 32 32 33 33 34
REMARK SMILES IDX 34 35 95 36 35 37 94 38 36 39 37 40 38 41 88 42 39 43 93 44
REMARK SMILES IDX 87 45 89 46 40 47 92 48 86 49 85 50 41 52 73 53 53 54 72 55
REMARK SMILES IDX 54 56 57 57 71 58 90 59 55 60 56 61 70 63 91 64 58 65 42 66
REMARK SMILES IDX 43 67 51 68 44 69 45 70 49 71 52 72 46 73 47 74 50 75 48 76
REMARK SMILES IDX 74 77 75 78 83 79 76 80 77 81 81 82 84 83 78 84 79 85 82 86
REMARK SMILES IDX 80 87 59 88 60 89 68 90 61 91 62 92 66 93 69 94 63 95 64 96
REMARK SMILES IDX 67 97 65 98
REMARK H PARENT 16 23 89 51 57 62
REMARK Flexibility Score: inf
ROOT
ATOM      1  C   UNL     1       4.912   0.221  -1.199  1.00  0.00     0.202 C 
ENDROOT
BRANCH   1   2
ATOM      2  C   UNL     1       4.463  -0.464   0.085  1.00  0.00     0.261 C 
BRANCH   2   3
ATOM      3  O   UNL     1       3.036  -0.427   0.233  1.00  0.00    -0.461 OA
BRANCH   3   4
ATOM      4  C   UNL     1       2.405   0.617   0.830  1.00  0.00     0.344 C 
ATOM      5  O   UNL     1       1.210   0.817   0.615  1.00  0.00    -0.248 OA
BRANCH   4   6
ATOM      6  C   UNL     1       3.202   1.481   1.809  1.00  0.00     0.351 C 
BRANCH   6   7
ATOM      7  O   UNL     1       4.092   0.849   2.734  1.00  0.00    -0.481 OA
BRANCH   7   8
ATOM      8  C   UNL     1       3.450   0.222   3.775  1.00  0.00     0.127 A 
ATOM      9  C   UNL     1       2.503  -0.785   3.504  1.00  0.00     0.048 A 
ATOM     10  C   UNL     1       3.776   0.580   5.102  1.00  0.00     0.018 A 
ATOM     11  C   UNL     1       1.739  -1.340   4.519  1.00  0.00     0.019 A 
ATOM     12  C   UNL     1       2.976  -0.003   6.096  1.00  0.00     0.027 A 
ATOM     13  C   UNL     1       1.958  -0.919   5.813  1.00  0.00     0.018 A 
ATOM     14  Br  UNL     1       0.880  -1.588   7.214  1.00  0.00    -0.051 Br
BRANCH  10  15
ATOM     15  C   UNL     1       4.875   1.560   5.393  1.00  0.00     0.026 C 
ATOM     16  C   UNL     1       5.191   2.225   6.526  1.00  0.00     0.050 C 
ATOM     17  C   UNL     1       4.471   2.187   7.849  1.00  0.00     0.256 C 
ATOM     18  C   UNL     1       5.946   3.494   6.551  1.00  0.00     0.012 A 
ATOM     19  O   UNL     1       4.194   1.240   8.545  1.00  0.00    -0.269 OA
ATOM     20  N   UNL     1       4.356   3.518   8.207  1.00  0.00    -0.321 N 
ATOM     21  C   UNL     1       5.257   4.288   7.484  1.00  0.00     0.049 A 
ATOM     22  C   UNL     1       7.122   3.962   5.995  1.00  0.00     0.026 A 
ATOM     23  H   UNL     1       3.725   3.868   8.877  1.00  0.00     0.170 HD
ATOM     24  C   UNL     1       5.580   5.598   7.758  1.00  0.00     0.028 A 
ATOM     25  C   UNL     1       7.526   5.262   6.342  1.00  0.00     0.018 A 
ATOM     26  C   UNL     1       6.740   6.092   7.168  1.00  0.00     0.018 A 
ATOM     27  Br  UNL     1       9.212   5.907   5.767  1.00  0.00    -0.051 Br
ENDBRANCH  10  15
ENDBRANCH   7   8
ENDBRANCH   6   7
ENDBRANCH   4   6
ENDBRANCH   3   4
ENDBRANCH   2   3
ENDBRANCH   1   2
BRANCH   1  28
ATOM     28  O   UNL     1       4.300   1.483  -1.449  1.00  0.00    -0.374 OA
BRANCH  28  29
ATOM     29  C   UNL     1       3.095   1.445  -2.233  1.00  0.00     0.202 C 
BRANCH  29  30
ATOM     30  C   UNL     1       3.294   1.212  -3.737  1.00  0.00     0.261 C 
BRANCH  30  31
ATOM     31  O   UNL     1       3.488  -0.192  -4.011  1.00  0.00    -0.460 OA
BRANCH  31  32
ATOM     32  C   UNL     1       4.729  -0.552  -4.417  1.00  0.00     0.338 C 
ATOM     33  O   UNL     1       5.659   0.187  -4.690  1.00  0.00    -0.246 OA
BRANCH  32  34
ATOM     34  C   UNL     1       4.884  -2.014  -4.243  1.00  0.00     0.060 A 
ATOM     35  C   UNL     1       3.894  -2.916  -4.638  1.00  0.00     0.016 A 
ATOM     36  C   UNL     1       6.073  -2.479  -3.661  1.00  0.00     0.016 A 
ATOM     37  C   UNL     1       4.119  -4.289  -4.498  1.00  0.00     0.010 A 
ATOM     38  C   UNL     1       6.294  -3.848  -3.515  1.00  0.00     0.010 A 
ATOM     39  C   UNL     1       5.331  -4.762  -3.962  1.00  0.00    -0.014 A 
BRANCH  39  40
ATOM     40  C   UNL     1       5.667  -6.202  -4.046  1.00  0.00     0.031 A 
ATOM     41  C   UNL     1       5.548  -7.114  -2.866  1.00  0.00     0.074 A 
ATOM     42  C   UNL     1       6.110  -6.670  -5.229  1.00  0.00     0.049 A 
ATOM     43  N   UNL     1       5.739  -8.408  -2.808  1.00  0.00    -0.248 NA
ATOM     44  C   UNL     1       5.175  -6.501  -1.585  1.00  0.00     0.031 C 
ATOM     45  C   UNL     1       6.302  -5.856  -6.430  1.00  0.00     0.029 A 
ATOM     46  N   UNL     1       6.472  -7.933  -5.620  1.00  0.00    -0.354 N 
ATOM     47  C   UNL     1       5.481  -8.772  -1.495  1.00  0.00     0.074 A 
ATOM     48  C   UNL     1       5.169  -7.553  -0.775  1.00  0.00     0.031 C 
ATOM     49  C   UNL     1       6.720  -6.643  -7.432  1.00  0.00     0.029 A 
ATOM     50  C   UNL     1       6.843  -8.011  -6.939  1.00  0.00     0.049 A 
ATOM     51  H   UNL     1       6.466  -8.709  -5.014  1.00  0.00     0.167 HD
ATOM     52  C   UNL     1       5.487 -10.014  -0.953  1.00  0.00     0.037 A 
ATOM     53  C   UNL     1       7.229  -9.071  -7.674  1.00  0.00     0.037 A 
ATOM     54  C   UNL     1       5.820 -11.216  -1.677  1.00  0.00     0.049 A 
ATOM     55  C   UNL     1       7.263 -10.429  -7.034  1.00  0.00     0.074 A 
ATOM     56  C   UNL     1       5.825 -12.523  -1.221  1.00  0.00     0.029 A 
ATOM     57  N   UNL     1       6.218 -11.256  -3.006  1.00  0.00    -0.354 N 
ATOM     58  N   UNL     1       6.942 -10.773  -5.811  1.00  0.00    -0.248 NA
ATOM     59  C   UNL     1       7.702 -11.548  -7.878  1.00  0.00     0.031 C 
ATOM     60  C   UNL     1       6.268 -13.348  -2.260  1.00  0.00     0.029 A 
ATOM     61  C   UNL     1       6.494 -12.563  -3.378  1.00  0.00     0.049 A 
ATOM     62  H   UNL     1       6.293 -10.472  -3.597  1.00  0.00     0.167 HD
ATOM     63  C   UNL     1       7.119 -12.147  -5.743  1.00  0.00     0.074 A 
ATOM     64  C   UNL     1       7.561 -12.577  -7.054  1.00  0.00     0.031 C 
ATOM     65  C   UNL     1       6.933 -12.975  -4.687  1.00  0.00     0.037 A 
BRANCH  52  66
ATOM     66  C   UNL     1       5.104 -10.153   0.491  1.00  0.00     0.064 A 
ATOM     67  C   UNL     1       3.769 -10.017   0.902  1.00  0.00     0.173 A 
ATOM     68  C   UNL     1       6.053 -10.525   1.455  1.00  0.00     0.173 A 
ATOM     69  F   UNL     1       2.825  -9.659   0.019  1.00  0.00    -0.203 F 
ATOM     70  C   UNL     1       3.401 -10.240   2.226  1.00  0.00     0.198 A 
ATOM     71  C   UNL     1       5.678 -10.769   2.773  1.00  0.00     0.198 A 
ATOM     72  F   UNL     1       7.341 -10.678   1.111  1.00  0.00    -0.203 F 
ATOM     73  F   UNL     1       2.123 -10.085   2.599  1.00  0.00    -0.200 F 
ATOM     74  C   UNL     1       4.353 -10.625   3.158  1.00  0.00     0.200 A 
ATOM     75  F   UNL     1       6.596 -11.155   3.670  1.00  0.00    -0.200 F 
ATOM     76  F   UNL     1       3.993 -10.860   4.428  1.00  0.00    -0.200 F 
ENDBRANCH  52  66
BRANCH  53  77
ATOM     77  C   UNL     1       7.563  -8.886  -9.108  1.00  0.00     0.064 A 
ATOM     78  C   UNL     1       6.711  -9.370 -10.110  1.00  0.00     0.173 A 
ATOM     79  C   UNL     1       8.717  -8.196  -9.507  1.00  0.00     0.173 A 
ATOM     80  F   UNL     1       5.604 -10.049  -9.775  1.00  0.00    -0.203 F 
ATOM     81  C   UNL     1       7.006  -9.181 -11.457  1.00  0.00     0.198 A 
ATOM     82  C   UNL     1       8.998  -7.986 -10.855  1.00  0.00     0.198 A 
ATOM     83  F   UNL     1       9.559  -7.707  -8.585  1.00  0.00    -0.203 F 
ATOM     84  F   UNL     1       6.191  -9.681 -12.396  1.00  0.00    -0.200 F 
ATOM     85  C   UNL     1       8.145  -8.483 -11.829  1.00  0.00     0.200 A 
ATOM     86  F   UNL     1      10.091  -7.297 -11.210  1.00  0.00    -0.200 F 
ATOM     87  F   UNL     1       8.423  -8.291 -13.126  1.00  0.00    -0.200 F 
ENDBRANCH  53  77
BRANCH  65  88
ATOM     88  C   UNL     1       7.194 -14.436  -4.904  1.00  0.00     0.064 A 
ATOM     89  C   UNL     1       8.498 -14.936  -5.024  1.00  0.00     0.173 A 
ATOM     90  C   UNL     1       6.131 -15.352  -4.934  1.00  0.00     0.173 A 
ATOM     91  F   UNL     1       9.545 -14.098  -5.017  1.00  0.00    -0.203 F 
ATOM     92  C   UNL     1       8.729 -16.300  -5.180  1.00  0.00     0.198 A 
ATOM     93  C   UNL     1       6.368 -16.718  -5.063  1.00  0.00     0.198 A 
ATOM     94  F   UNL     1       4.865 -14.924  -4.818  1.00  0.00    -0.203 F 
ATOM     95  F   UNL     1       9.982 -16.753  -5.328  1.00  0.00    -0.200 F 
ATOM     96  C   UNL     1       7.665 -17.190  -5.190  1.00  0.00     0.200 A 
ATOM     97  F   UNL     1       5.340 -17.578  -5.061  1.00  0.00    -0.200 F 
ATOM     98  F   UNL     1       7.891 -18.504  -5.328  1.00  0.00    -0.200 F 
ENDBRANCH  65  88
ENDBRANCH  39  40
ENDBRANCH  32  34
ENDBRANCH  31  32
ENDBRANCH  30  31
ENDBRANCH  29  30
ENDBRANCH  28  29
ENDBRANCH   1  28
TORSDOF 17
