REMARK SMILES COc1ccc2c(c1)c(CC(=O)OCCOCCOC(=O)c1ccc(-c3c4nc(c(-c5c(F)c(F)c(F)c(F)c5F)c5ccc([nH]5)c(-c5c(F)c(F)c(F)c(F)c5F)c5nc(c(-c6c(F)c(F)c(F)c(F)c6F)c6ccc3[nH]6)C=C5)C=C4)cc1)c(C(F)(F)F)n2C(=O)c1ccc(Cl)cc1
REMARK SMILES IDX 15 1 14 2 13 3 11 4 12 5 10 6 9 7 3 8 4 9 8 10 5 11 7 12
REMARK SMILES IDX 6 13 90 14 85 15 2 16 1 17 91 18 92 19 93 20 94 21 99 22
REMARK SMILES IDX 95 23 98 24 96 25 97 26 86 27 87 28 88 29 89 30 16 31 17 32
REMARK SMILES IDX 18 33 19 34 20 35 21 36 22 37 23 38 84 39 24 40 83 41 25 42
REMARK SMILES IDX 26 43 27 44 77 45 28 46 82 47 76 48 78 49 29 50 81 51 75 52
REMARK SMILES IDX 74 53 30 55 62 56 42 57 61 58 43 59 46 60 60 61 79 62 44 63
REMARK SMILES IDX 45 64 59 66 80 67 47 68 31 69 32 70 40 71 33 72 34 73 38 74
REMARK SMILES IDX 41 75 35 76 36 77 39 78 37 79 63 80 64 81 72 82 65 83 66 84
REMARK SMILES IDX 70 85 73 86 67 87 68 88 71 89 69 90 48 91 49 92 57 93 50 94
REMARK SMILES IDX 51 95 55 96 58 97 52 98 53 99 56 100 54 101
REMARK H PARENT 78 54 46 65
REMARK Flexibility Score: inf
ROOT
ATOM      1  C   UNL     1      -2.862  -1.605  -6.218  1.00  0.00     0.202 C 
ENDROOT
BRANCH   1   2
ATOM      2  C   UNL     1      -2.905  -0.302  -7.039  1.00  0.00     0.261 C 
BRANCH   2   3
ATOM      3  O   UNL     1      -2.124   0.793  -6.529  1.00  0.00    -0.463 OA
BRANCH   3   4
ATOM      4  C   UNL     1      -2.858   1.796  -5.977  1.00  0.00     0.310 C 
ATOM      5  O   UNL     1      -4.086   1.802  -5.926  1.00  0.00    -0.252 OA
BRANCH   4   6
ATOM      6  C   UNL     1      -2.065   2.960  -5.426  1.00  0.00     0.161 C 
BRANCH   6   7
ATOM      7  C   UNL     1      -0.569   2.838  -5.254  1.00  0.00     0.002 A 
ATOM      8  C   UNL     1       0.534   1.185  -1.984  1.00  0.00     0.119 A 
ATOM      9  C   UNL     1       1.891   1.355  -2.180  1.00  0.00     0.048 A 
ATOM     10  C   UNL     1      -0.356   1.710  -2.923  1.00  0.00     0.057 A 
ATOM     11  C   UNL     1       2.369   2.031  -3.309  1.00  0.00     0.031 A 
ATOM     12  C   UNL     1       0.103   2.311  -4.119  1.00  0.00     0.008 A 
ATOM     13  C   UNL     1       1.477   2.482  -4.308  1.00  0.00     0.057 A 
ATOM     14  N   UNL     1       1.667   3.192  -5.512  1.00  0.00    -0.271 N 
ATOM     15  C   UNL     1       0.408   3.349  -6.110  1.00  0.00     0.135 A 
BRANCH   8  16
ATOM     16  O   UNL     1      -0.052   0.483  -0.970  1.00  0.00    -0.497 OA
ATOM     17  C   UNL     1       0.751   0.198   0.169  1.00  0.00     0.278 C 
ENDBRANCH   8  16
BRANCH  14  18
ATOM     18  C   UNL     1       2.905   3.740  -5.962  1.00  0.00     0.262 C 
ATOM     19  O   UNL     1       2.871   4.612  -6.824  1.00  0.00    -0.268 OA
BRANCH  18  20
ATOM     20  C   UNL     1       4.239   3.451  -5.396  1.00  0.00     0.040 A 
ATOM     21  C   UNL     1       4.818   2.179  -5.481  1.00  0.00     0.015 A 
ATOM     22  C   UNL     1       4.904   4.491  -4.732  1.00  0.00     0.015 A 
ATOM     23  C   UNL     1       6.029   1.932  -4.824  1.00  0.00     0.021 A 
ATOM     24  C   UNL     1       6.116   4.240  -4.086  1.00  0.00     0.021 A 
ATOM     25  C   UNL     1       6.664   2.958  -4.119  1.00  0.00     0.041 A 
ATOM     26  Cl  UNL     1       8.121   2.636  -3.263  1.00  0.00    -0.084 Cl
ENDBRANCH  18  20
ENDBRANCH  14  18
BRANCH  15  27
ATOM     27  C   UNL     1       0.132   4.029  -7.416  1.00  0.00     0.432 C 
ATOM     28  F   UNL     1      -0.830   3.331  -8.088  1.00  0.00    -0.165 F 
ATOM     29  F   UNL     1      -0.390   5.266  -7.211  1.00  0.00    -0.165 F 
ATOM     30  F   UNL     1       1.151   4.138  -8.290  1.00  0.00    -0.165 F 
ENDBRANCH  15  27
ENDBRANCH   6   7
ENDBRANCH   4   6
ENDBRANCH   3   4
ENDBRANCH   2   3
ENDBRANCH   1   2
BRANCH   1  31
ATOM     31  O   UNL     1      -2.803  -1.570  -4.799  1.00  0.00    -0.374 OA
BRANCH  31  32
ATOM     32  C   UNL     1      -1.658  -0.973  -4.193  1.00  0.00     0.202 C 
BRANCH  32  33
ATOM     33  C   UNL     1      -0.269  -1.593  -4.415  1.00  0.00     0.261 C 
BRANCH  33  34
ATOM     34  O   UNL     1       0.072  -1.649  -5.801  1.00  0.00    -0.460 OA
BRANCH  34  35
ATOM     35  C   UNL     1       0.731  -2.779  -6.164  1.00  0.00     0.338 C 
ATOM     36  O   UNL     1       1.447  -3.485  -5.473  1.00  0.00    -0.246 OA
BRANCH  35  37
ATOM     37  C   UNL     1       0.090  -3.197  -7.418  1.00  0.00     0.060 A 
ATOM     38  C   UNL     1      -0.045  -2.287  -8.468  1.00  0.00     0.016 A 
ATOM     39  C   UNL     1      -0.650  -4.391  -7.381  1.00  0.00     0.016 A 
ATOM     40  C   UNL     1      -0.986  -2.549  -9.450  1.00  0.00     0.010 A 
ATOM     41  C   UNL     1      -1.597  -4.644  -8.367  1.00  0.00     0.010 A 
ATOM     42  C   UNL     1      -1.783  -3.710  -9.387  1.00  0.00    -0.014 A 
BRANCH  42  43
ATOM     43  C   UNL     1      -2.619  -3.989 -10.553  1.00  0.00     0.031 A 
ATOM     44  C   UNL     1      -1.821  -4.142 -11.801  1.00  0.00     0.074 A 
ATOM     45  C   UNL     1      -3.946  -4.218 -10.590  1.00  0.00     0.049 A 
ATOM     46  N   UNL     1      -1.859  -3.411 -12.867  1.00  0.00    -0.248 NA
ATOM     47  C   UNL     1      -0.762  -5.163 -11.799  1.00  0.00     0.031 C 
ATOM     48  C   UNL     1      -4.875  -4.424  -9.482  1.00  0.00     0.029 A 
ATOM     49  N   UNL     1      -4.732  -4.397 -11.696  1.00  0.00    -0.354 N 
ATOM     50  C   UNL     1      -0.918  -3.960 -13.733  1.00  0.00     0.074 A 
ATOM     51  C   UNL     1      -0.194  -4.954 -12.985  1.00  0.00     0.031 C 
ATOM     52  C   UNL     1      -6.048  -4.897  -9.969  1.00  0.00     0.029 A 
ATOM     53  C   UNL     1      -5.996  -4.899 -11.424  1.00  0.00     0.049 A 
ATOM     54  H   UNL     1      -4.426  -4.187 -12.608  1.00  0.00     0.167 HD
ATOM     55  C   UNL     1      -0.924  -3.684 -15.063  1.00  0.00     0.037 A 
ATOM     56  C   UNL     1      -6.899  -5.336 -12.336  1.00  0.00     0.037 A 
ATOM     57  C   UNL     1      -1.666  -2.490 -15.360  1.00  0.00     0.049 A 
ATOM     58  C   UNL     1      -6.557  -4.731 -13.645  1.00  0.00     0.074 A 
ATOM     59  C   UNL     1      -1.536  -1.152 -15.051  1.00  0.00     0.029 A 
ATOM     60  N   UNL     1      -2.934  -2.639 -15.858  1.00  0.00    -0.354 N 
ATOM     61  N   UNL     1      -6.699  -3.469 -13.937  1.00  0.00    -0.248 NA
ATOM     62  C   UNL     1      -5.746  -5.499 -14.578  1.00  0.00     0.031 C 
ATOM     63  C   UNL     1      -2.868  -0.650 -14.971  1.00  0.00     0.029 A 
ATOM     64  C   UNL     1      -3.733  -1.710 -15.248  1.00  0.00     0.049 A 
ATOM     65  H   UNL     1      -3.219  -3.296 -16.534  1.00  0.00     0.167 HD
ATOM     66  C   UNL     1      -5.672  -3.199 -14.825  1.00  0.00     0.074 A 
ATOM     67  C   UNL     1      -5.221  -4.503 -15.292  1.00  0.00     0.031 C 
ATOM     68  C   UNL     1      -5.105  -1.961 -14.876  1.00  0.00     0.037 A 
BRANCH  55  69
ATOM     69  C   UNL     1      -0.558  -4.688 -16.127  1.00  0.00     0.064 A 
ATOM     70  C   UNL     1      -0.448  -4.263 -17.466  1.00  0.00     0.173 A 
ATOM     71  C   UNL     1      -0.621  -6.085 -15.932  1.00  0.00     0.173 A 
ATOM     72  F   UNL     1      -0.406  -2.957 -17.768  1.00  0.00    -0.203 F 
ATOM     73  C   UNL     1      -0.476  -5.168 -18.530  1.00  0.00     0.198 A 
ATOM     74  C   UNL     1      -0.592  -6.987 -16.994  1.00  0.00     0.198 A 
ATOM     75  F   UNL     1      -0.828  -6.627 -14.726  1.00  0.00    -0.203 F 
ATOM     76  F   UNL     1      -0.501  -4.712 -19.790  1.00  0.00    -0.200 F 
ATOM     77  C   UNL     1      -0.554  -6.528 -18.293  1.00  0.00     0.200 A 
ATOM     78  F   UNL     1      -0.689  -8.300 -16.744  1.00  0.00    -0.200 F 
ATOM     79  F   UNL     1      -0.646  -7.393 -19.311  1.00  0.00    -0.200 F 
ENDBRANCH  55  69
BRANCH  56  80
ATOM     80  C   UNL     1      -7.884  -6.439 -12.235  1.00  0.00     0.064 A 
ATOM     81  C   UNL     1      -8.921  -6.569 -13.178  1.00  0.00     0.173 A 
ATOM     82  C   UNL     1      -7.647  -7.553 -11.410  1.00  0.00     0.173 A 
ATOM     83  F   UNL     1      -9.189  -5.569 -14.031  1.00  0.00    -0.203 F 
ATOM     84  C   UNL     1      -9.642  -7.759 -13.318  1.00  0.00     0.198 A 
ATOM     85  C   UNL     1      -8.375  -8.737 -11.544  1.00  0.00     0.198 A 
ATOM     86  F   UNL     1      -6.638  -7.553 -10.528  1.00  0.00    -0.203 F 
ATOM     87  F   UNL     1     -10.566  -7.871 -14.282  1.00  0.00    -0.200 F 
ATOM     88  C   UNL     1      -9.358  -8.847 -12.510  1.00  0.00     0.200 A 
ATOM     89  F   UNL     1      -8.068  -9.795 -10.780  1.00  0.00    -0.200 F 
ATOM     90  F   UNL     1      -9.997 -10.010 -12.692  1.00  0.00    -0.200 F 
ENDBRANCH  56  80
BRANCH  68  91
ATOM     91  C   UNL     1      -5.860  -0.824 -14.252  1.00  0.00     0.064 A 
ATOM     92  C   UNL     1      -6.153  -0.730 -12.882  1.00  0.00     0.173 A 
ATOM     93  C   UNL     1      -6.188   0.272 -15.063  1.00  0.00     0.173 A 
ATOM     94  F   UNL     1      -5.782  -1.694 -12.028  1.00  0.00    -0.203 F 
ATOM     95  C   UNL     1      -6.787   0.396 -12.358  1.00  0.00     0.198 A 
ATOM     96  C   UNL     1      -6.785   1.410 -14.531  1.00  0.00     0.198 A 
ATOM     97  F   UNL     1      -5.884   0.255 -16.371  1.00  0.00    -0.203 F 
ATOM     98  F   UNL     1      -7.072   0.458 -11.050  1.00  0.00    -0.200 F 
ATOM     99  C   UNL     1      -7.094   1.467 -13.182  1.00  0.00     0.200 A 
ATOM    100  F   UNL     1      -7.036   2.462 -15.322  1.00  0.00    -0.200 F 
ATOM    101  F   UNL     1      -7.664   2.567 -12.671  1.00  0.00    -0.200 F 
ENDBRANCH  68  91
ENDBRANCH  42  43
ENDBRANCH  35  37
ENDBRANCH  34  35
ENDBRANCH  33  34
ENDBRANCH  32  33
ENDBRANCH  31  32
ENDBRANCH   1  31
TORSDOF 19
