REMARK SMILES CO[C@@H]1C[NH2+][C@@H](O[C@@H]2C[C@@H](C(=O)OCCOCCOC(=O)c3ccc(-c4c5nc(c(-c6c(F)c(F)c(F)c(F)c6F)c6ccc([nH]6)c(-c6c(F)c(F)c(F)c(F)c6F)c6nc(c(-c7c(F)c(F)c(F)c(F)c7F)c7ccc4[nH]7)C=C6)C=C5)cc3)N(C(=O)OC(C)(C)C)C2)c2cc(Cl)ccc21
REMARK SMILES IDX 15 1 14 2 13 3 11 4 12 5 10 6 8 7 9 8 93 9 85 10 7 11 6 12
REMARK SMILES IDX 3 13 4 14 100 15 5 16 94 17 99 18 95 21 98 22 96 23 97 24
REMARK SMILES IDX 2 25 1 26 86 27 87 28 88 29 89 30 90 31 91 32 92 33 16 34
REMARK SMILES IDX 17 35 18 36 19 37 20 38 21 39 22 40 23 41 84 42 24 43 83 44
REMARK SMILES IDX 25 45 26 46 27 47 77 48 28 49 82 50 76 51 78 52 29 53 81 54
REMARK SMILES IDX 75 55 74 56 30 58 62 59 42 60 61 61 43 62 46 63 60 64 79 65
REMARK SMILES IDX 44 66 45 67 59 69 80 70 47 71 31 72 32 73 40 74 33 75 34 76
REMARK SMILES IDX 38 77 41 78 35 79 36 80 39 81 37 82 63 83 64 84 72 85 65 86
REMARK SMILES IDX 66 87 70 88 73 89 67 90 68 91 71 92 69 93 48 94 49 95 57 96
REMARK SMILES IDX 50 97 51 98 55 99 58 100 52 101 53 102 56 103 54 104
REMARK H PARENT 5 19 5 20 78 57 46 68
REMARK Flexibility Score: inf
ROOT
ATOM      1  C   UNL     1       5.486  -0.309  -1.841  1.00  0.00     0.202 C 
ENDROOT
BRANCH   1   2
ATOM      2  C   UNL     1       5.450  -1.809  -1.577  1.00  0.00     0.261 C 
BRANCH   2   3
ATOM      3  O   UNL     1       4.138  -2.380  -1.405  1.00  0.00    -0.462 OA
BRANCH   3   4
ATOM      4  C   UNL     1       3.174  -2.327  -2.379  1.00  0.00     0.329 C 
ATOM      5  O   UNL     1       3.243  -1.707  -3.426  1.00  0.00    -0.250 OA
BRANCH   4   6
ATOM      6  C   UNL     1       2.010  -3.198  -1.890  1.00  0.00     0.201 C 
ATOM      7  C   UNL     1       1.276  -5.481  -1.628  1.00  0.00     0.147 C 
ATOM      8  C   UNL     1       2.527  -4.641  -1.791  1.00  0.00     0.071 C 
ATOM      9  C   UNL     1       0.235  -4.722  -2.449  1.00  0.00     0.156 C 
ATOM     10  N   UNL     1       0.720  -3.349  -2.558  1.00  0.00    -0.292 N 
BRANCH   7  11
ATOM     11  O   UNL     1       0.904  -5.897  -0.324  1.00  0.00    -0.320 OA
BRANCH  11  12
ATOM     12  C   UNL     1       0.775  -5.127   0.864  1.00  0.00     0.354 C 
ATOM     13  C   UNL     1       0.617  -2.170   1.182  1.00  0.00     0.203 C 
ATOM     14  C   UNL     1      -0.582  -3.062   0.753  1.00  0.00     0.300 C 
ATOM     15  C   UNL     1       1.878  -2.933   1.551  1.00  0.00    -0.002 A 
ATOM     16  N   UNL     1      -0.514  -4.491   1.019  1.00  0.00    -0.315 N 
ATOM     17  C   UNL     1       1.963  -4.325   1.350  1.00  0.00     0.046 A 
ATOM     18  C   UNL     1       3.016  -2.232   1.990  1.00  0.00     0.009 A 
ATOM     19  H   UNL     1      -1.164  -4.953   0.383  1.00  0.00     0.349 HD
ATOM     20  H   UNL     1      -0.739  -4.587   2.009  1.00  0.00     0.349 HD
ATOM     21  C   UNL     1       3.171  -4.990   1.639  1.00  0.00     0.033 A 
ATOM     22  C   UNL     1       4.217  -2.898   2.239  1.00  0.00     0.021 A 
ATOM     23  C   UNL     1       4.288  -4.276   2.068  1.00  0.00     0.041 A 
ATOM     24  Cl  UNL     1       5.768  -5.100   2.367  1.00  0.00    -0.084 Cl
BRANCH  13  25
ATOM     25  O   UNL     1       0.245  -1.276   2.236  1.00  0.00    -0.371 OA
ATOM     26  C   UNL     1       0.001   0.038   1.738  1.00  0.00     0.196 C 
ENDBRANCH  13  25
ENDBRANCH  11  12
ENDBRANCH   7  11
BRANCH  10  27
ATOM     27  C   UNL     1      -0.209  -2.393  -2.903  1.00  0.00     0.411 C 
ATOM     28  O   UNL     1      -1.268  -2.706  -3.438  1.00  0.00    -0.224 OA
BRANCH  27  29
ATOM     29  O   UNL     1       0.116  -1.119  -2.547  1.00  0.00    -0.444 OA
BRANCH  29  30
ATOM     30  C   UNL     1      -0.816  -0.055  -2.926  1.00  0.00     0.106 C 
ATOM     31  C   UNL     1      -0.914   0.054  -4.455  1.00  0.00     0.056 C 
ATOM     32  C   UNL     1      -2.200  -0.207  -2.272  1.00  0.00     0.056 C 
ATOM     33  C   UNL     1      -0.227   1.259  -2.399  1.00  0.00     0.056 C 
ENDBRANCH  29  30
ENDBRANCH  27  29
ENDBRANCH  10  27
ENDBRANCH   4   6
ENDBRANCH   3   4
ENDBRANCH   2   3
ENDBRANCH   1   2
BRANCH   1  34
ATOM     34  O   UNL     1       5.189   0.484  -0.690  1.00  0.00    -0.374 OA
BRANCH  34  35
ATOM     35  C   UNL     1       3.802   0.670  -0.403  1.00  0.00     0.202 C 
BRANCH  35  36
ATOM     36  C   UNL     1       3.157   1.797  -1.215  1.00  0.00     0.261 C 
BRANCH  36  37
ATOM     37  O   UNL     1       3.122   1.434  -2.605  1.00  0.00    -0.460 OA
BRANCH  37  38
ATOM     38  C   UNL     1       3.661   2.331  -3.463  1.00  0.00     0.338 C 
ATOM     39  O   UNL     1       3.960   3.487  -3.238  1.00  0.00    -0.246 OA
BRANCH  38  40
ATOM     40  C   UNL     1       4.046   1.615  -4.695  1.00  0.00     0.060 A 
ATOM     41  C   UNL     1       3.098   1.053  -5.550  1.00  0.00     0.016 A 
ATOM     42  C   UNL     1       5.412   1.520  -4.985  1.00  0.00     0.016 A 
ATOM     43  C   UNL     1       3.522   0.411  -6.719  1.00  0.00     0.010 A 
ATOM     44  C   UNL     1       5.832   0.878  -6.149  1.00  0.00     0.010 A 
ATOM     45  C   UNL     1       4.890   0.341  -7.039  1.00  0.00    -0.014 A 
BRANCH  45  46
ATOM     46  C   UNL     1       5.344  -0.121  -8.375  1.00  0.00     0.031 A 
ATOM     47  C   UNL     1       6.040  -1.435  -8.569  1.00  0.00     0.074 A 
ATOM     48  C   UNL     1       5.198   0.725  -9.413  1.00  0.00     0.049 A 
ATOM     49  N   UNL     1       6.542  -1.946  -9.665  1.00  0.00    -0.248 NA
ATOM     50  C   UNL     1       6.207  -2.280  -7.378  1.00  0.00     0.031 C 
ATOM     51  C   UNL     1       4.578   2.048  -9.332  1.00  0.00     0.029 A 
ATOM     52  N   UNL     1       5.571   0.611 -10.729  1.00  0.00    -0.354 N 
ATOM     53  C   UNL     1       7.072  -3.177  -9.305  1.00  0.00     0.074 A 
ATOM     54  C   UNL     1       6.870  -3.317  -7.877  1.00  0.00     0.031 C 
ATOM     55  C   UNL     1       4.599   2.618 -10.545  1.00  0.00     0.029 A 
ATOM     56  C   UNL     1       5.263   1.717 -11.482  1.00  0.00     0.049 A 
ATOM     57  H   UNL     1       6.016  -0.186 -11.097  1.00  0.00     0.167 HD
ATOM     58  C   UNL     1       7.658  -4.106 -10.101  1.00  0.00     0.037 A 
ATOM     59  C   UNL     1       5.495   1.982 -12.781  1.00  0.00     0.037 A 
ATOM     60  C   UNL     1       7.868  -3.949 -11.520  1.00  0.00     0.049 A 
ATOM     61  C   UNL     1       6.184   0.953 -13.630  1.00  0.00     0.074 A 
ATOM     62  C   UNL     1       8.419  -4.851 -12.415  1.00  0.00     0.029 A 
ATOM     63  N   UNL     1       7.548  -2.812 -12.250  1.00  0.00    -0.354 N 
ATOM     64  N   UNL     1       6.619  -0.237 -13.293  1.00  0.00    -0.248 NA
ATOM     65  C   UNL     1       6.411   1.298 -15.040  1.00  0.00     0.031 C 
ATOM     66  C   UNL     1       8.479  -4.243 -13.673  1.00  0.00     0.029 A 
ATOM     67  C   UNL     1       7.916  -2.981 -13.577  1.00  0.00     0.049 A 
ATOM     68  H   UNL     1       7.124  -2.005 -11.880  1.00  0.00     0.167 HD
ATOM     69  C   UNL     1       7.148  -0.791 -14.449  1.00  0.00     0.074 A 
ATOM     70  C   UNL     1       6.968   0.187 -15.502  1.00  0.00     0.031 C 
ATOM     71  C   UNL     1       7.731  -2.002 -14.619  1.00  0.00     0.037 A 
BRANCH  58  72
ATOM     72  C   UNL     1       8.108  -5.393  -9.470  1.00  0.00     0.064 A 
ATOM     73  C   UNL     1       7.182  -6.354  -9.037  1.00  0.00     0.173 A 
ATOM     74  C   UNL     1       9.472  -5.714  -9.384  1.00  0.00     0.173 A 
ATOM     75  F   UNL     1       5.866  -6.099  -9.096  1.00  0.00    -0.203 F 
ATOM     76  C   UNL     1       7.604  -7.581  -8.529  1.00  0.00     0.198 A 
ATOM     77  C   UNL     1       9.890  -6.952  -8.900  1.00  0.00     0.198 A 
ATOM     78  F   UNL     1      10.400  -4.837  -9.796  1.00  0.00    -0.203 F 
ATOM     79  F   UNL     1       6.701  -8.471  -8.095  1.00  0.00    -0.200 F 
ATOM     80  C   UNL     1       8.956  -7.882  -8.470  1.00  0.00     0.200 A 
ATOM     81  F   UNL     1      11.196  -7.248  -8.860  1.00  0.00    -0.200 F 
ATOM     82  F   UNL     1       9.360  -9.069  -7.997  1.00  0.00    -0.200 F 
ENDBRANCH  58  72
BRANCH  59  83
ATOM     83  C   UNL     1       5.023   3.267 -13.358  1.00  0.00     0.064 A 
ATOM     84  C   UNL     1       3.940   3.293 -14.246  1.00  0.00     0.173 A 
ATOM     85  C   UNL     1       5.608   4.491 -13.002  1.00  0.00     0.173 A 
ATOM     86  F   UNL     1       3.361   2.146 -14.629  1.00  0.00    -0.203 F 
ATOM     87  C   UNL     1       3.463   4.496 -14.762  1.00  0.00     0.198 A 
ATOM     88  C   UNL     1       5.112   5.695 -13.497  1.00  0.00     0.198 A 
ATOM     89  F   UNL     1       6.643   4.518 -12.149  1.00  0.00    -0.203 F 
ATOM     90  F   UNL     1       2.444   4.491 -15.633  1.00  0.00    -0.200 F 
ATOM     91  C   UNL     1       4.043   5.696 -14.380  1.00  0.00     0.200 A 
ATOM     92  F   UNL     1       5.664   6.854 -13.112  1.00  0.00    -0.200 F 
ATOM     93  F   UNL     1       3.573   6.854 -14.864  1.00  0.00    -0.200 F 
ENDBRANCH  59  83
BRANCH  71  94
ATOM     94  C   UNL     1       8.206  -2.357 -15.998  1.00  0.00     0.064 A 
ATOM     95  C   UNL     1       9.347  -1.762 -16.556  1.00  0.00     0.173 A 
ATOM     96  C   UNL     1       7.553  -3.352 -16.742  1.00  0.00     0.173 A 
ATOM     97  F   UNL     1       9.997  -0.795 -15.892  1.00  0.00    -0.203 F 
ATOM     98  C   UNL     1       9.810  -2.143 -17.813  1.00  0.00     0.198 A 
ATOM     99  C   UNL     1       8.035  -3.750 -17.986  1.00  0.00     0.198 A 
ATOM    100  F   UNL     1       6.460  -3.955 -16.251  1.00  0.00    -0.203 F 
ATOM    101  F   UNL     1      10.883  -1.538 -18.341  1.00  0.00    -0.200 F 
ATOM    102  C   UNL     1       9.160  -3.143 -18.522  1.00  0.00     0.200 A 
ATOM    103  F   UNL     1       7.415  -4.727 -18.662  1.00  0.00    -0.200 F 
ATOM    104  F   UNL     1       9.618  -3.521 -19.723  1.00  0.00    -0.200 F 
ENDBRANCH  71  94
ENDBRANCH  45  46
ENDBRANCH  38  40
ENDBRANCH  37  38
ENDBRANCH  36  37
ENDBRANCH  35  36
ENDBRANCH  34  35
ENDBRANCH   1  34
TORSDOF 20
