REMARK SMILES C[NH+]1CCN(c2nc3c(cc2F)c(=O)c(C(=O)OCCOCCOC(=O)c2ccc(-c4c5nc(c(-c6c(F)c(F)c(F)c(F)c6F)c6ccc([nH]6)c(-c6c(F)c(F)c(F)c(F)c6F)c6nc(c(-c7c(F)c(F)c(F)c(F)c7F)c7ccc4[nH]7)C=C6)C=C5)cc2)cn3-c2ccc(F)cc2F)CC1
REMARK SMILES IDX 22 1 21 2 20 3 19 4 18 5 16 6 17 7 15 8 6 9 7 10 11 11 8 12
REMARK SMILES IDX 10 13 12 14 9 15 91 16 13 17 90 18 14 19 5 20 1 21 2 22 3 23
REMARK SMILES IDX 101 24 4 26 100 27 92 28 93 29 98 30 94 31 97 32 99 33 95 34
REMARK SMILES IDX 96 35 23 36 24 37 25 38 26 39 27 40 28 41 89 42 29 43 88 44
REMARK SMILES IDX 30 45 31 46 32 47 82 48 33 49 87 50 81 51 83 52 34 53 86 54
REMARK SMILES IDX 80 55 79 56 35 58 67 59 47 60 66 61 48 62 51 63 65 64 84 65
REMARK SMILES IDX 49 66 50 67 64 69 85 70 52 71 36 72 37 73 45 74 38 75 39 76
REMARK SMILES IDX 43 77 46 78 40 79 41 80 44 81 42 82 68 83 69 84 77 85 70 86
REMARK SMILES IDX 71 87 75 88 78 89 72 90 73 91 76 92 74 93 53 94 54 95 62 96
REMARK SMILES IDX 55 97 56 98 60 99 63 100 57 101 58 102 61 103 59 104
REMARK H PARENT 2 25 83 57 51 68
REMARK Flexibility Score: inf
ROOT
ATOM      1  C   UNL     1      -9.995   2.584   3.286  1.00  0.00     0.202 C 
ENDROOT
BRANCH   1   2
ATOM      2  O   UNL     1     -11.305   2.013   3.341  1.00  0.00    -0.374 OA
BRANCH   2   3
ATOM      3  C   UNL     1     -11.462   0.841   4.140  1.00  0.00     0.202 C 
BRANCH   3   4
ATOM      4  C   UNL     1     -11.144  -0.472   3.425  1.00  0.00     0.261 C 
BRANCH   4   5
ATOM      5  O   UNL     1      -9.748  -0.523   3.096  1.00  0.00    -0.459 OA
BRANCH   5   6
ATOM      6  C   UNL     1      -9.449  -0.458   1.781  1.00  0.00     0.343 C 
ATOM      7  O   UNL     1     -10.250  -0.513   0.858  1.00  0.00    -0.246 OA
BRANCH   6   8
ATOM      8  C   UNL     1      -8.018  -0.176   1.578  1.00  0.00     0.124 A 
ATOM      9  C   UNL     1      -2.998  -0.098   0.958  1.00  0.00     0.167 A 
ATOM     10  N   UNL     1      -4.026   0.517   0.325  1.00  0.00    -0.209 NA
ATOM     11  C   UNL     1      -3.207  -0.829   2.136  1.00  0.00     0.166 A 
ATOM     12  C   UNL     1      -5.292   0.346   0.800  1.00  0.00     0.151 A 
ATOM     13  C   UNL     1      -4.474  -0.957   2.667  1.00  0.00     0.059 A 
ATOM     14  F   UNL     1      -2.179  -1.413   2.773  1.00  0.00    -0.203 F 
ATOM     15  C   UNL     1      -5.535  -0.384   1.975  1.00  0.00     0.069 A 
ATOM     16  N   UNL     1      -6.410   0.882   0.082  1.00  0.00    -0.297 N 
ATOM     17  C   UNL     1      -6.916  -0.606   2.459  1.00  0.00     0.205 A 
ATOM     18  C   UNL     1      -7.691   0.549   0.499  1.00  0.00     0.113 A 
ATOM     19  O   UNL     1      -7.100  -1.166   3.534  1.00  0.00    -0.288 OA
BRANCH   9  20
ATOM     20  N   UNL     1      -1.731  -0.020   0.427  1.00  0.00    -0.343 N 
ATOM     21  C   UNL     1       2.450   0.133   0.014  1.00  0.00     0.332 C 
ATOM     22  N   UNL     1       1.042   0.055  -0.377  1.00  0.00    -0.334 N 
ATOM     23  C   UNL     1       0.309   1.269   0.070  1.00  0.00     0.283 C 
ATOM     24  C   UNL     1       0.427  -1.158   0.214  1.00  0.00     0.283 C 
ATOM     25  H   UNL     1       0.984   0.001  -1.394  1.00  0.00     0.347 HD
ATOM     26  C   UNL     1      -1.224   1.204  -0.182  1.00  0.00     0.179 C 
ATOM     27  C   UNL     1      -1.090  -1.250  -0.040  1.00  0.00     0.179 C 
ENDBRANCH   9  20
BRANCH  16  28
ATOM     28  C   UNL     1      -6.264   1.594  -1.143  1.00  0.00     0.083 A 
ATOM     29  C   UNL     1      -5.829   0.926  -2.299  1.00  0.00     0.033 A 
ATOM     30  C   UNL     1      -6.627   2.948  -1.247  1.00  0.00     0.150 A 
ATOM     31  C   UNL     1      -5.776   1.596  -3.522  1.00  0.00     0.041 A 
ATOM     32  C   UNL     1      -6.560   3.625  -2.460  1.00  0.00     0.080 A 
ATOM     33  F   UNL     1      -7.059   3.610  -0.162  1.00  0.00    -0.205 F 
ATOM     34  C   UNL     1      -6.140   2.937  -3.589  1.00  0.00     0.126 A 
ATOM     35  F   UNL     1      -6.092   3.571  -4.768  1.00  0.00    -0.207 F 
ENDBRANCH  16  28
ENDBRANCH   6   8
ENDBRANCH   5   6
ENDBRANCH   4   5
ENDBRANCH   3   4
ENDBRANCH   2   3
ENDBRANCH   1   2
BRANCH   1  36
ATOM     36  C   UNL     1      -9.591   3.428   4.500  1.00  0.00     0.261 C 
BRANCH  36  37
ATOM     37  O   UNL     1      -9.269   2.592   5.629  1.00  0.00    -0.460 OA
BRANCH  37  38
ATOM     38  C   UNL     1     -10.107   2.693   6.683  1.00  0.00     0.338 C 
ATOM     39  O   UNL     1     -11.043   3.472   6.821  1.00  0.00    -0.246 OA
BRANCH  38  40
ATOM     40  C   UNL     1      -9.864   1.586   7.621  1.00  0.00     0.060 A 
ATOM     41  C   UNL     1     -10.925   0.711   7.883  1.00  0.00     0.016 A 
ATOM     42  C   UNL     1      -8.651   1.458   8.301  1.00  0.00     0.016 A 
ATOM     43  C   UNL     1     -10.792  -0.275   8.857  1.00  0.00     0.010 A 
ATOM     44  C   UNL     1      -8.525   0.480   9.295  1.00  0.00     0.010 A 
ATOM     45  C   UNL     1      -9.607  -0.366   9.599  1.00  0.00    -0.014 A 
BRANCH  45  46
ATOM     46  C   UNL     1      -9.573  -1.238  10.796  1.00  0.00     0.031 A 
ATOM     47  C   UNL     1      -9.920  -0.645  12.133  1.00  0.00     0.074 A 
ATOM     48  C   UNL     1      -9.280  -2.546  10.689  1.00  0.00     0.049 A 
ATOM     49  N   UNL     1      -9.973  -1.220  13.307  1.00  0.00    -0.248 NA
ATOM     50  C   UNL     1     -10.260   0.788  12.150  1.00  0.00     0.031 C 
ATOM     51  C   UNL     1      -8.961  -3.240   9.443  1.00  0.00     0.029 A 
ATOM     52  N   UNL     1      -9.204  -3.523  11.650  1.00  0.00    -0.354 N 
ATOM     53  C   UNL     1     -10.359  -0.226  14.196  1.00  0.00     0.074 A 
ATOM     54  C   UNL     1     -10.500   0.996  13.437  1.00  0.00     0.031 C 
ATOM     55  C   UNL     1      -8.707  -4.531   9.718  1.00  0.00     0.029 A 
ATOM     56  C   UNL     1      -8.827  -4.749  11.159  1.00  0.00     0.049 A 
ATOM     57  H   UNL     1      -9.399  -3.361  12.601  1.00  0.00     0.167 HD
ATOM     58  C   UNL     1     -10.587  -0.331  15.525  1.00  0.00     0.037 A 
ATOM     59  C   UNL     1      -8.592  -5.908  11.805  1.00  0.00     0.037 A 
ATOM     60  C   UNL     1     -10.449  -1.547  16.280  1.00  0.00     0.049 A 
ATOM     61  C   UNL     1      -8.785  -5.976  13.299  1.00  0.00     0.074 A 
ATOM     62  C   UNL     1     -10.686  -1.754  17.628  1.00  0.00     0.029 A 
ATOM     63  N   UNL     1     -10.030  -2.759  15.755  1.00  0.00    -0.354 N 
ATOM     64  N   UNL     1      -9.193  -5.043  14.124  1.00  0.00    -0.248 NA
ATOM     65  C   UNL     1      -8.488  -7.261  13.952  1.00  0.00     0.031 C 
ATOM     66  C   UNL     1     -10.364  -3.079  17.928  1.00  0.00     0.029 A 
ATOM     67  C   UNL     1      -9.973  -3.711  16.759  1.00  0.00     0.049 A 
ATOM     68  H   UNL     1      -9.806  -2.918  14.809  1.00  0.00     0.167 HD
ATOM     69  C   UNL     1      -9.225  -5.631  15.382  1.00  0.00     0.074 A 
ATOM     70  C   UNL     1      -8.809  -7.006  15.213  1.00  0.00     0.031 C 
ATOM     71  C   UNL     1      -9.567  -5.079  16.572  1.00  0.00     0.037 A 
BRANCH  58  72
ATOM     72  C   UNL     1     -11.011   0.900  16.267  1.00  0.00     0.064 A 
ATOM     73  C   UNL     1     -12.320   1.393  16.171  1.00  0.00     0.173 A 
ATOM     74  C   UNL     1     -10.132   1.527  17.162  1.00  0.00     0.173 A 
ATOM     75  F   UNL     1     -13.192   0.832  15.320  1.00  0.00    -0.203 F 
ATOM     76  C   UNL     1     -12.735   2.471  16.948  1.00  0.00     0.198 A 
ATOM     77  C   UNL     1     -10.557   2.591  17.953  1.00  0.00     0.198 A 
ATOM     78  F   UNL     1      -8.872   1.087  17.291  1.00  0.00    -0.203 F 
ATOM     79  F   UNL     1     -13.987   2.936  16.834  1.00  0.00    -0.200 F 
ATOM     80  C   UNL     1     -11.857   3.061  17.846  1.00  0.00     0.200 A 
ATOM     81  F   UNL     1      -9.712   3.151  18.830  1.00  0.00    -0.200 F 
ATOM     82  F   UNL     1     -12.266   4.081  18.613  1.00  0.00    -0.200 F 
ENDBRANCH  58  72
BRANCH  59  83
ATOM     83  C   UNL     1      -8.133  -7.101  11.048  1.00  0.00     0.064 A 
ATOM     84  C   UNL     1      -8.953  -8.229  10.905  1.00  0.00     0.173 A 
ATOM     85  C   UNL     1      -6.853  -7.148  10.476  1.00  0.00     0.173 A 
ATOM     86  F   UNL     1     -10.174  -8.244  11.458  1.00  0.00    -0.203 F 
ATOM     87  C   UNL     1      -8.503  -9.365  10.234  1.00  0.00     0.198 A 
ATOM     88  C   UNL     1      -6.414  -8.274   9.782  1.00  0.00     0.198 A 
ATOM     89  F   UNL     1      -6.027  -6.098  10.589  1.00  0.00    -0.203 F 
ATOM     90  F   UNL     1      -9.288 -10.448  10.155  1.00  0.00    -0.200 F 
ATOM     91  C   UNL     1      -7.236  -9.385   9.669  1.00  0.00     0.200 A 
ATOM     92  F   UNL     1      -5.193  -8.286   9.231  1.00  0.00    -0.200 F 
ATOM     93  F   UNL     1      -6.804 -10.478   9.026  1.00  0.00    -0.200 F 
ENDBRANCH  59  83
BRANCH  71  94
ATOM     94  C   UNL     1      -9.529  -5.956  17.788  1.00  0.00     0.064 A 
ATOM     95  C   UNL     1      -8.314  -6.343  18.372  1.00  0.00     0.173 A 
ATOM     96  C   UNL     1     -10.719  -6.340  18.427  1.00  0.00     0.173 A 
ATOM     97  F   UNL     1      -7.151  -6.010  17.794  1.00  0.00    -0.203 F 
ATOM     98  C   UNL     1      -8.292  -7.091  19.547  1.00  0.00     0.198 A 
ATOM     99  C   UNL     1     -10.692  -7.063  19.616  1.00  0.00     0.198 A 
ATOM    100  F   UNL     1     -11.906  -5.986  17.913  1.00  0.00    -0.203 F 
ATOM    101  F   UNL     1      -7.121  -7.473  20.073  1.00  0.00    -0.200 F 
ATOM    102  C   UNL     1      -9.480  -7.441  20.173  1.00  0.00     0.200 A 
ATOM    103  F   UNL     1     -11.840  -7.386  20.228  1.00  0.00    -0.200 F 
ATOM    104  F   UNL     1      -9.455  -8.143  21.314  1.00  0.00    -0.200 F 
ENDBRANCH  71  94
ENDBRANCH  45  46
ENDBRANCH  38  40
ENDBRANCH  37  38
ENDBRANCH  36  37
ENDBRANCH   1  36
TORSDOF 16
