REMARK SMILES COC(=O)[C@H]1CC[C@]2(C)[C@H]3CC=C4[C@@H]5CC(C)(C)CC[C@@]5(C(=O)OCCOCCOC(=O)c5ccc(-c6c7nc(c(-c8c(F)c(F)c(F)c(F)c8F)c8ccc([nH]8)c(-c8c(F)c(F)c(F)c(F)c8F)c8nc(c(-c9c(F)c(F)c(F)c(F)c9F)c9ccc6[nH]9)C=C8)C=C7)cc5)CC[C@@]4(C)[C@@]3(C)CC[C@H]2C1(C)C
REMARK SMILES IDX 27 1 26 2 25 3 24 4 22 5 23 6 21 7 5 8 6 9 105 10 7 11
REMARK SMILES IDX 104 12 106 13 107 14 8 15 103 16 9 17 10 18 102 19 11 20
REMARK SMILES IDX 100 21 12 22 98 23 101 24 13 25 97 26 99 27 14 28 96 29
REMARK SMILES IDX 15 30 16 31 20 32 17 33 18 34 19 35 3 36 4 37 2 38 1 39
REMARK SMILES IDX 28 40 29 41 30 42 31 43 32 44 33 45 34 46 95 47 35 48 94 49
REMARK SMILES IDX 36 50 37 51 38 52 88 53 39 54 93 55 87 56 89 57 40 58 92 59
REMARK SMILES IDX 86 60 85 61 41 63 73 64 53 65 72 66 54 67 57 68 71 69 90 70
REMARK SMILES IDX 55 71 56 72 70 74 91 75 58 76 42 77 43 78 51 79 44 80 45 81
REMARK SMILES IDX 49 82 52 83 46 84 47 85 50 86 48 87 74 88 75 89 83 90 76 91
REMARK SMILES IDX 77 92 81 93 84 94 78 95 79 96 82 97 80 98 59 99 60 100
REMARK SMILES IDX 68 101 61 102 62 103 66 104 69 105 63 106 64 107 67 108
REMARK SMILES IDX 65 109
REMARK H PARENT 89 62 57 73
REMARK Flexibility Score: inf
ROOT
ATOM      1  O   UNL     1      -2.302 -11.028   0.444  1.00  0.00    -0.374 OA
ENDROOT
BRANCH   1   2
ATOM      2  C   UNL     1      -2.082 -10.790  -0.932  1.00  0.00     0.202 C 
BRANCH   2   3
ATOM      3  C   UNL     1      -0.844  -9.981  -1.326  1.00  0.00     0.261 C 
BRANCH   3   4
ATOM      4  O   UNL     1       0.452 -10.394  -0.837  1.00  0.00    -0.463 OA
BRANCH   4   5
ATOM      5  C   UNL     1       1.213  -9.819   0.126  1.00  0.00     0.312 C 
ATOM      6  O   UNL     1       1.774 -10.563   0.938  1.00  0.00    -0.252 OA
BRANCH   5   7
ATOM      7  C   UNL     1       1.613  -8.336   0.081  1.00  0.00     0.075 C 
ATOM      8  C   UNL     1       0.695  -1.389  -3.277  1.00  0.00     0.105 C 
ATOM      9  C   UNL     1      -0.770  -1.087  -2.776  1.00  0.00     0.016 C 
ATOM     10  C   UNL     1       1.381  -2.720  -2.776  1.00  0.00    -0.019 C 
ATOM     11  C   UNL     1      -1.363  -1.889  -1.575  1.00  0.00     0.008 C 
ATOM     12  C   UNL     1       0.695  -3.086  -1.412  1.00  0.00     0.002 C 
ATOM     13  C   UNL     1       1.367  -3.886  -3.808  1.00  0.00     0.012 C 
ATOM     14  C   UNL     1       2.903  -2.455  -2.557  1.00  0.00     0.012 C 
ATOM     15  C   UNL     1      -0.847  -3.362  -1.533  1.00  0.00    -0.026 C 
ATOM     16  C   UNL     1       1.490  -4.026  -0.539  1.00  0.00     0.005 C 
ATOM     17  C   UNL     1      -1.367  -3.914  -2.900  1.00  0.00     0.012 C 
ATOM     18  C   UNL     1      -1.526  -4.215  -0.313  1.00  0.00     0.006 C 
ATOM     19  C   UNL     1       0.874  -4.251   0.825  1.00  0.00     0.008 C 
ATOM     20  C   UNL     1      -2.416  -5.413  -0.848  1.00  0.00     0.032 C 
ATOM     21  C   UNL     1      -0.584  -4.756   0.919  1.00  0.00    -0.020 C 
ATOM     22  C   UNL     1      -1.518  -6.564  -1.224  1.00  0.00    -0.027 C 
ATOM     23  C   UNL     1      -0.660  -6.384   1.058  1.00  0.00    -0.006 C 
ATOM     24  C   UNL     1      -1.128  -4.109   2.233  1.00  0.00     0.012 C 
ATOM     25  C   UNL     1      -0.510  -6.885  -0.389  1.00  0.00    -0.063 C 
ATOM     26  C   UNL     1       0.307  -7.156   2.013  1.00  0.00     0.013 C 
ATOM     27  C   UNL     1      -2.031  -6.811   1.745  1.00  0.00     0.017 C 
ATOM     28  C   UNL     1       0.863  -7.418  -0.876  1.00  0.00     0.033 C 
ATOM     29  C   UNL     1       1.625  -7.696   1.500  1.00  0.00     0.020 C 
ATOM     30  C   UNL     1       1.124  -7.724  -2.386  1.00  0.00     0.015 C 
ATOM     31  C   UNL     1       2.611  -7.993  -2.791  1.00  0.00    -0.035 C 
ATOM     32  C   UNL     1       3.127  -8.302  -0.315  1.00  0.00     0.020 C 
ATOM     33  C   UNL     1       2.648  -8.828  -4.088  1.00  0.00     0.011 C 
ATOM     34  C   UNL     1       3.342  -6.671  -3.091  1.00  0.00     0.011 C 
ATOM     35  C   UNL     1       3.392  -8.781  -1.725  1.00  0.00     0.007 C 
BRANCH   8  36
ATOM     36  C   UNL     1       0.788  -1.286  -4.805  1.00  0.00     0.309 C 
ATOM     37  O   UNL     1      -0.132  -1.481  -5.587  1.00  0.00    -0.252 OA
BRANCH  36  38
ATOM     38  O   UNL     1       2.083  -1.072  -5.178  1.00  0.00    -0.469 OA
ATOM     39  C   UNL     1       2.360  -1.372  -6.546  1.00  0.00     0.282 C 
ENDBRANCH  36  38
ENDBRANCH   8  36
ENDBRANCH   5   7
ENDBRANCH   4   5
ENDBRANCH   3   4
ENDBRANCH   2   3
ENDBRANCH   1   2
BRANCH   1  40
ATOM     40  C   UNL     1      -1.272 -11.703   1.159  1.00  0.00     0.202 C 
BRANCH  40  41
ATOM     41  C   UNL     1      -0.708 -13.022   0.586  1.00  0.00     0.261 C 
BRANCH  41  42
ATOM     42  O   UNL     1      -0.092 -12.908  -0.719  1.00  0.00    -0.460 OA
BRANCH  42  43
ATOM     43  C   UNL     1      -0.688 -13.583  -1.734  1.00  0.00     0.338 C 
ATOM     44  O   UNL     1      -1.618 -14.355  -1.642  1.00  0.00    -0.246 OA
BRANCH  43  45
ATOM     45  C   UNL     1      -0.209 -13.094  -3.058  1.00  0.00     0.060 A 
ATOM     46  C   UNL     1      -1.188 -12.801  -4.021  1.00  0.00     0.016 A 
ATOM     47  C   UNL     1       1.142 -13.034  -3.403  1.00  0.00     0.016 A 
ATOM     48  C   UNL     1      -0.829 -12.545  -5.346  1.00  0.00     0.010 A 
ATOM     49  C   UNL     1       1.504 -12.802  -4.742  1.00  0.00     0.010 A 
ATOM     50  C   UNL     1       0.516 -12.618  -5.730  1.00  0.00    -0.014 A 
BRANCH  50  51
ATOM     51  C   UNL     1       0.829 -12.809  -7.174  1.00  0.00     0.031 A 
ATOM     52  C   UNL     1       0.917 -14.225  -7.692  1.00  0.00     0.074 A 
ATOM     53  C   UNL     1       0.948 -11.781  -8.033  1.00  0.00     0.049 A 
ATOM     54  N   UNL     1       1.163 -14.662  -8.902  1.00  0.00    -0.248 NA
ATOM     55  C   UNL     1       0.680 -15.293  -6.707  1.00  0.00     0.031 C 
ATOM     56  C   UNL     1       0.811 -10.370  -7.687  1.00  0.00     0.029 A 
ATOM     57  N   UNL     1       1.208 -11.774  -9.383  1.00  0.00    -0.354 N 
ATOM     58  C   UNL     1       1.108 -16.048  -8.820  1.00  0.00     0.074 A 
ATOM     59  C   UNL     1       0.833 -16.383  -7.441  1.00  0.00     0.031 C 
ATOM     60  C   UNL     1       1.003  -9.630  -8.795  1.00  0.00     0.029 A 
ATOM     61  C   UNL     1       1.305 -10.514  -9.922  1.00  0.00     0.049 A 
ATOM     62  H   UNL     1       1.314 -12.596  -9.915  1.00  0.00     0.167 HD
ATOM     63  C   UNL     1       1.263 -16.965  -9.804  1.00  0.00     0.037 A 
ATOM     64  C   UNL     1       1.624 -10.123 -11.173  1.00  0.00     0.037 A 
ATOM     65  C   UNL     1       1.548 -16.643 -11.176  1.00  0.00     0.049 A 
ATOM     66  C   UNL     1       1.899 -11.163 -12.233  1.00  0.00     0.074 A 
ATOM     67  C   UNL     1       1.729 -17.501 -12.245  1.00  0.00     0.029 A 
ATOM     68  N   UNL     1       1.704 -15.354 -11.664  1.00  0.00    -0.354 N 
ATOM     69  N   UNL     1       1.837 -12.470 -12.149  1.00  0.00    -0.248 NA
ATOM     70  C   UNL     1       2.292 -10.672 -13.564  1.00  0.00     0.031 C 
ATOM     71  C   UNL     1       2.046 -16.734 -13.371  1.00  0.00     0.029 A 
ATOM     72  C   UNL     1       2.010 -15.396 -13.014  1.00  0.00     0.049 A 
ATOM     73  H   UNL     1       1.610 -14.533 -11.130  1.00  0.00     0.167 HD
ATOM     74  C   UNL     1       2.160 -12.954 -13.411  1.00  0.00     0.074 A 
ATOM     75  C   UNL     1       2.405 -11.800 -14.251  1.00  0.00     0.031 C 
ATOM     76  C   UNL     1       2.247 -14.238 -13.837  1.00  0.00     0.037 A 
BRANCH  63  77
ATOM     77  C   UNL     1       1.165 -18.411  -9.418  1.00  0.00     0.064 A 
ATOM     78  C   UNL     1      -0.063 -19.004  -9.086  1.00  0.00     0.173 A 
ATOM     79  C   UNL     1       2.313 -19.217  -9.392  1.00  0.00     0.173 A 
ATOM     80  F   UNL     1      -1.187 -18.272  -9.079  1.00  0.00    -0.203 F 
ATOM     81  C   UNL     1      -0.132 -20.345  -8.715  1.00  0.00     0.198 A 
ATOM     82  C   UNL     1       2.235 -20.563  -9.047  1.00  0.00     0.198 A 
ATOM     83  F   UNL     1       3.510 -18.698  -9.703  1.00  0.00    -0.203 F 
ATOM     84  F   UNL     1      -1.307 -20.879  -8.355  1.00  0.00    -0.200 F 
ATOM     85  C   UNL     1       1.015 -21.124  -8.702  1.00  0.00     0.200 A 
ATOM     86  F   UNL     1       3.344 -21.317  -9.044  1.00  0.00    -0.200 F 
ATOM     87  F   UNL     1       0.947 -22.415  -8.347  1.00  0.00    -0.200 F 
ENDBRANCH  63  77
BRANCH  64  88
ATOM     88  C   UNL     1       1.740  -8.674 -11.492  1.00  0.00     0.064 A 
ATOM     89  C   UNL     1       0.846  -8.043 -12.367  1.00  0.00     0.173 A 
ATOM     90  C   UNL     1       2.775  -7.897 -10.948  1.00  0.00     0.173 A 
ATOM     91  F   UNL     1      -0.140  -8.748 -12.941  1.00  0.00    -0.203 F 
ATOM     92  C   UNL     1       0.987  -6.694 -12.693  1.00  0.00     0.198 A 
ATOM     93  C   UNL     1       2.898  -6.543 -11.252  1.00  0.00     0.198 A 
ATOM     94  F   UNL     1       3.666  -8.453 -10.115  1.00  0.00    -0.203 F 
ATOM     95  F   UNL     1       0.145  -6.126 -13.568  1.00  0.00    -0.200 F 
ATOM     96  C   UNL     1       2.008  -5.944 -12.130  1.00  0.00     0.200 A 
ATOM     97  F   UNL     1       3.882  -5.821 -10.699  1.00  0.00    -0.200 F 
ATOM     98  F   UNL     1       2.142  -4.647 -12.441  1.00  0.00    -0.200 F 
ENDBRANCH  64  88
BRANCH  76  99
ATOM     99  C   UNL     1       2.600 -14.474 -15.277  1.00  0.00     0.064 A 
ATOM    100  C   UNL     1       3.902 -14.275 -15.756  1.00  0.00     0.173 A 
ATOM    101  C   UNL     1       1.639 -14.971 -16.172  1.00  0.00     0.173 A 
ATOM    102  F   UNL     1       4.853 -13.791 -14.943  1.00  0.00    -0.203 F 
ATOM    103  C   UNL     1       4.227 -14.550 -17.082  1.00  0.00     0.198 A 
ATOM    104  C   UNL     1       1.974 -15.269 -17.490  1.00  0.00     0.198 A 
ATOM    105  F   UNL     1       0.380 -15.187 -15.762  1.00  0.00    -0.203 F 
ATOM    106  F   UNL     1       5.470 -14.319 -17.527  1.00  0.00    -0.200 F 
ATOM    107  C   UNL     1       3.266 -15.054 -17.945  1.00  0.00     0.200 A 
ATOM    108  F   UNL     1       1.047 -15.771 -18.319  1.00  0.00    -0.200 F 
ATOM    109  F   UNL     1       3.584 -15.330 -19.218  1.00  0.00    -0.200 F 
ENDBRANCH  76  99
ENDBRANCH  50  51
ENDBRANCH  43  45
ENDBRANCH  42  43
ENDBRANCH  41  42
ENDBRANCH  40  41
ENDBRANCH   1  40
TORSDOF 16
