REMARK SMILES C/C(=N\Nc1nc(-c2ccc(Cl)cc2)cs1)c1nnn(-c2ccc(C(=O)OCCOCCOC(=O)c3ccc(-c4c5nc(c(-c6c(F)c(F)c(F)c(F)c6F)c6ccc([nH]6)c(-c6c(F)c(F)c(F)c(F)c6F)c6nc(c(-c7c(F)c(F)c(F)c(F)c7F)c7ccc4[nH]7)C=C6)C=C5)cc3)cc2)c1C
REMARK SMILES IDX 28 1 27 2 25 3 26 4 24 5 21 6 22 7 100 8 23 9 99 10 20 11
REMARK SMILES IDX 17 12 18 13 101 14 19 15 102 16 2 17 1 18 3 19 4 20 5 22
REMARK SMILES IDX 6 23 16 24 7 25 15 26 8 27 9 28 14 29 10 30 13 31 11 32
REMARK SMILES IDX 12 33 29 34 30 35 31 36 32 37 33 38 34 39 35 40 36 41 37 42
REMARK SMILES IDX 98 43 38 44 97 45 39 46 40 47 41 48 91 49 42 50 96 51 90 52
REMARK SMILES IDX 92 53 43 54 95 55 89 56 88 57 44 59 76 60 56 61 75 62 57 63
REMARK SMILES IDX 60 64 74 65 93 66 58 67 59 68 73 70 94 71 61 72 45 73 46 74
REMARK SMILES IDX 54 75 47 76 48 77 52 78 55 79 49 80 50 81 53 82 51 83 77 84
REMARK SMILES IDX 78 85 86 86 79 87 80 88 84 89 87 90 81 91 82 92 85 93 83 94
REMARK SMILES IDX 62 95 63 96 71 97 64 98 65 99 69 100 72 101 66 102 67 103
REMARK SMILES IDX 70 104 68 105
REMARK H PARENT 4 21 92 58 60 69
REMARK Flexibility Score: inf
ROOT
ATOM      1  C   UNL     1       9.298  -2.820  -6.469  1.00  0.00     0.261 C 
ENDROOT
BRANCH   1   2
ATOM      2  O   UNL     1       8.100  -3.126  -5.738  1.00  0.00    -0.460 OA
BRANCH   2   3
ATOM      3  C   UNL     1       7.108  -2.219  -5.881  1.00  0.00     0.338 C 
ATOM      4  O   UNL     1       7.154  -1.166  -6.502  1.00  0.00    -0.246 OA
BRANCH   3   5
ATOM      5  C   UNL     1       5.859  -2.723  -5.280  1.00  0.00     0.060 A 
ATOM      6  C   UNL     1       3.465  -3.163  -3.974  1.00  0.00     0.067 A 
ATOM      7  C   UNL     1       3.435  -2.621  -5.261  1.00  0.00     0.029 A 
ATOM      8  C   UNL     1       4.660  -3.638  -3.412  1.00  0.00     0.029 A 
ATOM      9  C   UNL     1       4.647  -2.379  -5.902  1.00  0.00     0.018 A 
ATOM     10  C   UNL     1       5.866  -3.422  -4.071  1.00  0.00     0.018 A 
BRANCH   6  11
ATOM     11  N   UNL     1       2.353  -2.948  -3.134  1.00  0.00    -0.217 N 
ATOM     12  C   UNL     1       1.027  -2.046  -1.659  1.00  0.00     0.132 A 
ATOM     13  N   UNL     1       0.267  -2.705  -2.587  1.00  0.00    -0.128 NA
ATOM     14  C   UNL     1       2.367  -2.184  -1.979  1.00  0.00     0.071 A 
ATOM     15  N   UNL     1       1.081  -3.169  -3.530  1.00  0.00    -0.061 NA
ATOM     16  C   UNL     1       3.573  -1.527  -1.407  1.00  0.00     0.069 C 
BRANCH  12  17
ATOM     17  C   UNL     1       0.494  -1.200  -0.601  1.00  0.00     0.087 C 
ATOM     18  C   UNL     1       0.944   0.238  -0.649  1.00  0.00     0.071 C 
ATOM     19  N   UNL     1      -0.225  -1.814   0.295  1.00  0.00    -0.176 NA
BRANCH  19  20
ATOM     20  N   UNL     1      -0.664  -1.266   1.477  1.00  0.00    -0.252 N 
ATOM     21  H   UNL     1      -1.212  -1.871   2.028  1.00  0.00     0.193 HD
BRANCH  20  22
ATOM     22  C   UNL     1      -0.471  -0.035   2.017  1.00  0.00     0.203 A 
ATOM     23  N   UNL     1      -0.619   1.112   1.400  1.00  0.00    -0.219 NA
ATOM     24  S   UNL     1       0.064   0.124   3.654  1.00  0.00    -0.103 S 
ATOM     25  C   UNL     1      -0.020   2.129   2.110  1.00  0.00     0.084 A 
ATOM     26  C   UNL     1       0.415   1.783   3.370  1.00  0.00     0.097 A 
BRANCH  25  27
ATOM     27  C   UNL     1       0.186   3.417   1.477  1.00  0.00     0.001 A 
ATOM     28  C   UNL     1      -0.893   4.067   0.864  1.00  0.00     0.012 A 
ATOM     29  C   UNL     1       1.474   3.959   1.359  1.00  0.00     0.012 A 
ATOM     30  C   UNL     1      -0.693   5.258   0.161  1.00  0.00     0.021 A 
ATOM     31  C   UNL     1       1.675   5.144   0.644  1.00  0.00     0.021 A 
ATOM     32  C   UNL     1       0.590   5.789   0.053  1.00  0.00     0.041 A 
ATOM     33  Cl  UNL     1       0.842   7.242  -0.834  1.00  0.00    -0.084 Cl
ENDBRANCH  25  27
ENDBRANCH  20  22
ENDBRANCH  19  20
ENDBRANCH  12  17
ENDBRANCH   6  11
ENDBRANCH   3   5
ENDBRANCH   2   3
ENDBRANCH   1   2
BRANCH   1  34
ATOM     34  C   UNL     1       9.538  -3.821  -7.597  1.00  0.00     0.202 C 
BRANCH  34  35
ATOM     35  O   UNL     1       8.650  -3.801  -8.715  1.00  0.00    -0.374 OA
BRANCH  35  36
ATOM     36  C   UNL     1       7.284  -4.171  -8.559  1.00  0.00     0.202 C 
BRANCH  36  37
ATOM     37  C   UNL     1       6.952  -5.646  -8.378  1.00  0.00     0.261 C 
BRANCH  37  38
ATOM     38  O   UNL     1       7.623  -6.208  -7.262  1.00  0.00    -0.460 OA
BRANCH  38  39
ATOM     39  C   UNL     1       8.756  -6.867  -7.578  1.00  0.00     0.338 C 
ATOM     40  O   UNL     1       9.317  -6.904  -8.669  1.00  0.00    -0.246 OA
BRANCH  39  41
ATOM     41  C   UNL     1       9.179  -7.662  -6.424  1.00  0.00     0.060 A 
ATOM     42  C   UNL     1      10.248  -8.535  -6.642  1.00  0.00     0.016 A 
ATOM     43  C   UNL     1       8.330  -7.778  -5.314  1.00  0.00     0.016 A 
ATOM     44  C   UNL     1      10.297  -9.695  -5.908  1.00  0.00     0.010 A 
ATOM     45  C   UNL     1       8.365  -8.946  -4.597  1.00  0.00     0.010 A 
ATOM     46  C   UNL     1       9.281  -9.926  -4.981  1.00  0.00    -0.014 A 
BRANCH  46  47
ATOM     47  C   UNL     1       9.130 -11.269  -4.470  1.00  0.00     0.031 A 
ATOM     48  C   UNL     1       9.991 -11.595  -3.314  1.00  0.00     0.074 A 
ATOM     49  C   UNL     1       8.151 -12.056  -4.957  1.00  0.00     0.049 A 
ATOM     50  N   UNL     1      10.793 -12.596  -3.158  1.00  0.00    -0.248 NA
ATOM     51  C   UNL     1      10.026 -10.615  -2.214  1.00  0.00     0.031 C 
ATOM     52  C   UNL     1       7.074 -11.680  -5.883  1.00  0.00     0.029 A 
ATOM     53  N   UNL     1       7.833 -13.332  -4.621  1.00  0.00    -0.354 N 
ATOM     54  C   UNL     1      11.309 -12.459  -1.873  1.00  0.00     0.074 A 
ATOM     55  C   UNL     1      10.930 -11.156  -1.403  1.00  0.00     0.031 C 
ATOM     56  C   UNL     1       6.109 -12.625  -5.847  1.00  0.00     0.029 A 
ATOM     57  C   UNL     1       6.549 -13.707  -4.984  1.00  0.00     0.049 A 
ATOM     58  H   UNL     1       8.458 -13.937  -4.160  1.00  0.00     0.167 HD
ATOM     59  C   UNL     1      11.801 -13.522  -1.186  1.00  0.00     0.037 A 
ATOM     60  C   UNL     1       5.867 -14.775  -4.505  1.00  0.00     0.037 A 
ATOM     61  C   UNL     1      12.212 -14.581  -2.065  1.00  0.00     0.049 A 
ATOM     62  C   UNL     1       6.854 -15.689  -3.870  1.00  0.00     0.074 A 
ATOM     63  C   UNL     1      13.150 -14.686  -3.074  1.00  0.00     0.029 A 
ATOM     64  N   UNL     1      11.395 -15.675  -2.204  1.00  0.00    -0.354 N 
ATOM     65  N   UNL     1       7.763 -16.360  -4.523  1.00  0.00    -0.248 NA
ATOM     66  C   UNL     1       7.107 -15.525  -2.445  1.00  0.00     0.031 C 
ATOM     67  C   UNL     1      12.572 -15.568  -4.033  1.00  0.00     0.029 A 
ATOM     68  C   UNL     1      11.328 -15.964  -3.542  1.00  0.00     0.049 A 
ATOM     69  H   UNL     1      10.941 -16.161  -1.478  1.00  0.00     0.167 HD
ATOM     70  C   UNL     1       8.875 -16.359  -3.692  1.00  0.00     0.074 A 
ATOM     71  C   UNL     1       8.382 -15.918  -2.392  1.00  0.00     0.031 C 
ATOM     72  C   UNL     1      10.137 -16.443  -4.205  1.00  0.00     0.037 A 
BRANCH  59  73
ATOM     73  C   UNL     1      11.577 -13.714   0.291  1.00  0.00     0.064 A 
ATOM     74  C   UNL     1      12.261 -14.743   0.963  1.00  0.00     0.173 A 
ATOM     75  C   UNL     1      10.514 -13.119   1.009  1.00  0.00     0.173 A 
ATOM     76  F   UNL     1      13.268 -15.397   0.364  1.00  0.00    -0.203 F 
ATOM     77  C   UNL     1      11.867 -15.184   2.228  1.00  0.00     0.198 A 
ATOM     78  C   UNL     1      10.163 -13.520   2.295  1.00  0.00     0.198 A 
ATOM     79  F   UNL     1       9.702 -12.207   0.460  1.00  0.00    -0.203 F 
ATOM     80  F   UNL     1      12.467 -16.249   2.776  1.00  0.00    -0.200 F 
ATOM     81  C   UNL     1      10.818 -14.574   2.892  1.00  0.00     0.200 A 
ATOM     82  F   UNL     1       9.132 -12.926   2.912  1.00  0.00    -0.200 F 
ATOM     83  F   UNL     1      10.403 -15.033   4.080  1.00  0.00    -0.200 F 
ENDBRANCH  59  73
BRANCH  60  84
ATOM     84  C   UNL     1       4.407 -14.872  -4.263  1.00  0.00     0.064 A 
ATOM     85  C   UNL     1       3.780 -16.116  -4.096  1.00  0.00     0.173 A 
ATOM     86  C   UNL     1       3.632 -13.735  -3.954  1.00  0.00     0.173 A 
ATOM     87  F   UNL     1       4.463 -17.249  -4.313  1.00  0.00    -0.203 F 
ATOM     88  C   UNL     1       2.459 -16.215  -3.643  1.00  0.00     0.198 A 
ATOM     89  C   UNL     1       2.312 -13.834  -3.518  1.00  0.00     0.198 A 
ATOM     90  F   UNL     1       4.168 -12.506  -3.978  1.00  0.00    -0.203 F 
ATOM     91  F   UNL     1       1.911 -17.421  -3.441  1.00  0.00    -0.200 F 
ATOM     92  C   UNL     1       1.727 -15.075  -3.352  1.00  0.00     0.200 A 
ATOM     93  F   UNL     1       1.631 -12.722  -3.205  1.00  0.00    -0.200 F 
ATOM     94  F   UNL     1       0.480 -15.171  -2.873  1.00  0.00    -0.200 F 
ENDBRANCH  60  84
BRANCH  72  95
ATOM     95  C   UNL     1      10.274 -16.788  -5.660  1.00  0.00     0.064 A 
ATOM     96  C   UNL     1       9.841 -15.942  -6.695  1.00  0.00     0.173 A 
ATOM     97  C   UNL     1      11.011 -17.923  -6.019  1.00  0.00     0.173 A 
ATOM     98  F   UNL     1       9.228 -14.784  -6.424  1.00  0.00    -0.203 F 
ATOM     99  C   UNL     1      10.098 -16.243  -8.031  1.00  0.00     0.198 A 
ATOM    100  C   UNL     1      11.298 -18.203  -7.353  1.00  0.00     0.198 A 
ATOM    101  F   UNL     1      11.506 -18.732  -5.069  1.00  0.00    -0.203 F 
ATOM    102  F   UNL     1       9.668 -15.420  -8.999  1.00  0.00    -0.200 F 
ATOM    103  C   UNL     1      10.833 -17.369  -8.358  1.00  0.00     0.200 A 
ATOM    104  F   UNL     1      12.056 -19.264  -7.663  1.00  0.00    -0.200 F 
ATOM    105  F   UNL     1      11.123 -17.633  -9.640  1.00  0.00    -0.200 F 
ENDBRANCH  72  95
ENDBRANCH  46  47
ENDBRANCH  39  41
ENDBRANCH  38  39
ENDBRANCH  37  38
ENDBRANCH  36  37
ENDBRANCH  35  36
ENDBRANCH  34  35
ENDBRANCH   1  34
TORSDOF 19
