REMARK SMILES C[C@H]([C@H](C)C(=O)OCCOCCOC(=O)c1ccc(-c2c3nc(c(-c4c(F)c(F)c(F)c(F)c4F)c4ccc([nH]4)c(-c4c(F)c(F)c(F)c(F)c4F)c4nc(c(-c5c(F)c(F)c(F)c(F)c5F)c5ccc2[nH]5)C=C4)C=C3)cc1)[C@H](O)c1cncn1C1CC1
REMARK SMILES IDX 9 1 8 2 7 3 5 4 6 5 3 6 4 7 2 8 1 9 79 10 81 11 82 12 85 13
REMARK SMILES IDX 83 14 84 15 86 16 87 17 88 18 80 19 10 21 11 22 12 23 13 24
REMARK SMILES IDX 14 25 15 26 16 27 17 28 78 29 18 30 77 31 19 32 20 33 21 34
REMARK SMILES IDX 71 35 22 36 76 37 70 38 72 39 23 40 75 41 69 42 68 43 24 45
REMARK SMILES IDX 56 46 36 47 55 48 37 49 40 50 54 51 73 52 38 53 39 54 53 56
REMARK SMILES IDX 74 57 41 58 25 59 26 60 34 61 27 62 28 63 32 64 35 65 29 66
REMARK SMILES IDX 30 67 33 68 31 69 57 70 58 71 66 72 59 73 60 74 64 75 67 76
REMARK SMILES IDX 61 77 62 78 65 79 63 80 42 81 43 82 51 83 44 84 45 85 49 86
REMARK SMILES IDX 52 87 46 88 47 89 50 90 48 91
REMARK H PARENT 80 20 72 44 40 55
REMARK Flexibility Score: inf
ROOT
ATOM      1  C   UNL     1      -0.745   1.595  -5.895  1.00  0.00     0.202 C 
ENDROOT
BRANCH   1   2
ATOM      2  C   UNL     1      -0.562   0.083  -5.761  1.00  0.00     0.261 C 
BRANCH   2   3
ATOM      3  O   UNL     1      -0.198  -0.289  -4.416  1.00  0.00    -0.463 OA
BRANCH   3   4
ATOM      4  C   UNL     1       1.077  -0.727  -4.245  1.00  0.00     0.309 C 
ATOM      5  O   UNL     1       1.920  -0.796  -5.131  1.00  0.00    -0.252 OA
BRANCH   4   6
ATOM      6  C   UNL     1       1.377  -1.116  -2.802  1.00  0.00     0.102 C 
ATOM      7  C   UNL     1       1.921   0.063  -2.011  1.00  0.00     0.020 C 
BRANCH   6   8
ATOM      8  C   UNL     1       0.261  -2.018  -2.196  1.00  0.00     0.035 C 
ATOM      9  C   UNL     1       0.940  -3.329  -1.722  1.00  0.00     0.012 C 
BRANCH   8  10
ATOM     10  C   UNL     1      -0.704  -1.562  -1.062  1.00  0.00     0.166 C 
BRANCH  10  11
ATOM     11  C   UNL     1      -0.802  -0.137  -0.673  1.00  0.00     0.067 A 
ATOM     12  C   UNL     1      -1.313   0.935  -1.393  1.00  0.00     0.137 A 
ATOM     13  N   UNL     1      -0.495   0.426   0.553  1.00  0.00    -0.329 N 
ATOM     14  N   UNL     1      -1.202   2.116  -0.708  1.00  0.00    -0.245 NA
ATOM     15  C   UNL     1      -0.701   1.778   0.456  1.00  0.00     0.199 A 
BRANCH  13  16
ATOM     16  C   UNL     1      -0.074  -0.158   1.817  1.00  0.00     0.088 C 
ATOM     17  C   UNL     1      -0.632  -1.467   2.346  1.00  0.00     0.027 C 
ATOM     18  C   UNL     1       0.809  -1.377   1.967  1.00  0.00     0.027 C 
ENDBRANCH  13  16
ENDBRANCH  10  11
BRANCH  10  19
ATOM     19  O   UNL     1      -2.040  -1.913  -1.449  1.00  0.00    -0.387 OA
ATOM     20  H   UNL     1      -2.298  -1.393  -2.227  1.00  0.00     0.211 HD
ENDBRANCH  10  19
ENDBRANCH   8  10
ENDBRANCH   6   8
ENDBRANCH   4   6
ENDBRANCH   3   4
ENDBRANCH   2   3
ENDBRANCH   1   2
BRANCH   1  21
ATOM     21  O   UNL     1       0.464   2.354  -5.834  1.00  0.00    -0.374 OA
BRANCH  21  22
ATOM     22  C   UNL     1       0.940   2.647  -4.519  1.00  0.00     0.202 C 
BRANCH  22  23
ATOM     23  C   UNL     1       0.374   3.927  -3.901  1.00  0.00     0.261 C 
BRANCH  23  24
ATOM     24  O   UNL     1      -1.034   3.788  -3.650  1.00  0.00    -0.460 OA
BRANCH  24  25
ATOM     25  C   UNL     1      -1.838   4.454  -4.507  1.00  0.00     0.338 C 
ATOM     26  O   UNL     1      -1.504   5.242  -5.375  1.00  0.00    -0.246 OA
BRANCH  25  27
ATOM     27  C   UNL     1      -3.225   3.962  -4.377  1.00  0.00     0.060 A 
ATOM     28  C   UNL     1      -3.921   3.707  -5.565  1.00  0.00     0.016 A 
ATOM     29  C   UNL     1      -3.856   3.804  -3.140  1.00  0.00     0.016 A 
ATOM     30  C   UNL     1      -5.270   3.367  -5.526  1.00  0.00     0.010 A 
ATOM     31  C   UNL     1      -5.215   3.471  -3.102  1.00  0.00     0.010 A 
ATOM     32  C   UNL     1      -5.937   3.295  -4.296  1.00  0.00    -0.014 A 
BRANCH  32  33
ATOM     33  C   UNL     1      -7.418   3.203  -4.290  1.00  0.00     0.031 A 
ATOM     34  C   UNL     1      -8.224   4.460  -4.109  1.00  0.00     0.074 A 
ATOM     35  C   UNL     1      -8.039   2.031  -4.514  1.00  0.00     0.049 A 
ATOM     36  N   UNL     1      -9.523   4.623  -4.103  1.00  0.00    -0.248 NA
ATOM     37  C   UNL     1      -7.462   5.703  -3.913  1.00  0.00     0.031 C 
ATOM     38  C   UNL     1      -7.371   0.753  -4.746  1.00  0.00     0.029 A 
ATOM     39  N   UNL     1      -9.377   1.732  -4.586  1.00  0.00    -0.354 N 
ATOM     40  C   UNL     1      -9.732   5.981  -3.902  1.00  0.00     0.074 A 
ATOM     41  C   UNL     1      -8.430   6.594  -3.759  1.00  0.00     0.031 C 
ATOM     42  C   UNL     1      -8.303  -0.197  -4.933  1.00  0.00     0.029 A 
ATOM     43  C   UNL     1      -9.632   0.402  -4.807  1.00  0.00     0.049 A 
ATOM     44  H   UNL     1     -10.086   2.408  -4.489  1.00  0.00     0.167 HD
ATOM     45  C   UNL     1     -10.904   6.658  -3.854  1.00  0.00     0.037 A 
ATOM     46  C   UNL     1     -10.804  -0.257  -4.883  1.00  0.00     0.037 A 
ATOM     47  C   UNL     1     -12.200   6.050  -3.998  1.00  0.00     0.049 A 
ATOM     48  C   UNL     1     -12.096   0.509  -4.752  1.00  0.00     0.074 A 
ATOM     49  C   UNL     1     -13.444   6.656  -3.986  1.00  0.00     0.029 A 
ATOM     50  N   UNL     1     -12.419   4.691  -4.174  1.00  0.00    -0.354 N 
ATOM     51  N   UNL     1     -12.284   1.797  -4.595  1.00  0.00    -0.248 NA
ATOM     52  C   UNL     1     -13.339  -0.273  -4.812  1.00  0.00     0.031 C 
ATOM     53  C   UNL     1     -14.418   5.658  -4.101  1.00  0.00     0.029 A 
ATOM     54  C   UNL     1     -13.779   4.437  -4.241  1.00  0.00     0.049 A 
ATOM     55  H   UNL     1     -11.712   4.009  -4.241  1.00  0.00     0.167 HD
ATOM     56  C   UNL     1     -13.661   1.982  -4.568  1.00  0.00     0.074 A 
ATOM     57  C   UNL     1     -14.261   0.676  -4.737  1.00  0.00     0.031 C 
ATOM     58  C   UNL     1     -14.364   3.132  -4.418  1.00  0.00     0.037 A 
BRANCH  45  59
ATOM     59  C   UNL     1     -10.839   8.137  -3.609  1.00  0.00     0.064 A 
ATOM     60  C   UNL     1     -10.383   9.028  -4.591  1.00  0.00     0.173 A 
ATOM     61  C   UNL     1     -11.275   8.672  -2.387  1.00  0.00     0.173 A 
ATOM     62  F   UNL     1      -9.944   8.566  -5.771  1.00  0.00    -0.203 F 
ATOM     63  C   UNL     1     -10.343  10.399  -4.350  1.00  0.00     0.198 A 
ATOM     64  C   UNL     1     -11.260  10.045  -2.160  1.00  0.00     0.198 A 
ATOM     65  F   UNL     1     -11.726   7.863  -1.416  1.00  0.00    -0.203 F 
ATOM     66  F   UNL     1      -9.864  11.229  -5.287  1.00  0.00    -0.200 F 
ATOM     67  C   UNL     1     -10.788  10.907  -3.139  1.00  0.00     0.200 A 
ATOM     68  F   UNL     1     -11.702  10.535  -0.994  1.00  0.00    -0.200 F 
ATOM     69  F   UNL     1     -10.757  12.227  -2.912  1.00  0.00    -0.200 F 
ENDBRANCH  45  59
BRANCH  46  70
ATOM     70  C   UNL     1     -10.816  -1.729  -5.086  1.00  0.00     0.064 A 
ATOM     71  C   UNL     1     -11.292  -2.294  -6.277  1.00  0.00     0.173 A 
ATOM     72  C   UNL     1     -10.373  -2.603  -4.081  1.00  0.00     0.173 A 
ATOM     73  F   UNL     1     -11.753  -1.501  -7.256  1.00  0.00    -0.203 F 
ATOM     74  C   UNL     1     -11.341  -3.676  -6.449  1.00  0.00     0.198 A 
ATOM     75  C   UNL     1     -10.395  -3.983  -4.266  1.00  0.00     0.198 A 
ATOM     76  F   UNL     1      -9.913  -2.114  -2.920  1.00  0.00    -0.203 F 
ATOM     77  F   UNL     1     -11.845  -4.191  -7.578  1.00  0.00    -0.200 F 
ATOM     78  C   UNL     1     -10.887  -4.519  -5.446  1.00  0.00     0.200 A 
ATOM     79  F   UNL     1      -9.946  -4.794  -3.297  1.00  0.00    -0.200 F 
ATOM     80  F   UNL     1     -10.932  -5.848  -5.612  1.00  0.00    -0.200 F 
ENDBRANCH  46  70
BRANCH  58  81
ATOM     81  C   UNL     1     -15.862   3.039  -4.465  1.00  0.00     0.064 A 
ATOM     82  C   UNL     1     -16.599   2.470  -3.416  1.00  0.00     0.173 A 
ATOM     83  C   UNL     1     -16.572   3.566  -5.556  1.00  0.00     0.173 A 
ATOM     84  F   UNL     1     -15.968   1.940  -2.358  1.00  0.00    -0.203 F 
ATOM     85  C   UNL     1     -17.989   2.410  -3.468  1.00  0.00     0.198 A 
ATOM     86  C   UNL     1     -17.963   3.531  -5.591  1.00  0.00     0.198 A 
ATOM     87  F   UNL     1     -15.916   4.128  -6.582  1.00  0.00    -0.203 F 
ATOM     88  F   UNL     1     -18.671   1.820  -2.476  1.00  0.00    -0.200 F 
ATOM     89  C   UNL     1     -18.670   2.947  -4.551  1.00  0.00     0.200 A 
ATOM     90  F   UNL     1     -18.619   4.063  -6.631  1.00  0.00    -0.200 F 
ATOM     91  F   UNL     1     -20.009   2.895  -4.596  1.00  0.00    -0.200 F 
ENDBRANCH  58  81
ENDBRANCH  32  33
ENDBRANCH  25  27
ENDBRANCH  24  25
ENDBRANCH  23  24
ENDBRANCH  22  23
ENDBRANCH  21  22
ENDBRANCH   1  21
TORSDOF 19
