REMARK SMILES Cc1nnc(S[C@@H](C)CCO)c(C(=O)OCCOCCOC(=O)c2ccc(-c3c4nc(c(-c5c(F)c(F)c(F)c(F)c5F)c5ccc([nH]5)c(-c5c(F)c(F)c(F)c(F)c5F)c5nc(c(-c6c(F)c(F)c(F)c(F)c6F)c6ccc3[nH]6)C=C5)C=C4)cc2)c1C
REMARK SMILES IDX 16 1 15 2 13 3 14 4 12 5 1 6 2 7 3 8 87 9 4 10 88 11 5 12
REMARK SMILES IDX 6 13 7 14 8 15 9 16 10 17 11 18 17 20 18 21 19 22 20 23
REMARK SMILES IDX 21 24 22 25 23 26 24 27 25 28 86 29 26 30 85 31 27 32 28 33
REMARK SMILES IDX 29 34 79 35 30 36 84 37 78 38 80 39 31 40 83 41 77 42 76 43
REMARK SMILES IDX 32 45 64 46 44 47 63 48 45 49 48 50 62 51 81 52 46 53 47 54
REMARK SMILES IDX 61 56 82 57 49 58 33 59 34 60 42 61 35 62 36 63 40 64 43 65
REMARK SMILES IDX 37 66 38 67 41 68 39 69 65 70 66 71 74 72 67 73 68 74 72 75
REMARK SMILES IDX 75 76 69 77 70 78 73 79 71 80 50 81 51 82 59 83 52 84 53 85
REMARK SMILES IDX 57 86 60 87 54 88 55 89 58 90 56 91
REMARK H PARENT 11 19 80 44 48 55
REMARK Flexibility Score: inf
ROOT
ATOM      1  C   UNL     1      -0.380   5.073  -3.798  1.00  0.00     0.261 C 
ENDROOT
BRANCH   1   2
ATOM      2  O   UNL     1      -0.182   3.814  -3.146  1.00  0.00    -0.460 OA
BRANCH   2   3
ATOM      3  C   UNL     1      -1.211   2.944  -3.159  1.00  0.00     0.341 C 
ATOM      4  O   UNL     1      -2.372   3.195  -3.417  1.00  0.00    -0.246 OA
BRANCH   3   5
ATOM      5  C   UNL     1      -0.659   1.613  -2.866  1.00  0.00     0.098 A 
ATOM      6  C   UNL     1       1.183  -0.245  -0.068  1.00  0.00     0.069 C 
ATOM      7  C   UNL     1       0.518   0.135  -1.358  1.00  0.00     0.064 A 
ATOM      8  N   UNL     1       0.286  -0.876  -2.207  1.00  0.00    -0.155 NA
ATOM      9  C   UNL     1       0.121   1.430  -1.677  1.00  0.00    -0.011 A 
ATOM     10  N   UNL     1      -0.418  -0.668  -3.375  1.00  0.00    -0.143 NA
ATOM     11  C   UNL     1       0.525   2.584  -0.789  1.00  0.00     0.047 C 
ATOM     12  C   UNL     1      -0.940   0.535  -3.708  1.00  0.00     0.134 A 
BRANCH  12  13
ATOM     13  S   UNL     1      -2.039   0.316  -5.092  1.00  0.00    -0.100 SA
BRANCH  13  14
ATOM     14  C   UNL     1      -1.935   1.663  -6.357  1.00  0.00     0.052 C 
ATOM     15  C   UNL     1      -3.117   2.627  -6.201  1.00  0.00     0.020 C 
BRANCH  14  16
ATOM     16  C   UNL     1      -0.604   2.380  -6.564  1.00  0.00     0.043 C 
BRANCH  16  17
ATOM     17  C   UNL     1       0.413   1.625  -7.415  1.00  0.00     0.157 C 
BRANCH  17  18
ATOM     18  O   UNL     1       0.094   1.731  -8.798  1.00  0.00    -0.396 OA
ATOM     19  H   UNL     1      -0.782   1.347  -8.958  1.00  0.00     0.210 HD
ENDBRANCH  17  18
ENDBRANCH  16  17
ENDBRANCH  14  16
ENDBRANCH  13  14
ENDBRANCH  12  13
ENDBRANCH   3   5
ENDBRANCH   2   3
ENDBRANCH   1   2
BRANCH   1  20
ATOM     20  C   UNL     1       0.918   5.413  -4.529  1.00  0.00     0.202 C 
BRANCH  20  21
ATOM     21  O   UNL     1       1.413   4.349  -5.348  1.00  0.00    -0.374 OA
BRANCH  21  22
ATOM     22  C   UNL     1       2.264   3.405  -4.679  1.00  0.00     0.202 C 
BRANCH  22  23
ATOM     23  C   UNL     1       3.725   3.573  -5.096  1.00  0.00     0.261 C 
BRANCH  23  24
ATOM     24  O   UNL     1       4.349   4.479  -4.176  1.00  0.00    -0.460 OA
BRANCH  24  25
ATOM     25  C   UNL     1       4.217   5.789  -4.484  1.00  0.00     0.338 C 
ATOM     26  O   UNL     1       3.968   6.276  -5.571  1.00  0.00    -0.246 OA
BRANCH  25  27
ATOM     27  C   UNL     1       4.138   6.535  -3.208  1.00  0.00     0.060 A 
ATOM     28  C   UNL     1       3.287   7.648  -3.164  1.00  0.00     0.016 A 
ATOM     29  C   UNL     1       4.809   6.106  -2.057  1.00  0.00     0.016 A 
ATOM     30  C   UNL     1       3.124   8.352  -1.979  1.00  0.00     0.010 A 
ATOM     31  C   UNL     1       4.670   6.826  -0.874  1.00  0.00     0.010 A 
ATOM     32  C   UNL     1       3.860   7.972  -0.850  1.00  0.00    -0.014 A 
BRANCH  32  33
ATOM     33  C   UNL     1       4.026   8.952   0.237  1.00  0.00     0.031 A 
ATOM     34  C   UNL     1       5.147   9.940   0.087  1.00  0.00     0.074 A 
ATOM     35  C   UNL     1       3.191   8.984   1.286  1.00  0.00     0.049 A 
ATOM     36  N   UNL     1       5.487  10.935   0.859  1.00  0.00    -0.248 NA
ATOM     37  C   UNL     1       6.000   9.785  -1.107  1.00  0.00     0.031 C 
ATOM     38  C   UNL     1       2.058   8.085   1.494  1.00  0.00     0.029 A 
ATOM     39  N   UNL     1       3.169   9.817   2.373  1.00  0.00    -0.354 N 
ATOM     40  C   UNL     1       6.568  11.537   0.230  1.00  0.00     0.074 A 
ATOM     41  C   UNL     1       6.868  10.770  -0.955  1.00  0.00     0.031 C 
ATOM     42  C   UNL     1       1.447   8.418   2.645  1.00  0.00     0.029 A 
ATOM     43  C   UNL     1       2.156   9.540   3.257  1.00  0.00     0.049 A 
ATOM     44  H   UNL     1       3.818  10.544   2.508  1.00  0.00     0.167 HD
ATOM     45  C   UNL     1       7.236  12.651   0.600  1.00  0.00     0.037 A 
ATOM     46  C   UNL     1       1.851  10.137   4.425  1.00  0.00     0.037 A 
ATOM     47  C   UNL     1       6.943  13.384   1.797  1.00  0.00     0.049 A 
ATOM     48  C   UNL     1       2.685  11.310   4.878  1.00  0.00     0.074 A 
ATOM     49  C   UNL     1       7.554  14.523   2.283  1.00  0.00     0.029 A 
ATOM     50  N   UNL     1       5.954  13.031   2.706  1.00  0.00    -0.354 N 
ATOM     51  N   UNL     1       3.678  11.904   4.260  1.00  0.00    -0.248 NA
ATOM     52  C   UNL     1       2.360  11.893   6.186  1.00  0.00     0.031 C 
ATOM     53  C   UNL     1       6.967  14.832   3.513  1.00  0.00     0.029 A 
ATOM     54  C   UNL     1       5.960  13.913   3.770  1.00  0.00     0.049 A 
ATOM     55  H   UNL     1       5.341  12.267   2.607  1.00  0.00     0.167 HD
ATOM     56  C   UNL     1       4.085  12.939   5.090  1.00  0.00     0.074 A 
ATOM     57  C   UNL     1       3.221  12.900   6.254  1.00  0.00     0.031 C 
ATOM     58  C   UNL     1       5.081  13.841   4.911  1.00  0.00     0.037 A 
BRANCH  45  59
ATOM     59  C   UNL     1       8.341  13.121  -0.294  1.00  0.00     0.064 A 
ATOM     60  C   UNL     1       8.073  13.688  -1.550  1.00  0.00     0.173 A 
ATOM     61  C   UNL     1       9.680  13.012   0.106  1.00  0.00     0.173 A 
ATOM     62  F   UNL     1       6.809  13.789  -1.988  1.00  0.00    -0.203 F 
ATOM     63  C   UNL     1       9.107  14.111  -2.380  1.00  0.00     0.198 A 
ATOM     64  C   UNL     1      10.711  13.460  -0.716  1.00  0.00     0.198 A 
ATOM     65  F   UNL     1       9.990  12.468   1.292  1.00  0.00    -0.203 F 
ATOM     66  F   UNL     1       8.829  14.607  -3.594  1.00  0.00    -0.200 F 
ATOM     67  C   UNL     1      10.424  14.004  -1.960  1.00  0.00     0.200 A 
ATOM     68  F   UNL     1      11.983  13.361  -0.307  1.00  0.00    -0.200 F 
ATOM     69  F   UNL     1      11.418  14.416  -2.758  1.00  0.00    -0.200 F 
ENDBRANCH  45  59
BRANCH  46  70
ATOM     70  C   UNL     1       0.697   9.651   5.225  1.00  0.00     0.064 A 
ATOM     71  C   UNL     1      -0.467  10.421   5.351  1.00  0.00     0.173 A 
ATOM     72  C   UNL     1       0.720   8.398   5.855  1.00  0.00     0.173 A 
ATOM     73  F   UNL     1      -0.530  11.634   4.782  1.00  0.00    -0.203 F 
ATOM     74  C   UNL     1      -1.563   9.958   6.077  1.00  0.00     0.198 A 
ATOM     75  C   UNL     1      -0.384   7.926   6.563  1.00  0.00     0.198 A 
ATOM     76  F   UNL     1       1.810   7.621   5.766  1.00  0.00    -0.203 F 
ATOM     77  F   UNL     1      -2.655  10.724   6.199  1.00  0.00    -0.200 F 
ATOM     78  C   UNL     1      -1.524   8.707   6.675  1.00  0.00     0.200 A 
ATOM     79  F   UNL     1      -0.347   6.712   7.129  1.00  0.00    -0.200 F 
ATOM     80  F   UNL     1      -2.583   8.256   7.361  1.00  0.00    -0.200 F 
ENDBRANCH  46  70
BRANCH  58  81
ATOM     81  C   UNL     1       5.304  14.860   5.987  1.00  0.00     0.064 A 
ATOM     82  C   UNL     1       5.945  14.517   7.185  1.00  0.00     0.173 A 
ATOM     83  C   UNL     1       4.997  16.210   5.761  1.00  0.00     0.173 A 
ATOM     84  F   UNL     1       6.248  13.237   7.446  1.00  0.00    -0.203 F 
ATOM     85  C   UNL     1       6.276  15.493   8.119  1.00  0.00     0.198 A 
ATOM     86  C   UNL     1       5.354  17.186   6.685  1.00  0.00     0.198 A 
ATOM     87  F   UNL     1       4.396  16.585   4.622  1.00  0.00    -0.203 F 
ATOM     88  F   UNL     1       6.879  15.145   9.264  1.00  0.00    -0.200 F 
ATOM     89  C   UNL     1       5.994  16.828   7.862  1.00  0.00     0.200 A 
ATOM     90  F   UNL     1       5.100  18.477   6.427  1.00  0.00    -0.200 F 
ATOM     91  F   UNL     1       6.344  17.770   8.749  1.00  0.00    -0.200 F 
ENDBRANCH  58  81
ENDBRANCH  32  33
ENDBRANCH  25  27
ENDBRANCH  24  25
ENDBRANCH  23  24
ENDBRANCH  22  23
ENDBRANCH  21  22
ENDBRANCH  20  21
ENDBRANCH   1  20
TORSDOF 19
