REMARK SMILES N#CCCNC(=O)COc1ccc(C(=O)OCCOCCOC(=O)c2ccc(-c3c4nc(c(-c5c(F)c(F)c(F)c(F)c5F)c5ccc([nH]5)c(-c5c(F)c(F)c(F)c(F)c5F)c5nc(c(-c6c(F)c(F)c(F)c(F)c6F)c6ccc3[nH]6)C=C5)C=C4)cc2)nc1
REMARK SMILES IDX 17 1 16 2 14 3 15 4 13 5 10 6 11 7 89 8 12 9 88 10 9 11 8 12
REMARK SMILES IDX 6 13 5 14 7 16 4 17 3 18 2 19 1 20 18 21 19 22 20 23 21 24
REMARK SMILES IDX 22 25 23 26 24 27 25 28 26 29 87 30 27 31 86 32 28 33 29 34
REMARK SMILES IDX 30 35 80 36 31 37 85 38 79 39 81 40 32 41 84 42 78 43 77 44
REMARK SMILES IDX 33 46 65 47 45 48 64 49 46 50 49 51 63 52 82 53 47 54 48 55
REMARK SMILES IDX 62 57 83 58 50 59 34 60 35 61 43 62 36 63 37 64 41 65 44 66
REMARK SMILES IDX 38 67 39 68 42 69 40 70 66 71 67 72 75 73 68 74 69 75 73 76
REMARK SMILES IDX 76 77 70 78 71 79 74 80 72 81 51 82 52 83 60 84 53 85 54 86
REMARK SMILES IDX 58 87 61 88 55 89 56 90 59 91 57 92
REMARK H PARENT 5 15 81 45 49 56
REMARK Flexibility Score: inf
ROOT
ATOM      1  C   UNL     1       5.667   2.471  -8.637  1.00  0.00     0.261 C 
ENDROOT
BRANCH   1   2
ATOM      2  O   UNL     1       5.551   1.603  -7.497  1.00  0.00    -0.459 OA
BRANCH   2   3
ATOM      3  C   UNL     1       6.708   1.012  -7.096  1.00  0.00     0.357 C 
ATOM      4  O   UNL     1       7.758   0.993  -7.721  1.00  0.00    -0.244 OA
BRANCH   3   5
ATOM      5  C   UNL     1       6.543   0.486  -5.707  1.00  0.00     0.148 A 
ATOM      6  C   UNL     1       6.396  -0.471  -3.152  1.00  0.00     0.138 A 
ATOM      7  C   UNL     1       5.230  -0.384  -3.905  1.00  0.00     0.050 A 
ATOM      8  C   UNL     1       7.581  -0.012  -3.702  1.00  0.00     0.158 A 
ATOM      9  C   UNL     1       5.300   0.098  -5.211  1.00  0.00     0.040 A 
ATOM     10  N   UNL     1       7.682   0.455  -4.963  1.00  0.00    -0.245 NA
BRANCH   6  11
ATOM     11  O   UNL     1       6.400  -0.960  -1.879  1.00  0.00    -0.482 OA
BRANCH  11  12
ATOM     12  C   UNL     1       6.260  -2.383  -1.883  1.00  0.00     0.329 C 
BRANCH  12  13
ATOM     13  C   UNL     1       4.805  -2.843  -1.831  1.00  0.00     0.257 C 
ATOM     14  N   UNL     1       4.004  -2.400  -0.816  1.00  0.00    -0.352 N 
ATOM     15  H   UNL     1       3.079  -2.736  -0.823  1.00  0.00     0.163 HD
ATOM     16  O   UNL     1       4.335  -3.604  -2.675  1.00  0.00    -0.271 OA
BRANCH  14  17
ATOM     17  C   UNL     1       4.341  -1.493   0.275  1.00  0.00     0.131 C 
BRANCH  17  18
ATOM     18  C   UNL     1       3.851  -0.061   0.037  1.00  0.00     0.141 C 
BRANCH  18  19
ATOM     19  C   UNL     1       2.331  -0.061   0.037  1.00  0.00     0.064 C 
ATOM     20  N   UNL     1       1.070  -0.061   0.037  1.00  0.00    -0.198 NA
ENDBRANCH  18  19
ENDBRANCH  17  18
ENDBRANCH  14  17
ENDBRANCH  12  13
ENDBRANCH  11  12
ENDBRANCH   6  11
ENDBRANCH   3   5
ENDBRANCH   2   3
ENDBRANCH   1   2
BRANCH   1  21
ATOM     21  C   UNL     1       5.365   3.917  -8.235  1.00  0.00     0.202 C 
BRANCH  21  22
ATOM     22  O   UNL     1       6.309   4.517  -7.348  1.00  0.00    -0.374 OA
BRANCH  22  23
ATOM     23  C   UNL     1       6.152   4.243  -5.954  1.00  0.00     0.202 C 
BRANCH  23  24
ATOM     24  C   UNL     1       5.111   5.104  -5.228  1.00  0.00     0.261 C 
BRANCH  24  25
ATOM     25  O   UNL     1       3.772   4.785  -5.653  1.00  0.00    -0.460 OA
BRANCH  25  26
ATOM     26  C   UNL     1       3.168   5.738  -6.399  1.00  0.00     0.338 C 
ATOM     27  O   UNL     1       3.590   6.856  -6.663  1.00  0.00    -0.246 OA
BRANCH  26  28
ATOM     28  C   UNL     1       1.954   5.187  -7.028  1.00  0.00     0.060 A 
ATOM     29  C   UNL     1       1.814   5.347  -8.413  1.00  0.00     0.016 A 
ATOM     30  C   UNL     1       0.941   4.587  -6.277  1.00  0.00     0.016 A 
ATOM     31  C   UNL     1       0.638   4.950  -9.046  1.00  0.00     0.010 A 
ATOM     32  C   UNL     1      -0.242   4.196  -6.913  1.00  0.00     0.010 A 
ATOM     33  C   UNL     1      -0.412   4.408  -8.294  1.00  0.00    -0.014 A 
BRANCH  33  34
ATOM     34  C   UNL     1      -1.736   4.201  -8.927  1.00  0.00     0.031 A 
ATOM     35  C   UNL     1      -2.809   5.235  -8.730  1.00  0.00     0.074 A 
ATOM     36  C   UNL     1      -1.972   3.122  -9.694  1.00  0.00     0.049 A 
ATOM     37  N   UNL     1      -4.040   5.254  -9.175  1.00  0.00    -0.248 NA
ATOM     38  C   UNL     1      -2.442   6.408  -7.922  1.00  0.00     0.031 C 
ATOM     39  C   UNL     1      -1.000   2.076 -10.000  1.00  0.00     0.029 A 
ATOM     40  N   UNL     1      -3.109   2.733 -10.357  1.00  0.00    -0.354 N 
ATOM     41  C   UNL     1      -4.595   6.435  -8.698  1.00  0.00     0.074 A 
ATOM     42  C   UNL     1      -3.578   7.088  -7.902  1.00  0.00     0.031 C 
ATOM     43  C   UNL     1      -1.582   1.161 -10.794  1.00  0.00     0.029 A 
ATOM     44  C   UNL     1      -2.974   1.542 -11.024  1.00  0.00     0.049 A 
ATOM     45  H   UNL     1      -3.941   3.258 -10.354  1.00  0.00     0.167 HD
ATOM     46  C   UNL     1      -5.835   6.934  -8.914  1.00  0.00     0.037 A 
ATOM     47  C   UNL     1      -3.879   0.835 -11.728  1.00  0.00     0.037 A 
ATOM     48  C   UNL     1      -6.847   6.280  -9.702  1.00  0.00     0.049 A 
ATOM     49  C   UNL     1      -5.282   1.365 -11.873  1.00  0.00     0.074 A 
ATOM     50  C   UNL     1      -8.128   6.713  -9.995  1.00  0.00     0.029 A 
ATOM     51  N   UNL     1      -6.693   5.044 -10.313  1.00  0.00    -0.354 N 
ATOM     52  N   UNL     1      -5.792   2.493 -11.444  1.00  0.00    -0.248 NA
ATOM     53  C   UNL     1      -6.236   0.516 -12.602  1.00  0.00     0.031 C 
ATOM     54  C   UNL     1      -8.767   5.715 -10.741  1.00  0.00     0.029 A 
ATOM     55  C   UNL     1      -7.866   4.684 -10.957  1.00  0.00     0.049 A 
ATOM     56  H   UNL     1      -5.871   4.503 -10.292  1.00  0.00     0.167 HD
ATOM     57  C   UNL     1      -7.111   2.508 -11.877  1.00  0.00     0.074 A 
ATOM     58  C   UNL     1      -7.323   1.276 -12.609  1.00  0.00     0.031 C 
ATOM     59  C   UNL     1      -8.061   3.458 -11.689  1.00  0.00     0.037 A 
BRANCH  46  60
ATOM     60  C   UNL     1      -6.172   8.242  -8.257  1.00  0.00     0.064 A 
ATOM     61  C   UNL     1      -5.596   9.450  -8.678  1.00  0.00     0.173 A 
ATOM     62  C   UNL     1      -7.088   8.287  -7.195  1.00  0.00     0.173 A 
ATOM     63  F   UNL     1      -4.704   9.459  -9.681  1.00  0.00    -0.203 F 
ATOM     64  C   UNL     1      -5.896  10.649  -8.037  1.00  0.00     0.198 A 
ATOM     65  C   UNL     1      -7.408   9.493  -6.576  1.00  0.00     0.198 A 
ATOM     66  F   UNL     1      -7.671   7.162  -6.756  1.00  0.00    -0.203 F 
ATOM     67  F   UNL     1      -5.289  11.781  -8.419  1.00  0.00    -0.200 F 
ATOM     68  C   UNL     1      -6.804  10.670  -6.990  1.00  0.00     0.200 A 
ATOM     69  F   UNL     1      -8.295   9.513  -5.571  1.00  0.00    -0.200 F 
ATOM     70  F   UNL     1      -7.091  11.825  -6.372  1.00  0.00    -0.200 F 
ENDBRANCH  46  60
BRANCH  47  71
ATOM     71  C   UNL     1      -3.487  -0.451 -12.360  1.00  0.00     0.064 A 
ATOM     72  C   UNL     1      -3.399  -0.568 -13.754  1.00  0.00     0.173 A 
ATOM     73  C   UNL     1      -3.202  -1.587 -11.590  1.00  0.00     0.173 A 
ATOM     74  F   UNL     1      -3.688   0.485 -14.533  1.00  0.00    -0.203 F 
ATOM     75  C   UNL     1      -3.051  -1.776 -14.354  1.00  0.00     0.198 A 
ATOM     76  C   UNL     1      -2.830  -2.788 -12.190  1.00  0.00     0.198 A 
ATOM     77  F   UNL     1      -3.276  -1.528 -10.252  1.00  0.00    -0.203 F 
ATOM     78  F   UNL     1      -3.012  -1.871 -15.690  1.00  0.00    -0.200 F 
ATOM     79  C   UNL     1      -2.760  -2.884 -13.572  1.00  0.00     0.200 A 
ATOM     80  F   UNL     1      -2.541  -3.853 -11.430  1.00  0.00    -0.200 F 
ATOM     81  F   UNL     1      -2.422  -4.044 -14.149  1.00  0.00    -0.200 F 
ENDBRANCH  47  71
BRANCH  59  82
ATOM     82  C   UNL     1      -9.404   3.225 -12.319  1.00  0.00     0.064 A 
ATOM     83  C   UNL     1     -10.296   2.264 -11.821  1.00  0.00     0.173 A 
ATOM     84  C   UNL     1      -9.818   4.002 -13.412  1.00  0.00     0.173 A 
ATOM     85  F   UNL     1      -9.942   1.485 -10.788  1.00  0.00    -0.203 F 
ATOM     86  C   UNL     1     -11.544   2.073 -12.410  1.00  0.00     0.198 A 
ATOM     87  C   UNL     1     -11.078   3.828 -13.979  1.00  0.00     0.198 A 
ATOM     88  F   UNL     1      -9.005   4.939 -13.922  1.00  0.00    -0.203 F 
ATOM     89  F   UNL     1     -12.361   1.117 -11.947  1.00  0.00    -0.200 F 
ATOM     90  C   UNL     1     -11.936   2.859 -13.483  1.00  0.00     0.200 A 
ATOM     91  F   UNL     1     -11.460   4.598 -15.008  1.00  0.00    -0.200 F 
ATOM     92  F   UNL     1     -13.140   2.678 -14.044  1.00  0.00    -0.200 F 
ENDBRANCH  59  82
ENDBRANCH  33  34
ENDBRANCH  26  28
ENDBRANCH  25  26
ENDBRANCH  24  25
ENDBRANCH  23  24
ENDBRANCH  22  23
ENDBRANCH  21  22
ENDBRANCH   1  21
TORSDOF 20
