REMARK SMILES C[C@@H](Oc1ccc(-c2ccccc2)cc1)C(=O)N1CCC[C@H](C(=O)OCCOCCOC(=O)c2ccc(-c3c4nc(c(-c5c(F)c(F)c(F)c(F)c5F)c5ccc([nH]5)c(-c5c(F)c(F)c(F)c(F)c5F)c5nc(c(-c6c(F)c(F)c(F)c(F)c6F)c6ccc3[nH]6)C=C5)C=C4)cc2)C1
REMARK SMILES IDX 26 1 25 2 23 3 24 4 22 5 18 6 19 7 97 8 20 9 21 10 16 11
REMARK SMILES IDX 17 12 2 13 1 14 3 15 4 16 5 17 15 18 6 19 14 20 7 21 8 22
REMARK SMILES IDX 9 23 13 24 10 25 12 26 11 27 27 28 28 29 29 30 30 31 31 32
REMARK SMILES IDX 32 33 33 34 34 35 35 36 96 37 36 38 95 39 37 40 38 41 39 42
REMARK SMILES IDX 89 43 40 44 94 45 88 46 90 47 41 48 93 49 87 50 86 51 42 53
REMARK SMILES IDX 74 54 54 55 73 56 55 57 58 58 72 59 91 60 56 61 57 62 71 64
REMARK SMILES IDX 92 65 59 66 43 67 44 68 52 69 45 70 46 71 50 72 53 73 47 74
REMARK SMILES IDX 48 75 51 76 49 77 75 78 76 79 84 80 77 81 78 82 82 83 85 84
REMARK SMILES IDX 79 85 80 86 83 87 81 88 60 89 61 90 69 91 62 92 63 93 67 94
REMARK SMILES IDX 70 95 64 96 65 97 68 98 66 99
REMARK H PARENT 90 52 58 63
REMARK Flexibility Score: inf
ROOT
ATOM      1  C   UNL     1      -2.667  -1.522   1.996  1.00  0.00     0.261 C 
ENDROOT
BRANCH   1   2
ATOM      2  O   UNL     1      -2.794  -1.083   0.630  1.00  0.00    -0.463 OA
BRANCH   2   3
ATOM      3  C   UNL     1      -1.989  -1.667  -0.290  1.00  0.00     0.310 C 
ATOM      4  O   UNL     1      -1.117  -2.488  -0.037  1.00  0.00    -0.252 OA
BRANCH   3   5
ATOM      5  C   UNL     1      -2.237  -1.152  -1.699  1.00  0.00     0.119 C 
ATOM      6  N   UNL     1      -1.656   1.198  -1.313  1.00  0.00    -0.339 N 
ATOM      7  C   UNL     1      -2.967   1.697  -1.715  1.00  0.00     0.119 C 
ATOM      8  C   UNL     1      -1.241  -0.033  -1.988  1.00  0.00     0.134 C 
ATOM      9  C   UNL     1      -4.056   0.659  -1.473  1.00  0.00     0.022 C 
ATOM     10  C   UNL     1      -3.675  -0.717  -2.027  1.00  0.00     0.019 C 
BRANCH   6  11
ATOM     11  C   UNL     1      -0.954   1.853  -0.306  1.00  0.00     0.263 C 
ATOM     12  O   UNL     1      -1.513   2.666   0.439  1.00  0.00    -0.271 OA
BRANCH  11  13
ATOM     13  C   UNL     1       0.552   1.572  -0.117  1.00  0.00     0.259 C 
ATOM     14  C   UNL     1       0.797   0.316   0.715  1.00  0.00     0.064 C 
BRANCH  13  15
ATOM     15  O   UNL     1       1.134   1.495  -1.423  1.00  0.00    -0.481 OA
BRANCH  15  16
ATOM     16  C   UNL     1       2.458   1.804  -1.457  1.00  0.00     0.120 A 
ATOM     17  C   UNL     1       2.853   3.097  -1.783  1.00  0.00     0.047 A 
ATOM     18  C   UNL     1       3.390   0.780  -1.351  1.00  0.00     0.047 A 
ATOM     19  C   UNL     1       4.206   3.367  -2.007  1.00  0.00     0.012 A 
ATOM     20  C   UNL     1       4.738   1.054  -1.566  1.00  0.00     0.012 A 
ATOM     21  C   UNL     1       5.168   2.345  -1.921  1.00  0.00    -0.018 A 
BRANCH  21  22
ATOM     22  C   UNL     1       6.582   2.588  -2.248  1.00  0.00    -0.018 A 
ATOM     23  C   UNL     1       7.311   3.623  -1.644  1.00  0.00     0.009 A 
ATOM     24  C   UNL     1       7.246   1.768  -3.179  1.00  0.00     0.009 A 
ATOM     25  C   UNL     1       8.661   3.820  -1.948  1.00  0.00     0.001 A 
ATOM     26  C   UNL     1       8.594   1.962  -3.483  1.00  0.00     0.001 A 
ATOM     27  C   UNL     1       9.302   2.987  -2.863  1.00  0.00     0.000 A 
ENDBRANCH  21  22
ENDBRANCH  15  16
ENDBRANCH  13  15
ENDBRANCH  11  13
ENDBRANCH   6  11
ENDBRANCH   3   5
ENDBRANCH   2   3
ENDBRANCH   1   2
BRANCH   1  28
ATOM     28  C   UNL     1      -4.028  -1.962   2.540  1.00  0.00     0.202 C 
BRANCH  28  29
ATOM     29  O   UNL     1      -4.504  -3.222   2.061  1.00  0.00    -0.374 OA
BRANCH  29  30
ATOM     30  C   UNL     1      -4.954  -3.278   0.710  1.00  0.00     0.202 C 
BRANCH  30  31
ATOM     31  C   UNL     1      -6.380  -2.775   0.456  1.00  0.00     0.261 C 
BRANCH  31  32
ATOM     32  O   UNL     1      -6.562  -1.401   0.843  1.00  0.00    -0.460 OA
BRANCH  32  33
ATOM     33  C   UNL     1      -7.364  -1.230   1.920  1.00  0.00     0.338 C 
ATOM     34  O   UNL     1      -8.000  -2.092   2.514  1.00  0.00    -0.246 OA
BRANCH  33  35
ATOM     35  C   UNL     1      -7.292   0.154   2.424  1.00  0.00     0.060 A 
ATOM     36  C   UNL     1      -7.041   0.317   3.791  1.00  0.00     0.016 A 
ATOM     37  C   UNL     1      -7.576   1.261   1.620  1.00  0.00     0.016 A 
ATOM     38  C   UNL     1      -7.136   1.578   4.372  1.00  0.00     0.010 A 
ATOM     39  C   UNL     1      -7.672   2.531   2.208  1.00  0.00     0.010 A 
ATOM     40  C   UNL     1      -7.494   2.688   3.594  1.00  0.00    -0.014 A 
BRANCH  40  41
ATOM     41  C   UNL     1      -7.795   3.967   4.285  1.00  0.00     0.031 A 
ATOM     42  C   UNL     1      -9.225   4.337   4.573  1.00  0.00     0.074 A 
ATOM     43  C   UNL     1      -6.798   4.749   4.735  1.00  0.00     0.049 A 
ATOM     44  N   UNL     1      -9.702   5.345   5.261  1.00  0.00    -0.248 NA
ATOM     45  C   UNL     1     -10.258   3.449   4.016  1.00  0.00     0.031 C 
ATOM     46  C   UNL     1      -5.373   4.494   4.536  1.00  0.00     0.029 A 
ATOM     47  N   UNL     1      -6.836   5.909   5.469  1.00  0.00    -0.354 N 
ATOM     48  C   UNL     1     -11.083   5.209   5.226  1.00  0.00     0.074 A 
ATOM     49  C   UNL     1     -11.372   4.044   4.417  1.00  0.00     0.031 C 
ATOM     50  C   UNL     1      -4.669   5.464   5.144  1.00  0.00     0.029 A 
ATOM     51  C   UNL     1      -5.593   6.413   5.763  1.00  0.00     0.049 A 
ATOM     52  H   UNL     1      -7.674   6.338   5.757  1.00  0.00     0.167 HD
ATOM     53  C   UNL     1     -12.026   5.976   5.827  1.00  0.00     0.037 A 
ATOM     54  C   UNL     1      -5.243   7.514   6.455  1.00  0.00     0.037 A 
ATOM     55  C   UNL     1     -11.743   7.136   6.631  1.00  0.00     0.049 A 
ATOM     56  C   UNL     1      -6.311   8.368   7.084  1.00  0.00     0.074 A 
ATOM     57  C   UNL     1     -12.631   7.967   7.293  1.00  0.00     0.029 A 
ATOM     58  N   UNL     1     -10.472   7.634   6.879  1.00  0.00    -0.354 N 
ATOM     59  N   UNL     1      -7.612   8.207   7.080  1.00  0.00    -0.248 NA
ATOM     60  C   UNL     1      -5.857   9.553   7.827  1.00  0.00     0.031 C 
ATOM     61  C   UNL     1     -11.901   8.992   7.905  1.00  0.00     0.029 A 
ATOM     62  C   UNL     1     -10.555   8.772   7.667  1.00  0.00     0.049 A 
ATOM     63  H   UNL     1      -9.635   7.238   6.545  1.00  0.00     0.167 HD
ATOM     64  C   UNL     1      -8.129   9.251   7.837  1.00  0.00     0.074 A 
ATOM     65  C   UNL     1      -7.000  10.029   8.301  1.00  0.00     0.031 C 
ATOM     66  C   UNL     1      -9.423   9.538   8.123  1.00  0.00     0.037 A 
BRANCH  53  67
ATOM     67  C   UNL     1     -13.462   5.591   5.623  1.00  0.00     0.064 A 
ATOM     68  C   UNL     1     -14.015   4.461   6.245  1.00  0.00     0.173 A 
ATOM     69  C   UNL     1     -14.305   6.382   4.829  1.00  0.00     0.173 A 
ATOM     70  F   UNL     1     -13.247   3.664   7.004  1.00  0.00    -0.203 F 
ATOM     71  C   UNL     1     -15.354   4.125   6.060  1.00  0.00     0.198 A 
ATOM     72  C   UNL     1     -15.650   6.058   4.668  1.00  0.00     0.198 A 
ATOM     73  F   UNL     1     -13.828   7.476   4.217  1.00  0.00    -0.203 F 
ATOM     74  F   UNL     1     -15.851   3.018   6.630  1.00  0.00    -0.200 F 
ATOM     75  C   UNL     1     -16.171   4.927   5.278  1.00  0.00     0.200 A 
ATOM     76  F   UNL     1     -16.441   6.840   3.921  1.00  0.00    -0.200 F 
ATOM     77  F   UNL     1     -17.461   4.606   5.106  1.00  0.00    -0.200 F 
ENDBRANCH  53  67
BRANCH  54  78
ATOM     78  C   UNL     1      -3.807   7.864   6.607  1.00  0.00     0.064 A 
ATOM     79  C   UNL     1      -3.165   7.768   7.849  1.00  0.00     0.173 A 
ATOM     80  C   UNL     1      -3.054   8.320   5.515  1.00  0.00     0.173 A 
ATOM     81  F   UNL     1      -3.851   7.364   8.928  1.00  0.00    -0.203 F 
ATOM     82  C   UNL     1      -1.828   8.130   7.997  1.00  0.00     0.198 A 
ATOM     83  C   UNL     1      -1.711   8.656   5.658  1.00  0.00     0.198 A 
ATOM     84  F   UNL     1      -3.626   8.435   4.308  1.00  0.00    -0.203 F 
ATOM     85  F   UNL     1      -1.250   8.074   9.205  1.00  0.00    -0.200 F 
ATOM     86  C   UNL     1      -1.100   8.569   6.900  1.00  0.00     0.200 A 
ATOM     87  F   UNL     1      -1.010   9.073   4.595  1.00  0.00    -0.200 F 
ATOM     88  F   UNL     1       0.185   8.918   7.043  1.00  0.00    -0.200 F 
ENDBRANCH  54  78
BRANCH  66  89
ATOM     89  C   UNL     1      -9.683  10.729   9.000  1.00  0.00     0.064 A 
ATOM     90  C   UNL     1      -9.488  12.040   8.540  1.00  0.00     0.173 A 
ATOM     91  C   UNL     1     -10.143  10.557  10.315  1.00  0.00     0.173 A 
ATOM     92  F   UNL     1      -9.036  12.259   7.296  1.00  0.00    -0.203 F 
ATOM     93  C   UNL     1      -9.710  13.133   9.375  1.00  0.00     0.198 A 
ATOM     94  C   UNL     1     -10.392  11.652  11.137  1.00  0.00     0.198 A 
ATOM     95  F   UNL     1     -10.354   9.325  10.802  1.00  0.00    -0.203 F 
ATOM     96  F   UNL     1      -9.462  14.373   8.932  1.00  0.00    -0.200 F 
ATOM     97  C   UNL     1     -10.165  12.938  10.671  1.00  0.00     0.200 A 
ATOM     98  F   UNL     1     -10.844  11.463  12.385  1.00  0.00    -0.200 F 
ATOM     99  F   UNL     1     -10.375  13.991  11.473  1.00  0.00    -0.200 F 
ENDBRANCH  66  89
ENDBRANCH  40  41
ENDBRANCH  33  35
ENDBRANCH  32  33
ENDBRANCH  31  32
ENDBRANCH  30  31
ENDBRANCH  29  30
ENDBRANCH  28  29
ENDBRANCH   1  28
TORSDOF 19
