REMARK SMILES O=C(CNC(=O)OCc1ccccc1)NCC(=O)OCCOCCOC(=O)c1ccc(-c2c3nc(c(-c4c(F)c(F)c(F)c(F)c4F)c4ccc([nH]4)c(-c4c(F)c(F)c(F)c(F)c4F)c4nc(c(-c5c(F)c(F)c(F)c(F)c5F)c5ccc2[nH]5)C=C4)C=C3)cc1
REMARK SMILES IDX 20 1 19 2 17 3 18 4 16 5 15 6 1 7 2 8 3 10 4 11 5 12 6 14
REMARK SMILES IDX 7 15 8 16 9 17 10 18 14 19 11 20 13 21 12 22 21 23 22 24
REMARK SMILES IDX 23 25 24 26 25 27 26 28 27 29 28 30 29 31 90 32 30 33 89 34
REMARK SMILES IDX 31 35 32 36 33 37 83 38 34 39 88 40 82 41 84 42 35 43 87 44
REMARK SMILES IDX 81 45 80 46 36 48 68 49 48 50 67 51 49 52 52 53 66 54 85 55
REMARK SMILES IDX 50 56 51 57 65 59 86 60 53 61 37 62 38 63 46 64 39 65 40 66
REMARK SMILES IDX 44 67 47 68 41 69 42 70 45 71 43 72 69 73 70 74 78 75 71 76
REMARK SMILES IDX 72 77 76 78 79 79 73 80 74 81 77 82 75 83 54 84 55 85 63 86
REMARK SMILES IDX 56 87 57 88 61 89 64 90 58 91 59 92 62 93 60 94
REMARK H PARENT 15 9 4 13 84 47 52 58
REMARK Flexibility Score: inf
ROOT
ATOM      1  C   UNL     1       2.242   0.101  -5.118  1.00  0.00     0.261 C 
ENDROOT
BRANCH   1   2
ATOM      2  O   UNL     1       2.177  -0.124  -3.700  1.00  0.00    -0.462 OA
BRANCH   2   3
ATOM      3  C   UNL     1       1.451  -1.213  -3.321  1.00  0.00     0.325 C 
ATOM      4  O   UNL     1       0.759  -1.889  -4.074  1.00  0.00    -0.250 OA
BRANCH   3   5
ATOM      5  C   UNL     1       1.683  -1.613  -1.864  1.00  0.00     0.238 C 
BRANCH   5   6
ATOM      6  N   UNL     1       2.517  -0.778  -1.014  1.00  0.00    -0.344 N 
ATOM      7  O   UNL     1       0.820   0.551  -0.248  1.00  0.00    -0.273 OA
ATOM      8  C   UNL     1       1.985   0.174  -0.172  1.00  0.00     0.240 C 
ATOM      9  H   UNL     1       3.494  -0.897  -1.040  1.00  0.00     0.164 HD
BRANCH   8  10
ATOM     10  C   UNL     1       3.003   0.805   0.787  1.00  0.00     0.219 C 
BRANCH  10  11
ATOM     11  N   UNL     1       3.891  -0.233   1.292  1.00  0.00    -0.312 N 
ATOM     12  C   UNL     1       5.244  -0.198   1.395  1.00  0.00     0.407 C 
ATOM     13  H   UNL     1       3.456  -1.063   1.597  1.00  0.00     0.167 HD
ATOM     14  O   UNL     1       5.865  -1.201   1.726  1.00  0.00    -0.225 OA
BRANCH  12  15
ATOM     15  O   UNL     1       5.784   0.999   1.074  1.00  0.00    -0.445 OA
BRANCH  15  16
ATOM     16  C   UNL     1       7.215   1.068   1.176  1.00  0.00     0.270 C 
BRANCH  16  17
ATOM     17  C   UNL     1       7.652   1.382   2.586  1.00  0.00    -0.011 A 
ATOM     18  C   UNL     1       8.029   0.350   3.458  1.00  0.00     0.007 A 
ATOM     19  C   UNL     1       7.657   2.701   3.059  1.00  0.00     0.007 A 
ATOM     20  C   UNL     1       8.399   0.628   4.774  1.00  0.00     0.000 A 
ATOM     21  C   UNL     1       8.036   2.979   4.375  1.00  0.00     0.000 A 
ATOM     22  C   UNL     1       8.402   1.943   5.232  1.00  0.00     0.000 A 
ENDBRANCH  16  17
ENDBRANCH  15  16
ENDBRANCH  12  15
ENDBRANCH  10  11
ENDBRANCH   8  10
ENDBRANCH   5   6
ENDBRANCH   3   5
ENDBRANCH   2   3
ENDBRANCH   1   2
BRANCH   1  23
ATOM     23  C   UNL     1       3.689   0.199  -5.610  1.00  0.00     0.202 C 
BRANCH  23  24
ATOM     24  O   UNL     1       4.553  -0.902  -5.343  1.00  0.00    -0.374 OA
BRANCH  24  25
ATOM     25  C   UNL     1       4.935  -1.156  -3.993  1.00  0.00     0.202 C 
BRANCH  25  26
ATOM     26  C   UNL     1       5.865  -0.151  -3.297  1.00  0.00     0.261 C 
BRANCH  26  27
ATOM     27  O   UNL     1       5.323   1.179  -3.206  1.00  0.00    -0.460 OA
BRANCH  27  28
ATOM     28  C   UNL     1       5.961   2.096  -3.979  1.00  0.00     0.338 C 
ATOM     29  O   UNL     1       6.939   1.916  -4.684  1.00  0.00    -0.246 OA
BRANCH  28  30
ATOM     30  C   UNL     1       5.210   3.365  -4.002  1.00  0.00     0.060 A 
ATOM     31  C   UNL     1       4.788   3.849  -5.248  1.00  0.00     0.016 A 
ATOM     32  C   UNL     1       5.027   4.123  -2.846  1.00  0.00     0.016 A 
ATOM     33  C   UNL     1       4.216   5.115  -5.348  1.00  0.00     0.010 A 
ATOM     34  C   UNL     1       4.458   5.398  -2.951  1.00  0.00     0.010 A 
ATOM     35  C   UNL     1       4.082   5.914  -4.205  1.00  0.00    -0.014 A 
BRANCH  35  36
ATOM     36  C   UNL     1       3.667   7.333  -4.343  1.00  0.00     0.031 A 
ATOM     37  C   UNL     1       4.705   8.416  -4.233  1.00  0.00     0.074 A 
ATOM     38  C   UNL     1       2.384   7.652  -4.585  1.00  0.00     0.049 A 
ATOM     39  N   UNL     1       4.557   9.717  -4.263  1.00  0.00    -0.248 NA
ATOM     40  C   UNL     1       6.097   7.973  -4.062  1.00  0.00     0.031 C 
ATOM     41  C   UNL     1       1.295   6.692  -4.755  1.00  0.00     0.029 A 
ATOM     42  N   UNL     1       1.779   8.877  -4.721  1.00  0.00    -0.354 N 
ATOM     43  C   UNL     1       5.832  10.246  -4.104  1.00  0.00     0.074 A 
ATOM     44  C   UNL     1       6.736   9.128  -3.944  1.00  0.00     0.031 C 
ATOM     45  C   UNL     1       0.150   7.365  -4.962  1.00  0.00     0.029 A 
ATOM     46  C   UNL     1       0.420   8.800  -4.899  1.00  0.00     0.049 A 
ATOM     47  H   UNL     1       2.272   9.728  -4.694  1.00  0.00     0.167 HD
ATOM     48  C   UNL     1       6.212  11.546  -4.100  1.00  0.00     0.037 A 
ATOM     49  C   UNL     1      -0.504   9.778  -4.974  1.00  0.00     0.037 A 
ATOM     50  C   UNL     1       5.307  12.655  -4.263  1.00  0.00     0.049 A 
ATOM     51  C   UNL     1      -0.065  11.217  -4.890  1.00  0.00     0.074 A 
ATOM     52  C   UNL     1       5.598  14.008  -4.295  1.00  0.00     0.029 A 
ATOM     53  N   UNL     1       3.932  12.539  -4.411  1.00  0.00    -0.354 N 
ATOM     54  N   UNL     1       1.143  11.710  -4.763  1.00  0.00    -0.248 NA
ATOM     55  C   UNL     1      -1.121  12.238  -4.964  1.00  0.00     0.031 C 
ATOM     56  C   UNL     1       4.394  14.712  -4.396  1.00  0.00     0.029 A 
ATOM     57  C   UNL     1       3.358  13.798  -4.503  1.00  0.00     0.049 A 
ATOM     58  H   UNL     1       3.438  11.689  -4.446  1.00  0.00     0.167 HD
ATOM     59  C   UNL     1       0.998  13.092  -4.779  1.00  0.00     0.074 A 
ATOM     60  C   UNL     1      -0.416  13.360  -4.939  1.00  0.00     0.031 C 
ATOM     61  C   UNL     1       1.950  14.052  -4.676  1.00  0.00     0.037 A 
BRANCH  48  62
ATOM     62  C   UNL     1       7.668  11.847  -3.882  1.00  0.00     0.064 A 
ATOM     63  C   UNL     1       8.642  11.543  -4.846  1.00  0.00     0.173 A 
ATOM     64  C   UNL     1       8.091  12.487  -2.705  1.00  0.00     0.173 A 
ATOM     65  F   UNL     1       8.295  10.922  -5.983  1.00  0.00    -0.203 F 
ATOM     66  C   UNL     1       9.985  11.841  -4.628  1.00  0.00     0.198 A 
ATOM     67  C   UNL     1       9.429  12.815  -2.506  1.00  0.00     0.198 A 
ATOM     68  F   UNL     1       7.202  12.806  -1.752  1.00  0.00    -0.203 F 
ATOM     69  F   UNL     1      10.903  11.495  -5.540  1.00  0.00    -0.200 F 
ATOM     70  C   UNL     1      10.376  12.484  -3.463  1.00  0.00     0.200 A 
ATOM     71  F   UNL     1       9.802  13.450  -1.387  1.00  0.00    -0.200 F 
ATOM     72  F   UNL     1      11.667  12.779  -3.259  1.00  0.00    -0.200 F 
ENDBRANCH  48  62
BRANCH  49  73
ATOM     73  C   UNL     1      -1.943   9.431  -5.125  1.00  0.00     0.064 A 
ATOM     74  C   UNL     1      -2.647   9.751  -6.294  1.00  0.00     0.173 A 
ATOM     75  C   UNL     1      -2.648   8.791  -4.095  1.00  0.00     0.173 A 
ATOM     76  F   UNL     1      -2.024  10.385  -7.298  1.00  0.00    -0.203 F 
ATOM     77  C   UNL     1      -4.005   9.465  -6.418  1.00  0.00     0.198 A 
ATOM     78  C   UNL     1      -3.998   8.475  -4.233  1.00  0.00     0.198 A 
ATOM     79  F   UNL     1      -2.023   8.464  -2.954  1.00  0.00    -0.203 F 
ATOM     80  F   UNL     1      -4.666   9.831  -7.525  1.00  0.00    -0.200 F 
ATOM     81  C   UNL     1      -4.678   8.821  -5.390  1.00  0.00     0.200 A 
ATOM     82  F   UNL     1      -4.641   7.841  -3.242  1.00  0.00    -0.200 F 
ATOM     83  F   UNL     1      -5.983   8.544  -5.511  1.00  0.00    -0.200 F 
ENDBRANCH  49  73
BRANCH  61  84
ATOM     84  C   UNL     1       1.508  15.485  -4.786  1.00  0.00     0.064 A 
ATOM     85  C   UNL     1       0.756  16.111  -3.781  1.00  0.00     0.173 A 
ATOM     86  C   UNL     1       1.884  16.256  -5.898  1.00  0.00     0.173 A 
ATOM     87  F   UNL     1       0.358  15.418  -2.704  1.00  0.00    -0.203 F 
ATOM     88  C   UNL     1       0.372  17.445  -3.899  1.00  0.00     0.198 A 
ATOM     89  C   UNL     1       1.530  17.599  -5.995  1.00  0.00     0.198 A 
ATOM     90  F   UNL     1       2.612  15.711  -6.884  1.00  0.00    -0.203 F 
ATOM     91  F   UNL     1      -0.392  18.007  -2.952  1.00  0.00    -0.200 F 
ATOM     92  C   UNL     1       0.767  18.190  -5.001  1.00  0.00     0.200 A 
ATOM     93  F   UNL     1       1.929  18.321  -7.051  1.00  0.00    -0.200 F 
ATOM     94  F   UNL     1       0.406  19.476  -5.106  1.00  0.00    -0.200 F 
ENDBRANCH  61  84
ENDBRANCH  35  36
ENDBRANCH  28  30
ENDBRANCH  27  28
ENDBRANCH  26  27
ENDBRANCH  25  26
ENDBRANCH  24  25
ENDBRANCH  23  24
ENDBRANCH   1  23
TORSDOF 20
