REMARK SMILES CCCc1sc(C(=O)NCCC(=O)OCCOCCOC(=O)c2ccc(-c3c4nc(c(-c5c(F)c(F)c(F)c(F)c5F)c5ccc([nH]5)c(-c5c(F)c(F)c(F)c(F)c5F)c5nc(c(-c6c(F)c(F)c(F)c(F)c6F)c6ccc3[nH]6)C=C5)C=C4)cc2)cc1CC
REMARK SMILES IDX 15 1 14 2 12 3 13 4 11 5 10 6 9 7 7 8 8 9 6 11 4 12 5 13
REMARK SMILES IDX 87 14 86 15 3 16 2 17 1 18 88 19 89 20 16 21 17 22 18 23
REMARK SMILES IDX 19 24 20 25 21 26 22 27 23 28 24 29 85 30 25 31 84 32 26 33
REMARK SMILES IDX 27 34 28 35 78 36 29 37 83 38 77 39 79 40 30 41 82 42 76 43
REMARK SMILES IDX 75 44 31 46 63 47 43 48 62 49 44 50 47 51 61 52 80 53 45 54
REMARK SMILES IDX 46 55 60 57 81 58 48 59 32 60 33 61 41 62 34 63 35 64 39 65
REMARK SMILES IDX 42 66 36 67 37 68 40 69 38 70 64 71 65 72 73 73 66 74 67 75
REMARK SMILES IDX 71 76 74 77 68 78 69 79 72 80 70 81 49 82 50 83 58 84 51 85
REMARK SMILES IDX 52 86 56 87 59 88 53 89 54 90 57 91 55 92
REMARK H PARENT 9 10 79 45 47 56
REMARK Flexibility Score: inf
ROOT
ATOM      1  C   UNL     1      -0.243  -0.111  11.011  1.00  0.00     0.261 C 
ENDROOT
BRANCH   1   2
ATOM      2  O   UNL     1      -0.046  -0.513   9.641  1.00  0.00    -0.463 OA
BRANCH   2   3
ATOM      3  C   UNL     1       0.529  -1.733   9.464  1.00  0.00     0.307 C 
ATOM      4  O   UNL     1       0.876  -2.487  10.364  1.00  0.00    -0.252 OA
BRANCH   3   5
ATOM      5  C   UNL     1       0.763  -2.052   8.012  1.00  0.00     0.144 C 
BRANCH   5   6
ATOM      6  C   UNL     1      -0.438  -1.838   7.107  1.00  0.00     0.128 C 
BRANCH   6   7
ATOM      7  N   UNL     1      -0.561  -0.475   6.616  1.00  0.00    -0.351 N 
ATOM      8  C   UNL     1      -0.407   0.044   5.347  1.00  0.00     0.261 C 
ATOM      9  O   UNL     1      -0.431   1.273   5.254  1.00  0.00    -0.268 OA
ATOM     10  H   UNL     1      -0.794   0.189   7.305  1.00  0.00     0.163 HD
BRANCH   8  11
ATOM     11  C   UNL     1      -0.212  -0.849   4.218  1.00  0.00     0.092 A 
ATOM     12  C   UNL     1       0.619  -1.850   2.099  1.00  0.00     0.009 A 
ATOM     13  S   UNL     1       0.840  -0.378   2.958  1.00  0.00    -0.135 S 
ATOM     14  C   UNL     1      -0.158  -2.740   2.826  1.00  0.00    -0.034 A 
ATOM     15  C   UNL     1      -0.773  -2.078   3.939  1.00  0.00     0.029 A 
BRANCH  12  16
ATOM     16  C   UNL     1       1.305  -2.043   0.770  1.00  0.00     0.047 C 
BRANCH  16  17
ATOM     17  C   UNL     1       0.597  -1.327  -0.390  1.00  0.00     0.002 C 
ATOM     18  C   UNL     1       0.956   0.149  -0.512  1.00  0.00     0.004 C 
ENDBRANCH  16  17
ENDBRANCH  12  16
BRANCH  14  19
ATOM     19  C   UNL     1      -0.363  -4.205   2.553  1.00  0.00     0.033 C 
ATOM     20  C   UNL     1       0.487  -5.053   3.500  1.00  0.00     0.009 C 
ENDBRANCH  14  19
ENDBRANCH   8  11
ENDBRANCH   6   7
ENDBRANCH   5   6
ENDBRANCH   3   5
ENDBRANCH   2   3
ENDBRANCH   1   2
BRANCH   1  21
ATOM     21  C   UNL     1      -1.711   0.205  11.308  1.00  0.00     0.202 C 
BRANCH  21  22
ATOM     22  O   UNL     1      -2.602  -0.909  11.341  1.00  0.00    -0.374 OA
BRANCH  22  23
ATOM     23  C   UNL     1      -2.982  -1.476  10.090  1.00  0.00     0.202 C 
BRANCH  23  24
ATOM     24  C   UNL     1      -4.050  -0.710   9.297  1.00  0.00     0.261 C 
BRANCH  24  25
ATOM     25  O   UNL     1      -3.589   0.588   8.877  1.00  0.00    -0.460 OA
BRANCH  25  26
ATOM     26  C   UNL     1      -4.234   1.629   9.454  1.00  0.00     0.338 C 
ATOM     27  O   UNL     1      -5.202   1.578  10.206  1.00  0.00    -0.246 OA
BRANCH  26  28
ATOM     28  C   UNL     1      -3.509   2.886   9.209  1.00  0.00     0.060 A 
ATOM     29  C   UNL     1      -3.132   3.640  10.328  1.00  0.00     0.016 A 
ATOM     30  C   UNL     1      -3.287   3.371   7.919  1.00  0.00     0.016 A 
ATOM     31  C   UNL     1      -2.582   4.909  10.164  1.00  0.00     0.010 A 
ATOM     32  C   UNL     1      -2.746   4.652   7.755  1.00  0.00     0.010 A 
ATOM     33  C   UNL     1      -2.430   5.441   8.877  1.00  0.00    -0.014 A 
BRANCH  33  34
ATOM     34  C   UNL     1      -2.100   6.880   8.723  1.00  0.00     0.031 A 
ATOM     35  C   UNL     1      -3.218   7.860   8.495  1.00  0.00     0.074 A 
ATOM     36  C   UNL     1      -0.833   7.315   8.828  1.00  0.00     0.049 A 
ATOM     37  N   UNL     1      -3.166   9.156   8.316  1.00  0.00    -0.248 NA
ATOM     38  C   UNL     1      -4.580   7.304   8.472  1.00  0.00     0.031 C 
ATOM     39  C   UNL     1       0.329   6.471   9.093  1.00  0.00     0.029 A 
ATOM     40  N   UNL     1      -0.315   8.582   8.720  1.00  0.00    -0.354 N 
ATOM     41  C   UNL     1      -4.482   9.567   8.153  1.00  0.00     0.074 A 
ATOM     42  C   UNL     1      -5.310   8.383   8.230  1.00  0.00     0.031 C 
ATOM     43  C   UNL     1       1.430   7.243   9.115  1.00  0.00     0.029 A 
ATOM     44  C   UNL     1       1.051   8.627   8.836  1.00  0.00     0.049 A 
ATOM     45  H   UNL     1      -0.871   9.381   8.573  1.00  0.00     0.167 HD
ATOM     46  C   UNL     1      -4.959  10.821   7.964  1.00  0.00     0.037 A 
ATOM     47  C   UNL     1       1.899   9.667   8.709  1.00  0.00     0.037 A 
ATOM     48  C   UNL     1      -4.136  11.999   7.887  1.00  0.00     0.049 A 
ATOM     49  C   UNL     1       1.350  11.041   8.425  1.00  0.00     0.074 A 
ATOM     50  C   UNL     1      -4.527  13.315   7.710  1.00  0.00     0.029 A 
ATOM     51  N   UNL     1      -2.752  12.000   7.975  1.00  0.00    -0.354 N 
ATOM     52  N   UNL     1       0.104  11.426   8.294  1.00  0.00    -0.248 NA
ATOM     53  C   UNL     1       2.329  12.128   8.273  1.00  0.00     0.031 C 
ATOM     54  C   UNL     1      -3.376  14.107   7.645  1.00  0.00     0.029 A 
ATOM     55  C   UNL     1      -2.271  13.292   7.832  1.00  0.00     0.049 A 
ATOM     56  H   UNL     1      -2.194  11.202   8.117  1.00  0.00     0.167 HD
ATOM     57  C   UNL     1       0.146  12.797   8.074  1.00  0.00     0.074 A 
ATOM     58  C   UNL     1       1.542  13.181   8.100  1.00  0.00     0.031 C 
ATOM     59  C   UNL     1      -0.879  13.660   7.872  1.00  0.00     0.037 A 
BRANCH  46  60
ATOM     60  C   UNL     1      -6.441  10.979   7.799  1.00  0.00     0.064 A 
ATOM     61  C   UNL     1      -7.322  10.835   8.881  1.00  0.00     0.173 A 
ATOM     62  C   UNL     1      -6.984  11.312   6.549  1.00  0.00     0.173 A 
ATOM     63  F   UNL     1      -6.853  10.504  10.094  1.00  0.00    -0.203 F 
ATOM     64  C   UNL     1      -8.695  10.995   8.713  1.00  0.00     0.198 A 
ATOM     65  C   UNL     1      -8.355  11.498   6.390  1.00  0.00     0.198 A 
ATOM     66  F   UNL     1      -6.184  11.466   5.483  1.00  0.00    -0.203 F 
ATOM     67  F   UNL     1      -9.522  10.812   9.751  1.00  0.00    -0.200 F 
ATOM     68  C   UNL     1      -9.209  11.333   7.469  1.00  0.00     0.200 A 
ATOM     69  F   UNL     1      -8.849  11.835   5.191  1.00  0.00    -0.200 F 
ATOM     70  F   UNL     1     -10.530  11.494   7.310  1.00  0.00    -0.200 F 
ENDBRANCH  46  60
BRANCH  47  71
ATOM     71  C   UNL     1       3.363   9.449   8.835  1.00  0.00     0.064 A 
ATOM     72  C   UNL     1       4.081   9.962   9.924  1.00  0.00     0.173 A 
ATOM     73  C   UNL     1       4.078   8.739   7.858  1.00  0.00     0.173 A 
ATOM     74  F   UNL     1       3.446  10.671  10.869  1.00  0.00    -0.203 F 
ATOM     75  C   UNL     1       5.460   9.788  10.023  1.00  0.00     0.198 A 
ATOM     76  C   UNL     1       5.452   8.543   7.972  1.00  0.00     0.198 A 
ATOM     77  F   UNL     1       3.438   8.233   6.794  1.00  0.00    -0.203 F 
ATOM     78  F   UNL     1       6.129  10.328  11.051  1.00  0.00    -0.200 F 
ATOM     79  C   UNL     1       6.143   9.073   9.051  1.00  0.00     0.200 A 
ATOM     80  F   UNL     1       6.107   7.845   7.035  1.00  0.00    -0.200 F 
ATOM     81  F   UNL     1       7.469   8.905   9.148  1.00  0.00    -0.200 F 
ENDBRANCH  47  71
BRANCH  59  82
ATOM     82  C   UNL     1      -0.538  15.112   7.704  1.00  0.00     0.064 A 
ATOM     83  C   UNL     1       0.056  15.599   6.531  1.00  0.00     0.173 A 
ATOM     84  C   UNL     1      -0.856  16.036   8.712  1.00  0.00     0.173 A 
ATOM     85  F   UNL     1       0.392  14.755   5.544  1.00  0.00    -0.203 F 
ATOM     86  C   UNL     1       0.340  16.954   6.382  1.00  0.00     0.198 A 
ATOM     87  C   UNL     1      -0.596  17.393   8.549  1.00  0.00     0.198 A 
ATOM     88  F   UNL     1      -1.432  15.622   9.851  1.00  0.00    -0.203 F 
ATOM     89  F   UNL     1       0.947  17.392   5.270  1.00  0.00    -0.200 F 
ATOM     90  C   UNL     1       0.007  17.851   7.387  1.00  0.00     0.200 A 
ATOM     91  F   UNL     1      -0.931  18.259   9.515  1.00  0.00    -0.200 F 
ATOM     92  F   UNL     1       0.274  19.155   7.238  1.00  0.00    -0.200 F 
ENDBRANCH  59  82
ENDBRANCH  33  34
ENDBRANCH  26  28
ENDBRANCH  25  26
ENDBRANCH  24  25
ENDBRANCH  23  24
ENDBRANCH  22  23
ENDBRANCH  21  22
ENDBRANCH   1  21
TORSDOF 20
