REMARK SMILES NC(=O)C[C@H](C(=O)OCCOCCOC(=O)c1ccc(-c2c3nc(c(-c4c(F)c(F)c(F)c(F)c4F)c4ccc([nH]4)c(-c4c(F)c(F)c(F)c(F)c4F)c4nc(c(-c5c(F)c(F)c(F)c(F)c5F)c5ccc2[nH]5)C=C4)C=C3)cc1)N1C(=O)/C(=C/c2ccccc2)SC1=S
REMARK SMILES IDX 11 1 10 2 9 3 8 4 6 5 7 6 5 7 4 8 2 9 1 10 3 13 80 14 81 15
REMARK SMILES IDX 92 16 82 17 83 18 91 19 93 20 84 21 85 22 86 23 90 24 87 25
REMARK SMILES IDX 89 26 88 27 12 28 13 29 14 30 15 31 16 32 17 33 18 34 79 35
REMARK SMILES IDX 19 36 78 37 20 38 21 39 22 40 72 41 23 42 77 43 71 44 73 45
REMARK SMILES IDX 24 46 76 47 70 48 69 49 25 51 57 52 37 53 56 54 38 55 41 56
REMARK SMILES IDX 55 57 74 58 39 59 40 60 54 62 75 63 42 64 26 65 27 66 35 67
REMARK SMILES IDX 28 68 29 69 33 70 36 71 30 72 31 73 34 74 32 75 58 76 59 77
REMARK SMILES IDX 67 78 60 79 61 80 65 81 68 82 62 83 63 84 66 85 64 86 43 87
REMARK SMILES IDX 44 88 52 89 45 90 46 91 50 92 53 93 47 94 48 95 51 96 49 97
REMARK H PARENT 1 11 1 12 73 50 41 61
REMARK Flexibility Score: inf
ROOT
ATOM      1  O   UNL     1       0.346  -1.560   1.886  1.00  0.00    -0.374 OA
ENDROOT
BRANCH   1   2
ATOM      2  C   UNL     1       0.135  -2.962   1.749  1.00  0.00     0.202 C 
BRANCH   2   3
ATOM      3  C   UNL     1      -0.254  -3.460   0.356  1.00  0.00     0.261 C 
BRANCH   3   4
ATOM      4  O   UNL     1       0.833  -3.392  -0.598  1.00  0.00    -0.462 OA
BRANCH   4   5
ATOM      5  C   UNL     1       0.610  -2.547  -1.646  1.00  0.00     0.329 C 
ATOM      6  O   UNL     1      -0.281  -1.705  -1.674  1.00  0.00    -0.250 OA
BRANCH   5   7
ATOM      7  C   UNL     1       1.689  -2.618  -2.738  1.00  0.00     0.211 C 
BRANCH   7   8
ATOM      8  C   UNL     1       2.612  -1.409  -2.418  1.00  0.00     0.137 C 
BRANCH   8   9
ATOM      9  C   UNL     1       3.873  -1.656  -1.606  1.00  0.00     0.220 C 
ATOM     10  N   UNL     1       3.896  -2.690  -0.724  1.00  0.00    -0.370 N 
ATOM     11  H   UNL     1       4.705  -2.864  -0.191  1.00  0.00     0.159 HD
ATOM     12  H   UNL     1       3.104  -3.265  -0.619  1.00  0.00     0.159 HD
ATOM     13  O   UNL     1       4.846  -0.909  -1.666  1.00  0.00    -0.275 OA
ENDBRANCH   8   9
ENDBRANCH   7   8
BRANCH   7  14
ATOM     14  N   UNL     1       2.384  -3.909  -2.978  1.00  0.00    -0.278 N 
ATOM     15  C   UNL     1       3.577  -3.887  -3.690  1.00  0.00     0.267 C 
ATOM     16  C   UNL     1       1.778  -5.151  -3.018  1.00  0.00     0.149 C 
ATOM     17  O   UNL     1       4.068  -2.911  -4.239  1.00  0.00    -0.268 OA
ATOM     18  C   UNL     1       4.132  -5.249  -3.852  1.00  0.00     0.081 C 
ATOM     19  S   UNL     1       2.995  -6.396  -3.291  1.00  0.00    -0.054 SA
ATOM     20  S   UNL     1       0.166  -5.555  -2.881  1.00  0.00    -0.052 S 
ATOM     21  C   UNL     1       5.338  -5.450  -4.400  1.00  0.00     0.029 C 
BRANCH  21  22
ATOM     22  C   UNL     1       5.954  -6.753  -4.654  1.00  0.00    -0.024 A 
ATOM     23  C   UNL     1       7.190  -7.057  -4.074  1.00  0.00     0.008 A 
ATOM     24  C   UNL     1       5.341  -7.689  -5.496  1.00  0.00     0.008 A 
ATOM     25  C   UNL     1       7.786  -8.299  -4.305  1.00  0.00     0.001 A 
ATOM     26  C   UNL     1       5.935  -8.930  -5.721  1.00  0.00     0.001 A 
ATOM     27  C   UNL     1       7.155  -9.236  -5.122  1.00  0.00     0.000 A 
ENDBRANCH  21  22
ENDBRANCH   7  14
ENDBRANCH   5   7
ENDBRANCH   4   5
ENDBRANCH   3   4
ENDBRANCH   2   3
ENDBRANCH   1   2
BRANCH   1  28
ATOM     28  C   UNL     1       1.552  -1.021   1.352  1.00  0.00     0.202 C 
BRANCH  28  29
ATOM     29  C   UNL     1       2.814  -1.225   2.198  1.00  0.00     0.261 C 
BRANCH  29  30
ATOM     30  O   UNL     1       3.144  -2.619   2.357  1.00  0.00    -0.460 OA
BRANCH  30  31
ATOM     31  C   UNL     1       3.018  -3.084   3.622  1.00  0.00     0.338 C 
ATOM     32  O   UNL     1       2.744  -2.440   4.627  1.00  0.00    -0.246 OA
BRANCH  31  33
ATOM     33  C   UNL     1       3.094  -4.555   3.642  1.00  0.00     0.060 A 
ATOM     34  C   UNL     1       2.051  -5.241   4.277  1.00  0.00     0.016 A 
ATOM     35  C   UNL     1       4.199  -5.249   3.144  1.00  0.00     0.016 A 
ATOM     36  C   UNL     1       2.137  -6.616   4.471  1.00  0.00     0.010 A 
ATOM     37  C   UNL     1       4.286  -6.633   3.344  1.00  0.00     0.010 A 
ATOM     38  C   UNL     1       3.274  -7.314   4.045  1.00  0.00    -0.014 A 
BRANCH  38  39
ATOM     39  C   UNL     1       3.450  -8.726   4.466  1.00  0.00     0.031 A 
ATOM     40  C   UNL     1       4.309  -9.035   5.661  1.00  0.00     0.074 A 
ATOM     41  C   UNL     1       2.800  -9.715   3.829  1.00  0.00     0.049 A 
ATOM     42  N   UNL     1       4.561 -10.188   6.228  1.00  0.00    -0.248 NA
ATOM     43  C   UNL     1       4.972  -7.891   6.305  1.00  0.00     0.031 C 
ATOM     44  C   UNL     1       1.915  -9.537   2.681  1.00  0.00     0.029 A 
ATOM     45  N   UNL     1       2.781 -11.066   4.066  1.00  0.00    -0.354 N 
ATOM     46  C   UNL     1       5.407  -9.909   7.293  1.00  0.00     0.074 A 
ATOM     47  C   UNL     1       5.654  -8.483   7.274  1.00  0.00     0.031 C 
ATOM     48  C   UNL     1       1.435 -10.737   2.312  1.00  0.00     0.029 A 
ATOM     49  C   UNL     1       1.997 -11.767   3.184  1.00  0.00     0.049 A 
ATOM     50  H   UNL     1       3.282 -11.492   4.798  1.00  0.00     0.167 HD
ATOM     51  C   UNL     1       5.920 -10.762   8.212  1.00  0.00     0.037 A 
ATOM     52  C   UNL     1       1.767 -13.091   3.088  1.00  0.00     0.037 A 
ATOM     53  C   UNL     1       5.673 -12.180   8.232  1.00  0.00     0.049 A 
ATOM     54  C   UNL     1       2.400 -14.026   4.084  1.00  0.00     0.074 A 
ATOM     55  C   UNL     1       6.124 -13.124   9.138  1.00  0.00     0.029 A 
ATOM     56  N   UNL     1       4.913 -12.861   7.292  1.00  0.00    -0.354 N 
ATOM     57  N   UNL     1       3.168 -13.749   5.109  1.00  0.00    -0.248 NA
ATOM     58  C   UNL     1       2.128 -15.460   3.909  1.00  0.00     0.031 C 
ATOM     59  C   UNL     1       5.678 -14.382   8.719  1.00  0.00     0.029 A 
ATOM     60  C   UNL     1       4.908 -14.217   7.579  1.00  0.00     0.049 A 
ATOM     61  H   UNL     1       4.446 -12.442   6.533  1.00  0.00     0.167 HD
ATOM     62  C   UNL     1       3.454 -14.966   5.713  1.00  0.00     0.074 A 
ATOM     63  C   UNL     1       2.763 -15.984   4.949  1.00  0.00     0.031 C 
ATOM     64  C   UNL     1       4.220 -15.218   6.804  1.00  0.00     0.037 A 
BRANCH  51  65
ATOM     65  C   UNL     1       6.824 -10.183   9.262  1.00  0.00     0.064 A 
ATOM     66  C   UNL     1       6.328  -9.381  10.300  1.00  0.00     0.173 A 
ATOM     67  C   UNL     1       8.200 -10.455   9.242  1.00  0.00     0.173 A 
ATOM     68  F   UNL     1       5.022  -9.080  10.356  1.00  0.00    -0.203 F 
ATOM     69  C   UNL     1       7.181  -8.849  11.264  1.00  0.00     0.198 A 
ATOM     70  C   UNL     1       9.046  -9.944  10.223  1.00  0.00     0.198 A 
ATOM     71  F   UNL     1       8.724 -11.220   8.273  1.00  0.00    -0.203 F 
ATOM     72  F   UNL     1       6.693  -8.047  12.220  1.00  0.00    -0.200 F 
ATOM     73  C   UNL     1       8.538  -9.136  11.228  1.00  0.00     0.200 A 
ATOM     74  F   UNL     1      10.355 -10.231  10.191  1.00  0.00    -0.200 F 
ATOM     75  F   UNL     1       9.357  -8.626  12.158  1.00  0.00    -0.200 F 
ENDBRANCH  51  65
BRANCH  52  76
ATOM     76  C   UNL     1       0.891 -13.609   2.007  1.00  0.00     0.064 A 
ATOM     77  C   UNL     1      -0.373 -14.141   2.292  1.00  0.00     0.173 A 
ATOM     78  C   UNL     1       1.302 -13.581   0.666  1.00  0.00     0.173 A 
ATOM     79  F   UNL     1      -0.798 -14.212   3.562  1.00  0.00    -0.203 F 
ATOM     80  C   UNL     1      -1.190 -14.636   1.278  1.00  0.00     0.198 A 
ATOM     81  C   UNL     1       0.473 -14.053  -0.350  1.00  0.00     0.198 A 
ATOM     82  F   UNL     1       2.505 -13.084   0.342  1.00  0.00    -0.203 F 
ATOM     83  F   UNL     1      -2.380 -15.173   1.581  1.00  0.00    -0.200 F 
ATOM     84  C   UNL     1      -0.770 -14.584  -0.043  1.00  0.00     0.200 A 
ATOM     85  F   UNL     1       0.880 -13.992  -1.625  1.00  0.00    -0.200 F 
ATOM     86  F   UNL     1      -1.559 -15.053  -1.018  1.00  0.00    -0.200 F 
ENDBRANCH  52  76
BRANCH  64  87
ATOM     87  C   UNL     1       4.337 -16.649   7.245  1.00  0.00     0.064 A 
ATOM     88  C   UNL     1       5.092 -17.581   6.519  1.00  0.00     0.173 A 
ATOM     89  C   UNL     1       3.712 -17.084   8.423  1.00  0.00     0.173 A 
ATOM     90  F   UNL     1       5.696 -17.218   5.378  1.00  0.00    -0.203 F 
ATOM     91  C   UNL     1       5.196 -18.904   6.943  1.00  0.00     0.198 A 
ATOM     92  C   UNL     1       3.841 -18.400   8.859  1.00  0.00     0.198 A 
ATOM     93  F   UNL     1       2.983 -16.231   9.158  1.00  0.00    -0.203 F 
ATOM     94  F   UNL     1       5.884 -19.789   6.208  1.00  0.00    -0.200 F 
ATOM     95  C   UNL     1       4.576 -19.311   8.115  1.00  0.00     0.200 A 
ATOM     96  F   UNL     1       3.251 -18.789   9.998  1.00  0.00    -0.200 F 
ATOM     97  F   UNL     1       4.680 -20.583   8.523  1.00  0.00    -0.200 F 
ENDBRANCH  64  87
ENDBRANCH  38  39
ENDBRANCH  31  33
ENDBRANCH  30  31
ENDBRANCH  29  30
ENDBRANCH  28  29
ENDBRANCH   1  28
TORSDOF 18
