REMARK SMILES CCc1cc(/C=C/C(=O)OCCOCCOC(=O)c2ccc(-c3c4nc(c(-c5c(F)c(F)c(F)c(F)c5F)c5ccc([nH]5)c(-c5c(F)c(F)c(F)c(F)c5F)c5nc(c(-c6c(F)c(F)c(F)c(F)c6F)c6ccc3[nH]6)C=C5)C=C4)cc2)cc(C(=O)c2ccccc2)c1
REMARK SMILES IDX 12 1 11 2 10 3 8 4 9 5 7 6 6 7 5 8 3 9 4 10 92 11 83 12
REMARK SMILES IDX 82 13 2 14 1 15 84 16 85 17 86 18 87 19 91 20 88 21 90 22
REMARK SMILES IDX 89 23 13 24 14 25 15 26 16 27 17 28 18 29 19 30 20 31 81 32
REMARK SMILES IDX 21 33 80 34 22 35 23 36 24 37 74 38 25 39 79 40 73 41 75 42
REMARK SMILES IDX 26 43 78 44 72 45 71 46 27 48 59 49 39 50 58 51 40 52 43 53
REMARK SMILES IDX 57 54 76 55 41 56 42 57 56 59 77 60 44 61 28 62 29 63 37 64
REMARK SMILES IDX 30 65 31 66 35 67 38 68 32 69 33 70 36 71 34 72 60 73 61 74
REMARK SMILES IDX 69 75 62 76 63 77 67 78 70 79 64 80 65 81 68 82 66 83 45 84
REMARK SMILES IDX 46 85 54 86 47 87 48 88 52 89 55 90 49 91 50 92 53 93 51 94
REMARK H PARENT 75 47 43 58
REMARK Flexibility Score: inf
ROOT
ATOM      1  C   UNL     1       6.200  -2.858  -6.204  1.00  0.00     0.202 C 
ENDROOT
BRANCH   1   2
ATOM      2  C   UNL     1       4.852  -2.667  -6.903  1.00  0.00     0.261 C 
BRANCH   2   3
ATOM      3  O   UNL     1       4.083  -1.627  -6.275  1.00  0.00    -0.460 OA
BRANCH   3   4
ATOM      4  C   UNL     1       2.950  -2.046  -5.665  1.00  0.00     0.330 C 
ATOM      5  O   UNL     1       2.475  -3.171  -5.704  1.00  0.00    -0.247 OA
BRANCH   4   6
ATOM      6  C   UNL     1       2.352  -1.003  -4.808  1.00  0.00     0.094 C 
ATOM      7  C   UNL     1       2.694   0.295  -4.750  1.00  0.00     0.015 C 
BRANCH   7   8
ATOM      8  C   UNL     1       2.061   1.238  -3.806  1.00  0.00    -0.024 A 
ATOM      9  C   UNL     1       0.961   1.692  -1.661  1.00  0.00    -0.047 A 
ATOM     10  C   UNL     1       1.602   0.816  -2.546  1.00  0.00     0.011 A 
ATOM     11  C   UNL     1       0.790   3.029  -2.053  1.00  0.00     0.016 A 
ATOM     12  C   UNL     1       1.304   3.496  -3.270  1.00  0.00     0.023 A 
ATOM     13  C   UNL     1       1.933   2.591  -4.143  1.00  0.00     0.020 A 
BRANCH   9  14
ATOM     14  C   UNL     1       0.399   1.255  -0.325  1.00  0.00     0.032 C 
ATOM     15  C   UNL     1       0.844  -0.109   0.190  1.00  0.00     0.009 C 
ENDBRANCH   9  14
BRANCH  12  16
ATOM     16  C   UNL     1       1.148   4.915  -3.711  1.00  0.00     0.193 C 
ATOM     17  O   UNL     1       1.363   5.212  -4.884  1.00  0.00    -0.289 OA
BRANCH  16  18
ATOM     18  C   UNL     1       0.702   5.991  -2.791  1.00  0.00     0.022 A 
ATOM     19  C   UNL     1      -0.291   6.871  -3.238  1.00  0.00     0.012 A 
ATOM     20  C   UNL     1       1.268   6.166  -1.523  1.00  0.00     0.012 A 
ATOM     21  C   UNL     1      -0.749   7.891  -2.403  1.00  0.00     0.001 A 
ATOM     22  C   UNL     1       0.801   7.185  -0.688  1.00  0.00     0.001 A 
ATOM     23  C   UNL     1      -0.210   8.041  -1.126  1.00  0.00     0.000 A 
ENDBRANCH  16  18
ENDBRANCH  12  16
ENDBRANCH   7   8
ENDBRANCH   4   6
ENDBRANCH   3   4
ENDBRANCH   2   3
ENDBRANCH   1   2
BRANCH   1  24
ATOM     24  O   UNL     1       6.142  -3.276  -4.842  1.00  0.00    -0.374 OA
BRANCH  24  25
ATOM     25  C   UNL     1       5.936  -2.258  -3.859  1.00  0.00     0.202 C 
BRANCH  25  26
ATOM     26  C   UNL     1       7.166  -1.415  -3.499  1.00  0.00     0.261 C 
BRANCH  26  27
ATOM     27  O   UNL     1       7.514  -0.500  -4.556  1.00  0.00    -0.460 OA
BRANCH  27  28
ATOM     28  C   UNL     1       8.663  -0.779  -5.212  1.00  0.00     0.338 C 
ATOM     29  O   UNL     1       9.466  -1.668  -4.967  1.00  0.00    -0.246 OA
BRANCH  28  30
ATOM     30  C   UNL     1       8.743   0.051  -6.427  1.00  0.00     0.060 A 
ATOM     31  C   UNL     1       8.941  -0.593  -7.657  1.00  0.00     0.016 A 
ATOM     32  C   UNL     1       8.677   1.443  -6.357  1.00  0.00     0.016 A 
ATOM     33  C   UNL     1       9.108   0.156  -8.821  1.00  0.00     0.010 A 
ATOM     34  C   UNL     1       8.857   2.192  -7.521  1.00  0.00     0.010 A 
ATOM     35  C   UNL     1       9.102   1.554  -8.752  1.00  0.00    -0.014 A 
BRANCH  35  36
ATOM     36  C   UNL     1       9.498   2.374  -9.920  1.00  0.00     0.031 A 
ATOM     37  C   UNL     1      10.892   2.930  -9.966  1.00  0.00     0.074 A 
ATOM     38  C   UNL     1       8.621   2.655 -10.899  1.00  0.00     0.049 A 
ATOM     39  N   UNL     1      11.411   3.813 -10.779  1.00  0.00    -0.248 NA
ATOM     40  C   UNL     1      11.827   2.425  -8.947  1.00  0.00     0.031 C 
ATOM     41  C   UNL     1       7.262   2.129 -10.991  1.00  0.00     0.029 A 
ATOM     42  N   UNL     1       8.740   3.482 -11.988  1.00  0.00    -0.354 N 
ATOM     43  C   UNL     1      12.721   3.988 -10.356  1.00  0.00     0.074 A 
ATOM     44  C   UNL     1      12.917   3.131  -9.207  1.00  0.00     0.031 C 
ATOM     45  C   UNL     1       6.659   2.671 -12.064  1.00  0.00     0.029 A 
ATOM     46  C   UNL     1       7.575   3.615 -12.702  1.00  0.00     0.049 A 
ATOM     47  H   UNL     1       9.579   3.935 -12.234  1.00  0.00     0.167 HD
ATOM     48  C   UNL     1      13.673   4.795 -10.881  1.00  0.00     0.037 A 
ATOM     49  C   UNL     1       7.273   4.440 -13.724  1.00  0.00     0.037 A 
ATOM     50  C   UNL     1      13.469   5.642 -12.026  1.00  0.00     0.049 A 
ATOM     51  C   UNL     1       8.324   5.389 -14.242  1.00  0.00     0.074 A 
ATOM     52  C   UNL     1      14.371   6.489 -12.645  1.00  0.00     0.029 A 
ATOM     53  N   UNL     1      12.273   5.753 -12.720  1.00  0.00    -0.354 N 
ATOM     54  N   UNL     1       9.564   5.549 -13.845  1.00  0.00    -0.248 NA
ATOM     55  C   UNL     1       7.934   6.277 -15.347  1.00  0.00     0.031 C 
ATOM     56  C   UNL     1      13.707   7.149 -13.682  1.00  0.00     0.029 A 
ATOM     57  C   UNL     1      12.408   6.670 -13.748  1.00  0.00     0.049 A 
ATOM     58  H   UNL     1      11.450   5.253 -12.512  1.00  0.00     0.167 HD
ATOM     59  C   UNL     1      10.111   6.520 -14.674  1.00  0.00     0.074 A 
ATOM     60  C   UNL     1       9.068   6.919 -15.595  1.00  0.00     0.031 C 
ATOM     61  C   UNL     1      11.367   7.029 -14.676  1.00  0.00     0.037 A 
BRANCH  48  62
ATOM     62  C   UNL     1      15.010   4.828 -10.202  1.00  0.00     0.064 A 
ATOM     63  C   UNL     1      15.900   3.746 -10.269  1.00  0.00     0.173 A 
ATOM     64  C   UNL     1      15.421   5.974  -9.504  1.00  0.00     0.173 A 
ATOM     65  F   UNL     1      15.549   2.622 -10.912  1.00  0.00    -0.203 F 
ATOM     66  C   UNL     1      17.142   3.800  -9.642  1.00  0.00     0.198 A 
ATOM     67  C   UNL     1      16.676   6.036  -8.903  1.00  0.00     0.198 A 
ATOM     68  F   UNL     1      14.610   7.038  -9.413  1.00  0.00    -0.203 F 
ATOM     69  F   UNL     1      17.958   2.738  -9.680  1.00  0.00    -0.200 F 
ATOM     70  C   UNL     1      17.532   4.948  -8.966  1.00  0.00     0.200 A 
ATOM     71  F   UNL     1      17.055   7.150  -8.263  1.00  0.00    -0.200 F 
ATOM     72  F   UNL     1      18.731   5.002  -8.371  1.00  0.00    -0.200 F 
ENDBRANCH  48  62
BRANCH  49  73
ATOM     73  C   UNL     1       5.908   4.425 -14.312  1.00  0.00     0.064 A 
ATOM     74  C   UNL     1       5.690   3.959 -15.616  1.00  0.00     0.173 A 
ATOM     75  C   UNL     1       4.797   4.887 -13.590  1.00  0.00     0.173 A 
ATOM     76  F   UNL     1       6.724   3.532 -16.355  1.00  0.00    -0.203 F 
ATOM     77  C   UNL     1       4.416   3.971 -16.181  1.00  0.00     0.198 A 
ATOM     78  C   UNL     1       3.519   4.872 -14.146  1.00  0.00     0.198 A 
ATOM     79  F   UNL     1       4.952   5.346 -12.340  1.00  0.00    -0.203 F 
ATOM     80  F   UNL     1       4.243   3.563 -17.445  1.00  0.00    -0.200 F 
ATOM     81  C   UNL     1       3.331   4.421 -15.444  1.00  0.00     0.200 A 
ATOM     82  F   UNL     1       2.472   5.298 -13.427  1.00  0.00    -0.200 F 
ATOM     83  F   UNL     1       2.106   4.430 -15.987  1.00  0.00    -0.200 F 
ENDBRANCH  49  73
BRANCH  61  84
ATOM     84  C   UNL     1      11.719   8.022 -15.745  1.00  0.00     0.064 A 
ATOM     85  C   UNL     1      11.263   9.346 -15.706  1.00  0.00     0.173 A 
ATOM     86  C   UNL     1      12.603   7.659 -16.774  1.00  0.00     0.173 A 
ATOM     87  F   UNL     1      10.407   9.738 -14.751  1.00  0.00    -0.203 F 
ATOM     88  C   UNL     1      11.674  10.271 -16.663  1.00  0.00     0.198 A 
ATOM     89  C   UNL     1      13.033   8.593 -17.712  1.00  0.00     0.198 A 
ATOM     90  F   UNL     1      13.074   6.405 -16.850  1.00  0.00    -0.203 F 
ATOM     91  F   UNL     1      11.206  11.527 -16.623  1.00  0.00    -0.200 F 
ATOM     92  C   UNL     1      12.567   9.897 -17.657  1.00  0.00     0.200 A 
ATOM     93  F   UNL     1      13.908   8.233 -18.661  1.00  0.00    -0.200 F 
ATOM     94  F   UNL     1      12.978  10.795 -18.563  1.00  0.00    -0.200 F 
ENDBRANCH  61  84
ENDBRANCH  35  36
ENDBRANCH  28  30
ENDBRANCH  27  28
ENDBRANCH  26  27
ENDBRANCH  25  26
ENDBRANCH  24  25
ENDBRANCH   1  24
TORSDOF 18
