REMARK SMILES CC[C@H]1CC[C@](CC(C)(C)O)(C(=O)OCCOCCOC(=O)c2ccc(-c3c4nc(c(-c5c(F)c(F)c(F)c(F)c5F)c5ccc([nH]5)c(-c5c(F)c(F)c(F)c(F)c5F)c5nc(c(-c6c(F)c(F)c(F)c(F)c6F)c6ccc3[nH]6)C=C5)C=C4)cc2)C1
REMARK SMILES IDX 16 1 15 2 14 3 12 4 13 5 6 6 3 7 4 8 86 9 5 10 2 11 1 12
REMARK SMILES IDX 7 13 8 14 9 15 10 16 11 17 17 19 18 20 19 21 20 22 21 23
REMARK SMILES IDX 22 24 23 25 24 26 85 27 25 28 84 29 26 30 27 31 28 32 78 33
REMARK SMILES IDX 29 34 83 35 77 36 79 37 30 38 82 39 76 40 75 41 31 43 63 44
REMARK SMILES IDX 43 45 62 46 44 47 47 48 61 49 80 50 45 51 46 52 60 54 81 55
REMARK SMILES IDX 48 56 32 57 33 58 41 59 34 60 35 61 39 62 42 63 36 64 37 65
REMARK SMILES IDX 40 66 38 67 64 68 65 69 73 70 66 71 67 72 71 73 74 74 68 75
REMARK SMILES IDX 69 76 72 77 70 78 49 79 50 80 58 81 51 82 52 83 56 84 59 85
REMARK SMILES IDX 53 86 54 87 57 88 55 89
REMARK H PARENT 11 18 79 42 47 53
REMARK Flexibility Score: inf
ROOT
ATOM      1  C   UNL     1       6.733   3.266   1.833  1.00  0.00     0.202 C 
ENDROOT
BRANCH   1   2
ATOM      2  C   UNL     1       5.832   3.733   2.978  1.00  0.00     0.261 C 
BRANCH   2   3
ATOM      3  O   UNL     1       4.716   2.847   3.208  1.00  0.00    -0.463 OA
BRANCH   3   4
ATOM      4  C   UNL     1       3.497   3.462   3.230  1.00  0.00     0.312 C 
ATOM      5  O   UNL     1       3.342   4.666   3.059  1.00  0.00    -0.252 OA
BRANCH   4   6
ATOM      6  C   UNL     1       2.340   2.486   3.524  1.00  0.00     0.071 C 
ATOM      7  C   UNL     1       1.004   0.666   2.501  1.00  0.00    -0.010 C 
ATOM      8  C   UNL     1       0.253   1.969   2.251  1.00  0.00     0.005 C 
ATOM      9  C   UNL     1       2.451   1.128   2.780  1.00  0.00     0.022 C 
ATOM     10  C   UNL     1       1.093   3.094   2.842  1.00  0.00     0.019 C 
BRANCH   7  11
ATOM     11  C   UNL     1       0.415  -0.241   3.597  1.00  0.00     0.000 C 
ATOM     12  C   UNL     1      -1.096  -0.430   3.543  1.00  0.00     0.004 C 
ENDBRANCH   7  11
BRANCH   6  13
ATOM     13  C   UNL     1       2.346   2.236   5.066  1.00  0.00     0.053 C 
BRANCH  13  14
ATOM     14  C   UNL     1       1.422   3.043   6.000  1.00  0.00     0.060 C 
ATOM     15  C   UNL     1      -0.039   2.584   5.957  1.00  0.00     0.042 C 
ATOM     16  C   UNL     1       1.921   2.891   7.446  1.00  0.00     0.042 C 
BRANCH  14  17
ATOM     17  O   UNL     1       1.512   4.417   5.654  1.00  0.00    -0.390 OA
ATOM     18  H   UNL     1       1.203   4.542   4.743  1.00  0.00     0.211 HD
ENDBRANCH  14  17
ENDBRANCH  13  14
ENDBRANCH   6  13
ENDBRANCH   4   6
ENDBRANCH   3   4
ENDBRANCH   2   3
ENDBRANCH   1   2
BRANCH   1  19
ATOM     19  O   UNL     1       6.188   3.307   0.515  1.00  0.00    -0.374 OA
BRANCH  19  20
ATOM     20  C   UNL     1       5.112   2.421   0.221  1.00  0.00     0.202 C 
BRANCH  20  21
ATOM     21  C   UNL     1       5.472   0.937   0.056  1.00  0.00     0.261 C 
BRANCH  21  22
ATOM     22  O   UNL     1       6.089   0.369   1.227  1.00  0.00    -0.460 OA
BRANCH  22  23
ATOM     23  C   UNL     1       7.359  -0.061   1.038  1.00  0.00     0.338 C 
ATOM     24  O   UNL     1       7.976  -0.115  -0.018  1.00  0.00    -0.246 OA
BRANCH  23  25
ATOM     25  C   UNL     1       8.023  -0.333   2.325  1.00  0.00     0.060 A 
ATOM     26  C   UNL     1       9.198   0.379   2.602  1.00  0.00     0.016 A 
ATOM     27  C   UNL     1       7.592  -1.350   3.179  1.00  0.00     0.016 A 
ATOM     28  C   UNL     1       9.981   0.033   3.700  1.00  0.00     0.010 A 
ATOM     29  C   UNL     1       8.387  -1.702   4.279  1.00  0.00     0.010 A 
ATOM     30  C   UNL     1       9.607  -1.042   4.517  1.00  0.00    -0.014 A 
BRANCH  30  31
ATOM     31  C   UNL     1      10.593  -1.564   5.496  1.00  0.00     0.031 A 
ATOM     32  C   UNL     1      11.456  -2.735   5.110  1.00  0.00     0.074 A 
ATOM     33  C   UNL     1      10.781  -0.952   6.679  1.00  0.00     0.049 A 
ATOM     34  N   UNL     1      12.433  -3.303   5.772  1.00  0.00    -0.248 NA
ATOM     35  C   UNL     1      11.185  -3.345   3.799  1.00  0.00     0.031 C 
ATOM     36  C   UNL     1      10.034   0.208   7.156  1.00  0.00     0.029 A 
ATOM     37  N   UNL     1      11.672  -1.220   7.688  1.00  0.00    -0.354 N 
ATOM     38  C   UNL     1      12.896  -4.328   4.956  1.00  0.00     0.074 A 
ATOM     39  C   UNL     1      12.070  -4.330   3.768  1.00  0.00     0.031 C 
ATOM     40  C   UNL     1      10.500   0.558   8.367  1.00  0.00     0.029 A 
ATOM     41  C   UNL     1      11.567  -0.364   8.756  1.00  0.00     0.049 A 
ATOM     42  H   UNL     1      12.325  -1.956   7.650  1.00  0.00     0.167 HD
ATOM     43  C   UNL     1      13.927  -5.181   5.170  1.00  0.00     0.037 A 
ATOM     44  C   UNL     1      12.253  -0.331   9.915  1.00  0.00     0.037 A 
ATOM     45  C   UNL     1      14.752  -5.181   6.348  1.00  0.00     0.049 A 
ATOM     46  C   UNL     1      13.358  -1.327  10.152  1.00  0.00     0.074 A 
ATOM     47  C   UNL     1      15.832  -5.994   6.646  1.00  0.00     0.029 A 
ATOM     48  N   UNL     1      14.584  -4.328   7.428  1.00  0.00    -0.354 N 
ATOM     49  N   UNL     1      13.811  -2.269   9.360  1.00  0.00    -0.248 NA
ATOM     50  C   UNL     1      14.054  -1.248  11.445  1.00  0.00     0.031 C 
ATOM     51  C   UNL     1      16.290  -5.662   7.926  1.00  0.00     0.029 A 
ATOM     52  C   UNL     1      15.524  -4.612   8.406  1.00  0.00     0.049 A 
ATOM     53  H   UNL     1      13.898  -3.625   7.490  1.00  0.00     0.167 HD
ATOM     54  C   UNL     1      14.853  -2.878  10.046  1.00  0.00     0.074 A 
ATOM     55  C   UNL     1      14.980  -2.188  11.312  1.00  0.00     0.031 C 
ATOM     56  C   UNL     1      15.635  -3.918   9.663  1.00  0.00     0.037 A 
BRANCH  43  57
ATOM     57  C   UNL     1      14.208  -6.201   4.107  1.00  0.00     0.064 A 
ATOM     58  C   UNL     1      14.793  -5.845   2.882  1.00  0.00     0.173 A 
ATOM     59  C   UNL     1      13.916  -7.555   4.327  1.00  0.00     0.173 A 
ATOM     60  F   UNL     1      15.078  -4.561   2.619  1.00  0.00    -0.203 F 
ATOM     61  C   UNL     1      15.055  -6.805   1.908  1.00  0.00     0.198 A 
ATOM     62  C   UNL     1      14.202  -8.516   3.360  1.00  0.00     0.198 A 
ATOM     63  F   UNL     1      13.359  -7.948   5.482  1.00  0.00    -0.203 F 
ATOM     64  F   UNL     1      15.575  -6.437   0.729  1.00  0.00    -0.200 F 
ATOM     65  C   UNL     1      14.764  -8.139   2.150  1.00  0.00     0.200 A 
ATOM     66  F   UNL     1      13.929  -9.806   3.599  1.00  0.00    -0.200 F 
ATOM     67  F   UNL     1      15.020  -9.063   1.212  1.00  0.00    -0.200 F 
ENDBRANCH  43  57
BRANCH  44  68
ATOM     68  C   UNL     1      11.917   0.684  10.946  1.00  0.00     0.064 A 
ATOM     69  C   UNL     1      12.799   1.730  11.249  1.00  0.00     0.173 A 
ATOM     70  C   UNL     1      10.714   0.615  11.664  1.00  0.00     0.173 A 
ATOM     71  F   UNL     1      13.974   1.822  10.609  1.00  0.00    -0.203 F 
ATOM     72  C   UNL     1      12.498   2.659  12.244  1.00  0.00     0.198 A 
ATOM     73  C   UNL     1      10.403   1.558  12.639  1.00  0.00     0.198 A 
ATOM     74  F   UNL     1       9.839  -0.370  11.414  1.00  0.00    -0.203 F 
ATOM     75  F   UNL     1      13.379   3.623  12.546  1.00  0.00    -0.200 F 
ATOM     76  C   UNL     1      11.298   2.576  12.934  1.00  0.00     0.200 A 
ATOM     77  F   UNL     1       9.238   1.479  13.298  1.00  0.00    -0.200 F 
ATOM     78  F   UNL     1      11.008   3.469  13.889  1.00  0.00    -0.200 F 
ENDBRANCH  44  68
BRANCH  56  79
ATOM     79  C   UNL     1      16.706  -4.360  10.618  1.00  0.00     0.064 A 
ATOM     80  C   UNL     1      16.395  -5.048  11.800  1.00  0.00     0.173 A 
ATOM     81  C   UNL     1      18.058  -4.117  10.335  1.00  0.00     0.173 A 
ATOM     82  F   UNL     1      15.116  -5.292  12.123  1.00  0.00    -0.203 F 
ATOM     83  C   UNL     1      17.398  -5.452  12.678  1.00  0.00     0.198 A 
ATOM     84  C   UNL     1      19.060  -4.547  11.201  1.00  0.00     0.198 A 
ATOM     85  F   UNL     1      18.409  -3.470   9.213  1.00  0.00    -0.203 F 
ATOM     86  F   UNL     1      17.075  -6.064  13.825  1.00  0.00    -0.200 F 
ATOM     87  C   UNL     1      18.729  -5.206  12.375  1.00  0.00     0.200 A 
ATOM     88  F   UNL     1      20.346  -4.319  10.902  1.00  0.00    -0.200 F 
ATOM     89  F   UNL     1      19.693  -5.596  13.220  1.00  0.00    -0.200 F 
ENDBRANCH  56  79
ENDBRANCH  30  31
ENDBRANCH  23  25
ENDBRANCH  22  23
ENDBRANCH  21  22
ENDBRANCH  20  21
ENDBRANCH  19  20
ENDBRANCH   1  19
TORSDOF 18
