REMARK SMILES O=C(OCCOCCOC(=O)[C@H]1CCCN(C(=O)C2CC[NH+](Cc3ccco3)CC2)C1)c1ccc(-c2c3nc(c(-c4c(F)c(F)c(F)c(F)c4F)c4ccc([nH]4)c(-c4c(F)c(F)c(F)c(F)c4F)c4nc(c(-c5c(F)c(F)c(F)c(F)c5F)c5ccc2[nH]5)C=C4)C=C3)cc1
REMARK SMILES IDX 7 1 6 2 5 3 4 4 3 5 2 6 1 7 32 8 33 9 94 10 34 11 93 12
REMARK SMILES IDX 35 13 36 14 37 15 87 16 38 17 92 18 86 19 88 20 39 21 91 22
REMARK SMILES IDX 85 23 84 24 40 26 72 27 52 28 71 29 53 30 56 31 70 32 89 33
REMARK SMILES IDX 54 34 55 35 69 37 90 38 57 39 41 40 42 41 50 42 43 43 44 44
REMARK SMILES IDX 48 45 51 46 45 47 46 48 49 49 47 50 73 51 74 52 82 53 75 54
REMARK SMILES IDX 76 55 80 56 83 57 77 58 78 59 81 60 79 61 58 62 59 63 67 64
REMARK SMILES IDX 60 65 61 66 65 67 68 68 62 69 63 70 66 71 64 72 8 73 9 74
REMARK SMILES IDX 10 75 11 76 12 77 13 78 31 79 14 80 16 81 15 82 17 83 18 84
REMARK SMILES IDX 19 85 20 86 30 87 21 88 29 89 22 90 23 92 24 93 25 94 28 95
REMARK SMILES IDX 26 96 27 97
REMARK H PARENT 88 25 56 36 22 91
REMARK Flexibility Score: inf
ROOT
ATOM      1  C   UNL     1       6.863  -1.083   1.698  1.00  0.00     0.202 C 
ENDROOT
BRANCH   1   2
ATOM      2  O   UNL     1       6.753  -2.395   2.251  1.00  0.00    -0.374 OA
BRANCH   2   3
ATOM      3  C   UNL     1       5.432  -2.926   2.363  1.00  0.00     0.202 C 
BRANCH   3   4
ATOM      4  C   UNL     1       4.726  -2.821   3.718  1.00  0.00     0.261 C 
BRANCH   4   5
ATOM      5  O   UNL     1       4.595  -1.450   4.109  1.00  0.00    -0.460 OA
BRANCH   5   6
ATOM      6  C   UNL     1       5.590  -0.682   4.604  1.00  0.00     0.338 C 
ATOM      7  O   UNL     1       5.490   0.541   4.560  1.00  0.00    -0.246 OA
BRANCH   6   8
ATOM      8  C   UNL     1       6.775  -1.270   5.287  1.00  0.00     0.060 A 
ATOM      9  C   UNL     1       7.398  -2.469   4.931  1.00  0.00     0.016 A 
ATOM     10  C   UNL     1       7.334  -0.515   6.327  1.00  0.00     0.016 A 
ATOM     11  C   UNL     1       8.528  -2.922   5.556  1.00  0.00     0.010 A 
ATOM     12  C   UNL     1       8.473  -0.967   6.987  1.00  0.00     0.010 A 
ATOM     13  C   UNL     1       9.055  -2.174   6.590  1.00  0.00    -0.014 A 
BRANCH  13  14
ATOM     14  C   UNL     1      10.107  -2.830   7.349  1.00  0.00     0.031 A 
ATOM     15  C   UNL     1       9.696  -3.526   8.596  1.00  0.00     0.074 A 
ATOM     16  C   UNL     1      11.323  -2.945   6.797  1.00  0.00     0.049 A 
ATOM     17  N   UNL     1      10.434  -4.043   9.531  1.00  0.00    -0.248 NA
ATOM     18  C   UNL     1       8.244  -3.669   8.814  1.00  0.00     0.031 C 
ATOM     19  C   UNL     1      11.688  -2.481   5.454  1.00  0.00     0.029 A 
ATOM     20  N   UNL     1      12.464  -3.505   7.284  1.00  0.00    -0.354 N 
ATOM     21  C   UNL     1       9.541  -4.507  10.484  1.00  0.00     0.074 A 
ATOM     22  C   UNL     1       8.206  -4.250  10.001  1.00  0.00     0.031 C 
ATOM     23  C   UNL     1      12.982  -2.757   5.236  1.00  0.00     0.029 A 
ATOM     24  C   UNL     1      13.541  -3.317   6.459  1.00  0.00     0.049 A 
ATOM     25  H   UNL     1      12.510  -3.993   8.138  1.00  0.00     0.167 HD
ATOM     26  C   UNL     1       9.851  -5.057  11.677  1.00  0.00     0.037 A 
ATOM     27  C   UNL     1      14.844  -3.501   6.727  1.00  0.00     0.037 A 
ATOM     28  C   UNL     1      11.215  -5.266  12.078  1.00  0.00     0.049 A 
ATOM     29  C   UNL     1      15.183  -4.005   8.102  1.00  0.00     0.074 A 
ATOM     30  C   UNL     1      11.714  -5.725  13.278  1.00  0.00     0.029 A 
ATOM     31  N   UNL     1      12.309  -5.011  11.252  1.00  0.00    -0.354 N 
ATOM     32  N   UNL     1      14.368  -4.324   9.084  1.00  0.00    -0.248 NA
ATOM     33  C   UNL     1      16.602  -4.155   8.423  1.00  0.00     0.031 C 
ATOM     34  C   UNL     1      13.111  -5.695  13.195  1.00  0.00     0.029 A 
ATOM     35  C   UNL     1      13.485  -5.285  11.919  1.00  0.00     0.049 A 
ATOM     36  H   UNL     1      12.251  -4.682  10.325  1.00  0.00     0.167 HD
ATOM     37  C   UNL     1      15.169  -4.736  10.134  1.00  0.00     0.074 A 
ATOM     38  C   UNL     1      16.540  -4.625   9.662  1.00  0.00     0.031 C 
ATOM     39  C   UNL     1      14.817  -5.169  11.371  1.00  0.00     0.037 A 
BRANCH  26  40
ATOM     40  C   UNL     1       8.713  -5.306  12.622  1.00  0.00     0.064 A 
ATOM     41  C   UNL     1       7.727  -6.275  12.379  1.00  0.00     0.173 A 
ATOM     42  C   UNL     1       8.550  -4.478  13.743  1.00  0.00     0.173 A 
ATOM     43  F   UNL     1       7.810  -7.067  11.299  1.00  0.00    -0.203 F 
ATOM     44  C   UNL     1       6.599  -6.371  13.193  1.00  0.00     0.198 A 
ATOM     45  C   UNL     1       7.439  -4.599  14.574  1.00  0.00     0.198 A 
ATOM     46  F   UNL     1       9.451  -3.522  14.015  1.00  0.00    -0.203 F 
ATOM     47  F   UNL     1       5.627  -7.243  12.888  1.00  0.00    -0.200 F 
ATOM     48  C   UNL     1       6.457  -5.535  14.289  1.00  0.00     0.200 A 
ATOM     49  F   UNL     1       7.304  -3.788  15.632  1.00  0.00    -0.200 F 
ATOM     50  F   UNL     1       5.361  -5.614  15.058  1.00  0.00    -0.200 F 
ENDBRANCH  26  40
BRANCH  27  51
ATOM     51  C   UNL     1      15.865  -3.122   5.718  1.00  0.00     0.064 A 
ATOM     52  C   UNL     1      16.661  -4.087   5.091  1.00  0.00     0.173 A 
ATOM     53  C   UNL     1      16.022  -1.786   5.311  1.00  0.00     0.173 A 
ATOM     54  F   UNL     1      16.558  -5.375   5.449  1.00  0.00    -0.203 F 
ATOM     55  C   UNL     1      17.576  -3.732   4.099  1.00  0.00     0.198 A 
ATOM     56  C   UNL     1      16.914  -1.436   4.300  1.00  0.00     0.198 A 
ATOM     57  F   UNL     1      15.279  -0.819   5.872  1.00  0.00    -0.203 F 
ATOM     58  F   UNL     1      18.342  -4.673   3.531  1.00  0.00    -0.200 F 
ATOM     59  C   UNL     1      17.694  -2.409   3.698  1.00  0.00     0.200 A 
ATOM     60  F   UNL     1      17.006  -0.160   3.901  1.00  0.00    -0.200 F 
ATOM     61  F   UNL     1      18.560  -2.073   2.731  1.00  0.00    -0.200 F 
ENDBRANCH  27  51
BRANCH  39  62
ATOM     62  C   UNL     1      15.930  -5.618  12.264  1.00  0.00     0.064 A 
ATOM     63  C   UNL     1      16.775  -4.704  12.905  1.00  0.00     0.173 A 
ATOM     64  C   UNL     1      16.076  -6.983  12.553  1.00  0.00     0.173 A 
ATOM     65  F   UNL     1      16.676  -3.392  12.642  1.00  0.00    -0.203 F 
ATOM     66  C   UNL     1      17.738  -5.145  13.805  1.00  0.00     0.198 A 
ATOM     67  C   UNL     1      17.017  -7.415  13.478  1.00  0.00     0.198 A 
ATOM     68  F   UNL     1      15.279  -7.888  11.965  1.00  0.00    -0.203 F 
ATOM     69  F   UNL     1      18.559  -4.261  14.389  1.00  0.00    -0.200 F 
ATOM     70  C   UNL     1      17.848  -6.497  14.101  1.00  0.00     0.200 A 
ATOM     71  F   UNL     1      17.109  -8.718  13.777  1.00  0.00    -0.200 F 
ATOM     72  F   UNL     1      18.759  -6.915  14.991  1.00  0.00    -0.200 F 
ENDBRANCH  39  62
ENDBRANCH  13  14
ENDBRANCH   6   8
ENDBRANCH   5   6
ENDBRANCH   4   5
ENDBRANCH   3   4
ENDBRANCH   2   3
ENDBRANCH   1   2
BRANCH   1  73
ATOM     73  C   UNL     1       7.244  -1.131   0.221  1.00  0.00     0.261 C 
BRANCH  73  74
ATOM     74  O   UNL     1       6.133  -1.626  -0.544  1.00  0.00    -0.463 OA
BRANCH  74  75
ATOM     75  C   UNL     1       6.113  -2.977  -0.705  1.00  0.00     0.310 C 
ATOM     76  O   UNL     1       6.996  -3.743  -0.365  1.00  0.00    -0.252 OA
BRANCH  75  77
ATOM     77  C   UNL     1       4.798  -3.414  -1.314  1.00  0.00     0.119 C 
ATOM     78  C   UNL     1       5.122  -4.563  -2.277  1.00  0.00     0.019 C 
ATOM     79  C   UNL     1       3.796  -3.780  -0.193  1.00  0.00     0.134 C 
ATOM     80  C   UNL     1       3.864  -5.328  -2.605  1.00  0.00     0.022 C 
ATOM     81  N   UNL     1       2.770  -4.743  -0.555  1.00  0.00    -0.342 N 
ATOM     82  C   UNL     1       3.319  -5.841  -1.291  1.00  0.00     0.119 C 
BRANCH  81  83
ATOM     83  C   UNL     1       1.545  -4.752   0.088  1.00  0.00     0.226 C 
ATOM     84  O   UNL     1       1.366  -4.017   1.069  1.00  0.00    -0.275 OA
BRANCH  83  85
ATOM     85  C   UNL     1       0.363  -5.642  -0.384  1.00  0.00     0.090 C 
ATOM     86  C   UNL     1       0.211  -7.000   0.292  1.00  0.00     0.075 C 
ATOM     87  C   UNL     1       0.077  -5.741  -1.881  1.00  0.00     0.075 C 
ATOM     88  C   UNL     1       0.966  -8.131  -0.396  1.00  0.00     0.263 C 
ATOM     89  C   UNL     1       0.657  -6.962  -2.615  1.00  0.00     0.263 C 
ATOM     90  N   UNL     1       0.848  -8.196  -1.850  1.00  0.00    -0.329 N 
ATOM     91  H   UNL     1      -0.092  -8.587  -1.914  1.00  0.00     0.348 HD
BRANCH  90  92
ATOM     92  C   UNL     1       1.782  -9.158  -2.495  1.00  0.00     0.338 C 
BRANCH  92  93
ATOM     93  C   UNL     1       3.262  -8.989  -2.240  1.00  0.00     0.157 A 
ATOM     94  C   UNL     1       4.085  -9.194  -1.143  1.00  0.00     0.052 A 
ATOM     95  O   UNL     1       4.034  -8.585  -3.299  1.00  0.00    -0.463 OA
ATOM     96  C   UNL     1       5.398  -8.825  -1.529  1.00  0.00     0.042 A 
ATOM     97  C   UNL     1       5.319  -8.489  -2.858  1.00  0.00     0.195 A 
ENDBRANCH  92  93
ENDBRANCH  90  92
ENDBRANCH  83  85
ENDBRANCH  81  83
ENDBRANCH  75  77
ENDBRANCH  74  75
ENDBRANCH  73  74
ENDBRANCH   1  73
TORSDOF 18
