REMARK SMILES CCCC[C@H](C(=O)OCCOCCOC(=O)c1ccc(-c2c3nc(c(-c4c(F)c(F)c(F)c(F)c4F)c4ccc([nH]4)c(-c4c(F)c(F)c(F)c(F)c4F)c4nc(c(-c5c(F)c(F)c(F)c(F)c5F)c5ccc2[nH]5)C=C4)C=C3)cc1)N1C(=O)[C@H]2[C@@H]3C=C[C@@H]([C@@H]4C[C@H]34)[C@@H]2C1=O
REMARK SMILES IDX 10 1 9 2 8 3 6 4 7 5 5 6 4 7 3 8 2 9 1 10 80 11 81 12 92 13
REMARK SMILES IDX 82 14 83 15 91 16 93 17 84 18 87 19 85 20 90 21 86 22 88 23
REMARK SMILES IDX 89 24 11 25 12 26 13 27 14 28 15 29 16 30 17 31 18 32 79 33
REMARK SMILES IDX 19 34 78 35 20 36 21 37 22 38 72 39 23 40 77 41 71 42 73 43
REMARK SMILES IDX 24 44 76 45 70 46 69 47 25 49 57 50 37 51 56 52 38 53 41 54
REMARK SMILES IDX 55 55 74 56 39 57 40 58 54 60 75 61 42 62 26 63 27 64 35 65
REMARK SMILES IDX 28 66 29 67 33 68 36 69 30 70 31 71 34 72 32 73 58 74 59 75
REMARK SMILES IDX 67 76 60 77 61 78 65 79 68 80 62 81 63 82 66 83 64 84 43 85
REMARK SMILES IDX 44 86 52 87 45 88 46 89 50 90 53 91 47 92 48 93 51 94 49 95
REMARK H PARENT 73 48 41 59
REMARK Flexibility Score: inf
ROOT
ATOM      1  C   UNL     1       3.562  -1.609   1.535  1.00  0.00     0.202 C 
ENDROOT
BRANCH   1   2
ATOM      2  C   UNL     1       2.980  -2.673   0.592  1.00  0.00     0.261 C 
BRANCH   2   3
ATOM      3  O   UNL     1       1.555  -2.659   0.475  1.00  0.00    -0.462 OA
BRANCH   3   4
ATOM      4  C   UNL     1       0.911  -3.473   1.372  1.00  0.00     0.329 C 
ATOM      5  O   UNL     1       1.477  -4.167   2.203  1.00  0.00    -0.250 OA
BRANCH   4   6
ATOM      6  C   UNL     1      -0.598  -3.352   1.184  1.00  0.00     0.203 C 
BRANCH   6   7
ATOM      7  C   UNL     1      -1.280  -4.346   0.228  1.00  0.00     0.038 C 
BRANCH   7   8
ATOM      8  C   UNL     1      -0.473  -4.913  -0.944  1.00  0.00     0.002 C 
BRANCH   8   9
ATOM      9  C   UNL     1       0.681  -5.864  -0.611  1.00  0.00    -0.003 C 
ATOM     10  C   UNL     1       0.347  -7.004   0.340  1.00  0.00     0.004 C 
ENDBRANCH   8   9
ENDBRANCH   7   8
ENDBRANCH   6   7
BRANCH   6  11
ATOM     11  N   UNL     1      -1.262  -3.347   2.491  1.00  0.00    -0.268 N 
ATOM     12  C   UNL     1      -2.028  -2.276   2.962  1.00  0.00     0.234 C 
ATOM     13  C   UNL     1      -1.372  -4.478   3.315  1.00  0.00     0.234 C 
ATOM     14  O   UNL     1      -2.248  -1.213   2.425  1.00  0.00    -0.274 OA
ATOM     15  C   UNL     1      -2.418  -2.697   4.344  1.00  0.00     0.099 C 
ATOM     16  C   UNL     1      -2.610  -4.189   4.081  1.00  0.00     0.099 C 
ATOM     17  O   UNL     1      -0.792  -5.545   3.264  1.00  0.00    -0.274 OA
ATOM     18  C   UNL     1      -3.516  -2.202   5.297  1.00  0.00     0.028 C 
ATOM     19  C   UNL     1      -3.327  -4.822   5.264  1.00  0.00     0.028 C 
ATOM     20  C   UNL     1      -3.010  -2.826   6.624  1.00  0.00    -0.026 C 
ATOM     21  C   UNL     1      -4.909  -2.829   5.097  1.00  0.00     0.001 C 
ATOM     22  C   UNL     1      -2.857  -4.171   6.575  1.00  0.00    -0.026 C 
ATOM     23  C   UNL     1      -4.820  -4.364   5.088  1.00  0.00     0.001 C 
ATOM     24  C   UNL     1      -5.421  -3.592   3.912  1.00  0.00     0.009 C 
ENDBRANCH   6  11
ENDBRANCH   4   6
ENDBRANCH   3   4
ENDBRANCH   2   3
ENDBRANCH   1   2
BRANCH   1  25
ATOM     25  O   UNL     1       2.865  -1.295   2.732  1.00  0.00    -0.374 OA
BRANCH  25  26
ATOM     26  C   UNL     1       1.637  -0.572   2.660  1.00  0.00     0.202 C 
BRANCH  26  27
ATOM     27  C   UNL     1       1.629   0.799   1.981  1.00  0.00     0.261 C 
BRANCH  27  28
ATOM     28  O   UNL     1       1.866   0.709   0.564  1.00  0.00    -0.460 OA
BRANCH  28  29
ATOM     29  C   UNL     1       2.927   1.426   0.126  1.00  0.00     0.338 C 
ATOM     30  O   UNL     1       3.679   2.127   0.782  1.00  0.00    -0.246 OA
BRANCH  29  31
ATOM     31  C   UNL     1       3.179   1.136  -1.292  1.00  0.00     0.060 A 
ATOM     32  C   UNL     1       4.396   0.532  -1.635  1.00  0.00     0.016 A 
ATOM     33  C   UNL     1       2.305   1.602  -2.274  1.00  0.00     0.016 A 
ATOM     34  C   UNL     1       4.769   0.439  -2.973  1.00  0.00     0.010 A 
ATOM     35  C   UNL     1       2.686   1.519  -3.614  1.00  0.00     0.010 A 
ATOM     36  C   UNL     1       3.936   0.977  -3.963  1.00  0.00    -0.014 A 
BRANCH  36  37
ATOM     37  C   UNL     1       4.447   1.132  -5.344  1.00  0.00     0.031 A 
ATOM     38  C   UNL     1       5.008   2.461  -5.762  1.00  0.00     0.074 A 
ATOM     39  C   UNL     1       4.417   0.100  -6.204  1.00  0.00     0.049 A 
ATOM     40  N   UNL     1       5.438   2.851  -6.935  1.00  0.00    -0.248 NA
ATOM     41  C   UNL     1       5.096   3.493  -4.715  1.00  0.00     0.031 C 
ATOM     42  C   UNL     1       3.941  -1.244  -5.891  1.00  0.00     0.029 A 
ATOM     43  N   UNL     1       4.787   0.032  -7.523  1.00  0.00    -0.354 N 
ATOM     44  C   UNL     1       5.836   4.171  -6.770  1.00  0.00     0.074 A 
ATOM     45  C   UNL     1       5.579   4.525  -5.391  1.00  0.00     0.031 C 
ATOM     46  C   UNL     1       4.028  -2.004  -6.996  1.00  0.00     0.029 A 
ATOM     47  C   UNL     1       4.533  -1.188  -8.098  1.00  0.00     0.049 A 
ATOM     48  H   UNL     1       5.194   0.784  -8.009  1.00  0.00     0.167 HD
ATOM     49  C   UNL     1       6.373   5.009  -7.688  1.00  0.00     0.037 A 
ATOM     50  C   UNL     1       4.667  -1.584  -9.378  1.00  0.00     0.037 A 
ATOM     51  C   UNL     1       6.628   4.648  -9.057  1.00  0.00     0.049 A 
ATOM     52  C   UNL     1       5.197  -0.611 -10.398  1.00  0.00     0.074 A 
ATOM     53  C   UNL     1       7.184   5.415 -10.065  1.00  0.00     0.029 A 
ATOM     54  N   UNL     1       6.333   3.411  -9.612  1.00  0.00    -0.354 N 
ATOM     55  N   UNL     1       5.587   0.630 -10.233  1.00  0.00    -0.248 NA
ATOM     56  C   UNL     1       5.303  -1.093 -11.782  1.00  0.00     0.031 C 
ATOM     57  C   UNL     1       7.183   4.658 -11.241  1.00  0.00     0.029 A 
ATOM     58  C   UNL     1       6.672   3.402 -10.954  1.00  0.00     0.049 A 
ATOM     59  H   UNL     1       5.940   2.651  -9.123  1.00  0.00     0.167 HD
ATOM     60  C   UNL     1       6.010   1.068 -11.482  1.00  0.00     0.074 A 
ATOM     61  C   UNL     1       5.837  -0.044 -12.393  1.00  0.00     0.031 C 
ATOM     62  C   UNL     1       6.500   2.280 -11.841  1.00  0.00     0.037 A 
BRANCH  49  63
ATOM     63  C   UNL     1       6.694   6.406  -7.248  1.00  0.00     0.064 A 
ATOM     64  C   UNL     1       7.774   6.682  -6.396  1.00  0.00     0.173 A 
ATOM     65  C   UNL     1       5.930   7.488  -7.710  1.00  0.00     0.173 A 
ATOM     66  F   UNL     1       8.527   5.681  -5.915  1.00  0.00    -0.203 F 
ATOM     67  C   UNL     1       8.063   7.987  -6.006  1.00  0.00     0.198 A 
ATOM     68  C   UNL     1       6.237   8.794  -7.339  1.00  0.00     0.198 A 
ATOM     69  F   UNL     1       4.887   7.279  -8.528  1.00  0.00    -0.203 F 
ATOM     70  F   UNL     1       9.074   8.224  -5.158  1.00  0.00    -0.200 F 
ATOM     71  C   UNL     1       7.299   9.042  -6.482  1.00  0.00     0.200 A 
ATOM     72  F   UNL     1       5.503   9.813  -7.809  1.00  0.00    -0.200 F 
ATOM     73  F   UNL     1       7.582  10.299  -6.111  1.00  0.00    -0.200 F 
ENDBRANCH  49  63
BRANCH  50  74
ATOM     74  C   UNL     1       4.274  -2.962  -9.770  1.00  0.00     0.064 A 
ATOM     75  C   UNL     1       5.235  -3.905 -10.158  1.00  0.00     0.173 A 
ATOM     76  C   UNL     1       2.929  -3.361  -9.772  1.00  0.00     0.173 A 
ATOM     77  F   UNL     1       6.531  -3.563 -10.196  1.00  0.00    -0.203 F 
ATOM     78  C   UNL     1       4.864  -5.191 -10.547  1.00  0.00     0.198 A 
ATOM     79  C   UNL     1       2.562  -4.655 -10.135  1.00  0.00     0.198 A 
ATOM     80  F   UNL     1       1.971  -2.495  -9.410  1.00  0.00    -0.203 F 
ATOM     81  F   UNL     1       5.799  -6.061 -10.954  1.00  0.00    -0.200 F 
ATOM     82  C   UNL     1       3.529  -5.567 -10.529  1.00  0.00     0.200 A 
ATOM     83  F   UNL     1       1.272  -5.016 -10.105  1.00  0.00    -0.200 F 
ATOM     84  F   UNL     1       3.174  -6.804 -10.899  1.00  0.00    -0.200 F 
ENDBRANCH  50  74
BRANCH  62  85
ATOM     85  C   UNL     1       6.920   2.458 -13.271  1.00  0.00     0.064 A 
ATOM     86  C   UNL     1       5.979   2.580 -14.303  1.00  0.00     0.173 A 
ATOM     87  C   UNL     1       8.280   2.562 -13.601  1.00  0.00     0.173 A 
ATOM     88  F   UNL     1       4.669   2.473 -14.039  1.00  0.00    -0.203 F 
ATOM     89  C   UNL     1       6.386   2.784 -15.619  1.00  0.00     0.198 A 
ATOM     90  C   UNL     1       8.681   2.793 -14.914  1.00  0.00     0.198 A 
ATOM     91  F   UNL     1       9.217   2.458 -12.648  1.00  0.00    -0.203 F 
ATOM     92  F   UNL     1       5.473   2.859 -16.597  1.00  0.00    -0.200 F 
ATOM     93  C   UNL     1       7.735   2.898 -15.922  1.00  0.00     0.200 A 
ATOM     94  F   UNL     1       9.984   2.916 -15.202  1.00  0.00    -0.200 F 
ATOM     95  F   UNL     1       8.124   3.104 -17.188  1.00  0.00    -0.200 F 
ENDBRANCH  62  85
ENDBRANCH  36  37
ENDBRANCH  29  31
ENDBRANCH  28  29
ENDBRANCH  27  28
ENDBRANCH  26  27
ENDBRANCH  25  26
ENDBRANCH   1  25
TORSDOF 18
