REMARK SMILES C[C@@H](Sc1nc(-c2ccc3c(c2)OCO3)ccc1C#N)C(=O)OCCOCCOC(=O)c1ccc(-c2c3nc(c(-c4c(F)c(F)c(F)c(F)c4F)c4ccc([nH]4)c(-c4c(F)c(F)c(F)c(F)c4F)c4nc(c(-c5c(F)c(F)c(F)c(F)c5F)c5ccc2[nH]5)C=C4)C=C3)cc1
REMARK SMILES IDX 25 1 24 2 23 3 21 4 22 5 2 6 1 7 3 8 4 9 5 10 18 11 6 12
REMARK SMILES IDX 17 13 16 14 19 15 20 16 7 17 8 18 12 19 9 20 11 21 10 22
REMARK SMILES IDX 13 23 15 24 14 25 26 26 27 27 28 28 29 29 30 30 31 31 32 32
REMARK SMILES IDX 33 33 94 34 34 35 93 36 35 37 36 38 37 39 87 40 38 41 92 42
REMARK SMILES IDX 86 43 88 44 39 45 91 46 85 47 84 48 40 50 72 51 52 52 71 53
REMARK SMILES IDX 53 54 56 55 70 56 89 57 54 58 55 59 69 61 90 62 57 63 41 64
REMARK SMILES IDX 42 65 50 66 43 67 44 68 48 69 51 70 45 71 46 72 49 73 47 74
REMARK SMILES IDX 73 75 74 76 82 77 75 78 76 79 80 80 83 81 77 82 78 83 81 84
REMARK SMILES IDX 79 85 58 86 59 87 67 88 60 89 61 90 65 91 68 92 62 93 63 94
REMARK SMILES IDX 66 95 64 96
REMARK H PARENT 88 49 56 60
REMARK Flexibility Score: inf
ROOT
ATOM      1  C   UNL     1      -3.676  -0.856  -0.333  1.00  0.00     0.202 C 
ENDROOT
BRANCH   1   2
ATOM      2  C   UNL     1      -2.912  -1.950   0.417  1.00  0.00     0.261 C 
BRANCH   2   3
ATOM      3  O   UNL     1      -1.533  -1.610   0.628  1.00  0.00    -0.462 OA
BRANCH   3   4
ATOM      4  C   UNL     1      -0.629  -2.313  -0.113  1.00  0.00     0.319 C 
ATOM      5  O   UNL     1      -0.918  -3.204  -0.904  1.00  0.00    -0.251 OA
BRANCH   4   6
ATOM      6  C   UNL     1       0.806  -1.869   0.142  1.00  0.00     0.160 C 
ATOM      7  C   UNL     1       0.956  -0.362   0.340  1.00  0.00     0.032 C 
BRANCH   6   8
ATOM      8  S   UNL     1       1.414  -2.815   1.583  1.00  0.00    -0.090 SA
BRANCH   8   9
ATOM      9  C   UNL     1       3.146  -2.893   1.167  1.00  0.00     0.115 A 
ATOM     10  N   UNL     1       3.775  -1.691   1.121  1.00  0.00    -0.240 NA
ATOM     11  C   UNL     1       3.816  -4.098   0.980  1.00  0.00     0.084 A 
ATOM     12  C   UNL     1       5.110  -1.660   0.897  1.00  0.00     0.072 A 
ATOM     13  C   UNL     1       5.199  -4.056   0.793  1.00  0.00     0.024 A 
ATOM     14  C   UNL     1       5.854  -2.827   0.760  1.00  0.00     0.030 A 
BRANCH  11  15
ATOM     15  C   UNL     1       3.142  -5.361   0.947  1.00  0.00     0.102 C 
ATOM     16  N   UNL     1       2.632  -6.399   0.887  1.00  0.00    -0.192 NA
ENDBRANCH  11  15
BRANCH  12  17
ATOM     17  C   UNL     1       5.724  -0.326   0.809  1.00  0.00     0.004 A 
ATOM     18  C   UNL     1       6.629  -0.011  -0.240  1.00  0.00     0.014 A 
ATOM     19  C   UNL     1       5.443   0.664   1.770  1.00  0.00     0.061 A 
ATOM     20  C   UNL     1       7.264   1.233  -0.315  1.00  0.00     0.051 A 
ATOM     21  C   UNL     1       6.096   1.877   1.681  1.00  0.00     0.166 A 
ATOM     22  C   UNL     1       6.986   2.151   0.670  1.00  0.00     0.165 A 
ATOM     23  O   UNL     1       5.971   2.915   2.552  1.00  0.00    -0.454 OA
ATOM     24  O   UNL     1       7.532   3.391   0.777  1.00  0.00    -0.454 OA
ATOM     25  C   UNL     1       6.928   3.847   2.005  1.00  0.00     0.468 C 
ENDBRANCH  12  17
ENDBRANCH   8   9
ENDBRANCH   6   8
ENDBRANCH   4   6
ENDBRANCH   3   4
ENDBRANCH   2   3
ENDBRANCH   1   2
BRANCH   1  26
ATOM     26  O   UNL     1      -3.268  -0.519  -1.655  1.00  0.00    -0.374 OA
BRANCH  26  27
ATOM     27  C   UNL     1      -2.041   0.180  -1.833  1.00  0.00     0.202 C 
BRANCH  27  28
ATOM     28  C   UNL     1      -1.951   1.645  -1.374  1.00  0.00     0.261 C 
BRANCH  28  29
ATOM     29  O   UNL     1      -2.204   1.831   0.029  1.00  0.00    -0.460 OA
BRANCH  29  30
ATOM     30  C   UNL     1      -3.392   2.426   0.300  1.00  0.00     0.338 C 
ATOM     31  O   UNL     1      -4.213   2.838  -0.503  1.00  0.00    -0.246 OA
BRANCH  30  32
ATOM     32  C   UNL     1      -3.695   2.358   1.741  1.00  0.00     0.060 A 
ATOM     33  C   UNL     1      -4.889   1.727   2.114  1.00  0.00     0.016 A 
ATOM     34  C   UNL     1      -2.908   3.007   2.692  1.00  0.00     0.016 A 
ATOM     35  C   UNL     1      -5.334   1.798   3.430  1.00  0.00     0.010 A 
ATOM     36  C   UNL     1      -3.358   3.078   4.016  1.00  0.00     0.010 A 
ATOM     37  C   UNL     1      -4.595   2.513   4.382  1.00  0.00    -0.014 A 
BRANCH  37  38
ATOM     38  C   UNL     1      -5.194   2.770   5.716  1.00  0.00     0.031 A 
ATOM     39  C   UNL     1      -5.718   4.144   6.041  1.00  0.00     0.074 A 
ATOM     40  C   UNL     1      -5.330   1.770   6.605  1.00  0.00     0.049 A 
ATOM     41  N   UNL     1      -6.271   4.584   7.144  1.00  0.00    -0.248 NA
ATOM     42  C   UNL     1      -5.601   5.159   4.983  1.00  0.00     0.031 C 
ATOM     43  C   UNL     1      -4.899   0.390   6.392  1.00  0.00     0.029 A 
ATOM     44  N   UNL     1      -5.870   1.763   7.867  1.00  0.00    -0.354 N 
ATOM     45  C   UNL     1      -6.568   5.922   6.911  1.00  0.00     0.074 A 
ATOM     46  C   UNL     1      -6.088   6.235   5.583  1.00  0.00     0.031 C 
ATOM     47  C   UNL     1      -5.190  -0.332   7.487  1.00  0.00     0.029 A 
ATOM     48  C   UNL     1      -5.787   0.544   8.492  1.00  0.00     0.049 A 
ATOM     49  H   UNL     1      -6.278   2.557   8.284  1.00  0.00     0.167 HD
ATOM     50  C   UNL     1      -7.200   6.803   7.724  1.00  0.00     0.037 A 
ATOM     51  C   UNL     1      -6.130   0.183   9.744  1.00  0.00     0.037 A 
ATOM     52  C   UNL     1      -7.669   6.488   9.050  1.00  0.00     0.049 A 
ATOM     53  C   UNL     1      -6.747   1.208  10.661  1.00  0.00     0.074 A 
ATOM     54  C   UNL     1      -8.319   7.310   9.954  1.00  0.00     0.029 A 
ATOM     55  N   UNL     1      -7.531   5.252   9.666  1.00  0.00    -0.354 N 
ATOM     56  N   UNL     1      -7.044   2.464  10.426  1.00  0.00    -0.248 NA
ATOM     57  C   UNL     1      -7.085   0.760  12.020  1.00  0.00     0.031 C 
ATOM     58  C   UNL     1      -8.514   6.593  11.139  1.00  0.00     0.029 A 
ATOM     59  C   UNL     1      -8.059   5.298  10.947  1.00  0.00     0.049 A 
ATOM     60  H   UNL     1      -7.118   4.458   9.253  1.00  0.00     0.167 HD
ATOM     61  C   UNL     1      -7.636   2.942  11.589  1.00  0.00     0.074 A 
ATOM     62  C   UNL     1      -7.676   1.835  12.520  1.00  0.00     0.031 C 
ATOM     63  C   UNL     1      -8.103   4.186  11.863  1.00  0.00     0.037 A 
BRANCH  50  64
ATOM     64  C   UNL     1      -7.408   8.201   7.212  1.00  0.00     0.064 A 
ATOM     65  C   UNL     1      -8.290   8.477   6.155  1.00  0.00     0.173 A 
ATOM     66  C   UNL     1      -6.751   9.286   7.814  1.00  0.00     0.173 A 
ATOM     67  F   UNL     1      -8.938   7.478   5.537  1.00  0.00    -0.203 F 
ATOM     68  C   UNL     1      -8.481   9.780   5.701  1.00  0.00     0.198 A 
ATOM     69  C   UNL     1      -6.974  10.591   7.382  1.00  0.00     0.198 A 
ATOM     70  F   UNL     1      -5.903   9.083   8.833  1.00  0.00    -0.203 F 
ATOM     71  F   UNL     1      -9.288  10.012   4.656  1.00  0.00    -0.200 F 
ATOM     72  C   UNL     1      -7.831  10.837   6.321  1.00  0.00     0.200 A 
ATOM     73  F   UNL     1      -6.359  11.612   7.995  1.00  0.00    -0.200 F 
ATOM     74  F   UNL     1      -8.026  12.091   5.891  1.00  0.00    -0.200 F 
ENDBRANCH  50  64
BRANCH  51  75
ATOM     75  C   UNL     1      -5.875  -1.204  10.220  1.00  0.00     0.064 A 
ATOM     76  C   UNL     1      -6.929  -2.054  10.585  1.00  0.00     0.173 A 
ATOM     77  C   UNL     1      -4.567  -1.692  10.367  1.00  0.00     0.173 A 
ATOM     78  F   UNL     1      -8.197  -1.630  10.485  1.00  0.00    -0.203 F 
ATOM     79  C   UNL     1      -6.684  -3.320  11.115  1.00  0.00     0.198 A 
ATOM     80  C   UNL     1      -4.325  -2.973  10.858  1.00  0.00     0.198 A 
ATOM     81  F   UNL     1      -3.521  -0.922  10.033  1.00  0.00    -0.203 F 
ATOM     82  F   UNL     1      -7.707  -4.081  11.525  1.00  0.00    -0.200 F 
ATOM     83  C   UNL     1      -5.382  -3.780  11.246  1.00  0.00     0.200 A 
ATOM     84  F   UNL     1      -3.066  -3.418  10.966  1.00  0.00    -0.200 F 
ATOM     85  F   UNL     1      -5.147  -4.994  11.760  1.00  0.00    -0.200 F 
ENDBRANCH  51  75
BRANCH  63  86
ATOM     86  C   UNL     1      -8.750   4.401  13.204  1.00  0.00     0.064 A 
ATOM     87  C   UNL     1      -8.019   4.353  14.401  1.00  0.00     0.173 A 
ATOM     88  C   UNL     1     -10.124   4.678  13.291  1.00  0.00     0.173 A 
ATOM     89  F   UNL     1      -6.705   4.082  14.380  1.00  0.00    -0.203 F 
ATOM     90  C   UNL     1      -8.646   4.526  15.633  1.00  0.00     0.198 A 
ATOM     91  C   UNL     1     -10.739   4.894  14.521  1.00  0.00     0.198 A 
ATOM     92  F   UNL     1     -10.873   4.748  12.180  1.00  0.00    -0.203 F 
ATOM     93  F   UNL     1      -7.939   4.402  16.765  1.00  0.00    -0.200 F 
ATOM     94  C   UNL     1     -10.003   4.803  15.692  1.00  0.00     0.200 A 
ATOM     95  F   UNL     1     -12.047   5.183  14.573  1.00  0.00    -0.200 F 
ATOM     96  F   UNL     1     -10.604   4.973  16.878  1.00  0.00    -0.200 F 
ENDBRANCH  63  86
ENDBRANCH  37  38
ENDBRANCH  30  32
ENDBRANCH  29  30
ENDBRANCH  28  29
ENDBRANCH  27  28
ENDBRANCH  26  27
ENDBRANCH   1  26
TORSDOF 18
