REMARK SMILES O=C(CSc1nc2c([nH]1)CCCCCC2)OCCOCCOC(=O)c1ccc(-c2c3nc(c(-c4c(F)c(F)c(F)c(F)c4F)c4ccc([nH]4)c(-c4c(F)c(F)c(F)c(F)c4F)c4nc(c(-c5c(F)c(F)c(F)c(F)c5F)c5ccc2[nH]5)C=C4)C=C3)cc1
REMARK SMILES IDX 17 1 16 2 2 3 1 4 3 5 4 6 5 7 6 8 9 9 7 10 8 11 15 13 14 14
REMARK SMILES IDX 13 15 12 16 10 18 11 19 18 21 19 22 20 23 21 24 22 25 23 26
REMARK SMILES IDX 24 27 25 28 26 29 87 30 27 31 86 32 28 33 29 34 30 35 80 36
REMARK SMILES IDX 31 37 85 38 79 39 81 40 32 41 84 42 78 43 77 44 33 46 65 47
REMARK SMILES IDX 45 48 64 49 46 50 49 51 63 52 82 53 47 54 48 55 62 57 83 58
REMARK SMILES IDX 50 59 34 60 35 61 43 62 36 63 37 64 41 65 44 66 38 67 39 68
REMARK SMILES IDX 42 69 40 70 66 71 67 72 75 73 68 74 69 75 73 76 76 77 70 78
REMARK SMILES IDX 71 79 74 80 72 81 51 82 52 83 60 84 53 85 54 86 58 87 61 88
REMARK SMILES IDX 55 89 56 90 59 91 57 92
REMARK H PARENT 9 12 81 45 49 56
REMARK Flexibility Score: 80.00
ROOT
ATOM      1  C   UNL     1       4.446  -0.810  -0.300  1.00  0.00     0.261 C 
ENDROOT
BRANCH   1   2
ATOM      2  O   UNL     1       3.026  -0.896  -0.130  1.00  0.00    -0.463 OA
BRANCH   2   3
ATOM      3  C   UNL     1       2.336  -0.421   0.936  1.00  0.00     0.316 C 
ATOM      4  O   UNL     1       1.124  -0.630   0.987  1.00  0.00    -0.251 OA
BRANCH   3   5
ATOM      5  C   UNL     1       3.034   0.419   1.987  1.00  0.00     0.200 C 
BRANCH   5   6
ATOM      6  S   UNL     1       4.223  -0.515   2.967  1.00  0.00    -0.076 SA
BRANCH   6   7
ATOM      7  C   UNL     1       3.053  -1.388   3.836  1.00  0.00     0.166 A 
ATOM      8  N   UNL     1       2.328  -0.894   4.796  1.00  0.00    -0.227 NA
ATOM      9  N   UNL     1       2.676  -2.636   3.467  1.00  0.00    -0.337 N 
ATOM     10  C   UNL     1       1.507  -1.921   5.173  1.00  0.00     0.063 A 
ATOM     11  C   UNL     1       1.720  -3.029   4.365  1.00  0.00     0.039 A 
ATOM     12  H   UNL     1       3.020  -3.156   2.706  1.00  0.00     0.168 HD
BRANCH  10  13
ATOM     13  C   UNL     1       0.694  -1.720   6.399  1.00  0.00     0.058 C 
BRANCH  13  14
ATOM     14  C   UNL     1       0.019  -2.961   6.963  1.00  0.00     0.006 C 
BRANCH  14  15
ATOM     15  C   UNL     1       0.948  -4.004   7.602  1.00  0.00     0.000 C 
BRANCH  15  16
ATOM     16  C   UNL     1       2.225  -4.428   6.870  1.00  0.00     0.000 CG0
ATOM     17  G   UNL     1       2.041  -5.172   5.538  1.00  0.00     0.000 G0
ENDBRANCH  15  16
ENDBRANCH  14  15
ENDBRANCH  13  14
ENDBRANCH  10  13
BRANCH  11  18
ATOM     18  C   UNL     1       1.260  -4.432   4.450  1.00  0.00     0.056 C 
BRANCH  18  19
ATOM     19  C   UNL     1       2.041  -5.172   5.538  1.00  0.00     0.006 CG0
ATOM     20  G   UNL     1       2.225  -4.428   6.870  1.00  0.00     0.000 G0
ENDBRANCH  18  19
ENDBRANCH  11  18
ENDBRANCH   6   7
ENDBRANCH   5   6
ENDBRANCH   3   5
ENDBRANCH   2   3
ENDBRANCH   1   2
BRANCH   1  21
ATOM     21  C   UNL     1       4.953   0.494  -0.906  1.00  0.00     0.202 C 
BRANCH  21  22
ATOM     22  O   UNL     1       4.500   1.733  -0.368  1.00  0.00    -0.374 OA
BRANCH  22  23
ATOM     23  C   UNL     1       3.184   2.207  -0.673  1.00  0.00     0.202 C 
BRANCH  23  24
ATOM     24  C   UNL     1       2.985   2.898  -2.001  1.00  0.00     0.261 C 
BRANCH  24  25
ATOM     25  O   UNL     1       3.154   1.950  -3.031  1.00  0.00    -0.460 OA
BRANCH  25  26
ATOM     26  C   UNL     1       4.385   1.926  -3.580  1.00  0.00     0.338 C 
ATOM     27  O   UNL     1       5.375   2.539  -3.240  1.00  0.00    -0.246 OA
BRANCH  26  28
ATOM     28  C   UNL     1       4.292   1.073  -4.765  1.00  0.00     0.060 A 
ATOM     29  C   UNL     1       5.437   1.017  -5.556  1.00  0.00     0.016 A 
ATOM     30  C   UNL     1       3.017   0.723  -5.234  1.00  0.00     0.016 A 
ATOM     31  C   UNL     1       5.255   0.921  -6.910  1.00  0.00     0.010 A 
ATOM     32  C   UNL     1       2.832   0.671  -6.582  1.00  0.00     0.010 A 
ATOM     33  C   UNL     1       3.942   0.877  -7.392  1.00  0.00    -0.014 A 
BRANCH  33  34
ATOM     34  C   UNL     1       3.731   0.933  -8.812  1.00  0.00     0.031 A 
ATOM     35  C   UNL     1       4.024  -0.369  -9.437  1.00  0.00     0.074 A 
ATOM     36  C   UNL     1       3.212   2.023  -9.402  1.00  0.00     0.049 A 
ATOM     37  N   UNL     1       5.024  -0.662 -10.197  1.00  0.00    -0.248 NA
ATOM     38  C   UNL     1       3.260  -1.539  -8.964  1.00  0.00     0.031 C 
ATOM     39  C   UNL     1       2.657   3.229  -8.781  1.00  0.00     0.029 A 
ATOM     40  N   UNL     1       2.987   2.230 -10.724  1.00  0.00    -0.354 N 
ATOM     41  C   UNL     1       4.870  -2.012 -10.482  1.00  0.00     0.074 A 
ATOM     42  C   UNL     1       3.948  -2.538  -9.515  1.00  0.00     0.031 C 
ATOM     43  C   UNL     1       1.964   3.931  -9.709  1.00  0.00     0.029 A 
ATOM     44  C   UNL     1       2.138   3.296 -11.002  1.00  0.00     0.049 A 
ATOM     45  H   UNL     1       3.392   1.672 -11.428  1.00  0.00     0.167 HD
ATOM     46  C   UNL     1       5.255  -2.504 -11.687  1.00  0.00     0.037 A 
ATOM     47  C   UNL     1       1.571   3.534 -12.213  1.00  0.00     0.037 A 
ATOM     48  C   UNL     1       6.198  -1.622 -12.328  1.00  0.00     0.049 A 
ATOM     49  C   UNL     1       2.369   2.779 -13.221  1.00  0.00     0.074 A 
ATOM     50  C   UNL     1       7.452  -1.151 -11.987  1.00  0.00     0.029 A 
ATOM     51  N   UNL     1       5.720  -0.758 -13.283  1.00  0.00    -0.354 N 
ATOM     52  N   UNL     1       3.606   3.070 -13.524  1.00  0.00    -0.248 NA
ATOM     53  C   UNL     1       1.964   1.408 -13.503  1.00  0.00     0.031 C 
ATOM     54  C   UNL     1       7.462   0.214 -12.399  1.00  0.00     0.029 A 
ATOM     55  C   UNL     1       6.253   0.483 -13.041  1.00  0.00     0.049 A 
ATOM     56  H   UNL     1       5.102  -0.990 -14.014  1.00  0.00     0.167 HD
ATOM     57  C   UNL     1       4.245   1.841 -13.625  1.00  0.00     0.074 A 
ATOM     58  C   UNL     1       3.170   0.852 -13.658  1.00  0.00     0.031 C 
ATOM     59  C   UNL     1       5.581   1.721 -13.366  1.00  0.00     0.037 A 
BRANCH  46  60
ATOM     60  C   UNL     1       4.466  -3.551 -12.427  1.00  0.00     0.064 A 
ATOM     61  C   UNL     1       5.022  -4.135 -13.577  1.00  0.00     0.173 A 
ATOM     62  C   UNL     1       3.090  -3.810 -12.216  1.00  0.00     0.173 A 
ATOM     63  F   UNL     1       6.308  -3.924 -13.893  1.00  0.00    -0.203 F 
ATOM     64  C   UNL     1       4.247  -4.876 -14.473  1.00  0.00     0.198 A 
ATOM     65  C   UNL     1       2.336  -4.600 -13.078  1.00  0.00     0.198 A 
ATOM     66  F   UNL     1       2.386  -3.223 -11.242  1.00  0.00    -0.203 F 
ATOM     67  F   UNL     1       4.791  -5.312 -15.617  1.00  0.00    -0.200 F 
ATOM     68  C   UNL     1       2.906  -5.109 -14.223  1.00  0.00     0.200 A 
ATOM     69  F   UNL     1       1.034  -4.790 -12.825  1.00  0.00    -0.200 F 
ATOM     70  F   UNL     1       2.152  -5.775 -15.105  1.00  0.00    -0.200 F 
ENDBRANCH  46  60
BRANCH  47  71
ATOM     71  C   UNL     1       0.205   4.033 -12.502  1.00  0.00     0.064 A 
ATOM     72  C   UNL     1      -0.145   4.482 -13.787  1.00  0.00     0.173 A 
ATOM     73  C   UNL     1      -0.861   3.810 -11.608  1.00  0.00     0.173 A 
ATOM     74  F   UNL     1       0.804   4.670 -14.715  1.00  0.00    -0.203 F 
ATOM     75  C   UNL     1      -1.480   4.673 -14.161  1.00  0.00     0.198 A 
ATOM     76  C   UNL     1      -2.192   4.006 -11.981  1.00  0.00     0.198 A 
ATOM     77  F   UNL     1      -0.641   3.303 -10.387  1.00  0.00    -0.203 F 
ATOM     78  F   UNL     1      -1.778   5.043 -15.415  1.00  0.00    -0.200 F 
ATOM     79  C   UNL     1      -2.503   4.425 -13.261  1.00  0.00     0.200 A 
ATOM     80  F   UNL     1      -3.174   3.722 -11.113  1.00  0.00    -0.200 F 
ATOM     81  F   UNL     1      -3.784   4.546 -13.637  1.00  0.00    -0.200 F 
ENDBRANCH  47  71
BRANCH  59  82
ATOM     82  C   UNL     1       6.376   2.990 -13.203  1.00  0.00     0.064 A 
ATOM     83  C   UNL     1       6.167   3.930 -12.177  1.00  0.00     0.173 A 
ATOM     84  C   UNL     1       7.483   3.190 -14.037  1.00  0.00     0.173 A 
ATOM     85  F   UNL     1       5.193   3.759 -11.274  1.00  0.00    -0.203 F 
ATOM     86  C   UNL     1       7.003   5.037 -12.025  1.00  0.00     0.198 A 
ATOM     87  C   UNL     1       8.338   4.274 -13.860  1.00  0.00     0.198 A 
ATOM     88  F   UNL     1       7.766   2.298 -14.999  1.00  0.00    -0.203 F 
ATOM     89  F   UNL     1       6.775   5.924 -11.045  1.00  0.00    -0.200 F 
ATOM     90  C   UNL     1       8.092   5.203 -12.863  1.00  0.00     0.200 A 
ATOM     91  F   UNL     1       9.420   4.401 -14.641  1.00  0.00    -0.200 F 
ATOM     92  F   UNL     1       8.921   6.243 -12.693  1.00  0.00    -0.200 F 
ENDBRANCH  59  82
ENDBRANCH  33  34
ENDBRANCH  26  28
ENDBRANCH  25  26
ENDBRANCH  24  25
ENDBRANCH  23  24
ENDBRANCH  22  23
ENDBRANCH  21  22
ENDBRANCH   1  21
TORSDOF 16
