REMARK SMILES CCCCCNC(=O)Oc1cccc(-c2ccc([C@@H](C)C(=O)OCCOCCOC(=O)c3ccc(-c4c5nc(c(-c6c(F)c(F)c(F)c(F)c6F)c6ccc([nH]6)c(-c6c(F)c(F)c(F)c(F)c6F)c6nc(c(-c7c(F)c(F)c(F)c(F)c7F)c7ccc4[nH]7)C=C6)C=C5)cc3)cc2F)c1
REMARK SMILES IDX 23 1 21 2 22 3 19 4 20 5 18 6 15 7 16 8 96 9 17 10 95 11
REMARK SMILES IDX 97 12 14 13 10 14 11 15 98 16 12 17 13 18 9 19 7 20 6 21
REMARK SMILES IDX 8 23 5 24 4 25 3 26 2 27 1 28 24 29 25 30 26 31 27 32 28 33
REMARK SMILES IDX 29 34 30 35 31 36 32 37 33 38 94 39 34 40 93 41 35 42 36 43
REMARK SMILES IDX 37 44 87 45 38 46 92 47 86 48 88 49 39 50 91 51 85 52 84 53
REMARK SMILES IDX 40 55 72 56 52 57 71 58 53 59 56 60 70 61 89 62 54 63 55 64
REMARK SMILES IDX 69 66 90 67 57 68 41 69 42 70 50 71 43 72 44 73 48 74 51 75
REMARK SMILES IDX 45 76 46 77 49 78 47 79 73 80 74 81 82 82 75 83 76 84 80 85
REMARK SMILES IDX 83 86 77 87 78 88 81 89 79 90 58 91 59 92 67 93 60 94 61 95
REMARK SMILES IDX 65 96 68 97 62 98 63 99 66 100 64 101
REMARK H PARENT 6 22 88 54 56 65
REMARK Flexibility Score: inf
ROOT
ATOM      1  O   UNL     1      -3.805  13.295   6.154  1.00  0.00    -0.463 OA
ENDROOT
BRANCH   1   2
ATOM      2  C   UNL     1      -2.886  14.090   5.547  1.00  0.00     0.313 C 
ATOM      3  O   UNL     1      -2.227  14.951   6.123  1.00  0.00    -0.252 OA
BRANCH   2   4
ATOM      4  C   UNL     1      -2.761  13.859   4.050  1.00  0.00     0.126 C 
ATOM      5  C   UNL     1      -3.561  14.931   3.313  1.00  0.00     0.025 C 
BRANCH   4   6
ATOM      6  C   UNL     1      -3.054  12.464   3.504  1.00  0.00    -0.031 A 
ATOM      7  C   UNL     1      -3.581   9.991   2.167  1.00  0.00     0.018 A 
ATOM      8  C   UNL     1      -4.593  10.684   2.855  1.00  0.00     0.012 A 
ATOM      9  C   UNL     1      -2.292  10.533   2.225  1.00  0.00     0.131 A 
ATOM     10  C   UNL     1      -4.337  11.900   3.510  1.00  0.00     0.005 A 
ATOM     11  C   UNL     1      -2.027  11.741   2.878  1.00  0.00     0.044 A 
ATOM     12  F   UNL     1      -1.271   9.929   1.596  1.00  0.00    -0.206 F 
BRANCH   7  13
ATOM     13  C   UNL     1      -3.888   8.801   1.346  1.00  0.00    -0.012 A 
ATOM     14  C   UNL     1      -3.409   6.543   0.582  1.00  0.00     0.133 A 
ATOM     15  C   UNL     1      -4.437   6.607  -0.356  1.00  0.00     0.047 A 
ATOM     16  C   UNL     1      -3.122   7.625   1.420  1.00  0.00     0.056 A 
ATOM     17  C   UNL     1      -5.209   7.760  -0.439  1.00  0.00     0.004 A 
ATOM     18  C   UNL     1      -4.936   8.843   0.404  1.00  0.00     0.009 A 
BRANCH  14  19
ATOM     19  O   UNL     1      -2.601   5.394   0.548  1.00  0.00    -0.410 OA
BRANCH  19  20
ATOM     20  C   UNL     1      -2.429   4.681   1.722  1.00  0.00     0.412 C 
ATOM     21  N   UNL     1      -1.651   3.567   1.571  1.00  0.00    -0.321 N 
ATOM     22  H   UNL     1      -1.473   3.041   2.384  1.00  0.00     0.167 HD
ATOM     23  O   UNL     1      -2.916   4.964   2.816  1.00  0.00    -0.224 OA
BRANCH  21  24
ATOM     24  C   UNL     1      -1.058   3.078   0.340  1.00  0.00     0.119 C 
BRANCH  24  25
ATOM     25  C   UNL     1       0.468   3.024   0.412  1.00  0.00     0.021 C 
BRANCH  25  26
ATOM     26  C   UNL     1       1.037   2.059   1.460  1.00  0.00     0.002 C 
BRANCH  26  27
ATOM     27  C   UNL     1       0.616   0.594   1.314  1.00  0.00    -0.003 C 
ATOM     28  C   UNL     1       1.046  -0.035  -0.003  1.00  0.00     0.004 C 
ENDBRANCH  26  27
ENDBRANCH  25  26
ENDBRANCH  24  25
ENDBRANCH  21  24
ENDBRANCH  19  20
ENDBRANCH  14  19
ENDBRANCH   7  13
ENDBRANCH   4   6
ENDBRANCH   2   4
ENDBRANCH   1   2
BRANCH   1  29
ATOM     29  C   UNL     1      -3.858  13.383   7.589  1.00  0.00     0.261 C 
BRANCH  29  30
ATOM     30  C   UNL     1      -3.494  12.046   8.238  1.00  0.00     0.202 C 
BRANCH  30  31
ATOM     31  O   UNL     1      -2.144  11.616   8.076  1.00  0.00    -0.374 OA
BRANCH  31  32
ATOM     32  C   UNL     1      -1.772  11.071   6.810  1.00  0.00     0.202 C 
BRANCH  32  33
ATOM     33  C   UNL     1      -2.225   9.635   6.520  1.00  0.00     0.261 C 
BRANCH  33  34
ATOM     34  O   UNL     1      -3.656   9.522   6.417  1.00  0.00    -0.460 OA
BRANCH  34  35
ATOM     35  C   UNL     1      -4.241   8.821   7.417  1.00  0.00     0.338 C 
ATOM     36  O   UNL     1      -3.692   8.241   8.338  1.00  0.00    -0.246 OA
BRANCH  35  37
ATOM     37  C   UNL     1      -5.706   8.999   7.370  1.00  0.00     0.060 A 
ATOM     38  C   UNL     1      -6.338   9.411   8.551  1.00  0.00     0.016 A 
ATOM     39  C   UNL     1      -6.456   8.689   6.234  1.00  0.00     0.016 A 
ATOM     40  C   UNL     1      -7.728   9.461   8.619  1.00  0.00     0.010 A 
ATOM     41  C   UNL     1      -7.854   8.733   6.306  1.00  0.00     0.010 A 
ATOM     42  C   UNL     1      -8.495   9.081   7.510  1.00  0.00    -0.014 A 
BRANCH  42  43
ATOM     43  C   UNL     1      -9.960   8.904   7.670  1.00  0.00     0.031 A 
ATOM     44  C   UNL     1     -10.509   7.519   7.878  1.00  0.00     0.074 A 
ATOM     45  C   UNL     1     -10.787   9.964   7.682  1.00  0.00     0.049 A 
ATOM     46  N   UNL     1     -11.750   7.130   8.030  1.00  0.00    -0.248 NA
ATOM     47  C   UNL     1      -9.526   6.425   7.922  1.00  0.00     0.031 C 
ATOM     48  C   UNL     1     -10.372  11.358   7.536  1.00  0.00     0.029 A 
ATOM     49  N   UNL     1     -12.151  10.030   7.821  1.00  0.00    -0.354 N 
ATOM     50  C   UNL     1     -11.697   5.751   8.183  1.00  0.00     0.074 A 
ATOM     51  C   UNL     1     -10.307   5.365   8.076  1.00  0.00     0.031 C 
ATOM     52  C   UNL     1     -11.462  12.143   7.584  1.00  0.00     0.029 A 
ATOM     53  C   UNL     1     -12.651  11.305   7.733  1.00  0.00     0.049 A 
ATOM     54  H   UNL     1     -12.716   9.238   7.969  1.00  0.00     0.167 HD
ATOM     55  C   UNL     1     -12.715   4.885   8.403  1.00  0.00     0.037 A 
ATOM     56  C   UNL     1     -13.926  11.742   7.752  1.00  0.00     0.037 A 
ATOM     57  C   UNL     1     -14.098   5.268   8.514  1.00  0.00     0.049 A 
ATOM     58  C   UNL     1     -15.047  10.750   7.928  1.00  0.00     0.074 A 
ATOM     59  C   UNL     1     -15.200   4.466   8.756  1.00  0.00     0.029 A 
ATOM     60  N   UNL     1     -14.570   6.566   8.384  1.00  0.00    -0.354 N 
ATOM     61  N   UNL     1     -14.986   9.451   8.096  1.00  0.00    -0.248 NA
ATOM     62  C   UNL     1     -16.415  11.288   7.922  1.00  0.00     0.031 C 
ATOM     63  C   UNL     1     -16.343   5.271   8.722  1.00  0.00     0.029 A 
ATOM     64  C   UNL     1     -15.950   6.582   8.512  1.00  0.00     0.049 A 
ATOM     65  H   UNL     1     -14.008   7.358   8.224  1.00  0.00     0.167 HD
ATOM     66  C   UNL     1     -16.299   9.022   8.242  1.00  0.00     0.074 A 
ATOM     67  C   UNL     1     -17.136  10.200   8.155  1.00  0.00     0.031 C 
ATOM     68  C   UNL     1     -16.769   7.764   8.431  1.00  0.00     0.037 A 
BRANCH  55  69
ATOM     69  C   UNL     1     -12.373   3.428   8.514  1.00  0.00     0.064 A 
ATOM     70  C   UNL     1     -11.712   2.909   9.637  1.00  0.00     0.173 A 
ATOM     71  C   UNL     1     -12.745   2.534   7.499  1.00  0.00     0.173 A 
ATOM     72  F   UNL     1     -11.324   3.724  10.629  1.00  0.00    -0.203 F 
ATOM     73  C   UNL     1     -11.415   1.551   9.729  1.00  0.00     0.198 A 
ATOM     74  C   UNL     1     -12.472   1.173   7.607  1.00  0.00     0.198 A 
ATOM     75  F   UNL     1     -13.385   2.978   6.407  1.00  0.00    -0.203 F 
ATOM     76  F   UNL     1     -10.745   1.083  10.791  1.00  0.00    -0.200 F 
ATOM     77  C   UNL     1     -11.801   0.684   8.717  1.00  0.00     0.200 A 
ATOM     78  F   UNL     1     -12.857   0.335   6.635  1.00  0.00    -0.200 F 
ATOM     79  F   UNL     1     -11.522  -0.624   8.811  1.00  0.00    -0.200 F 
ENDBRANCH  55  69
BRANCH  56  80
ATOM     80  C   UNL     1     -14.215  13.190   7.586  1.00  0.00     0.064 A 
ATOM     81  C   UNL     1     -14.734  13.953   8.641  1.00  0.00     0.173 A 
ATOM     82  C   UNL     1     -13.995  13.836   6.360  1.00  0.00     0.173 A 
ATOM     83  F   UNL     1     -14.986  13.374   9.824  1.00  0.00    -0.203 F 
ATOM     84  C   UNL     1     -15.038  15.302   8.471  1.00  0.00     0.198 A 
ATOM     85  C   UNL     1     -14.273  15.191   6.200  1.00  0.00     0.198 A 
ATOM     86  F   UNL     1     -13.504  13.150   5.318  1.00  0.00    -0.203 F 
ATOM     87  F   UNL     1     -15.576  15.997   9.483  1.00  0.00    -0.200 F 
ATOM     88  C   UNL     1     -14.801  15.922   7.253  1.00  0.00     0.200 A 
ATOM     89  F   UNL     1     -14.033  15.788   5.024  1.00  0.00    -0.200 F 
ATOM     90  F   UNL     1     -15.091  17.220   7.092  1.00  0.00    -0.200 F 
ENDBRANCH  56  80
BRANCH  68  91
ATOM     91  C   UNL     1     -18.253   7.598   8.593  1.00  0.00     0.064 A 
ATOM     92  C   UNL     1     -19.133   7.742   7.511  1.00  0.00     0.173 A 
ATOM     93  C   UNL     1     -18.796   7.246   9.839  1.00  0.00     0.173 A 
ATOM     94  F   UNL     1     -18.666   8.091   6.303  1.00  0.00    -0.203 F 
ATOM     95  C   UNL     1     -20.505   7.563   7.675  1.00  0.00     0.198 A 
ATOM     96  C   UNL     1     -20.163   7.039   9.993  1.00  0.00     0.198 A 
ATOM     97  F   UNL     1     -17.996   7.088  10.905  1.00  0.00    -0.203 F 
ATOM     98  F   UNL     1     -21.332   7.751   6.638  1.00  0.00    -0.200 F 
ATOM     99  C   UNL     1     -21.017   7.205   8.913  1.00  0.00     0.200 A 
ATOM    100  F   UNL     1     -20.656   6.680  11.187  1.00  0.00    -0.200 F 
ATOM    101  F   UNL     1     -22.337   7.027   9.067  1.00  0.00    -0.200 F 
ENDBRANCH  68  91
ENDBRANCH  42  43
ENDBRANCH  35  37
ENDBRANCH  34  35
ENDBRANCH  33  34
ENDBRANCH  32  33
ENDBRANCH  31  32
ENDBRANCH  30  31
ENDBRANCH  29  30
ENDBRANCH   1  29
TORSDOF 22
