REMARK SMILES [NH3+][C@@H](CNc1ccc(C(=O)OCCOCCOC(=O)c2ccc(-c3c4nc(c(-c5c(F)c(F)c(F)c(F)c5F)c5ccc([nH]5)c(-c5c(F)c(F)c(F)c(F)c5F)c5nc(c(-c6c(F)c(F)c(F)c(F)c6F)c6ccc3[nH]6)C=C5)C=C4)cc2)c(F)c1F)c1ccccc1
REMARK SMILES IDX 13 1 12 2 11 3 9 4 10 5 8 6 5 7 6 8 85 9 7 10 83 11 86 12
REMARK SMILES IDX 84 13 4 14 3 16 2 17 1 18 87 22 88 23 92 24 89 25 91 26
REMARK SMILES IDX 90 27 14 28 15 29 16 30 17 31 18 32 19 33 20 34 21 35 82 36
REMARK SMILES IDX 22 37 81 38 23 39 24 40 25 41 75 42 26 43 80 44 74 45 76 46
REMARK SMILES IDX 27 47 79 48 73 49 72 50 28 52 60 53 40 54 59 55 41 56 44 57
REMARK SMILES IDX 58 58 77 59 42 60 43 61 57 63 78 64 45 65 29 66 30 67 38 68
REMARK SMILES IDX 31 69 32 70 36 71 39 72 33 73 34 74 37 75 35 76 61 77 62 78
REMARK SMILES IDX 70 79 63 80 64 81 68 82 71 83 65 84 66 85 69 86 67 87 46 88
REMARK SMILES IDX 47 89 55 90 48 91 49 92 53 93 56 94 50 95 51 96 54 97 52 98
REMARK H PARENT 4 15 1 19 1 20 1 21 76 51 44 62
REMARK Flexibility Score: inf
ROOT
ATOM      1  C   UNL     1      -4.925  -1.379   9.125  1.00  0.00     0.202 C 
ENDROOT
BRANCH   1   2
ATOM      2  C   UNL     1      -4.020  -0.152   9.260  1.00  0.00     0.261 C 
BRANCH   2   3
ATOM      3  O   UNL     1      -3.343   0.130   8.024  1.00  0.00    -0.460 OA
BRANCH   3   4
ATOM      4  C   UNL     1      -1.997   0.013   8.065  1.00  0.00     0.341 C 
ATOM      5  O   UNL     1      -1.307  -0.206   9.050  1.00  0.00    -0.246 OA
BRANCH   4   6
ATOM      6  C   UNL     1      -1.430   0.005   6.708  1.00  0.00     0.099 A 
ATOM      7  C   UNL     1      -0.155  -0.019   4.194  1.00  0.00     0.074 A 
ATOM      8  C   UNL     1       0.208  -0.939   5.181  1.00  0.00     0.030 A 
ATOM      9  C   UNL     1      -1.188   0.893   4.492  1.00  0.00     0.182 A 
ATOM     10  C   UNL     1      -0.416  -0.922   6.432  1.00  0.00     0.021 A 
ATOM     11  C   UNL     1      -1.831   0.901   5.727  1.00  0.00     0.175 A 
ATOM     12  F   UNL     1      -1.560   1.781   3.554  1.00  0.00    -0.201 F 
ATOM     13  F   UNL     1      -2.800   1.799   5.958  1.00  0.00    -0.203 F 
BRANCH   7  14
ATOM     14  N   UNL     1       0.470   0.033   2.954  1.00  0.00    -0.376 N 
ATOM     15  H   UNL     1       0.628   0.911   2.538  1.00  0.00     0.160 HD
BRANCH  14  16
ATOM     16  C   UNL     1       0.901  -1.174   2.245  1.00  0.00     0.183 C 
BRANCH  16  17
ATOM     17  C   UNL     1       0.417  -1.171   0.757  1.00  0.00     0.231 C 
BRANCH  17  18
ATOM     18  N   UNL     1       0.991  -0.060  -0.025  1.00  0.00    -0.350 N 
ATOM     19  H   UNL     1       2.007  -0.081   0.051  1.00  0.00     0.345 HD
ATOM     20  H   UNL     1       0.640   0.827   0.336  1.00  0.00     0.345 HD
ATOM     21  H   UNL     1       0.721  -0.159  -1.004  1.00  0.00     0.345 HD
ENDBRANCH  17  18
BRANCH  17  22
ATOM     22  C   UNL     1      -1.107  -1.217   0.699  1.00  0.00     0.011 A 
ATOM     23  C   UNL     1      -1.899  -0.056   0.678  1.00  0.00     0.010 A 
ATOM     24  C   UNL     1      -1.757  -2.461   0.776  1.00  0.00     0.010 A 
ATOM     25  C   UNL     1      -3.291  -0.135   0.759  1.00  0.00     0.001 A 
ATOM     26  C   UNL     1      -3.150  -2.539   0.848  1.00  0.00     0.001 A 
ATOM     27  C   UNL     1      -3.915  -1.376   0.848  1.00  0.00     0.000 A 
ENDBRANCH  17  22
ENDBRANCH  16  17
ENDBRANCH  14  16
ENDBRANCH   7  14
ENDBRANCH   4   6
ENDBRANCH   3   4
ENDBRANCH   2   3
ENDBRANCH   1   2
BRANCH   1  28
ATOM     28  O   UNL     1      -4.259  -2.611   8.847  1.00  0.00    -0.374 OA
BRANCH  28  29
ATOM     29  C   UNL     1      -3.907  -2.862   7.485  1.00  0.00     0.202 C 
BRANCH  29  30
ATOM     30  C   UNL     1      -5.036  -3.377   6.585  1.00  0.00     0.261 C 
BRANCH  30  31
ATOM     31  O   UNL     1      -6.043  -2.373   6.363  1.00  0.00    -0.460 OA
BRANCH  31  32
ATOM     32  C   UNL     1      -7.234  -2.617   6.956  1.00  0.00     0.338 C 
ATOM     33  O   UNL     1      -7.565  -3.621   7.572  1.00  0.00    -0.246 OA
BRANCH  32  34
ATOM     34  C   UNL     1      -8.078  -1.409   6.912  1.00  0.00     0.060 A 
ATOM     35  C   UNL     1      -8.660  -0.982   8.112  1.00  0.00     0.016 A 
ATOM     36  C   UNL     1      -8.353  -0.744   5.714  1.00  0.00     0.016 A 
ATOM     37  C   UNL     1      -9.560   0.080   8.113  1.00  0.00     0.010 A 
ATOM     38  C   UNL     1      -9.264   0.318   5.715  1.00  0.00     0.010 A 
ATOM     39  C   UNL     1      -9.897   0.712   6.908  1.00  0.00    -0.014 A 
BRANCH  39  40
ATOM     40  C   UNL     1     -11.011   1.690   6.881  1.00  0.00     0.031 A 
ATOM     41  C   UNL     1     -12.373   1.234   6.439  1.00  0.00     0.074 A 
ATOM     42  C   UNL     1     -10.821   2.957   7.288  1.00  0.00     0.049 A 
ATOM     43  N   UNL     1     -13.480   1.922   6.319  1.00  0.00    -0.248 NA
ATOM     44  C   UNL     1     -12.507  -0.189   6.092  1.00  0.00     0.031 C 
ATOM     45  C   UNL     1      -9.562   3.500   7.791  1.00  0.00     0.029 A 
ATOM     46  N   UNL     1     -11.694   4.015   7.346  1.00  0.00    -0.354 N 
ATOM     47  C   UNL     1     -14.441   1.016   5.889  1.00  0.00     0.074 A 
ATOM     48  C   UNL     1     -13.780  -0.262   5.733  1.00  0.00     0.031 C 
ATOM     49  C   UNL     1      -9.745   4.792   8.114  1.00  0.00     0.029 A 
ATOM     50  C   UNL     1     -11.123   5.173   7.809  1.00  0.00     0.049 A 
ATOM     51  H   UNL     1     -12.640   3.948   7.082  1.00  0.00     0.167 HD
ATOM     52  C   UNL     1     -15.758   1.229   5.659  1.00  0.00     0.037 A 
ATOM     53  C   UNL     1     -11.650   6.405   7.955  1.00  0.00     0.037 A 
ATOM     54  C   UNL     1     -16.412   2.502   5.808  1.00  0.00     0.049 A 
ATOM     55  C   UNL     1     -13.093   6.641   7.596  1.00  0.00     0.074 A 
ATOM     56  C   UNL     1     -17.740   2.820   5.588  1.00  0.00     0.029 A 
ATOM     57  N   UNL     1     -15.782   3.670   6.213  1.00  0.00    -0.354 N 
ATOM     58  N   UNL     1     -13.993   5.782   7.182  1.00  0.00    -0.248 NA
ATOM     59  C   UNL     1     -13.593   8.018   7.720  1.00  0.00     0.031 C 
ATOM     60  C   UNL     1     -17.905   4.190   5.817  1.00  0.00     0.029 A 
ATOM     61  C   UNL     1     -16.691   4.715   6.229  1.00  0.00     0.049 A 
ATOM     62  H   UNL     1     -14.830   3.745   6.454  1.00  0.00     0.167 HD
ATOM     63  C   UNL     1     -15.167   6.506   7.019  1.00  0.00     0.074 A 
ATOM     64  C   UNL     1     -14.869   7.874   7.387  1.00  0.00     0.031 C 
ATOM     65  C   UNL     1     -16.382   6.072   6.602  1.00  0.00     0.037 A 
BRANCH  52  66
ATOM     66  C   UNL     1     -16.583   0.060   5.211  1.00  0.00     0.064 A 
ATOM     67  C   UNL     1     -17.080  -0.003   3.901  1.00  0.00     0.173 A 
ATOM     68  C   UNL     1     -16.928  -0.974   6.095  1.00  0.00     0.173 A 
ATOM     69  F   UNL     1     -16.782   0.962   3.018  1.00  0.00    -0.203 F 
ATOM     70  C   UNL     1     -17.900  -1.052   3.495  1.00  0.00     0.198 A 
ATOM     71  C   UNL     1     -17.727  -2.035   5.678  1.00  0.00     0.198 A 
ATOM     72  F   UNL     1     -16.467  -0.966   7.355  1.00  0.00    -0.203 F 
ATOM     73  F   UNL     1     -18.385  -1.077   2.245  1.00  0.00    -0.200 F 
ATOM     74  C   UNL     1     -18.220  -2.069   4.382  1.00  0.00     0.200 A 
ATOM     75  F   UNL     1     -18.016  -3.029   6.529  1.00  0.00    -0.200 F 
ATOM     76  F   UNL     1     -18.999  -3.084   3.986  1.00  0.00    -0.200 F 
ENDBRANCH  52  66
BRANCH  53  77
ATOM     77  C   UNL     1     -10.804   7.506   8.481  1.00  0.00     0.064 A 
ATOM     78  C   UNL     1      -9.750   8.042   7.726  1.00  0.00     0.173 A 
ATOM     79  C   UNL     1     -11.021   8.029   9.763  1.00  0.00     0.173 A 
ATOM     80  F   UNL     1      -9.505   7.579   6.492  1.00  0.00    -0.203 F 
ATOM     81  C   UNL     1      -8.931   9.043   8.244  1.00  0.00     0.198 A 
ATOM     82  C   UNL     1     -10.216   9.047  10.270  1.00  0.00     0.198 A 
ATOM     83  F   UNL     1     -12.034   7.567  10.511  1.00  0.00    -0.203 F 
ATOM     84  F   UNL     1      -7.910   9.515   7.515  1.00  0.00    -0.200 F 
ATOM     85  C   UNL     1      -9.165   9.546   9.515  1.00  0.00     0.200 A 
ATOM     86  F   UNL     1     -10.461   9.547  11.489  1.00  0.00    -0.200 F 
ATOM     87  F   UNL     1      -8.383  10.514  10.009  1.00  0.00    -0.200 F 
ENDBRANCH  53  77
BRANCH  65  88
ATOM     88  C   UNL     1     -17.498   7.074   6.538  1.00  0.00     0.064 A 
ATOM     89  C   UNL     1     -18.563   7.010   7.449  1.00  0.00     0.173 A 
ATOM     90  C   UNL     1     -17.557   8.040   5.524  1.00  0.00     0.173 A 
ATOM     91  F   UNL     1     -18.558   6.098   8.433  1.00  0.00    -0.203 F 
ATOM     92  C   UNL     1     -19.655   7.866   7.336  1.00  0.00     0.198 A 
ATOM     93  C   UNL     1     -18.639   8.912   5.430  1.00  0.00     0.198 A 
ATOM     94  F   UNL     1     -16.558   8.149   4.636  1.00  0.00    -0.203 F 
ATOM     95  F   UNL     1     -20.678   7.762   8.196  1.00  0.00    -0.200 F 
ATOM     96  C   UNL     1     -19.691   8.817   6.329  1.00  0.00     0.200 A 
ATOM     97  F   UNL     1     -18.663   9.846   4.468  1.00  0.00    -0.200 F 
ATOM     98  F   UNL     1     -20.741   9.645   6.224  1.00  0.00    -0.200 F 
ENDBRANCH  65  88
ENDBRANCH  39  40
ENDBRANCH  32  34
ENDBRANCH  31  32
ENDBRANCH  30  31
ENDBRANCH  29  30
ENDBRANCH  28  29
ENDBRANCH   1  28
TORSDOF 19
