REMARK SMILES O=C(OCCOCCOC(=O)[C@@H](Cc1ccccc1)NC(=O)c1ccccc1[N+](=O)[O-])c1ccc(-c2c3nc(c(-c4c(F)c(F)c(F)c(F)c4F)c4ccc([nH]4)c(-c4c(F)c(F)c(F)c(F)c4F)c4nc(c(-c5c(F)c(F)c(F)c(F)c5F)c5ccc2[nH]5)C=C4)C=C3)cc1
REMARK SMILES IDX 7 1 6 2 5 3 4 4 3 5 2 6 1 7 32 8 33 9 94 10 34 11 93 12
REMARK SMILES IDX 35 13 36 14 37 15 87 16 38 17 92 18 86 19 88 20 39 21 91 22
REMARK SMILES IDX 85 23 84 24 40 26 72 27 52 28 71 29 53 30 56 31 70 32 89 33
REMARK SMILES IDX 54 34 55 35 69 37 90 38 57 39 41 40 42 41 50 42 43 43 44 44
REMARK SMILES IDX 48 45 51 46 45 47 46 48 49 49 47 50 73 51 74 52 82 53 75 54
REMARK SMILES IDX 76 55 80 56 83 57 77 58 78 59 81 60 79 61 58 62 59 63 67 64
REMARK SMILES IDX 60 65 61 66 65 67 68 68 62 69 63 70 66 71 64 72 8 73 9 74
REMARK SMILES IDX 10 75 11 76 12 77 13 78 14 79 15 80 19 81 16 82 18 83 17 84
REMARK SMILES IDX 20 85 21 86 22 88 23 89 24 90 28 91 25 92 27 93 26 94 29 95
REMARK SMILES IDX 30 96 31 97
REMARK H PARENT 88 25 56 36 20 87
REMARK Flexibility Score: inf
ROOT
ATOM      1  C   UNL     1       2.814   0.729   2.017  1.00  0.00     0.202 C 
ENDROOT
BRANCH   1   2
ATOM      2  O   UNL     1       4.184   0.621   1.603  1.00  0.00    -0.374 OA
BRANCH   2   3
ATOM      3  C   UNL     1       4.538   1.289   0.389  1.00  0.00     0.202 C 
BRANCH   3   4
ATOM      4  C   UNL     1       4.230   0.576  -0.942  1.00  0.00     0.261 C 
BRANCH   4   5
ATOM      5  O   UNL     1       2.840   0.214  -1.053  1.00  0.00    -0.460 OA
BRANCH   5   6
ATOM      6  C   UNL     1       2.252  -0.985  -0.828  1.00  0.00     0.338 C 
ATOM      7  O   UNL     1       1.057  -1.117  -1.093  1.00  0.00    -0.246 OA
BRANCH   6   8
ATOM      8  C   UNL     1       2.974  -2.153  -0.242  1.00  0.00     0.060 A 
ATOM      9  C   UNL     1       4.190  -2.061   0.426  1.00  0.00     0.016 A 
ATOM     10  C   UNL     1       2.361  -3.417  -0.307  1.00  0.00     0.016 A 
ATOM     11  C   UNL     1       4.810  -3.156   0.978  1.00  0.00     0.010 A 
ATOM     12  C   UNL     1       2.965  -4.540   0.274  1.00  0.00     0.010 A 
ATOM     13  C   UNL     1       4.198  -4.398   0.913  1.00  0.00    -0.014 A 
BRANCH  13  14
ATOM     14  C   UNL     1       5.004  -5.499   1.447  1.00  0.00     0.031 A 
ATOM     15  C   UNL     1       5.842  -6.274   0.484  1.00  0.00     0.074 A 
ATOM     16  C   UNL     1       5.198  -5.550   2.777  1.00  0.00     0.049 A 
ATOM     17  N   UNL     1       6.711  -7.216   0.720  1.00  0.00    -0.248 NA
ATOM     18  C   UNL     1       5.716  -5.908  -0.939  1.00  0.00     0.031 C 
ATOM     19  C   UNL     1       4.559  -4.657   3.752  1.00  0.00     0.029 A 
ATOM     20  N   UNL     1       6.042  -6.315   3.532  1.00  0.00    -0.354 N 
ATOM     21  C   UNL     1       7.214  -7.574  -0.521  1.00  0.00     0.074 A 
ATOM     22  C   UNL     1       6.575  -6.738  -1.510  1.00  0.00     0.031 C 
ATOM     23  C   UNL     1       5.071  -4.897   4.968  1.00  0.00     0.029 A 
ATOM     24  C   UNL     1       6.004  -6.012   4.871  1.00  0.00     0.049 A 
ATOM     25  H   UNL     1       6.621  -7.015   3.152  1.00  0.00     0.167 HD
ATOM     26  C   UNL     1       8.118  -8.540  -0.794  1.00  0.00     0.037 A 
ATOM     27  C   UNL     1       6.633  -6.609   5.899  1.00  0.00     0.037 A 
ATOM     28  C   UNL     1       8.717  -9.354   0.227  1.00  0.00     0.049 A 
ATOM     29  C   UNL     1       7.538  -7.764   5.568  1.00  0.00     0.074 A 
ATOM     30  C   UNL     1       9.531 -10.461   0.095  1.00  0.00     0.029 A 
ATOM     31  N   UNL     1       8.558  -9.127   1.590  1.00  0.00    -0.354 N 
ATOM     32  N   UNL     1       7.905  -8.212   4.389  1.00  0.00    -0.248 NA
ATOM     33  C   UNL     1       8.090  -8.518   6.698  1.00  0.00     0.031 C 
ATOM     34  C   UNL     1       9.835 -10.925   1.381  1.00  0.00     0.029 A 
ATOM     35  C   UNL     1       9.248 -10.081   2.313  1.00  0.00     0.049 A 
ATOM     36  H   UNL     1       8.030  -8.394   1.982  1.00  0.00     0.167 HD
ATOM     37  C   UNL     1       8.723  -9.303   4.631  1.00  0.00     0.074 A 
ATOM     38  C   UNL     1       8.831  -9.423   6.074  1.00  0.00     0.031 C 
ATOM     39  C   UNL     1       9.317 -10.148   3.751  1.00  0.00     0.037 A 
BRANCH  26  40
ATOM     40  C   UNL     1       8.404  -8.815  -2.237  1.00  0.00     0.064 A 
ATOM     41  C   UNL     1       9.194  -7.960  -3.018  1.00  0.00     0.173 A 
ATOM     42  C   UNL     1       7.827  -9.931  -2.863  1.00  0.00     0.173 A 
ATOM     43  F   UNL     1       9.733  -6.857  -2.476  1.00  0.00    -0.203 F 
ATOM     44  C   UNL     1       9.381  -8.201  -4.378  1.00  0.00     0.198 A 
ATOM     45  C   UNL     1       8.032 -10.180  -4.217  1.00  0.00     0.198 A 
ATOM     46  F   UNL     1       7.045 -10.768  -2.164  1.00  0.00    -0.203 F 
ATOM     47  F   UNL     1      10.096  -7.343  -5.118  1.00  0.00    -0.200 F 
ATOM     48  C   UNL     1       8.803  -9.312  -4.975  1.00  0.00     0.200 A 
ATOM     49  F   UNL     1       7.467 -11.251  -4.793  1.00  0.00    -0.200 F 
ATOM     50  F   UNL     1       8.974  -9.537  -6.285  1.00  0.00    -0.200 F 
ENDBRANCH  26  40
BRANCH  27  51
ATOM     51  C   UNL     1       6.356  -6.197   7.302  1.00  0.00     0.064 A 
ATOM     52  C   UNL     1       7.366  -5.708   8.141  1.00  0.00     0.173 A 
ATOM     53  C   UNL     1       5.065  -6.312   7.846  1.00  0.00     0.173 A 
ATOM     54  F   UNL     1       8.623  -5.598   7.684  1.00  0.00    -0.203 F 
ATOM     55  C   UNL     1       7.101  -5.365   9.468  1.00  0.00     0.198 A 
ATOM     56  C   UNL     1       4.793  -5.936   9.160  1.00  0.00     0.198 A 
ATOM     57  F   UNL     1       4.058  -6.783   7.096  1.00  0.00    -0.203 F 
ATOM     58  F   UNL     1       8.096  -4.949  10.262  1.00  0.00    -0.200 F 
ATOM     59  C   UNL     1       5.814  -5.474   9.974  1.00  0.00     0.200 A 
ATOM     60  F   UNL     1       3.544  -6.030   9.636  1.00  0.00    -0.200 F 
ATOM     61  F   UNL     1       5.559  -5.144  11.247  1.00  0.00    -0.200 F 
ENDBRANCH  27  51
BRANCH  39  62
ATOM     62  C   UNL     1      10.131 -11.254   4.342  1.00  0.00     0.064 A 
ATOM     63  C   UNL     1       9.521 -12.365   4.941  1.00  0.00     0.173 A 
ATOM     64  C   UNL     1      11.530 -11.217   4.276  1.00  0.00     0.173 A 
ATOM     65  F   UNL     1       8.184 -12.430   5.040  1.00  0.00    -0.203 F 
ATOM     66  C   UNL     1      10.288 -13.393   5.477  1.00  0.00     0.198 A 
ATOM     67  C   UNL     1      12.293 -12.259   4.789  1.00  0.00     0.198 A 
ATOM     68  F   UNL     1      12.153 -10.174   3.706  1.00  0.00    -0.203 F 
ATOM     69  F   UNL     1       9.690 -14.425   6.087  1.00  0.00    -0.200 F 
ATOM     70  C   UNL     1      11.672 -13.342   5.395  1.00  0.00     0.200 A 
ATOM     71  F   UNL     1      13.629 -12.215   4.700  1.00  0.00    -0.200 F 
ATOM     72  F   UNL     1      12.410 -14.335   5.908  1.00  0.00    -0.200 F 
ENDBRANCH  39  62
ENDBRANCH  13  14
ENDBRANCH   6   8
ENDBRANCH   5   6
ENDBRANCH   4   5
ENDBRANCH   3   4
ENDBRANCH   2   3
ENDBRANCH   1   2
BRANCH   1  73
ATOM     73  C   UNL     1       2.616   1.810   3.078  1.00  0.00     0.261 C 
BRANCH  73  74
ATOM     74  O   UNL     1       2.881   3.082   2.471  1.00  0.00    -0.462 OA
BRANCH  74  75
ATOM     75  C   UNL     1       4.116   3.588   2.661  1.00  0.00     0.329 C 
ATOM     76  O   UNL     1       4.894   3.223   3.541  1.00  0.00    -0.250 OA
BRANCH  75  77
ATOM     77  C   UNL     1       4.476   4.698   1.664  1.00  0.00     0.197 C 
BRANCH  77  78
ATOM     78  C   UNL     1       3.736   4.854   0.311  1.00  0.00     0.072 C 
BRANCH  78  79
ATOM     79  C   UNL     1       2.232   4.756   0.257  1.00  0.00    -0.045 A 
ATOM     80  C   UNL     1       1.429   5.837   0.627  1.00  0.00     0.004 A 
ATOM     81  C   UNL     1       1.603   3.584  -0.200  1.00  0.00     0.004 A 
ATOM     82  C   UNL     1       0.036   5.731   0.579  1.00  0.00     0.000 A 
ATOM     83  C   UNL     1       0.214   3.464  -0.214  1.00  0.00     0.000 A 
ATOM     84  C   UNL     1      -0.570   4.541   0.177  1.00  0.00     0.000 A 
ENDBRANCH  78  79
ENDBRANCH  77  78
BRANCH  77  85
ATOM     85  N   UNL     1       4.568   5.959   2.402  1.00  0.00    -0.338 N 
ATOM     86  C   UNL     1       5.637   6.502   3.057  1.00  0.00     0.258 C 
ATOM     87  H   UNL     1       3.741   6.492   2.431  1.00  0.00     0.164 HD
ATOM     88  O   UNL     1       5.453   7.424   3.860  1.00  0.00    -0.269 OA
BRANCH  86  89
ATOM     89  C   UNL     1       7.012   5.994   2.876  1.00  0.00     0.117 A 
ATOM     90  C   UNL     1       7.715   5.622   4.032  1.00  0.00     0.021 A 
ATOM     91  C   UNL     1       7.681   5.938   1.650  1.00  0.00     0.282 A 
ATOM     92  C   UNL     1       9.040   5.179   3.949  1.00  0.00     0.001 A 
ATOM     93  C   UNL     1       9.002   5.476   1.553  1.00  0.00     0.086 A 
ATOM     94  C   UNL     1       9.681   5.101   2.712  1.00  0.00     0.007 A 
BRANCH  91  95
ATOM     95  N   UNL     1       7.031   6.358   0.428  1.00  0.00     0.063 N 
ATOM     96  O   UNL     1       6.980   5.521  -0.486  1.00  0.00    -0.258 OA
ATOM     97  O   UNL     1       6.568   7.501   0.380  1.00  0.00    -0.258 OA
ENDBRANCH  91  95
ENDBRANCH  86  89
ENDBRANCH  77  85
ENDBRANCH  75  77
ENDBRANCH  74  75
ENDBRANCH  73  74
ENDBRANCH   1  73
TORSDOF 19
