REMARK SMILES CC1(C)S[C@@H](c2cccc3c2sc2ccccc23)[NH2+][C@@H]1C(=O)OCCOCCOC(=O)c1ccc(-c2c3nc(c(-c4c(F)c(F)c(F)c(F)c4F)c4ccc([nH]4)c(-c4c(F)c(F)c(F)c(F)c4F)c4nc(c(-c5c(F)c(F)c(F)c(F)c5F)c5ccc2[nH]5)C=C4)C=C3)cc1
REMARK SMILES IDX 27 1 26 2 25 3 24 4 23 5 21 6 22 7 20 8 1 9 2 10 3 11 4 12
REMARK SMILES IDX 5 13 19 14 6 17 7 18 11 19 8 20 10 21 12 22 9 23 18 24 13 25
REMARK SMILES IDX 17 26 14 27 16 28 15 29 28 30 29 31 30 32 31 33 32 34 33 35
REMARK SMILES IDX 94 36 34 37 93 38 35 39 36 40 37 41 87 42 38 43 92 44 86 45
REMARK SMILES IDX 88 46 39 47 91 48 85 49 84 50 40 52 72 53 52 54 71 55 53 56
REMARK SMILES IDX 56 57 70 58 89 59 54 60 55 61 69 63 90 64 57 65 41 66 42 67
REMARK SMILES IDX 50 68 43 69 44 70 48 71 51 72 45 73 46 74 49 75 47 76 73 77
REMARK SMILES IDX 74 78 82 79 75 80 76 81 80 82 83 83 77 84 78 85 81 86 79 87
REMARK SMILES IDX 58 88 59 89 67 90 60 91 61 92 65 93 68 94 62 95 63 96 66 97
REMARK SMILES IDX 64 98
REMARK H PARENT 19 15 19 16 88 51 56 62
REMARK Flexibility Score: inf
ROOT
ATOM      1  C   UNL     1       1.413   2.782  -3.468  1.00  0.00     0.202 C 
ENDROOT
BRANCH   1   2
ATOM      2  O   UNL     1       1.207   1.971  -4.624  1.00  0.00    -0.374 OA
BRANCH   2   3
ATOM      3  C   UNL     1      -0.126   1.742  -5.070  1.00  0.00     0.202 C 
BRANCH   3   4
ATOM      4  C   UNL     1      -1.026   0.841  -4.217  1.00  0.00     0.261 C 
BRANCH   4   5
ATOM      5  O   UNL     1      -0.952   1.155  -2.822  1.00  0.00    -0.459 OA
BRANCH   5   6
ATOM      6  C   UNL     1      -0.391   0.184  -2.039  1.00  0.00     0.366 C 
ATOM      7  O   UNL     1      -0.103  -0.939  -2.430  1.00  0.00    -0.245 OA
BRANCH   6   8
ATOM      8  C   UNL     1      -0.201   0.706  -0.595  1.00  0.00     0.310 C 
ATOM      9  C   UNL     1       1.289   0.804   1.474  1.00  0.00     0.030 C 
ATOM     10  C   UNL     1       0.874  -0.029   0.244  1.00  0.00     0.079 C 
ATOM     11  C   UNL     1       2.147  -0.415  -0.514  1.00  0.00     0.030 C 
ATOM     12  S   UNL     1      -0.022  -1.492   0.871  1.00  0.00    -0.081 SA
ATOM     13  C   UNL     1      -1.668  -0.815   0.454  1.00  0.00     0.276 C 
ATOM     14  N   UNL     1      -1.497   0.610   0.128  1.00  0.00    -0.319 N 
ATOM     15  H   UNL     1      -1.470   1.169   0.980  1.00  0.00     0.348 HD
ATOM     16  H   UNL     1      -2.269   0.961  -0.438  1.00  0.00     0.348 HD
BRANCH  13  17
ATOM     17  C   UNL     1      -2.717  -1.001   1.531  1.00  0.00     0.038 A 
ATOM     18  C   UNL     1      -2.405  -0.800   2.895  1.00  0.00     0.012 A 
ATOM     19  C   UNL     1      -4.070  -1.331   1.227  1.00  0.00     0.046 A 
ATOM     20  C   UNL     1      -3.341  -0.991   3.898  1.00  0.00     0.001 A 
ATOM     21  C   UNL     1      -5.028  -1.550   2.221  1.00  0.00     0.001 A 
ATOM     22  S   UNL     1      -4.778  -1.508  -0.338  1.00  0.00    -0.135 S 
ATOM     23  C   UNL     1      -4.636  -1.382   3.573  1.00  0.00     0.010 A 
ATOM     24  C   UNL     1      -6.313  -1.947   1.673  1.00  0.00     0.000 A 
ATOM     25  C   UNL     1      -6.313  -1.937   0.280  1.00  0.00     0.036 A 
ATOM     26  C   UNL     1      -7.516  -2.322   2.328  1.00  0.00     0.010 A 
ATOM     27  C   UNL     1      -7.465  -2.257  -0.466  1.00  0.00     0.019 A 
ATOM     28  C   UNL     1      -8.656  -2.662   1.594  1.00  0.00     0.001 A 
ATOM     29  C   UNL     1      -8.631  -2.622   0.209  1.00  0.00     0.002 A 
ENDBRANCH  13  17
ENDBRANCH   6   8
ENDBRANCH   5   6
ENDBRANCH   4   5
ENDBRANCH   3   4
ENDBRANCH   2   3
ENDBRANCH   1   2
BRANCH   1  30
ATOM     30  C   UNL     1       0.965   4.249  -3.509  1.00  0.00     0.261 C 
BRANCH  30  31
ATOM     31  O   UNL     1      -0.454   4.405  -3.687  1.00  0.00    -0.460 OA
BRANCH  31  32
ATOM     32  C   UNL     1      -0.806   5.122  -4.781  1.00  0.00     0.338 C 
ATOM     33  O   UNL     1      -0.061   5.683  -5.574  1.00  0.00    -0.246 OA
BRANCH  32  34
ATOM     34  C   UNL     1      -2.252   5.018  -5.024  1.00  0.00     0.060 A 
ATOM     35  C   UNL     1      -2.669   4.436  -6.229  1.00  0.00     0.016 A 
ATOM     36  C   UNL     1      -3.177   5.606  -4.160  1.00  0.00     0.016 A 
ATOM     37  C   UNL     1      -4.011   4.480  -6.596  1.00  0.00     0.010 A 
ATOM     38  C   UNL     1      -4.523   5.662  -4.537  1.00  0.00     0.010 A 
ATOM     39  C   UNL     1      -4.937   5.133  -5.773  1.00  0.00    -0.014 A 
BRANCH  39  40
ATOM     40  C   UNL     1      -6.300   5.398  -6.291  1.00  0.00     0.031 A 
ATOM     41  C   UNL     1      -6.594   6.731  -6.921  1.00  0.00     0.074 A 
ATOM     42  C   UNL     1      -7.248   4.447  -6.244  1.00  0.00     0.049 A 
ATOM     43  N   UNL     1      -7.708   7.177  -7.445  1.00  0.00    -0.248 NA
ATOM     44  C   UNL     1      -5.479   7.691  -6.970  1.00  0.00     0.031 C 
ATOM     45  C   UNL     1      -7.069   3.106  -5.692  1.00  0.00     0.029 A 
ATOM     46  N   UNL     1      -8.552   4.468  -6.669  1.00  0.00    -0.354 N 
ATOM     47  C   UNL     1      -7.429   8.465  -7.883  1.00  0.00     0.074 A 
ATOM     48  C   UNL     1      -6.051   8.742  -7.540  1.00  0.00     0.031 C 
ATOM     49  C   UNL     1      -8.226   2.432  -5.805  1.00  0.00     0.029 A 
ATOM     50  C   UNL     1      -9.231   3.303  -6.413  1.00  0.00     0.049 A 
ATOM     51  H   UNL     1      -8.962   5.244  -7.114  1.00  0.00     0.167 HD
ATOM     52  C   UNL     1      -8.247   9.334  -8.524  1.00  0.00     0.037 A 
ATOM     53  C   UNL     1     -10.521   2.985  -6.633  1.00  0.00     0.037 A 
ATOM     54  C   UNL     1      -9.618   9.057  -8.863  1.00  0.00     0.049 A 
ATOM     55  C   UNL     1     -11.427   3.993  -7.291  1.00  0.00     0.074 A 
ATOM     56  C   UNL     1     -10.527   9.866  -9.522  1.00  0.00     0.029 A 
ATOM     57  N   UNL     1     -10.281   7.876  -8.559  1.00  0.00    -0.354 N 
ATOM     58  N   UNL     1     -11.150   5.198  -7.727  1.00  0.00    -0.248 NA
ATOM     59  C   UNL     1     -12.827   3.591  -7.494  1.00  0.00     0.031 C 
ATOM     60  C   UNL     1     -11.752   9.193  -9.579  1.00  0.00     0.029 A 
ATOM     61  C   UNL     1     -11.593   7.945  -8.998  1.00  0.00     0.049 A 
ATOM     62  H   UNL     1      -9.878   7.104  -8.101  1.00  0.00     0.167 HD
ATOM     63  C   UNL     1     -12.327   5.687  -8.277  1.00  0.00     0.074 A 
ATOM     64  C   UNL     1     -13.320   4.643  -8.132  1.00  0.00     0.031 C 
ATOM     65  C   UNL     1     -12.566   6.892  -8.851  1.00  0.00     0.037 A 
BRANCH  52  66
ATOM     66  C   UNL     1      -7.685  10.678  -8.879  1.00  0.00     0.064 A 
ATOM     67  C   UNL     1      -6.749  10.835  -9.912  1.00  0.00     0.173 A 
ATOM     68  C   UNL     1      -8.108  11.828  -8.195  1.00  0.00     0.173 A 
ATOM     69  F   UNL     1      -6.302   9.764 -10.586  1.00  0.00    -0.203 F 
ATOM     70  C   UNL     1      -6.240  12.091 -10.233  1.00  0.00     0.198 A 
ATOM     71  C   UNL     1      -7.616  13.085  -8.536  1.00  0.00     0.198 A 
ATOM     72  F   UNL     1      -9.003  11.732  -7.201  1.00  0.00    -0.203 F 
ATOM     73  F   UNL     1      -5.315  12.212 -11.195  1.00  0.00    -0.200 F 
ATOM     74  C   UNL     1      -6.678  13.215  -9.549  1.00  0.00     0.200 A 
ATOM     75  F   UNL     1      -8.048  14.171  -7.880  1.00  0.00    -0.200 F 
ATOM     76  F   UNL     1      -6.192  14.424  -9.862  1.00  0.00    -0.200 F 
ENDBRANCH  52  66
BRANCH  53  77
ATOM     77  C   UNL     1     -11.036   1.654  -6.222  1.00  0.00     0.064 A 
ATOM     78  C   UNL     1     -11.407   0.696  -7.175  1.00  0.00     0.173 A 
ATOM     79  C   UNL     1     -11.180   1.319  -4.868  1.00  0.00     0.173 A 
ATOM     80  F   UNL     1     -11.311   0.980  -8.482  1.00  0.00    -0.203 F 
ATOM     81  C   UNL     1     -11.918  -0.542  -6.789  1.00  0.00     0.198 A 
ATOM     82  C   UNL     1     -11.666   0.071  -4.483  1.00  0.00     0.198 A 
ATOM     83  F   UNL     1     -10.843   2.203  -3.918  1.00  0.00    -0.203 F 
ATOM     84  F   UNL     1     -12.306  -1.424  -7.720  1.00  0.00    -0.200 F 
ATOM     85  C   UNL     1     -12.041  -0.855  -5.444  1.00  0.00     0.200 A 
ATOM     86  F   UNL     1     -11.774  -0.232  -3.182  1.00  0.00    -0.200 F 
ATOM     87  F   UNL     1     -12.530  -2.047  -5.073  1.00  0.00    -0.200 F 
ENDBRANCH  53  77
BRANCH  65  88
ATOM     88  C   UNL     1     -13.944   7.134  -9.394  1.00  0.00     0.064 A 
ATOM     89  C   UNL     1     -15.041   7.348  -8.548  1.00  0.00     0.173 A 
ATOM     90  C   UNL     1     -14.161   7.188 -10.779  1.00  0.00     0.173 A 
ATOM     91  F   UNL     1     -14.888   7.292  -7.216  1.00  0.00    -0.203 F 
ATOM     92  C   UNL     1     -16.311   7.581  -9.069  1.00  0.00     0.198 A 
ATOM     93  C   UNL     1     -15.427   7.449 -11.297  1.00  0.00     0.198 A 
ATOM     94  F   UNL     1     -13.143   6.998 -11.632  1.00  0.00    -0.203 F 
ATOM     95  F   UNL     1     -17.355   7.737  -8.242  1.00  0.00    -0.200 F 
ATOM     96  C   UNL     1     -16.502   7.638 -10.442  1.00  0.00     0.200 A 
ATOM     97  F   UNL     1     -15.606   7.516 -12.623  1.00  0.00    -0.200 F 
ATOM     98  F   UNL     1     -17.724   7.867 -10.941  1.00  0.00    -0.200 F 
ENDBRANCH  65  88
ENDBRANCH  39  40
ENDBRANCH  32  34
ENDBRANCH  31  32
ENDBRANCH  30  31
ENDBRANCH   1  30
TORSDOF 15
