REMARK SMILES Cc1ccc2occ(/C=N/NC(=O)CCC(=O)Nc3ccc(C(=O)OCCOCCOC(=O)c4ccc(-c5c6nc(c(-c7c(F)c(F)c(F)c(F)c7F)c7ccc([nH]7)c(-c7c(F)c(F)c(F)c(F)c7F)c7nc(c(-c8c(F)c(F)c(F)c(F)c8F)c8ccc5[nH]8)C=C7)C=C6)cc4)cc3)c(=O)c2c1
REMARK SMILES IDX 26 1 25 2 23 3 24 4 22 5 19 6 20 7 98 8 21 9 97 10 18 11
REMARK SMILES IDX 16 12 17 13 15 15 14 16 12 17 11 18 13 20 10 21 9 22 8 23
REMARK SMILES IDX 1 24 2 25 3 26 102 27 4 28 101 29 5 30 99 31 6 32 100 33
REMARK SMILES IDX 7 34 27 35 28 36 29 37 30 38 31 39 32 40 33 41 34 42 35 43
REMARK SMILES IDX 96 44 36 45 95 46 37 47 38 48 39 49 89 50 40 51 94 52 88 53
REMARK SMILES IDX 90 54 41 55 93 56 87 57 86 58 42 60 74 61 54 62 73 63 55 64
REMARK SMILES IDX 58 65 72 66 91 67 56 68 57 69 71 71 92 72 59 73 43 74 44 75
REMARK SMILES IDX 52 76 45 77 46 78 50 79 53 80 47 81 48 82 51 83 49 84 75 85
REMARK SMILES IDX 76 86 84 87 77 88 78 89 82 90 85 91 79 92 80 93 83 94 81 95
REMARK SMILES IDX 60 96 61 97 69 98 62 99 63 100 67 101 70 102 64 103 65 104
REMARK SMILES IDX 68 105 66 106
REMARK H PARENT 18 14 11 19 90 59 58 70
REMARK Flexibility Score: inf
ROOT
ATOM      1  C   UNL     1      12.506   3.464  -1.351  1.00  0.00     0.261 C 
ENDROOT
BRANCH   1   2
ATOM      2  O   UNL     1      11.131   3.116  -1.486  1.00  0.00    -0.460 OA
BRANCH   2   3
ATOM      3  C   UNL     1      10.829   2.231  -2.471  1.00  0.00     0.338 C 
ATOM      4  O   UNL     1      11.574   1.766  -3.308  1.00  0.00    -0.246 OA
BRANCH   3   5
ATOM      5  C   UNL     1       9.411   1.845  -2.306  1.00  0.00     0.060 A 
ATOM      6  C   UNL     1       6.682   1.221  -2.090  1.00  0.00     0.041 A 
ATOM      7  C   UNL     1       7.571   0.318  -2.690  1.00  0.00     0.027 A 
ATOM      8  C   UNL     1       7.199   2.397  -1.568  1.00  0.00     0.027 A 
ATOM      9  C   UNL     1       8.931   0.637  -2.819  1.00  0.00     0.018 A 
ATOM     10  C   UNL     1       8.545   2.701  -1.641  1.00  0.00     0.018 A 
BRANCH   6  11
ATOM     11  N   UNL     1       5.321   0.888  -2.061  1.00  0.00    -0.326 N 
ATOM     12  C   UNL     1       4.199   1.572  -1.697  1.00  0.00     0.224 C 
ATOM     13  O   UNL     1       3.118   0.984  -1.834  1.00  0.00    -0.275 OA
ATOM     14  H   UNL     1       5.137  -0.029  -2.367  1.00  0.00     0.169 HD
BRANCH  12  15
ATOM     15  C   UNL     1       4.205   3.018  -1.242  1.00  0.00     0.110 C 
BRANCH  15  16
ATOM     16  C   UNL     1       4.409   3.374   0.236  1.00  0.00     0.112 C 
BRANCH  16  17
ATOM     17  C   UNL     1       5.545   2.772   1.069  1.00  0.00     0.240 C 
ATOM     18  N   UNL     1       5.575   1.438   1.396  1.00  0.00    -0.247 N 
ATOM     19  H   UNL     1       6.331   1.136   1.950  1.00  0.00     0.193 HD
ATOM     20  O   UNL     1       6.467   3.495   1.465  1.00  0.00    -0.273 OA
BRANCH  18  21
ATOM     21  N   UNL     1       4.670   0.493   1.032  1.00  0.00    -0.180 NA
ATOM     22  C   UNL     1       3.457   0.766   1.381  1.00  0.00     0.148 C 
BRANCH  22  23
ATOM     23  C   UNL     1       2.265   0.101   0.850  1.00  0.00     0.078 A 
ATOM     24  C   UNL     1      -3.839   0.874  -0.072  1.00  0.00     0.044 C 
ATOM     25  C   UNL     1      -2.532   0.140  -0.048  1.00  0.00    -0.050 A 
ATOM     26  C   UNL     1      -2.464  -1.254  -0.190  1.00  0.00     0.007 A 
ATOM     27  C   UNL     1      -1.352   0.863   0.131  1.00  0.00     0.019 A 
ATOM     28  C   UNL     1      -1.233  -1.919  -0.151  1.00  0.00     0.048 A 
ATOM     29  C   UNL     1      -0.136   0.186   0.216  1.00  0.00     0.066 A 
ATOM     30  C   UNL     1      -0.064  -1.197   0.061  1.00  0.00     0.137 A 
ATOM     31  C   UNL     1       1.074   0.921   0.579  1.00  0.00     0.201 A 
ATOM     32  O   UNL     1       1.118  -1.896   0.141  1.00  0.00    -0.463 OA
ATOM     33  O   UNL     1       1.084   2.141   0.702  1.00  0.00    -0.288 OA
ATOM     34  C   UNL     1       2.226  -1.208   0.587  1.00  0.00     0.209 A 
ENDBRANCH  22  23
ENDBRANCH  18  21
ENDBRANCH  16  17
ENDBRANCH  15  16
ENDBRANCH  12  15
ENDBRANCH   6  11
ENDBRANCH   3   5
ENDBRANCH   2   3
ENDBRANCH   1   2
BRANCH   1  35
ATOM     35  C   UNL     1      13.191   2.595  -0.295  1.00  0.00     0.202 C 
BRANCH  35  36
ATOM     36  O   UNL     1      13.156   1.188  -0.527  1.00  0.00    -0.374 OA
BRANCH  36  37
ATOM     37  C   UNL     1      12.005   0.491  -0.042  1.00  0.00     0.202 C 
BRANCH  37  38
ATOM     38  C   UNL     1      12.066   0.056   1.426  1.00  0.00     0.261 C 
BRANCH  38  39
ATOM     39  O   UNL     1      11.958   1.183   2.313  1.00  0.00    -0.460 OA
BRANCH  39  40
ATOM     40  C   UNL     1      13.131   1.602   2.842  1.00  0.00     0.338 C 
ATOM     41  O   UNL     1      14.231   1.094   2.711  1.00  0.00    -0.246 OA
BRANCH  40  42
ATOM     42  C   UNL     1      12.935   2.908   3.497  1.00  0.00     0.060 A 
ATOM     43  C   UNL     1      13.802   3.950   3.147  1.00  0.00     0.016 A 
ATOM     44  C   UNL     1      11.968   3.087   4.488  1.00  0.00     0.016 A 
ATOM     45  C   UNL     1      13.743   5.164   3.827  1.00  0.00     0.010 A 
ATOM     46  C   UNL     1      11.914   4.303   5.173  1.00  0.00     0.010 A 
ATOM     47  C   UNL     1      12.826   5.331   4.872  1.00  0.00    -0.014 A 
BRANCH  47  48
ATOM     48  C   UNL     1      12.911   6.521   5.751  1.00  0.00     0.031 A 
ATOM     49  C   UNL     1      13.524   6.373   7.115  1.00  0.00     0.074 A 
ATOM     50  C   UNL     1      12.448   7.714   5.339  1.00  0.00     0.049 A 
ATOM     51  N   UNL     1      13.613   7.244   8.088  1.00  0.00    -0.248 NA
ATOM     52  C   UNL     1      14.111   5.060   7.428  1.00  0.00     0.031 C 
ATOM     53  C   UNL     1      11.874   7.988   4.024  1.00  0.00     0.029 A 
ATOM     54  N   UNL     1      12.374   8.916   5.998  1.00  0.00    -0.354 N 
ATOM     55  C   UNL     1      14.249   6.582   9.130  1.00  0.00     0.074 A 
ATOM     56  C   UNL     1      14.497   5.228   8.684  1.00  0.00     0.031 C 
ATOM     57  C   UNL     1      11.490   9.275   3.977  1.00  0.00     0.029 A 
ATOM     58  C   UNL     1      11.751   9.900   5.272  1.00  0.00     0.049 A 
ATOM     59  H   UNL     1      12.734   9.058   6.904  1.00  0.00     0.167 HD
ATOM     60  C   UNL     1      14.600   7.065  10.345  1.00  0.00     0.037 A 
ATOM     61  C   UNL     1      11.401  11.151   5.629  1.00  0.00     0.037 A 
ATOM     62  C   UNL     1      14.350   8.415  10.778  1.00  0.00     0.049 A 
ATOM     63  C   UNL     1      11.730  11.639   7.017  1.00  0.00     0.074 A 
ATOM     64  C   UNL     1      14.684   9.011  11.982  1.00  0.00     0.029 A 
ATOM     65  N   UNL     1      13.697   9.379  10.023  1.00  0.00    -0.354 N 
ATOM     66  N   UNL     1      12.351  11.018   7.991  1.00  0.00    -0.248 NA
ATOM     67  C   UNL     1      11.309  13.006   7.356  1.00  0.00     0.031 C 
ATOM     68  C   UNL     1      14.176  10.313  11.980  1.00  0.00     0.029 A 
ATOM     69  C   UNL     1      13.590  10.555  10.748  1.00  0.00     0.049 A 
ATOM     70  H   UNL     1      13.358   9.246   9.108  1.00  0.00     0.167 HD
ATOM     71  C   UNL     1      12.429  11.927   9.039  1.00  0.00     0.074 A 
ATOM     72  C   UNL     1      11.799  13.147   8.579  1.00  0.00     0.031 C 
ATOM     73  C   UNL     1      12.975  11.767  10.269  1.00  0.00     0.037 A 
BRANCH  60  74
ATOM     74  C   UNL     1      15.265   6.122  11.307  1.00  0.00     0.064 A 
ATOM     75  C   UNL     1      16.569   5.649  11.098  1.00  0.00     0.173 A 
ATOM     76  C   UNL     1      14.603   5.721  12.477  1.00  0.00     0.173 A 
ATOM     77  F   UNL     1      17.243   5.992   9.990  1.00  0.00    -0.203 F 
ATOM     78  C   UNL     1      17.174   4.789  12.011  1.00  0.00     0.198 A 
ATOM     79  C   UNL     1      15.223   4.889  13.405  1.00  0.00     0.198 A 
ATOM     80  F   UNL     1      13.356   6.148  12.730  1.00  0.00    -0.203 F 
ATOM     81  F   UNL     1      18.402   4.311  11.767  1.00  0.00    -0.200 F 
ATOM     82  C   UNL     1      16.505   4.417  13.167  1.00  0.00     0.200 A 
ATOM     83  F   UNL     1      14.580   4.544  14.529  1.00  0.00    -0.200 F 
ATOM     84  F   UNL     1      17.093   3.599  14.051  1.00  0.00    -0.200 F 
ENDBRANCH  60  74
BRANCH  61  85
ATOM     85  C   UNL     1      10.683  12.027   4.666  1.00  0.00     0.064 A 
ATOM     86  C   UNL     1      11.285  13.187   4.157  1.00  0.00     0.173 A 
ATOM     87  C   UNL     1       9.373  11.739   4.254  1.00  0.00     0.173 A 
ATOM     88  F   UNL     1      12.527  13.519   4.538  1.00  0.00    -0.203 F 
ATOM     89  C   UNL     1      10.595  14.036   3.294  1.00  0.00     0.198 A 
ATOM     90  C   UNL     1       8.697  12.571   3.365  1.00  0.00     0.198 A 
ATOM     91  F   UNL     1       8.750  10.643   4.712  1.00  0.00    -0.203 F 
ATOM     92  F   UNL     1      11.174  15.167   2.868  1.00  0.00    -0.200 F 
ATOM     93  C   UNL     1       9.305  13.725   2.894  1.00  0.00     0.200 A 
ATOM     94  F   UNL     1       7.455  12.259   2.970  1.00  0.00    -0.200 F 
ATOM     95  F   UNL     1       8.643  14.542   2.063  1.00  0.00    -0.200 F 
ENDBRANCH  61  85
BRANCH  73  96
ATOM     96  C   UNL     1      12.972  12.954  11.192  1.00  0.00     0.064 A 
ATOM     97  C   UNL     1      11.793  13.433  11.781  1.00  0.00     0.173 A 
ATOM     98  C   UNL     1      14.179  13.585  11.534  1.00  0.00     0.173 A 
ATOM     99  F   UNL     1      10.611  12.875  11.478  1.00  0.00    -0.203 F 
ATOM    100  C   UNL     1      11.820  14.514  12.659  1.00  0.00     0.198 A 
ATOM    101  C   UNL     1      14.206  14.641  12.440  1.00  0.00     0.198 A 
ATOM    102  F   UNL     1      15.337  13.161  11.006  1.00  0.00    -0.203 F 
ATOM    103  F   UNL     1      10.675  14.986  13.173  1.00  0.00    -0.200 F 
ATOM    104  C   UNL     1      13.026  15.110  12.995  1.00  0.00     0.200 A 
ATOM    105  F   UNL     1      15.375  15.203  12.777  1.00  0.00    -0.200 F 
ATOM    106  F   UNL     1      13.051  16.141  13.851  1.00  0.00    -0.200 F 
ENDBRANCH  73  96
ENDBRANCH  47  48
ENDBRANCH  40  42
ENDBRANCH  39  40
ENDBRANCH  38  39
ENDBRANCH  37  38
ENDBRANCH  36  37
ENDBRANCH  35  36
ENDBRANCH   1  35
TORSDOF 20
