REMARK SMILES O=C(CCC(=O)OCCOCCOC(=O)c1ccc(-c2c3nc(c(-c4c(F)c(F)c(F)c(F)c4F)c4ccc([nH]4)c(-c4c(F)c(F)c(F)c(F)c4F)c4nc(c(-c5c(F)c(F)c(F)c(F)c5F)c5ccc2[nH]5)C=C4)C=C3)cc1)Nc1nncs1
REMARK SMILES IDX 9 1 8 2 7 3 5 4 6 5 4 6 3 7 2 8 1 9 79 10 80 12 81 13 84 14
REMARK SMILES IDX 82 15 83 16 10 17 11 18 12 19 13 20 14 21 15 22 16 23 17 24
REMARK SMILES IDX 78 25 18 26 77 27 19 28 20 29 21 30 71 31 22 32 76 33 70 34
REMARK SMILES IDX 72 35 23 36 75 37 69 38 68 39 24 41 56 42 36 43 55 44 37 45
REMARK SMILES IDX 40 46 54 47 73 48 38 49 39 50 53 52 74 53 41 54 25 55 26 56
REMARK SMILES IDX 34 57 27 58 28 59 32 60 35 61 29 62 30 63 33 64 31 65 57 66
REMARK SMILES IDX 58 67 66 68 59 69 60 70 64 71 67 72 61 73 62 74 65 75 63 76
REMARK SMILES IDX 42 77 43 78 51 79 44 80 45 81 49 82 52 83 46 84 47 85 50 86
REMARK SMILES IDX 48 87
REMARK H PARENT 79 11 72 40 40 51
REMARK Flexibility Score: inf
ROOT
ATOM      1  C   UNL     1       6.542   0.125   2.022  1.00  0.00     0.202 C 
ENDROOT
BRANCH   1   2
ATOM      2  C   UNL     1       5.938   1.530   1.934  1.00  0.00     0.261 C 
BRANCH   2   3
ATOM      3  O   UNL     1       4.745   1.524   1.115  1.00  0.00    -0.463 OA
BRANCH   3   4
ATOM      4  C   UNL     1       4.761   2.322   0.010  1.00  0.00     0.306 C 
ATOM      5  O   UNL     1       5.679   3.065  -0.304  1.00  0.00    -0.252 OA
BRANCH   4   6
ATOM      6  C   UNL     1       3.466   2.223  -0.768  1.00  0.00     0.132 C 
BRANCH   6   7
ATOM      7  C   UNL     1       3.013   0.803  -1.102  1.00  0.00     0.112 C 
BRANCH   7   8
ATOM      8  C   UNL     1       1.965   0.248  -0.153  1.00  0.00     0.226 C 
ATOM      9  O   UNL     1       0.869  -0.097  -0.580  1.00  0.00    -0.275 OA
ATOM     10  N   UNL     1       2.386   0.177   1.150  1.00  0.00    -0.301 N 
ATOM     11  H   UNL     1       3.290   0.495   1.376  1.00  0.00     0.172 HD
BRANCH  10  12
ATOM     12  C   UNL     1       1.593  -0.321   2.143  1.00  0.00     0.212 A 
ATOM     13  N   UNL     1       0.481  -1.008   2.081  1.00  0.00    -0.120 NA
ATOM     14  S   UNL     1       2.138   0.039   3.721  1.00  0.00    -0.083 S 
ATOM     15  N   UNL     1      -0.018  -1.289   3.340  1.00  0.00    -0.145 NA
ATOM     16  C   UNL     1       0.729  -0.765   4.287  1.00  0.00     0.204 A 
ENDBRANCH  10  12
ENDBRANCH   7   8
ENDBRANCH   6   7
ENDBRANCH   4   6
ENDBRANCH   3   4
ENDBRANCH   2   3
ENDBRANCH   1   2
BRANCH   1  17
ATOM     17  O   UNL     1       7.273  -0.306   0.875  1.00  0.00    -0.374 OA
BRANCH  17  18
ATOM     18  C   UNL     1       6.521  -0.695  -0.270  1.00  0.00     0.202 C 
BRANCH  18  19
ATOM     19  C   UNL     1       5.969  -2.127  -0.262  1.00  0.00     0.261 C 
BRANCH  19  20
ATOM     20  O   UNL     1       5.092  -2.374   0.852  1.00  0.00    -0.460 OA
BRANCH  20  21
ATOM     21  C   UNL     1       5.649  -3.111   1.843  1.00  0.00     0.338 C 
ATOM     22  O   UNL     1       6.770  -3.603   1.858  1.00  0.00    -0.246 OA
BRANCH  21  23
ATOM     23  C   UNL     1       4.782  -3.119   3.035  1.00  0.00     0.060 A 
ATOM     24  C   UNL     1       5.378  -2.809   4.265  1.00  0.00     0.016 A 
ATOM     25  C   UNL     1       3.440  -3.495   2.977  1.00  0.00     0.016 A 
ATOM     26  C   UNL     1       4.651  -2.931   5.449  1.00  0.00     0.010 A 
ATOM     27  C   UNL     1       2.712  -3.614   4.168  1.00  0.00     0.010 A 
ATOM     28  C   UNL     1       3.322  -3.370   5.415  1.00  0.00    -0.014 A 
BRANCH  28  29
ATOM     29  C   UNL     1       2.628  -3.725   6.683  1.00  0.00     0.031 A 
ATOM     30  C   UNL     1       2.412  -5.180   7.011  1.00  0.00     0.074 A 
ATOM     31  C   UNL     1       2.223  -2.781   7.554  1.00  0.00     0.049 A 
ATOM     32  N   UNL     1       1.831  -5.721   8.053  1.00  0.00    -0.248 NA
ATOM     33  C   UNL     1       2.933  -6.155   6.040  1.00  0.00     0.031 C 
ATOM     34  C   UNL     1       2.422  -1.342   7.403  1.00  0.00     0.029 A 
ATOM     35  N   UNL     1       1.536  -2.898   8.738  1.00  0.00    -0.354 N 
ATOM     36  C   UNL     1       1.938  -7.094   7.872  1.00  0.00     0.074 A 
ATOM     37  C   UNL     1       2.571  -7.305   6.588  1.00  0.00     0.031 C 
ATOM     38  C   UNL     1       1.816  -0.704   8.420  1.00  0.00     0.029 A 
ATOM     39  C   UNL     1       1.199  -1.692   9.302  1.00  0.00     0.049 A 
ATOM     40  H   UNL     1       1.308  -3.765   9.145  1.00  0.00     0.167 HD
ATOM     41  C   UNL     1       1.577  -8.093   8.713  1.00  0.00     0.037 A 
ATOM     42  C   UNL     1       0.470  -1.415  10.401  1.00  0.00     0.037 A 
ATOM     43  C   UNL     1       0.939  -7.894   9.987  1.00  0.00     0.049 A 
ATOM     44  C   UNL     1      -0.023  -2.545  11.268  1.00  0.00     0.074 A 
ATOM     45  C   UNL     1       0.546  -8.842  10.915  1.00  0.00     0.029 A 
ATOM     46  N   UNL     1       0.589  -6.657  10.507  1.00  0.00    -0.354 N 
ATOM     47  N   UNL     1       0.137  -3.837  11.116  1.00  0.00    -0.248 NA
ATOM     48  C   UNL     1      -0.767  -2.174  12.480  1.00  0.00     0.031 C 
ATOM     49  C   UNL     1      -0.086  -8.183  11.975  1.00  0.00     0.029 A 
ATOM     50  C   UNL     1      -0.034  -6.819  11.735  1.00  0.00     0.049 A 
ATOM     51  H   UNL     1       0.758  -5.791  10.069  1.00  0.00     0.167 HD
ATOM     52  C   UNL     1      -0.434  -4.427  12.237  1.00  0.00     0.074 A 
ATOM     53  C   UNL     1      -0.943  -3.352  13.061  1.00  0.00     0.031 C 
ATOM     54  C   UNL     1      -0.517  -5.742  12.560  1.00  0.00     0.037 A 
BRANCH  41  55
ATOM     55  C   UNL     1       1.874  -9.499   8.277  1.00  0.00     0.064 A 
ATOM     56  C   UNL     1       3.192  -9.982   8.211  1.00  0.00     0.173 A 
ATOM     57  C   UNL     1       0.836 -10.383   7.950  1.00  0.00     0.173 A 
ATOM     58  F   UNL     1       4.222  -9.173   8.501  1.00  0.00    -0.203 F 
ATOM     59  C   UNL     1       3.458 -11.286   7.803  1.00  0.00     0.198 A 
ATOM     60  C   UNL     1       1.105 -11.697   7.574  1.00  0.00     0.198 A 
ATOM     61  F   UNL     1      -0.441  -9.976   8.003  1.00  0.00    -0.203 F 
ATOM     62  F   UNL     1       4.726 -11.707   7.697  1.00  0.00    -0.200 F 
ATOM     63  C   UNL     1       2.415 -12.144   7.492  1.00  0.00     0.200 A 
ATOM     64  F   UNL     1       0.095 -12.530   7.287  1.00  0.00    -0.200 F 
ATOM     65  F   UNL     1       2.673 -13.401   7.106  1.00  0.00    -0.200 F 
ENDBRANCH  41  55
BRANCH  42  66
ATOM     66  C   UNL     1       0.169  -0.004  10.763  1.00  0.00     0.064 A 
ATOM     67  C   UNL     1       0.720   0.589  11.907  1.00  0.00     0.173 A 
ATOM     68  C   UNL     1      -0.717   0.765   9.993  1.00  0.00     0.173 A 
ATOM     69  F   UNL     1       1.558  -0.112  12.685  1.00  0.00    -0.203 F 
ATOM     70  C   UNL     1       0.370   1.883  12.288  1.00  0.00     0.198 A 
ATOM     71  C   UNL     1      -1.045   2.069  10.360  1.00  0.00     0.198 A 
ATOM     72  F   UNL     1      -1.264   0.249   8.883  1.00  0.00    -0.203 F 
ATOM     73  F   UNL     1       0.868   2.403  13.418  1.00  0.00    -0.200 F 
ATOM     74  C   UNL     1      -0.510   2.622  11.514  1.00  0.00     0.200 A 
ATOM     75  F   UNL     1      -1.885   2.785   9.600  1.00  0.00    -0.200 F 
ATOM     76  F   UNL     1      -0.851   3.864  11.883  1.00  0.00    -0.200 F 
ENDBRANCH  42  66
BRANCH  54  77
ATOM     77  C   UNL     1      -1.118  -6.091  13.892  1.00  0.00     0.064 A 
ATOM     78  C   UNL     1      -2.484  -5.922  14.161  1.00  0.00     0.173 A 
ATOM     79  C   UNL     1      -0.313  -6.627  14.910  1.00  0.00     0.173 A 
ATOM     80  F   UNL     1      -3.296  -5.401  13.228  1.00  0.00    -0.203 F 
ATOM     81  C   UNL     1      -3.014  -6.241  15.409  1.00  0.00     0.198 A 
ATOM     82  C   UNL     1      -0.852  -6.978  16.145  1.00  0.00     0.198 A 
ATOM     83  F   UNL     1       0.999  -6.818  14.706  1.00  0.00    -0.203 F 
ATOM     84  F   UNL     1      -4.310  -6.012  15.662  1.00  0.00    -0.200 F 
ATOM     85  C   UNL     1      -2.200  -6.774  16.397  1.00  0.00     0.200 A 
ATOM     86  F   UNL     1      -0.066  -7.508  17.092  1.00  0.00    -0.200 F 
ATOM     87  F   UNL     1      -2.712  -7.083  17.596  1.00  0.00    -0.200 F 
ENDBRANCH  54  77
ENDBRANCH  28  29
ENDBRANCH  21  23
ENDBRANCH  20  21
ENDBRANCH  19  20
ENDBRANCH  18  19
ENDBRANCH  17  18
ENDBRANCH   1  17
TORSDOF 17
