REMARK SMILES Cc1nn(Cc2ccc(C(=O)OCCOCCOC(=O)c3ccc(-c4c5nc(c(-c6c(F)c(F)c(F)c(F)c6F)c6ccc([nH]6)c(-c6c(F)c(F)c(F)c(F)c6F)c6nc(c(-c7c(F)c(F)c(F)c(F)c7F)c7ccc4[nH]7)C=C6)C=C5)cc3)o2)c(C)c1C
REMARK SMILES IDX 15 1 14 2 13 3 12 4 10 5 11 6 9 7 6 8 7 9 84 10 8 11 5 12
REMARK SMILES IDX 4 13 1 14 2 15 3 16 87 17 85 18 88 19 86 20 16 21 17 22
REMARK SMILES IDX 18 23 19 24 20 25 21 26 22 27 83 28 23 29 82 30 24 31 25 32
REMARK SMILES IDX 26 33 76 34 27 35 81 36 75 37 77 38 28 39 80 40 74 41 73 42
REMARK SMILES IDX 29 44 61 45 41 46 60 47 42 48 45 49 59 50 78 51 43 52 44 53
REMARK SMILES IDX 58 55 79 56 46 57 30 58 31 59 39 60 32 61 33 62 37 63 40 64
REMARK SMILES IDX 34 65 35 66 38 67 36 68 62 69 63 70 71 71 64 72 65 73 69 74
REMARK SMILES IDX 72 75 66 76 67 77 70 78 68 79 47 80 48 81 56 82 49 83 50 84
REMARK SMILES IDX 54 85 57 86 51 87 52 88 55 89 53 90
REMARK H PARENT 77 43 45 54
REMARK Flexibility Score: inf
ROOT
ATOM      1  O   UNL     1       4.958  -1.584  -9.677  1.00  0.00    -0.374 OA
ENDROOT
BRANCH   1   2
ATOM      2  C   UNL     1       4.495  -0.440 -10.392  1.00  0.00     0.202 C 
BRANCH   2   3
ATOM      3  C   UNL     1       2.988  -0.250 -10.602  1.00  0.00     0.261 C 
BRANCH   3   4
ATOM      4  O   UNL     1       2.247  -0.154  -9.373  1.00  0.00    -0.457 OA
BRANCH   4   5
ATOM      5  C   UNL     1       1.474  -1.250  -9.097  1.00  0.00     0.374 C 
ATOM      6  O   UNL     1       1.313  -2.197  -9.854  1.00  0.00    -0.242 OA
BRANCH   5   7
ATOM      7  C   UNL     1       1.050  -1.241  -7.715  1.00  0.00     0.211 A 
ATOM      8  C   UNL     1       0.133  -0.490  -5.857  1.00  0.00     0.126 A 
ATOM      9  C   UNL     1       0.502  -1.797  -5.612  1.00  0.00     0.048 A 
ATOM     10  O   UNL     1       0.511  -0.126  -7.126  1.00  0.00    -0.452 OA
ATOM     11  C   UNL     1       1.064  -2.285  -6.808  1.00  0.00     0.058 A 
BRANCH   8  12
ATOM     12  C   UNL     1      -0.675   0.484  -5.075  1.00  0.00     0.219 C 
BRANCH  12  13
ATOM     13  N   UNL     1      -0.068   0.856  -3.798  1.00  0.00    -0.262 N 
ATOM     14  C   UNL     1       0.811  -0.116  -0.499  1.00  0.00     0.069 C 
ATOM     15  C   UNL     1       0.513   0.599  -1.767  1.00  0.00     0.063 A 
ATOM     16  N   UNL     1       0.085  -0.081  -2.835  1.00  0.00    -0.177 NA
ATOM     17  C   UNL     1       0.608   1.991  -2.029  1.00  0.00    -0.007 A 
ATOM     18  C   UNL     1       0.213   2.127  -3.350  1.00  0.00     0.039 A 
ATOM     19  C   UNL     1       1.011   3.070  -1.092  1.00  0.00     0.048 C 
ATOM     20  C   UNL     1       0.062   3.342  -4.189  1.00  0.00     0.066 C 
ENDBRANCH  12  13
ENDBRANCH   8  12
ENDBRANCH   5   7
ENDBRANCH   4   5
ENDBRANCH   3   4
ENDBRANCH   2   3
ENDBRANCH   1   2
BRANCH   1  21
ATOM     21  C   UNL     1       4.687  -1.724  -8.288  1.00  0.00     0.202 C 
BRANCH  21  22
ATOM     22  C   UNL     1       5.362  -0.783  -7.302  1.00  0.00     0.261 C 
BRANCH  22  23
ATOM     23  O   UNL     1       5.139   0.579  -7.620  1.00  0.00    -0.460 OA
BRANCH  23  24
ATOM     24  C   UNL     1       6.181   1.170  -8.249  1.00  0.00     0.338 C 
ATOM     25  O   UNL     1       7.139   0.631  -8.768  1.00  0.00    -0.246 OA
BRANCH  24  26
ATOM     26  C   UNL     1       6.061   2.618  -8.058  1.00  0.00     0.060 A 
ATOM     27  C   UNL     1       7.125   3.386  -8.535  1.00  0.00     0.016 A 
ATOM     28  C   UNL     1       5.138   3.107  -7.123  1.00  0.00     0.016 A 
ATOM     29  C   UNL     1       7.426   4.548  -7.869  1.00  0.00     0.010 A 
ATOM     30  C   UNL     1       5.457   4.249  -6.439  1.00  0.00     0.010 A 
ATOM     31  C   UNL     1       6.648   4.894  -6.760  1.00  0.00    -0.014 A 
BRANCH  31  32
ATOM     32  C   UNL     1       7.042   6.041  -5.979  1.00  0.00     0.031 A 
ATOM     33  C   UNL     1       6.674   7.302  -6.652  1.00  0.00     0.074 A 
ATOM     34  C   UNL     1       7.562   5.915  -4.744  1.00  0.00     0.049 A 
ATOM     35  N   UNL     1       7.469   8.158  -7.198  1.00  0.00    -0.248 NA
ATOM     36  C   UNL     1       5.250   7.519  -6.962  1.00  0.00     0.031 C 
ATOM     37  C   UNL     1       7.701   4.700  -3.937  1.00  0.00     0.029 A 
ATOM     38  N   UNL     1       7.992   6.892  -3.901  1.00  0.00    -0.354 N 
ATOM     39  C   UNL     1       6.638   9.143  -7.719  1.00  0.00     0.074 A 
ATOM     40  C   UNL     1       5.322   8.573  -7.775  1.00  0.00     0.031 C 
ATOM     41  C   UNL     1       7.962   5.042  -2.654  1.00  0.00     0.029 A 
ATOM     42  C   UNL     1       8.130   6.482  -2.577  1.00  0.00     0.049 A 
ATOM     43  H   UNL     1       8.188   7.809  -4.200  1.00  0.00     0.167 HD
ATOM     44  C   UNL     1       7.042  10.441  -7.724  1.00  0.00     0.037 A 
ATOM     45  C   UNL     1       8.272   7.314  -1.512  1.00  0.00     0.037 A 
ATOM     46  C   UNL     1       8.479  10.522  -7.599  1.00  0.00     0.049 A 
ATOM     47  C   UNL     1       8.719   8.631  -2.044  1.00  0.00     0.074 A 
ATOM     48  C   UNL     1       9.550  10.064  -8.341  1.00  0.00     0.029 A 
ATOM     49  N   UNL     1       8.986  10.827  -6.360  1.00  0.00    -0.354 N 
ATOM     50  N   UNL     1       9.889   8.829  -2.586  1.00  0.00    -0.248 NA
ATOM     51  C   UNL     1       7.686   9.586  -2.420  1.00  0.00     0.031 C 
ATOM     52  C   UNL     1      10.540   9.693  -7.383  1.00  0.00     0.029 A 
ATOM     53  C   UNL     1      10.053  10.006  -6.114  1.00  0.00     0.049 A 
ATOM     54  H   UNL     1       8.641  11.520  -5.751  1.00  0.00     0.167 HD
ATOM     55  C   UNL     1       9.635   9.638  -3.685  1.00  0.00     0.074 A 
ATOM     56  C   UNL     1       8.272  10.128  -3.492  1.00  0.00     0.031 C 
ATOM     57  C   UNL     1      10.439   9.587  -4.788  1.00  0.00     0.037 A 
BRANCH  44  58
ATOM     58  C   UNL     1       6.136  11.599  -7.353  1.00  0.00     0.064 A 
ATOM     59  C   UNL     1       6.686  12.897  -7.375  1.00  0.00     0.173 A 
ATOM     60  C   UNL     1       4.901  11.482  -6.676  1.00  0.00     0.173 A 
ATOM     61  F   UNL     1       7.848  13.136  -8.002  1.00  0.00    -0.203 F 
ATOM     62  C   UNL     1       6.117  13.952  -6.660  1.00  0.00     0.198 A 
ATOM     63  C   UNL     1       4.311  12.550  -6.004  1.00  0.00     0.198 A 
ATOM     64  F   UNL     1       4.250  10.324  -6.533  1.00  0.00    -0.203 F 
ATOM     65  F   UNL     1       6.760  15.125  -6.586  1.00  0.00    -0.200 F 
ATOM     66  C   UNL     1       4.939  13.773  -5.960  1.00  0.00     0.200 A 
ATOM     67  F   UNL     1       3.172  12.349  -5.326  1.00  0.00    -0.200 F 
ATOM     68  F   UNL     1       4.433  14.759  -5.209  1.00  0.00    -0.200 F 
ENDBRANCH  44  58
BRANCH  45  69
ATOM     69  C   UNL     1       7.698   7.169  -0.150  1.00  0.00     0.064 A 
ATOM     70  C   UNL     1       8.142   7.975   0.912  1.00  0.00     0.173 A 
ATOM     71  C   UNL     1       6.510   6.445   0.072  1.00  0.00     0.173 A 
ATOM     72  F   UNL     1       9.236   8.738   0.768  1.00  0.00    -0.203 F 
ATOM     73  C   UNL     1       7.429   8.068   2.114  1.00  0.00     0.198 A 
ATOM     74  C   UNL     1       5.803   6.534   1.273  1.00  0.00     0.198 A 
ATOM     75  F   UNL     1       5.955   5.715  -0.905  1.00  0.00    -0.203 F 
ATOM     76  F   UNL     1       7.850   8.896   3.080  1.00  0.00    -0.200 F 
ATOM     77  C   UNL     1       6.255   7.354   2.289  1.00  0.00     0.200 A 
ATOM     78  F   UNL     1       4.646   5.871   1.412  1.00  0.00    -0.200 F 
ATOM     79  F   UNL     1       5.537   7.491   3.413  1.00  0.00    -0.200 F 
ENDBRANCH  45  69
BRANCH  57  80
ATOM     80  C   UNL     1      11.744   8.852  -4.666  1.00  0.00     0.064 A 
ATOM     81  C   UNL     1      11.855   7.471  -4.427  1.00  0.00     0.173 A 
ATOM     82  C   UNL     1      12.921   9.557  -4.946  1.00  0.00     0.173 A 
ATOM     83  F   UNL     1      10.766   6.713  -4.248  1.00  0.00    -0.203 F 
ATOM     84  C   UNL     1      13.097   6.838  -4.429  1.00  0.00     0.198 A 
ATOM     85  C   UNL     1      14.155   8.915  -4.985  1.00  0.00     0.198 A 
ATOM     86  F   UNL     1      12.866  10.867  -5.233  1.00  0.00    -0.203 F 
ATOM     87  F   UNL     1      13.182   5.521  -4.188  1.00  0.00    -0.200 F 
ATOM     88  C   UNL     1      14.245   7.559  -4.716  1.00  0.00     0.200 A 
ATOM     89  F   UNL     1      15.254   9.609  -5.312  1.00  0.00    -0.200 F 
ATOM     90  F   UNL     1      15.434   6.944  -4.761  1.00  0.00    -0.200 F 
ENDBRANCH  57  80
ENDBRANCH  31  32
ENDBRANCH  24  26
ENDBRANCH  23  24
ENDBRANCH  22  23
ENDBRANCH  21  22
ENDBRANCH   1  21
TORSDOF 16
