REMARK SMILES Cc1nnc(SCC2=C(C(=O)OCCOCCOC(=O)c3ccc(-c4c5nc(c(-c6c(F)c(F)c(F)c(F)c6F)c6ccc([nH]6)c(-c6c(F)c(F)c(F)c(F)c6F)c6nc(c(-c7c(F)c(F)c(F)c(F)c7F)c7ccc4[nH]7)C=C6)C=C5)cc3)N3C(=O)[C@H](NC(=O)c4cn(C)nc4C)[C@@H]3SC2)s1
REMARK SMILES IDX 14 1 13 2 12 3 10 4 11 5 9 6 8 7 100 8 84 9 99 10 85 11
REMARK SMILES IDX 98 12 86 13 87 14 7 15 6 16 5 17 1 18 2 19 3 20 101 21 4 22
REMARK SMILES IDX 88 23 89 24 90 26 91 27 92 28 96 29 93 30 95 31 97 32 94 33
REMARK SMILES IDX 15 34 16 35 17 36 18 37 19 38 20 39 21 40 22 41 83 42 23 43
REMARK SMILES IDX 82 44 24 45 25 46 26 47 76 48 27 49 81 50 75 51 77 52 28 53
REMARK SMILES IDX 80 54 74 55 73 56 29 58 61 59 41 60 60 61 42 62 45 63 59 64
REMARK SMILES IDX 78 65 43 66 44 67 58 69 79 70 46 71 30 72 31 73 39 74 32 75
REMARK SMILES IDX 33 76 37 77 40 78 34 79 35 80 38 81 36 82 62 83 63 84 71 85
REMARK SMILES IDX 64 86 65 87 69 88 72 89 66 90 67 91 70 92 68 93 47 94 48 95
REMARK SMILES IDX 56 96 49 97 50 98 54 99 57 100 51 101 52 102 55 103 53 104
REMARK H PARENT 88 25 77 57 45 68
REMARK Flexibility Score: inf
ROOT
ATOM      1  C   UNL     1       7.103  -3.856  -2.048  1.00  0.00     0.202 C 
ENDROOT
BRANCH   1   2
ATOM      2  C   UNL     1       5.576  -3.887  -1.955  1.00  0.00     0.261 C 
BRANCH   2   3
ATOM      3  O   UNL     1       5.146  -2.986  -0.923  1.00  0.00    -0.459 OA
BRANCH   3   4
ATOM      4  C   UNL     1       4.037  -3.386  -0.250  1.00  0.00     0.355 C 
ATOM      5  O   UNL     1       3.267  -4.269  -0.585  1.00  0.00    -0.244 OA
BRANCH   4   6
ATOM      6  C   UNL     1       3.978  -2.658   1.061  1.00  0.00     0.132 C 
ATOM      7  C   UNL     1       3.863  -1.307   1.154  1.00  0.00    -0.019 C 
ATOM      8  C   UNL     1       3.671  -0.597   2.489  1.00  0.00     0.106 C 
ATOM      9  N   UNL     1       4.039  -3.439   2.174  1.00  0.00    -0.289 N 
ATOM     10  S   UNL     1       3.009  -1.662   3.819  1.00  0.00    -0.129 SA
ATOM     11  C   UNL     1       4.179  -4.744   2.473  1.00  0.00     0.253 C 
ATOM     12  C   UNL     1       4.223  -2.951   3.521  1.00  0.00     0.181 C 
ATOM     13  O   UNL     1       4.407  -5.730   1.808  1.00  0.00    -0.272 OA
ATOM     14  C   UNL     1       3.929  -4.407   3.991  1.00  0.00     0.206 C 
BRANCH   7  15
ATOM     15  C   UNL     1       3.975  -0.424  -0.085  1.00  0.00     0.111 C 
BRANCH  15  16
ATOM     16  S   UNL     1       2.928   1.050  -0.137  1.00  0.00    -0.089 SA
BRANCH  16  17
ATOM     17  C   UNL     1       1.336   0.336  -0.194  1.00  0.00     0.174 A 
ATOM     18  C   UNL     1      -2.440  -0.248  -0.019  1.00  0.00     0.081 C 
ATOM     19  C   UNL     1      -0.961  -0.224  -0.122  1.00  0.00     0.115 A 
ATOM     20  N   UNL     1      -0.198  -1.284  -0.285  1.00  0.00    -0.143 NA
ATOM     21  S   UNL     1      -0.097   1.258  -0.030  1.00  0.00    -0.091 S 
ATOM     22  N   UNL     1       1.140  -0.955  -0.334  1.00  0.00    -0.132 NA
ENDBRANCH  16  17
ENDBRANCH  15  16
ENDBRANCH   7  15
BRANCH  14  23
ATOM     23  N   UNL     1       2.556  -4.723   4.462  1.00  0.00    -0.337 N 
ATOM     24  C   UNL     1       2.168  -5.385   5.600  1.00  0.00     0.255 C 
ATOM     25  H   UNL     1       1.825  -4.415   3.878  1.00  0.00     0.164 HD
ATOM     26  O   UNL     1       1.001  -5.749   5.713  1.00  0.00    -0.269 OA
BRANCH  24  27
ATOM     27  C   UNL     1       3.159  -5.649   6.623  1.00  0.00     0.080 A 
ATOM     28  C   UNL     1       4.078  -4.765   7.160  1.00  0.00     0.122 A 
ATOM     29  C   UNL     1       3.364  -6.851   7.357  1.00  0.00     0.072 A 
ATOM     30  N   UNL     1       4.787  -5.467   8.088  1.00  0.00    -0.275 N 
ATOM     31  N   UNL     1       4.378  -6.736   8.226  1.00  0.00    -0.178 NA
ATOM     32  C   UNL     1       2.643  -8.145   7.241  1.00  0.00     0.069 C 
ATOM     33  C   UNL     1       5.897  -4.993   8.878  1.00  0.00     0.173 C 
ENDBRANCH  24  27
ENDBRANCH  14  23
ENDBRANCH   4   6
ENDBRANCH   3   4
ENDBRANCH   2   3
ENDBRANCH   1   2
BRANCH   1  34
ATOM     34  O   UNL     1       7.809  -4.412  -0.937  1.00  0.00    -0.374 OA
BRANCH  34  35
ATOM     35  C   UNL     1       7.742  -3.725   0.310  1.00  0.00     0.202 C 
BRANCH  35  36
ATOM     36  C   UNL     1       8.652  -2.499   0.458  1.00  0.00     0.261 C 
BRANCH  36  37
ATOM     37  O   UNL     1       8.391  -1.474  -0.516  1.00  0.00    -0.460 OA
BRANCH  37  38
ATOM     38  C   UNL     1       9.357  -1.343  -1.461  1.00  0.00     0.338 C 
ATOM     39  O   UNL     1      10.411  -1.951  -1.536  1.00  0.00    -0.246 OA
BRANCH  38  40
ATOM     40  C   UNL     1       8.911  -0.422  -2.522  1.00  0.00     0.060 A 
ATOM     41  C   UNL     1       8.897  -0.901  -3.838  1.00  0.00     0.016 A 
ATOM     42  C   UNL     1       8.615   0.915  -2.249  1.00  0.00     0.016 A 
ATOM     43  C   UNL     1       8.620  -0.034  -4.893  1.00  0.00     0.010 A 
ATOM     44  C   UNL     1       8.347   1.786  -3.311  1.00  0.00     0.010 A 
ATOM     45  C   UNL     1       8.377   1.322  -4.639  1.00  0.00    -0.014 A 
BRANCH  45  46
ATOM     46  C   UNL     1       8.273   2.278  -5.769  1.00  0.00     0.031 A 
ATOM     47  C   UNL     1       9.466   3.115  -6.137  1.00  0.00     0.074 A 
ATOM     48  C   UNL     1       7.131   2.387  -6.470  1.00  0.00     0.049 A 
ATOM     49  N   UNL     1       9.579   4.047  -7.049  1.00  0.00    -0.248 NA
ATOM     50  C   UNL     1      10.698   2.870  -5.371  1.00  0.00     0.031 C 
ATOM     51  C   UNL     1       5.920   1.604  -6.237  1.00  0.00     0.029 A 
ATOM     52  N   UNL     1       6.804   3.212  -7.518  1.00  0.00    -0.354 N 
ATOM     53  C   UNL     1      10.888   4.502  -6.964  1.00  0.00     0.074 A 
ATOM     54  C   UNL     1      11.524   3.765  -5.893  1.00  0.00     0.031 C 
ATOM     55  C   UNL     1       4.975   1.995  -7.108  1.00  0.00     0.029 A 
ATOM     56  C   UNL     1       5.504   3.077  -7.936  1.00  0.00     0.049 A 
ATOM     57  H   UNL     1       7.441   3.840  -7.929  1.00  0.00     0.167 HD
ATOM     58  C   UNL     1      11.506   5.443  -7.718  1.00  0.00     0.037 A 
ATOM     59  C   UNL     1       4.814   3.767  -8.865  1.00  0.00     0.037 A 
ATOM     60  C   UNL     1      10.874   6.173  -8.786  1.00  0.00     0.049 A 
ATOM     61  C   UNL     1       5.503   4.861  -9.639  1.00  0.00     0.074 A 
ATOM     62  C   UNL     1      11.424   7.126  -9.625  1.00  0.00     0.029 A 
ATOM     63  N   UNL     1       9.545   6.034  -9.158  1.00  0.00    -0.354 N 
ATOM     64  N   UNL     1       6.747   5.268  -9.570  1.00  0.00    -0.248 NA
ATOM     65  C   UNL     1       4.688   5.591 -10.621  1.00  0.00     0.031 C 
ATOM     66  C   UNL     1      10.415   7.601 -10.470  1.00  0.00     0.029 A 
ATOM     67  C   UNL     1       9.249   6.907 -10.193  1.00  0.00     0.049 A 
ATOM     68  H   UNL     1       8.906   5.407  -8.747  1.00  0.00     0.167 HD
ATOM     69  C   UNL     1       6.871   6.281 -10.512  1.00  0.00     0.074 A 
ATOM     70  C   UNL     1       5.579   6.418 -11.150  1.00  0.00     0.031 C 
ATOM     71  C   UNL     1       7.958   7.032 -10.819  1.00  0.00     0.037 A 
BRANCH  58  72
ATOM     72  C   UNL     1      12.937   5.759  -7.397  1.00  0.00     0.064 A 
ATOM     73  C   UNL     1      13.975   4.864  -7.697  1.00  0.00     0.173 A 
ATOM     74  C   UNL     1      13.279   6.989  -6.817  1.00  0.00     0.173 A 
ATOM     75  F   UNL     1      13.699   3.668  -8.241  1.00  0.00    -0.203 F 
ATOM     76  C   UNL     1      15.300   5.179  -7.406  1.00  0.00     0.198 A 
ATOM     77  C   UNL     1      14.607   7.313  -6.552  1.00  0.00     0.198 A 
ATOM     78  F   UNL     1      12.325   7.883  -6.514  1.00  0.00    -0.203 F 
ATOM     79  F   UNL     1      16.270   4.291  -7.661  1.00  0.00    -0.200 F 
ATOM     80  C   UNL     1      15.615   6.406  -6.840  1.00  0.00     0.200 A 
ATOM     81  F   UNL     1      14.911   8.503  -6.015  1.00  0.00    -0.200 F 
ATOM     82  F   UNL     1      16.891   6.711  -6.566  1.00  0.00    -0.200 F 
ENDBRANCH  58  72
BRANCH  59  83
ATOM     83  C   UNL     1       3.380   3.457  -9.105  1.00  0.00     0.064 A 
ATOM     84  C   UNL     1       2.956   2.877 -10.307  1.00  0.00     0.173 A 
ATOM     85  C   UNL     1       2.404   3.753  -8.142  1.00  0.00     0.173 A 
ATOM     86  F   UNL     1       3.849   2.602 -11.269  1.00  0.00    -0.203 F 
ATOM     87  C   UNL     1       1.607   2.619 -10.545  1.00  0.00     0.198 A 
ATOM     88  C   UNL     1       1.059   3.469  -8.369  1.00  0.00     0.198 A 
ATOM     89  F   UNL     1       2.758   4.313  -6.976  1.00  0.00    -0.203 F 
ATOM     90  F   UNL     1       1.223   2.107 -11.722  1.00  0.00    -0.200 F 
ATOM     91  C   UNL     1       0.661   2.909  -9.574  1.00  0.00     0.200 A 
ATOM     92  F   UNL     1       0.150   3.743  -7.424  1.00  0.00    -0.200 F 
ATOM     93  F   UNL     1      -0.635   2.660  -9.802  1.00  0.00    -0.200 F 
ENDBRANCH  59  83
BRANCH  71  94
ATOM     94  C   UNL     1       7.805   8.051 -11.911  1.00  0.00     0.064 A 
ATOM     95  C   UNL     1       7.071   9.230 -11.718  1.00  0.00     0.173 A 
ATOM     96  C   UNL     1       8.436   7.866 -13.151  1.00  0.00     0.173 A 
ATOM     97  F   UNL     1       6.436   9.448 -10.556  1.00  0.00    -0.203 F 
ATOM     98  C   UNL     1       6.953  10.175 -12.735  1.00  0.00     0.198 A 
ATOM     99  C   UNL     1       8.341   8.826 -14.155  1.00  0.00     0.198 A 
ATOM    100  F   UNL     1       9.157   6.759 -13.384  1.00  0.00    -0.203 F 
ATOM    101  F   UNL     1       6.209  11.273 -12.544  1.00  0.00    -0.200 F 
ATOM    102  C   UNL     1       7.594   9.976 -13.949  1.00  0.00     0.200 A 
ATOM    103  F   UNL     1       8.972   8.638 -15.322  1.00  0.00    -0.200 F 
ATOM    104  F   UNL     1       7.486  10.890 -14.923  1.00  0.00    -0.200 F 
ENDBRANCH  71  94
ENDBRANCH  45  46
ENDBRANCH  38  40
ENDBRANCH  37  38
ENDBRANCH  36  37
ENDBRANCH  35  36
ENDBRANCH  34  35
ENDBRANCH   1  34
TORSDOF 19
