REMARK SMILES C#CCN(CC(=O)OCCOCCOC(=O)c1ccc(-c2c3nc(c(-c4c(F)c(F)c(F)c(F)c4F)c4ccc([nH]4)c(-c4c(F)c(F)c(F)c(F)c4F)c4nc(c(-c5c(F)c(F)c(F)c(F)c5F)c5ccc2[nH]5)C=C4)C=C3)cc1)C(=O)C(C)(C)[NH2+]CC
REMARK SMILES IDX 9 1 8 2 6 3 7 4 5 5 4 6 3 7 2 8 1 9 80 10 81 11 82 12 83 13
REMARK SMILES IDX 84 14 85 15 86 18 87 19 10 20 11 21 12 22 13 23 14 24 15 25
REMARK SMILES IDX 16 26 17 27 18 28 79 29 19 30 78 31 20 32 21 33 22 34 72 35
REMARK SMILES IDX 23 36 77 37 71 38 73 39 24 40 76 41 70 42 69 43 25 45 57 46
REMARK SMILES IDX 37 47 56 48 38 49 41 50 55 51 74 52 39 53 40 54 54 56 75 57
REMARK SMILES IDX 42 58 26 59 27 60 35 61 28 62 29 63 33 64 36 65 30 66 31 67
REMARK SMILES IDX 34 68 32 69 58 70 59 71 67 72 60 73 61 74 65 75 68 76 62 77
REMARK SMILES IDX 63 78 66 79 64 80 43 81 44 82 52 83 45 84 46 85 50 86 53 87
REMARK SMILES IDX 47 88 48 89 51 90 49 91
REMARK H PARENT 85 16 85 17 73 44 41 55
REMARK Flexibility Score: inf
ROOT
ATOM      1  C   UNL     1      -6.653  -0.917   1.272  1.00  0.00     0.261 C 
ENDROOT
BRANCH   1   2
ATOM      2  O   UNL     1      -5.208  -0.998   1.173  1.00  0.00    -0.462 OA
BRANCH   2   3
ATOM      3  C   UNL     1      -4.553  -0.359   2.180  1.00  0.00     0.325 C 
ATOM      4  O   UNL     1      -5.126   0.228   3.096  1.00  0.00    -0.250 OA
BRANCH   3   5
ATOM      5  C   UNL     1      -3.020  -0.496   2.176  1.00  0.00     0.243 C 
BRANCH   5   6
ATOM      6  N   UNL     1      -2.276  -1.052   1.042  1.00  0.00    -0.315 N 
BRANCH   6   7
ATOM      7  C   UNL     1      -1.860  -0.086  -0.036  1.00  0.00     0.210 C 
BRANCH   7   8
ATOM      8  C   UNL     1      -0.340  -0.086  -0.036  1.00  0.00    -0.085 C 
ATOM      9  C   UNL     1       0.964  -0.086  -0.036  1.00  0.00     0.006 C 
ENDBRANCH   7   8
ENDBRANCH   6   7
BRANCH   6  10
ATOM     10  C   UNL     1      -1.885  -2.397   0.893  1.00  0.00     0.284 C 
ATOM     11  O   UNL     1      -1.656  -2.804  -0.256  1.00  0.00    -0.268 OA
BRANCH  10  12
ATOM     12  C   UNL     1      -1.653  -3.388   2.161  1.00  0.00     0.170 C 
ATOM     13  C   UNL     1      -0.724  -2.766   3.211  1.00  0.00     0.090 C 
ATOM     14  C   UNL     1      -2.934  -3.834   2.889  1.00  0.00     0.090 C 
BRANCH  12  15
ATOM     15  N   UNL     1      -1.102  -4.689   1.665  1.00  0.00    -0.334 N 
ATOM     16  H   UNL     1      -1.672  -4.970   0.867  1.00  0.00     0.347 HD
ATOM     17  H   UNL     1      -1.134  -5.298   2.482  1.00  0.00     0.347 HD
BRANCH  15  18
ATOM     18  C   UNL     1       0.292  -4.747   1.238  1.00  0.00     0.257 C 
ATOM     19  C   UNL     1       1.246  -5.119   2.370  1.00  0.00     0.071 C 
ENDBRANCH  15  18
ENDBRANCH  12  15
ENDBRANCH  10  12
ENDBRANCH   6  10
ENDBRANCH   5   6
ENDBRANCH   3   5
ENDBRANCH   2   3
ENDBRANCH   1   2
BRANCH   1  20
ATOM     20  C   UNL     1      -7.371  -2.027   0.500  1.00  0.00     0.202 C 
BRANCH  20  21
ATOM     21  O   UNL     1      -7.335  -3.338   1.056  1.00  0.00    -0.374 OA
BRANCH  21  22
ATOM     22  C   UNL     1      -6.079  -3.884   1.436  1.00  0.00     0.202 C 
BRANCH  22  23
ATOM     23  C   UNL     1      -4.961  -3.942   0.387  1.00  0.00     0.261 C 
BRANCH  23  24
ATOM     24  O   UNL     1      -5.360  -3.633  -0.928  1.00  0.00    -0.460 OA
BRANCH  24  25
ATOM     25  C   UNL     1      -5.885  -4.662  -1.623  1.00  0.00     0.338 C 
ATOM     26  O   UNL     1      -6.003  -5.819  -1.321  1.00  0.00    -0.246 OA
BRANCH  25  27
ATOM     27  C   UNL     1      -6.473  -3.976  -2.774  1.00  0.00     0.060 A 
ATOM     28  C   UNL     1      -7.860  -3.832  -2.790  1.00  0.00     0.016 A 
ATOM     29  C   UNL     1      -5.641  -3.331  -3.695  1.00  0.00     0.016 A 
ATOM     30  C   UNL     1      -8.437  -3.044  -3.772  1.00  0.00     0.010 A 
ATOM     31  C   UNL     1      -6.221  -2.540  -4.674  1.00  0.00     0.010 A 
ATOM     32  C   UNL     1      -7.619  -2.416  -4.722  1.00  0.00    -0.014 A 
BRANCH  32  33
ATOM     33  C   UNL     1      -8.242  -1.755  -5.877  1.00  0.00     0.031 A 
ATOM     34  C   UNL     1      -8.345  -2.539  -7.146  1.00  0.00     0.074 A 
ATOM     35  C   UNL     1      -8.707  -0.501  -5.763  1.00  0.00     0.049 A 
ATOM     36  N   UNL     1      -8.817  -2.176  -8.307  1.00  0.00    -0.248 NA
ATOM     37  C   UNL     1      -7.843  -3.925  -7.103  1.00  0.00     0.031 C 
ATOM     38  C   UNL     1      -8.655   0.312  -4.548  1.00  0.00     0.029 A 
ATOM     39  N   UNL     1      -9.306   0.310  -6.688  1.00  0.00    -0.354 N 
ATOM     40  C   UNL     1      -8.681  -3.289  -9.124  1.00  0.00     0.074 A 
ATOM     41  C   UNL     1      -8.039  -4.324  -8.349  1.00  0.00     0.031 C 
ATOM     42  C   UNL     1      -9.187   1.518  -4.809  1.00  0.00     0.029 A 
ATOM     43  C   UNL     1      -9.588   1.566  -6.212  1.00  0.00     0.049 A 
ATOM     44  H   UNL     1      -9.515   0.021  -7.605  1.00  0.00     0.167 HD
ATOM     45  C   UNL     1      -9.081  -3.431 -10.408  1.00  0.00     0.037 A 
ATOM     46  C   UNL     1     -10.088   2.633  -6.862  1.00  0.00     0.037 A 
ATOM     47  C   UNL     1      -9.697  -2.374 -11.160  1.00  0.00     0.049 A 
ATOM     48  C   UNL     1     -10.450   2.472  -8.317  1.00  0.00     0.074 A 
ATOM     49  C   UNL     1     -10.134  -2.384 -12.470  1.00  0.00     0.029 A 
ATOM     50  N   UNL     1      -9.955  -1.105 -10.655  1.00  0.00    -0.354 N 
ATOM     51  N   UNL     1     -10.351   1.409  -9.081  1.00  0.00    -0.248 NA
ATOM     52  C   UNL     1     -10.992   3.652  -9.001  1.00  0.00     0.031 C 
ATOM     53  C   UNL     1     -10.616  -1.107 -12.772  1.00  0.00     0.029 A 
ATOM     54  C   UNL     1     -10.526  -0.315 -11.636  1.00  0.00     0.049 A 
ATOM     55  H   UNL     1      -9.760  -0.812  -9.736  1.00  0.00     0.167 HD
ATOM     56  C   UNL     1     -10.835   1.784 -10.326  1.00  0.00     0.074 A 
ATOM     57  C   UNL     1     -11.247   3.169 -10.208  1.00  0.00     0.031 C 
ATOM     58  C   UNL     1     -10.927   1.059 -11.468  1.00  0.00     0.037 A 
BRANCH  45  59
ATOM     59  C   UNL     1      -8.849  -4.759 -11.061  1.00  0.00     0.064 A 
ATOM     60  C   UNL     1      -9.580  -5.897 -10.686  1.00  0.00     0.173 A 
ATOM     61  C   UNL     1      -7.893  -4.899 -12.077  1.00  0.00     0.173 A 
ATOM     62  F   UNL     1     -10.490  -5.822  -9.702  1.00  0.00    -0.203 F 
ATOM     63  C   UNL     1      -9.348  -7.130 -11.290  1.00  0.00     0.198 A 
ATOM     64  C   UNL     1      -7.683  -6.127 -12.699  1.00  0.00     0.198 A 
ATOM     65  F   UNL     1      -7.162  -3.844 -12.468  1.00  0.00    -0.203 F 
ATOM     66  F   UNL     1     -10.027  -8.212 -10.884  1.00  0.00    -0.200 F 
ATOM     67  C   UNL     1      -8.406  -7.242 -12.301  1.00  0.00     0.200 A 
ATOM     68  F   UNL     1      -6.777  -6.233 -13.680  1.00  0.00    -0.200 F 
ATOM     69  F   UNL     1      -8.189  -8.427 -12.888  1.00  0.00    -0.200 F 
ENDBRANCH  45  59
BRANCH  46  70
ATOM     70  C   UNL     1     -10.248   3.934  -6.161  1.00  0.00     0.064 A 
ATOM     71  C   UNL     1     -11.514   4.489  -5.931  1.00  0.00     0.173 A 
ATOM     72  C   UNL     1      -9.131   4.663  -5.722  1.00  0.00     0.173 A 
ATOM     73  F   UNL     1     -12.614   3.842  -6.345  1.00  0.00    -0.203 F 
ATOM     74  C   UNL     1     -11.657   5.732  -5.315  1.00  0.00     0.198 A 
ATOM     75  C   UNL     1      -9.276   5.891  -5.078  1.00  0.00     0.198 A 
ATOM     76  F   UNL     1      -7.895   4.179  -5.911  1.00  0.00    -0.203 F 
ATOM     77  F   UNL     1     -12.877   6.262  -5.155  1.00  0.00    -0.200 F 
ATOM     78  C   UNL     1     -10.538   6.430  -4.885  1.00  0.00     0.200 A 
ATOM     79  F   UNL     1      -8.192   6.553  -4.651  1.00  0.00    -0.200 F 
ATOM     80  F   UNL     1     -10.676   7.624  -4.293  1.00  0.00    -0.200 F 
ENDBRANCH  46  70
BRANCH  58  81
ATOM     81  C   UNL     1     -11.509   1.746 -12.666  1.00  0.00     0.064 A 
ATOM     82  C   UNL     1     -10.785   2.713 -13.377  1.00  0.00     0.173 A 
ATOM     83  C   UNL     1     -12.776   1.382 -13.145  1.00  0.00     0.173 A 
ATOM     84  F   UNL     1      -9.575   3.102 -12.947  1.00  0.00    -0.203 F 
ATOM     85  C   UNL     1     -11.317   3.303 -14.519  1.00  0.00     0.198 A 
ATOM     86  C   UNL     1     -13.292   1.952 -14.304  1.00  0.00     0.198 A 
ATOM     87  F   UNL     1     -13.502   0.455 -12.502  1.00  0.00    -0.203 F 
ATOM     88  F   UNL     1     -10.625   4.253 -15.163  1.00  0.00    -0.200 F 
ATOM     89  C   UNL     1     -12.564   2.916 -14.986  1.00  0.00     0.200 A 
ATOM     90  F   UNL     1     -14.489   1.565 -14.764  1.00  0.00    -0.200 F 
ATOM     91  F   UNL     1     -13.068   3.475 -16.095  1.00  0.00    -0.200 F 
ENDBRANCH  58  81
ENDBRANCH  32  33
ENDBRANCH  25  27
ENDBRANCH  24  25
ENDBRANCH  23  24
ENDBRANCH  22  23
ENDBRANCH  21  22
ENDBRANCH  20  21
ENDBRANCH   1  20
TORSDOF 21
