REMARK SMILES O=C(COCC(=O)OCCOCCOC(=O)c1ccc(-c2c3nc(c(-c4c(F)c(F)c(F)c(F)c4F)c4ccc([nH]4)c(-c4c(F)c(F)c(F)c(F)c4F)c4nc(c(-c5c(F)c(F)c(F)c(F)c5F)c5ccc2[nH]5)C=C4)C=C3)cc1)/[NH+]=C1\S[C@@H]2CS(=O)(=O)C[C@H]2N1c1ccc(Cl)cc1
REMARK SMILES IDX 10 1 9 2 8 3 6 4 7 5 5 6 4 7 3 8 2 9 1 10 80 11 81 12 82 14
REMARK SMILES IDX 90 15 83 16 89 17 84 18 88 19 85 20 86 21 87 22 91 23 92 24
REMARK SMILES IDX 97 25 93 26 96 27 94 28 95 29 11 30 12 31 13 32 14 33 15 34
REMARK SMILES IDX 16 35 17 36 18 37 79 38 19 39 78 40 20 41 21 42 22 43 72 44
REMARK SMILES IDX 23 45 77 46 71 47 73 48 24 49 76 50 70 51 69 52 25 54 57 55
REMARK SMILES IDX 37 56 56 57 38 58 41 59 55 60 74 61 39 62 40 63 54 65 75 66
REMARK SMILES IDX 42 67 26 68 27 69 35 70 28 71 29 72 33 73 36 74 30 75 31 76
REMARK SMILES IDX 34 77 32 78 58 79 59 80 67 81 60 82 61 83 65 84 68 85 62 86
REMARK SMILES IDX 63 87 66 88 64 89 43 90 44 91 52 92 45 93 46 94 50 95 53 96
REMARK SMILES IDX 47 97 48 98 51 99 49 100
REMARK H PARENT 80 13 73 53 41 64
REMARK Flexibility Score: inf
ROOT
ATOM      1  C   UNL     1       0.422   5.050  -1.144  1.00  0.00     0.202 C 
ENDROOT
BRANCH   1   2
ATOM      2  C   UNL     1       1.204   5.304   0.148  1.00  0.00     0.261 C 
BRANCH   2   3
ATOM      3  O   UNL     1       2.172   4.271   0.421  1.00  0.00    -0.462 OA
BRANCH   3   4
ATOM      4  C   UNL     1       2.090   3.690   1.651  1.00  0.00     0.332 C 
ATOM      5  O   UNL     1       1.257   3.974   2.505  1.00  0.00    -0.250 OA
BRANCH   4   6
ATOM      6  C   UNL     1       3.184   2.633   1.891  1.00  0.00     0.283 C 
BRANCH   6   7
ATOM      7  O   UNL     1       4.005   2.132   0.848  1.00  0.00    -0.358 OA
BRANCH   7   8
ATOM      8  C   UNL     1       3.283   1.431  -0.146  1.00  0.00     0.288 C 
BRANCH   8   9
ATOM      9  C   UNL     1       2.672   0.028   0.142  1.00  0.00     0.333 C 
ATOM     10  O   UNL     1       1.603  -0.290  -0.377  1.00  0.00    -0.244 OA
ATOM     11  N   UNL     1       3.327  -0.801   1.022  1.00  0.00    -0.202 N 
ATOM     12  C   UNL     1       4.529  -1.197   0.775  1.00  0.00     0.319 C 
ATOM     13  H   UNL     1       2.875  -1.095   1.846  1.00  0.00     0.316 HD
ATOM     14  S   UNL     1       5.474  -0.706  -0.670  1.00  0.00    -0.029 SA
ATOM     15  N   UNL     1       5.365  -1.958   1.603  1.00  0.00    -0.217 N 
ATOM     16  C   UNL     1       6.905  -0.624   0.408  1.00  0.00     0.120 C 
ATOM     17  C   UNL     1       6.762  -1.980   1.116  1.00  0.00     0.212 C 
ATOM     18  C   UNL     1       8.288  -0.502  -0.158  1.00  0.00     0.156 C 
ATOM     19  C   UNL     1       7.921  -1.985   2.081  1.00  0.00     0.188 C 
ATOM     20  S   UNL     1       9.271  -1.350   1.076  1.00  0.00     0.155 S 
ATOM     21  O   UNL     1       9.996  -0.374   1.851  1.00  0.00    -0.229 OA
ATOM     22  O   UNL     1       9.918  -2.473   0.425  1.00  0.00    -0.229 OA
BRANCH  15  23
ATOM     23  C   UNL     1       4.913  -2.990   2.444  1.00  0.00     0.128 A 
ATOM     24  C   UNL     1       5.514  -3.234   3.690  1.00  0.00     0.053 A 
ATOM     25  C   UNL     1       3.846  -3.826   2.073  1.00  0.00     0.053 A 
ATOM     26  C   UNL     1       5.104  -4.293   4.510  1.00  0.00     0.025 A 
ATOM     27  C   UNL     1       3.431  -4.890   2.888  1.00  0.00     0.025 A 
ATOM     28  C   UNL     1       4.069  -5.125   4.100  1.00  0.00     0.041 A 
ATOM     29  Cl  UNL     1       3.578  -6.435   5.099  1.00  0.00    -0.084 Cl
ENDBRANCH  15  23
ENDBRANCH   8   9
ENDBRANCH   7   8
ENDBRANCH   6   7
ENDBRANCH   4   6
ENDBRANCH   3   4
ENDBRANCH   2   3
ENDBRANCH   1   2
BRANCH   1  30
ATOM     30  O   UNL     1      -0.526   3.987  -1.147  1.00  0.00    -0.374 OA
BRANCH  30  31
ATOM     31  C   UNL     1      -0.025   2.653  -1.191  1.00  0.00     0.202 C 
BRANCH  31  32
ATOM     32  C   UNL     1       0.577   2.181  -2.532  1.00  0.00     0.261 C 
BRANCH  32  33
ATOM     33  O   UNL     1       1.684   2.987  -2.991  1.00  0.00    -0.460 OA
BRANCH  33  34
ATOM     34  C   UNL     1       1.422   3.710  -4.111  1.00  0.00     0.338 C 
ATOM     35  O   UNL     1       0.413   3.674  -4.796  1.00  0.00    -0.246 OA
BRANCH  34  36
ATOM     36  C   UNL     1       2.463   4.733  -4.340  1.00  0.00     0.060 A 
ATOM     37  C   UNL     1       2.051   6.073  -4.354  1.00  0.00     0.016 A 
ATOM     38  C   UNL     1       3.773   4.394  -4.675  1.00  0.00     0.016 A 
ATOM     39  C   UNL     1       2.931   7.076  -4.760  1.00  0.00     0.010 A 
ATOM     40  C   UNL     1       4.654   5.403  -5.092  1.00  0.00     0.010 A 
ATOM     41  C   UNL     1       4.224   6.742  -5.179  1.00  0.00    -0.014 A 
BRANCH  41  42
ATOM     42  C   UNL     1       5.059   7.758  -5.876  1.00  0.00     0.031 A 
ATOM     43  C   UNL     1       5.180   7.689  -7.376  1.00  0.00     0.074 A 
ATOM     44  C   UNL     1       5.676   8.743  -5.198  1.00  0.00     0.049 A 
ATOM     45  N   UNL     1       5.925   8.398  -8.185  1.00  0.00    -0.248 NA
ATOM     46  C   UNL     1       4.349   6.682  -8.056  1.00  0.00     0.031 C 
ATOM     47  C   UNL     1       5.587   8.962  -3.756  1.00  0.00     0.029 A 
ATOM     48  N   UNL     1       6.516   9.738  -5.637  1.00  0.00    -0.354 N 
ATOM     49  C   UNL     1       5.673   7.907  -9.461  1.00  0.00     0.074 A 
ATOM     50  C   UNL     1       4.717   6.831  -9.321  1.00  0.00     0.031 C 
ATOM     51  C   UNL     1       6.360  10.011  -3.425  1.00  0.00     0.029 A 
ATOM     52  C   UNL     1       7.034  10.509  -4.624  1.00  0.00     0.049 A 
ATOM     53  H   UNL     1       6.727   9.885  -6.588  1.00  0.00     0.167 HD
ATOM     54  C   UNL     1       6.190   8.321 -10.642  1.00  0.00     0.037 A 
ATOM     55  C   UNL     1       7.971  11.478  -4.657  1.00  0.00     0.037 A 
ATOM     56  C   UNL     1       7.120   9.410 -10.782  1.00  0.00     0.049 A 
ATOM     57  C   UNL     1       8.588  11.867  -5.981  1.00  0.00     0.074 A 
ATOM     58  C   UNL     1       7.676   9.922 -11.941  1.00  0.00     0.029 A 
ATOM     59  N   UNL     1       7.633  10.152  -9.730  1.00  0.00    -0.354 N 
ATOM     60  N   UNL     1       8.330  11.410  -7.182  1.00  0.00    -0.248 NA
ATOM     61  C   UNL     1       9.626  12.908  -5.952  1.00  0.00     0.031 C 
ATOM     62  C   UNL     1       8.576  10.930 -11.586  1.00  0.00     0.029 A 
ATOM     63  C   UNL     1       8.523  11.097 -10.212  1.00  0.00     0.049 A 
ATOM     64  H   UNL     1       7.399  10.026  -8.782  1.00  0.00     0.167 HD
ATOM     65  C   UNL     1       9.135  12.139  -8.051  1.00  0.00     0.074 A 
ATOM     66  C   UNL     1       9.888  13.070  -7.241  1.00  0.00     0.031 C 
ATOM     67  C   UNL     1       9.237  12.046  -9.399  1.00  0.00     0.037 A 
BRANCH  54  68
ATOM     68  C   UNL     1       5.797   7.581 -11.887  1.00  0.00     0.064 A 
ATOM     69  C   UNL     1       4.520   7.705 -12.453  1.00  0.00     0.173 A 
ATOM     70  C   UNL     1       6.747   6.807 -12.572  1.00  0.00     0.173 A 
ATOM     71  F   UNL     1       3.573   8.425 -11.833  1.00  0.00    -0.203 F 
ATOM     72  C   UNL     1       4.207   7.074 -13.655  1.00  0.00     0.198 A 
ATOM     73  C   UNL     1       6.439   6.203 -13.788  1.00  0.00     0.198 A 
ATOM     74  F   UNL     1       7.985   6.661 -12.076  1.00  0.00    -0.203 F 
ATOM     75  F   UNL     1       2.972   7.183 -14.164  1.00  0.00    -0.200 F 
ATOM     76  C   UNL     1       5.169   6.334 -14.327  1.00  0.00     0.200 A 
ATOM     77  F   UNL     1       7.377   5.504 -14.443  1.00  0.00    -0.200 F 
ATOM     78  F   UNL     1       4.872   5.748 -15.495  1.00  0.00    -0.200 F 
ENDBRANCH  54  68
BRANCH  55  79
ATOM     79  C   UNL     1       8.430  12.130  -3.399  1.00  0.00     0.064 A 
ATOM     80  C   UNL     1       8.231  13.500  -3.175  1.00  0.00     0.173 A 
ATOM     81  C   UNL     1       9.139  11.410  -2.425  1.00  0.00     0.173 A 
ATOM     82  F   UNL     1       7.582  14.240  -4.086  1.00  0.00    -0.203 F 
ATOM     83  C   UNL     1       8.757  14.131  -2.048  1.00  0.00     0.198 A 
ATOM     84  C   UNL     1       9.631  12.034  -1.281  1.00  0.00     0.198 A 
ATOM     85  F   UNL     1       9.361  10.097  -2.587  1.00  0.00    -0.203 F 
ATOM     86  F   UNL     1       8.616  15.455  -1.899  1.00  0.00    -0.200 F 
ATOM     87  C   UNL     1       9.454  13.397  -1.101  1.00  0.00     0.200 A 
ATOM     88  F   UNL     1      10.292  11.317  -0.361  1.00  0.00    -0.200 F 
ATOM     89  F   UNL     1       9.967  14.005  -0.023  1.00  0.00    -0.200 F 
ENDBRANCH  55  79
BRANCH  67  90
ATOM     90  C   UNL     1      10.133  13.024 -10.106  1.00  0.00     0.064 A 
ATOM     91  C   UNL     1      11.530  12.950 -10.021  1.00  0.00     0.173 A 
ATOM     92  C   UNL     1       9.577  14.005 -10.943  1.00  0.00     0.173 A 
ATOM     93  F   UNL     1      12.112  12.039  -9.227  1.00  0.00    -0.203 F 
ATOM     94  C   UNL     1      12.337  13.835 -10.733  1.00  0.00     0.198 A 
ATOM     95  C   UNL     1      10.386  14.865 -11.679  1.00  0.00     0.198 A 
ATOM     96  F   UNL     1       8.245  14.113 -11.067  1.00  0.00    -0.203 F 
ATOM     97  F   UNL     1      13.670  13.773 -10.605  1.00  0.00    -0.200 F 
ATOM     98  C   UNL     1      11.766  14.783 -11.569  1.00  0.00     0.200 A 
ATOM     99  F   UNL     1       9.832  15.766 -12.501  1.00  0.00    -0.200 F 
ATOM    100  F   UNL     1      12.545  15.620 -12.267  1.00  0.00    -0.200 F 
ENDBRANCH  67  90
ENDBRANCH  41  42
ENDBRANCH  34  36
ENDBRANCH  33  34
ENDBRANCH  32  33
ENDBRANCH  31  32
ENDBRANCH  30  31
ENDBRANCH   1  30
TORSDOF 18
