REMARK SMILES CC1(C)CC[C@@]2(C(=O)OCCOCCOC(=O)c3ccc(-c4c5nc(c(-c6c(F)c(F)c(F)c(F)c6F)c6ccc([nH]6)c(-c6c(F)c(F)c(F)c(F)c6F)c6nc(c(-c7c(F)c(F)c(F)c(F)c7F)c7ccc4[nH]7)C=C6)C=C5)cc3)CC[C@@]3(C)C(=CC[C@H]4[C@@]5(C)CC[C@H](O)C(C)(C)[C@@H]5CC[C@@]43C)[C@@H]2C1
REMARK SMILES IDX 13 1 12 2 11 3 10 4 9 5 7 6 8 7 6 8 1 9 2 10 3 11 4 12
REMARK SMILES IDX 104 13 5 14 103 15 85 16 81 17 83 18 86 19 82 20 84 21
REMARK SMILES IDX 101 22 87 23 88 24 100 25 102 26 89 27 99 28 90 29 91 30
REMARK SMILES IDX 98 31 92 32 95 33 93 34 96 35 97 36 94 37 14 39 15 40 16 41
REMARK SMILES IDX 17 42 18 43 19 44 80 45 20 46 79 47 21 48 22 49 23 50 73 51
REMARK SMILES IDX 24 52 78 53 72 54 74 55 25 56 77 57 71 58 70 59 26 61 58 62
REMARK SMILES IDX 38 63 57 64 39 65 42 66 56 67 75 68 40 69 41 70 55 72 76 73
REMARK SMILES IDX 43 74 27 75 28 76 36 77 29 78 30 79 34 80 37 81 31 82 32 83
REMARK SMILES IDX 35 84 33 85 59 86 60 87 68 88 61 89 62 90 66 91 69 92 63 93
REMARK SMILES IDX 64 94 67 95 65 96 44 97 45 98 53 99 46 100 47 101 51 102
REMARK SMILES IDX 54 103 48 104 49 105 52 106 50 107
REMARK H PARENT 94 38 74 60 42 71
REMARK Flexibility Score: inf
ROOT
ATOM      1  C   UNL     1      -2.727   5.331  -2.376  1.00  0.00     0.202 C 
ENDROOT
BRANCH   1   2
ATOM      2  O   UNL     1      -3.480   4.034  -3.263  1.00  0.00    -0.374 OA
BRANCH   2   3
ATOM      3  C   UNL     1      -3.573   2.230  -2.974  1.00  0.00     0.202 C 
BRANCH   3   4
ATOM      4  C   UNL     1      -2.332   1.402  -1.472  1.00  0.00     0.261 C 
BRANCH   4   5
ATOM      5  O   UNL     1      -0.946   1.962  -0.789  1.00  0.00    -0.463 OA
BRANCH   5   6
ATOM      6  C   UNL     1       0.165   2.629  -1.143  1.00  0.00     0.312 C 
ATOM      7  O   UNL     1       0.520   3.730  -0.718  1.00  0.00    -0.252 OA
BRANCH   6   8
ATOM      8  C   UNL     1       0.971   1.867  -2.089  1.00  0.00     0.075 C 
ATOM      9  C   UNL     1       2.530  -0.839   0.303  1.00  0.00     0.011 C 
ATOM     10  C   UNL     1       1.438   0.228   0.385  1.00  0.00    -0.035 C 
ATOM     11  C   UNL     1       0.927   0.279   1.865  1.00  0.00     0.011 C 
ATOM     12  C   UNL     1       2.136   1.581   0.161  1.00  0.00     0.007 C 
ATOM     13  C   UNL     1       0.269  -0.184  -0.661  1.00  0.00     0.015 C 
ATOM     14  C   UNL     1       2.321   1.902  -1.332  1.00  0.00     0.020 C 
ATOM     15  C   UNL     1       0.218   0.506  -2.214  1.00  0.00     0.033 C 
ATOM     16  C   UNL     1      -1.297   0.817  -3.152  1.00  0.00    -0.063 C 
ATOM     17  C   UNL     1       0.909   2.741  -3.336  1.00  0.00     0.020 C 
ATOM     18  C   UNL     1      -1.706   2.700  -2.961  1.00  0.00    -0.006 C 
ATOM     19  C   UNL     1      -2.472  -0.097  -3.089  1.00  0.00    -0.027 C 
ATOM     20  C   UNL     1      -0.406   3.580  -3.329  1.00  0.00     0.013 C 
ATOM     21  C   UNL     1      -1.966   2.487  -4.748  1.00  0.00     0.017 C 
ATOM     22  C   UNL     1      -3.135   3.199  -1.426  1.00  0.00    -0.020 C 
ATOM     23  C   UNL     1      -4.059   0.146  -2.103  1.00  0.00     0.032 C 
ATOM     24  C   UNL     1      -4.434   1.749  -1.092  1.00  0.00     0.006 C 
ATOM     25  C   UNL     1      -4.600   4.261  -1.002  1.00  0.00     0.008 C 
ATOM     26  C   UNL     1      -2.313   3.557  -0.300  1.00  0.00     0.012 C 
ATOM     27  C   UNL     1      -4.676   1.632   0.427  1.00  0.00    -0.025 C 
ATOM     28  C   UNL     1      -5.293   4.315   0.576  1.00  0.00     0.005 C 
ATOM     29  C   UNL     1      -6.252   1.265   0.466  1.00  0.00     0.012 C 
ATOM     30  C   UNL     1      -3.458   0.290   1.015  1.00  0.00     0.010 C 
ATOM     31  C   UNL     1      -4.778   3.206   1.526  1.00  0.00     0.003 C 
ATOM     32  C   UNL     1      -2.972  -0.040   2.588  1.00  0.00     0.033 C 
ATOM     33  C   UNL     1      -4.507   3.046   3.582  1.00  0.00    -0.006 C 
ATOM     34  C   UNL     1      -3.020   1.357   3.927  1.00  0.00     0.120 C 
ATOM     35  C   UNL     1      -6.188   3.100   3.845  1.00  0.00     0.014 C 
ATOM     36  C   UNL     1      -4.373   4.684   4.098  1.00  0.00     0.014 C 
BRANCH  34  37
ATOM     37  O   UNL     1      -2.644   0.424   5.050  1.00  0.00    -0.393 OA
ATOM     38  H   UNL     1      -3.135  -0.407   4.958  1.00  0.00     0.210 HD
ENDBRANCH  34  37
ENDBRANCH   6   8
ENDBRANCH   5   6
ENDBRANCH   4   5
ENDBRANCH   3   4
ENDBRANCH   2   3
ENDBRANCH   1   2
BRANCH   1  39
ATOM     39  C   UNL     1      -2.228   5.864  -0.602  1.00  0.00     0.261 C 
BRANCH  39  40
ATOM     40  O   UNL     1      -2.685   5.233   0.972  1.00  0.00    -0.460 OA
BRANCH  40  41
ATOM     41  C   UNL     1      -2.004   4.289   1.956  1.00  0.00     0.338 C 
ATOM     42  O   UNL     1      -0.792   4.376   2.177  1.00  0.00    -0.246 OA
BRANCH  41  43
ATOM     43  C   UNL     1      -2.782   2.909   2.743  1.00  0.00     0.060 A 
ATOM     44  C   UNL     1      -4.210   1.593   2.594  1.00  0.00     0.016 A 
ATOM     45  C   UNL     1      -2.470   3.289   4.452  1.00  0.00     0.016 A 
ATOM     46  C   UNL     1      -5.072   0.911   3.977  1.00  0.00     0.010 A 
ATOM     47  C   UNL     1      -3.467   2.572   5.684  1.00  0.00     0.010 A 
ATOM     48  C   UNL     1      -4.681   1.355   5.410  1.00  0.00    -0.014 A 
BRANCH  48  49
ATOM     49  C   UNL     1      -5.135   0.342   6.439  1.00  0.00     0.031 A 
ATOM     50  C   UNL     1      -5.910   0.959   7.519  1.00  0.00     0.074 A 
ATOM     51  C   UNL     1      -4.966  -1.019   6.364  1.00  0.00     0.049 A 
ATOM     52  N   UNL     1      -6.525   0.400   8.510  1.00  0.00    -0.248 NA
ATOM     53  C   UNL     1      -6.044   2.420   7.446  1.00  0.00     0.031 C 
ATOM     54  C   UNL     1      -4.307  -1.762   5.292  1.00  0.00     0.029 A 
ATOM     55  N   UNL     1      -5.301  -2.067   7.201  1.00  0.00    -0.354 N 
ATOM     56  C   UNL     1      -7.168   1.444   9.137  1.00  0.00     0.074 A 
ATOM     57  C   UNL     1      -6.802   2.671   8.486  1.00  0.00     0.031 C 
ATOM     58  C   UNL     1      -4.234  -3.076   5.510  1.00  0.00     0.029 A 
ATOM     59  C   UNL     1      -4.814  -3.311   6.798  1.00  0.00     0.049 A 
ATOM     60  H   UNL     1      -5.839  -1.945   8.016  1.00  0.00     0.167 HD
ATOM     61  C   UNL     1      -8.008   1.365  10.180  1.00  0.00     0.037 A 
ATOM     62  C   UNL     1      -4.793  -4.508   7.415  1.00  0.00     0.037 A 
ATOM     63  C   UNL     1      -8.144   0.151  10.918  1.00  0.00     0.049 A 
ATOM     64  C   UNL     1      -5.483  -4.511   8.738  1.00  0.00     0.074 A 
ATOM     65  C   UNL     1      -8.760  -0.061  12.127  1.00  0.00     0.029 A 
ATOM     66  N   UNL     1      -7.557  -1.055  10.530  1.00  0.00    -0.354 N 
ATOM     67  N   UNL     1      -6.078  -3.507   9.338  1.00  0.00    -0.248 NA
ATOM     68  C   UNL     1      -5.543  -5.782   9.454  1.00  0.00     0.031 C 
ATOM     69  C   UNL     1      -8.461  -1.370  12.519  1.00  0.00     0.029 A 
ATOM     70  C   UNL     1      -7.766  -2.012  11.498  1.00  0.00     0.049 A 
ATOM     71  H   UNL     1      -7.067  -1.200   9.688  1.00  0.00     0.167 HD
ATOM     72  C   UNL     1      -6.644  -4.027  10.477  1.00  0.00     0.074 A 
ATOM     73  C   UNL     1      -6.317  -5.447  10.476  1.00  0.00     0.031 C 
ATOM     74  C   UNL     1      -7.381  -3.402  11.427  1.00  0.00     0.037 A 
BRANCH  61  75
ATOM     75  C   UNL     1      -8.604   2.673  10.583  1.00  0.00     0.064 A 
ATOM     76  C   UNL     1      -9.474   3.369   9.719  1.00  0.00     0.173 A 
ATOM     77  C   UNL     1      -8.076   3.360  11.682  1.00  0.00     0.173 A 
ATOM     78  F   UNL     1      -9.909   2.791   8.587  1.00  0.00    -0.203 F 
ATOM     79  C   UNL     1      -9.753   4.718   9.923  1.00  0.00     0.198 A 
ATOM     80  C   UNL     1      -8.393   4.696  11.904  1.00  0.00     0.198 A 
ATOM     81  F   UNL     1      -7.172   2.768  12.477  1.00  0.00    -0.203 F 
ATOM     82  F   UNL     1     -10.461   5.400   9.011  1.00  0.00    -0.200 F 
ATOM     83  C   UNL     1      -9.216   5.377  11.018  1.00  0.00     0.200 A 
ATOM     84  F   UNL     1      -7.843   5.345  12.939  1.00  0.00    -0.200 F 
ATOM     85  F   UNL     1      -9.452   6.684  11.194  1.00  0.00    -0.200 F 
ENDBRANCH  61  75
BRANCH  62  86
ATOM     86  C   UNL     1      -4.168  -5.740   6.824  1.00  0.00     0.064 A 
ATOM     87  C   UNL     1      -4.952  -6.851   6.469  1.00  0.00     0.173 A 
ATOM     88  C   UNL     1      -2.780  -5.865   6.625  1.00  0.00     0.173 A 
ATOM     89  F   UNL     1      -6.282  -6.809   6.638  1.00  0.00    -0.203 F 
ATOM     90  C   UNL     1      -4.383  -8.031   5.977  1.00  0.00     0.198 A 
ATOM     91  C   UNL     1      -2.212  -7.038   6.109  1.00  0.00     0.198 A 
ATOM     92  F   UNL     1      -1.962  -4.849   6.936  1.00  0.00    -0.203 F 
ATOM     93  F   UNL     1      -5.164  -9.085   5.699  1.00  0.00    -0.200 F 
ATOM     94  C   UNL     1      -3.013  -8.124   5.796  1.00  0.00     0.200 A 
ATOM     95  F   UNL     1      -0.886  -7.119   5.924  1.00  0.00    -0.200 F 
ATOM     96  F   UNL     1      -2.468  -9.258   5.332  1.00  0.00    -0.200 F 
ENDBRANCH  62  86
BRANCH  74  97
ATOM     97  C   UNL     1      -7.926  -4.289  12.490  1.00  0.00     0.064 A 
ATOM     98  C   UNL     1      -7.100  -4.922  13.425  1.00  0.00     0.173 A 
ATOM     99  C   UNL     1      -9.312  -4.482  12.569  1.00  0.00     0.173 A 
ATOM    100  F   UNL     1      -5.767  -4.768  13.368  1.00  0.00    -0.203 F 
ATOM    101  C   UNL     1      -7.643  -5.775  14.372  1.00  0.00     0.198 A 
ATOM    102  C   UNL     1      -9.855  -5.281  13.559  1.00  0.00     0.198 A 
ATOM    103  F   UNL     1     -10.134  -3.882  11.694  1.00  0.00    -0.203 F 
ATOM    104  F   UNL     1      -6.835  -6.455  15.195  1.00  0.00    -0.200 F 
ATOM    105  C   UNL     1      -9.019  -5.944  14.446  1.00  0.00     0.200 A 
ATOM    106  F   UNL     1     -11.184  -5.414  13.652  1.00  0.00    -0.200 F 
ATOM    107  F   UNL     1      -9.543  -6.759  15.370  1.00  0.00    -0.200 F 
ENDBRANCH  74  97
ENDBRANCH  48  49
ENDBRANCH  41  43
ENDBRANCH  40  41
ENDBRANCH  39  40
ENDBRANCH   1  39
TORSDOF 15
