REMARK SMILES Cc1nc(SCc2cccc(Cl)c2)[nH]c(=O)c1CC(=O)OCCOCCOC(=O)c1ccc(-c2c3nc(c(-c4c(F)c(F)c(F)c(F)c4F)c4ccc([nH]4)c(-c4c(F)c(F)c(F)c(F)c4F)c4nc(c(-c5c(F)c(F)c(F)c(F)c5F)c5ccc2[nH]5)C=C4)C=C3)cc1
REMARK SMILES IDX 23 1 22 2 21 3 19 4 20 5 18 6 17 7 1 8 2 9 3 10 4 11 15 12
REMARK SMILES IDX 14 13 16 14 5 16 6 17 7 18 8 19 13 20 9 21 11 22 10 23 12 24
REMARK SMILES IDX 24 25 25 26 26 27 27 28 28 29 29 30 30 31 31 32 92 33 32 34
REMARK SMILES IDX 91 35 33 36 34 37 35 38 85 39 36 40 90 41 84 42 86 43 37 44
REMARK SMILES IDX 89 45 83 46 82 47 38 49 70 50 50 51 69 52 51 53 54 54 68 55
REMARK SMILES IDX 87 56 52 57 53 58 67 60 88 61 55 62 39 63 40 64 48 65 41 66
REMARK SMILES IDX 42 67 46 68 49 69 43 70 44 71 47 72 45 73 71 74 72 75 80 76
REMARK SMILES IDX 73 77 74 78 78 79 81 80 75 81 76 82 79 83 77 84 56 85 57 86
REMARK SMILES IDX 65 87 58 88 59 89 63 90 66 91 60 92 61 93 64 94 62 95
REMARK H PARENT 14 15 86 48 54 59
REMARK Flexibility Score: inf
ROOT
ATOM      1  C   UNL     1       1.966  -3.313  -3.550  1.00  0.00     0.202 C 
ENDROOT
BRANCH   1   2
ATOM      2  C   UNL     1       0.619  -3.707  -2.928  1.00  0.00     0.261 C 
BRANCH   2   3
ATOM      3  O   UNL     1       0.266  -2.928  -1.765  1.00  0.00    -0.463 OA
BRANCH   3   4
ATOM      4  C   UNL     1       0.028  -3.653  -0.638  1.00  0.00     0.310 C 
ATOM      5  O   UNL     1       0.001  -4.880  -0.599  1.00  0.00    -0.252 OA
BRANCH   4   6
ATOM      6  C   UNL     1      -0.194  -2.834   0.625  1.00  0.00     0.166 C 
BRANCH   6   7
ATOM      7  C   UNL     1      -0.313  -1.342   0.516  1.00  0.00     0.050 A 
ATOM      8  C   UNL     1      -2.812  -1.312   0.360  1.00  0.00     0.067 C 
ATOM      9  C   UNL     1      -1.464  -0.645   0.457  1.00  0.00     0.050 A 
ATOM     10  N   UNL     1      -1.524   0.726   0.403  1.00  0.00    -0.229 NA
ATOM     11  C   UNL     1      -0.419   1.373   0.289  1.00  0.00     0.168 A 
ATOM     12  C   UNL     1       0.935  -0.540   0.600  1.00  0.00     0.255 A 
ATOM     13  N   UNL     1       0.801   0.793   0.366  1.00  0.00    -0.301 N 
ATOM     14  O   UNL     1       2.020  -1.041   0.872  1.00  0.00    -0.269 OA
ATOM     15  H   UNL     1       1.607   1.347   0.252  1.00  0.00     0.172 HD
BRANCH  11  16
ATOM     16  S   UNL     1      -0.345   3.078  -0.014  1.00  0.00    -0.083 SA
BRANCH  16  17
ATOM     17  C   UNL     1      -2.105   3.498  -0.171  1.00  0.00     0.113 C 
BRANCH  17  18
ATOM     18  C   UNL     1      -2.720   3.288  -1.542  1.00  0.00    -0.036 A 
ATOM     19  C   UNL     1      -3.334   4.361  -2.207  1.00  0.00     0.005 A 
ATOM     20  C   UNL     1      -2.803   2.021  -2.141  1.00  0.00     0.025 A 
ATOM     21  C   UNL     1      -4.011   4.165  -3.417  1.00  0.00     0.002 A 
ATOM     22  C   UNL     1      -3.475   1.826  -3.347  1.00  0.00     0.041 A 
ATOM     23  C   UNL     1      -4.087   2.895  -3.986  1.00  0.00     0.020 A 
ATOM     24  Cl  UNL     1      -3.557   0.246  -4.025  1.00  0.00    -0.084 Cl
ENDBRANCH  17  18
ENDBRANCH  16  17
ENDBRANCH  11  16
ENDBRANCH   6   7
ENDBRANCH   4   6
ENDBRANCH   3   4
ENDBRANCH   2   3
ENDBRANCH   1   2
BRANCH   1  25
ATOM     25  O   UNL     1       3.115  -3.328  -2.708  1.00  0.00    -0.374 OA
BRANCH  25  26
ATOM     26  C   UNL     1       3.202  -2.314  -1.707  1.00  0.00     0.202 C 
BRANCH  26  27
ATOM     27  C   UNL     1       3.518  -0.889  -2.182  1.00  0.00     0.261 C 
BRANCH  27  28
ATOM     28  O   UNL     1       2.530  -0.364  -3.091  1.00  0.00    -0.460 OA
BRANCH  28  29
ATOM     29  C   UNL     1       2.998  -0.086  -4.331  1.00  0.00     0.338 C 
ATOM     30  O   UNL     1       4.162  -0.127  -4.713  1.00  0.00    -0.246 OA
BRANCH  29  31
ATOM     31  C   UNL     1       1.887   0.127  -5.274  1.00  0.00     0.060 A 
ATOM     32  C   UNL     1       1.848  -0.682  -6.418  1.00  0.00     0.016 A 
ATOM     33  C   UNL     1       0.957   1.155  -5.101  1.00  0.00     0.016 A 
ATOM     34  C   UNL     1       0.908  -0.437  -7.416  1.00  0.00     0.010 A 
ATOM     35  C   UNL     1       0.020   1.406  -6.111  1.00  0.00     0.010 A 
ATOM     36  C   UNL     1       0.013   0.632  -7.286  1.00  0.00    -0.014 A 
BRANCH  36  37
ATOM     37  C   UNL     1      -0.846   1.009  -8.435  1.00  0.00     0.031 A 
ATOM     38  C   UNL     1      -0.419   2.135  -9.335  1.00  0.00     0.074 A 
ATOM     39  C   UNL     1      -1.981   0.334  -8.689  1.00  0.00     0.049 A 
ATOM     40  N   UNL     1      -1.031   2.649 -10.373  1.00  0.00    -0.248 NA
ATOM     41  C   UNL     1       0.872   2.768  -9.024  1.00  0.00     0.031 C 
ATOM     42  C   UNL     1      -2.478  -0.797  -7.911  1.00  0.00     0.029 A 
ATOM     43  N   UNL     1      -2.923   0.510  -9.672  1.00  0.00    -0.354 N 
ATOM     44  C   UNL     1      -0.206   3.667 -10.832  1.00  0.00     0.074 A 
ATOM     45  C   UNL     1       0.940   3.716  -9.949  1.00  0.00     0.031 C 
ATOM     46  C   UNL     1      -3.643  -1.209  -8.438  1.00  0.00     0.029 A 
ATOM     47  C   UNL     1      -3.988  -0.349  -9.569  1.00  0.00     0.049 A 
ATOM     48  H   UNL     1      -2.842   1.186 -10.383  1.00  0.00     0.167 HD
ATOM     49  C   UNL     1      -0.387   4.483 -11.898  1.00  0.00     0.037 A 
ATOM     50  C   UNL     1      -5.125  -0.415 -10.290  1.00  0.00     0.037 A 
ATOM     51  C   UNL     1      -1.525   4.428 -12.778  1.00  0.00     0.049 A 
ATOM     52  C   UNL     1      -5.333   0.548 -11.430  1.00  0.00     0.074 A 
ATOM     53  C   UNL     1      -1.784   5.189 -13.904  1.00  0.00     0.029 A 
ATOM     54  N   UNL     1      -2.601   3.566 -12.622  1.00  0.00    -0.354 N 
ATOM     55  N   UNL     1      -4.534   1.488 -11.877  1.00  0.00    -0.248 NA
ATOM     56  C   UNL     1      -6.602   0.444 -12.165  1.00  0.00     0.031 C 
ATOM     57  C   UNL     1      -3.041   4.825 -14.399  1.00  0.00     0.029 A 
ATOM     58  C   UNL     1      -3.542   3.800 -13.612  1.00  0.00     0.049 A 
ATOM     59  H   UNL     1      -2.683   2.887 -11.914  1.00  0.00     0.167 HD
ATOM     60  C   UNL     1      -5.191   2.069 -12.954  1.00  0.00     0.074 A 
ATOM     61  C   UNL     1      -6.449   1.367 -13.104  1.00  0.00     0.031 C 
ATOM     62  C   UNL     1      -4.789   3.092 -13.747  1.00  0.00     0.037 A 
BRANCH  49  63
ATOM     63  C   UNL     1       0.656   5.529 -12.160  1.00  0.00     0.064 A 
ATOM     64  C   UNL     1       1.925   5.200 -12.659  1.00  0.00     0.173 A 
ATOM     65  C   UNL     1       0.366   6.886 -11.949  1.00  0.00     0.173 A 
ATOM     66  F   UNL     1       2.256   3.917 -12.867  1.00  0.00    -0.203 F 
ATOM     67  C   UNL     1       2.872   6.189 -12.917  1.00  0.00     0.198 A 
ATOM     68  C   UNL     1       1.305   7.874 -12.233  1.00  0.00     0.198 A 
ATOM     69  F   UNL     1      -0.835   7.255 -11.477  1.00  0.00    -0.203 F 
ATOM     70  F   UNL     1       4.091   5.848 -13.356  1.00  0.00    -0.200 F 
ATOM     71  C   UNL     1       2.559   7.524 -12.711  1.00  0.00     0.200 A 
ATOM     72  F   UNL     1       0.996   9.164 -12.045  1.00  0.00    -0.200 F 
ATOM     73  F   UNL     1       3.468   8.475 -12.968  1.00  0.00    -0.200 F 
ENDBRANCH  49  63
BRANCH  50  74
ATOM     74  C   UNL     1      -6.166  -1.415  -9.940  1.00  0.00     0.064 A 
ATOM     75  C   UNL     1      -6.460  -2.487 -10.793  1.00  0.00     0.173 A 
ATOM     76  C   UNL     1      -6.900  -1.309  -8.748  1.00  0.00     0.173 A 
ATOM     77  F   UNL     1      -5.806  -2.614 -11.957  1.00  0.00    -0.203 F 
ATOM     78  C   UNL     1      -7.457  -3.407 -10.475  1.00  0.00     0.198 A 
ATOM     79  C   UNL     1      -7.876  -2.246  -8.418  1.00  0.00     0.198 A 
ATOM     80  F   UNL     1      -6.662  -0.297  -7.901  1.00  0.00    -0.203 F 
ATOM     81  F   UNL     1      -7.749  -4.397 -11.330  1.00  0.00    -0.200 F 
ATOM     82  C   UNL     1      -8.159  -3.290  -9.285  1.00  0.00     0.200 A 
ATOM     83  F   UNL     1      -8.546  -2.134  -7.263  1.00  0.00    -0.200 F 
ATOM     84  F   UNL     1      -9.115  -4.177  -8.979  1.00  0.00    -0.200 F 
ENDBRANCH  50  74
BRANCH  62  85
ATOM     85  C   UNL     1      -5.706   3.504 -14.862  1.00  0.00     0.064 A 
ATOM     86  C   UNL     1      -6.897   4.202 -14.613  1.00  0.00     0.173 A 
ATOM     87  C   UNL     1      -5.364   3.244 -16.198  1.00  0.00     0.173 A 
ATOM     88  F   UNL     1      -7.276   4.462 -13.353  1.00  0.00    -0.203 F 
ATOM     89  C   UNL     1      -7.721   4.608 -15.660  1.00  0.00     0.198 A 
ATOM     90  C   UNL     1      -6.175   3.676 -17.243  1.00  0.00     0.198 A 
ATOM     91  F   UNL     1      -4.232   2.586 -16.490  1.00  0.00    -0.203 F 
ATOM     92  F   UNL     1      -8.874   5.238 -15.397  1.00  0.00    -0.200 F 
ATOM     93  C   UNL     1      -7.355   4.352 -16.973  1.00  0.00     0.200 A 
ATOM     94  F   UNL     1      -5.814   3.440 -18.512  1.00  0.00    -0.200 F 
ATOM     95  F   UNL     1      -8.144   4.753 -17.980  1.00  0.00    -0.200 F 
ENDBRANCH  62  85
ENDBRANCH  36  37
ENDBRANCH  29  31
ENDBRANCH  28  29
ENDBRANCH  27  28
ENDBRANCH  26  27
ENDBRANCH  25  26
ENDBRANCH   1  25
TORSDOF 18
