REMARK SMILES Cc1c(CC(=O)OCCOCCOC(=O)c2ccc(-c3c4nc(c(-c5c(F)c(F)c(F)c(F)c5F)c5ccc([nH]5)c(-c5c(F)c(F)c(F)c(F)c5F)c5nc(c(-c6c(F)c(F)c(F)c(F)c6F)c6ccc3[nH]6)C=C5)C=C4)cc2)cc(-c2ccc(S(C)(=O)=O)cc2)n1-c1ccccc1
REMARK SMILES IDX 9 1 8 2 7 3 5 4 6 5 4 6 3 7 1 8 2 9 91 10 79 11 80 12 92 13
REMARK SMILES IDX 93 14 97 15 94 16 96 17 95 18 81 19 82 20 90 21 83 22 89 23
REMARK SMILES IDX 84 24 85 25 86 26 87 27 88 28 10 29 11 30 12 31 13 32 14 33
REMARK SMILES IDX 15 34 16 35 17 36 78 37 18 38 77 39 19 40 20 41 21 42 71 43
REMARK SMILES IDX 22 44 76 45 70 46 72 47 23 48 75 49 69 50 68 51 24 53 56 54
REMARK SMILES IDX 36 55 55 56 37 57 40 58 54 59 73 60 38 61 39 62 53 64 74 65
REMARK SMILES IDX 41 66 25 67 26 68 34 69 27 70 28 71 32 72 35 73 29 74 30 75
REMARK SMILES IDX 33 76 31 77 57 78 58 79 66 80 59 81 60 82 64 83 67 84 61 85
REMARK SMILES IDX 62 86 65 87 63 88 42 89 43 90 51 91 44 92 45 93 49 94 52 95
REMARK SMILES IDX 46 96 47 97 50 98 48 99
REMARK H PARENT 72 52 40 63
REMARK Flexibility Score: inf
ROOT
ATOM      1  C   UNL     1       5.801  -1.274  -1.208  1.00  0.00     0.202 C 
ENDROOT
BRANCH   1   2
ATOM      2  C   UNL     1       4.919  -2.481  -0.810  1.00  0.00     0.261 C 
BRANCH   2   3
ATOM      3  O   UNL     1       3.517  -2.336  -1.120  1.00  0.00    -0.463 OA
BRANCH   3   4
ATOM      4  C   UNL     1       2.674  -3.009  -0.285  1.00  0.00     0.310 C 
ATOM      5  O   UNL     1       3.047  -3.671   0.682  1.00  0.00    -0.252 OA
BRANCH   4   6
ATOM      6  C   UNL     1       1.215  -2.995  -0.690  1.00  0.00     0.160 C 
BRANCH   6   7
ATOM      7  C   UNL     1       0.737  -1.887  -1.580  1.00  0.00    -0.015 A 
ATOM      8  C   UNL     1       0.287  -0.001   0.148  1.00  0.00     0.065 C 
ATOM      9  C   UNL     1       0.359  -0.599  -1.221  1.00  0.00     0.024 A 
ATOM     10  N   UNL     1      -0.083   0.065  -2.362  1.00  0.00    -0.314 N 
ATOM     11  C   UNL     1       0.417  -2.029  -2.957  1.00  0.00     0.033 A 
ATOM     12  C   UNL     1      -0.148  -0.850  -3.410  1.00  0.00     0.053 A 
BRANCH  10  13
ATOM     13  C   UNL     1      -0.386   1.449  -2.456  1.00  0.00     0.046 A 
ATOM     14  C   UNL     1      -1.618   1.872  -2.965  1.00  0.00     0.026 A 
ATOM     15  C   UNL     1       0.600   2.380  -2.114  1.00  0.00     0.026 A 
ATOM     16  C   UNL     1      -1.855   3.235  -3.146  1.00  0.00     0.002 A 
ATOM     17  C   UNL     1       0.368   3.738  -2.333  1.00  0.00     0.002 A 
ATOM     18  C   UNL     1      -0.857   4.164  -2.848  1.00  0.00     0.000 A 
ENDBRANCH  10  13
BRANCH  12  19
ATOM     19  C   UNL     1      -0.644  -0.565  -4.758  1.00  0.00    -0.001 A 
ATOM     20  C   UNL     1       0.041   0.313  -5.609  1.00  0.00     0.011 A 
ATOM     21  C   UNL     1      -1.817  -1.186  -5.209  1.00  0.00     0.011 A 
ATOM     22  C   UNL     1      -0.445   0.579  -6.891  1.00  0.00     0.021 A 
ATOM     23  C   UNL     1      -2.314  -0.920  -6.487  1.00  0.00     0.021 A 
ATOM     24  C   UNL     1      -1.627  -0.032  -7.318  1.00  0.00     0.067 A 
BRANCH  24  25
ATOM     25  S   UNL     1      -2.232   0.293  -8.957  1.00  0.00     0.175 S 
ATOM     26  C   UNL     1      -2.657   2.014  -8.930  1.00  0.00     0.163 C 
ATOM     27  O   UNL     1      -1.105   0.115  -9.865  1.00  0.00    -0.224 OA
ATOM     28  O   UNL     1      -3.454  -0.457  -9.137  1.00  0.00    -0.224 OA
ENDBRANCH  24  25
ENDBRANCH  12  19
ENDBRANCH   6   7
ENDBRANCH   4   6
ENDBRANCH   3   4
ENDBRANCH   2   3
ENDBRANCH   1   2
BRANCH   1  29
ATOM     29  O   UNL     1       5.411   0.004  -0.707  1.00  0.00    -0.374 OA
BRANCH  29  30
ATOM     30  C   UNL     1       4.397   0.640  -1.478  1.00  0.00     0.202 C 
BRANCH  30  31
ATOM     31  C   UNL     1       4.814   1.780  -2.479  1.00  0.00     0.261 C 
BRANCH  31  32
ATOM     32  O   UNL     1       5.729   1.599  -3.633  1.00  0.00    -0.460 OA
BRANCH  32  33
ATOM     33  C   UNL     1       6.848   2.432  -3.733  1.00  0.00     0.338 C 
ATOM     34  O   UNL     1       7.392   2.924  -2.754  1.00  0.00    -0.246 OA
BRANCH  33  35
ATOM     35  C   UNL     1       7.265   2.883  -5.168  1.00  0.00     0.060 A 
ATOM     36  C   UNL     1       8.549   3.013  -5.779  1.00  0.00     0.016 A 
ATOM     37  C   UNL     1       6.301   3.399  -5.971  1.00  0.00     0.016 A 
ATOM     38  C   UNL     1       8.832   3.538  -7.219  1.00  0.00     0.010 A 
ATOM     39  C   UNL     1       6.647   3.930  -7.284  1.00  0.00     0.010 A 
ATOM     40  C   UNL     1       7.854   4.058  -8.089  1.00  0.00    -0.014 A 
BRANCH  40  41
ATOM     41  C   UNL     1       7.720   4.026  -9.890  1.00  0.00     0.031 A 
ATOM     42  C   UNL     1       6.973   2.729 -10.076  1.00  0.00     0.074 A 
ATOM     43  C   UNL     1       7.697   4.817 -11.144  1.00  0.00     0.049 A 
ATOM     44  N   UNL     1       6.060   2.484  -9.176  1.00  0.00    -0.248 NA
ATOM     45  C   UNL     1       6.647   2.030 -11.306  1.00  0.00     0.031 C 
ATOM     46  C   UNL     1       8.140   6.214 -11.459  1.00  0.00     0.029 A 
ATOM     47  N   UNL     1       7.098   4.562 -12.502  1.00  0.00    -0.354 N 
ATOM     48  C   UNL     1       4.952   2.732  -9.904  1.00  0.00     0.074 A 
ATOM     49  C   UNL     1       5.309   2.008 -11.144  1.00  0.00     0.031 C 
ATOM     50  C   UNL     1       7.917   6.603 -12.770  1.00  0.00     0.029 A 
ATOM     51  C   UNL     1       7.198   5.589 -13.562  1.00  0.00     0.049 A 
ATOM     52  H   UNL     1       6.639   3.710 -12.684  1.00  0.00     0.167 HD
ATOM     53  C   UNL     1       4.103   3.807  -9.698  1.00  0.00     0.037 A 
ATOM     54  C   UNL     1       6.603   5.652 -14.871  1.00  0.00     0.037 A 
ATOM     55  C   UNL     1       2.997   3.805 -10.571  1.00  0.00     0.049 A 
ATOM     56  C   UNL     1       5.205   5.424 -14.484  1.00  0.00     0.074 A 
ATOM     57  C   UNL     1       2.383   2.865 -11.356  1.00  0.00     0.029 A 
ATOM     58  N   UNL     1       2.366   4.991 -10.836  1.00  0.00    -0.354 N 
ATOM     59  N   UNL     1       4.488   6.450 -14.120  1.00  0.00    -0.248 NA
ATOM     60  C   UNL     1       4.488   4.216 -14.899  1.00  0.00     0.031 C 
ATOM     61  C   UNL     1       2.009   3.622 -12.488  1.00  0.00     0.029 A 
ATOM     62  C   UNL     1       2.187   4.980 -12.187  1.00  0.00     0.049 A 
ATOM     63  H   UNL     1       2.102   5.692 -10.197  1.00  0.00     0.167 HD
ATOM     64  C   UNL     1       3.232   5.922 -14.015  1.00  0.00     0.074 A 
ATOM     65  C   UNL     1       3.245   4.686 -14.771  1.00  0.00     0.031 C 
ATOM     66  C   UNL     1       2.547   6.188 -12.885  1.00  0.00     0.037 A 
BRANCH  53  67
ATOM     67  C   UNL     1       4.199   5.036  -8.696  1.00  0.00     0.064 A 
ATOM     68  C   UNL     1       5.224   6.031  -8.604  1.00  0.00     0.173 A 
ATOM     69  C   UNL     1       3.159   5.236  -7.780  1.00  0.00     0.173 A 
ATOM     70  F   UNL     1       6.236   6.072  -9.463  1.00  0.00    -0.203 F 
ATOM     71  C   UNL     1       5.309   6.981  -7.572  1.00  0.00     0.198 A 
ATOM     72  C   UNL     1       3.191   6.250  -6.807  1.00  0.00     0.198 A 
ATOM     73  F   UNL     1       2.066   4.466  -7.848  1.00  0.00    -0.203 F 
ATOM     74  F   UNL     1       6.394   7.765  -7.455  1.00  0.00    -0.200 F 
ATOM     75  C   UNL     1       4.286   7.084  -6.664  1.00  0.00     0.200 A 
ATOM     76  F   UNL     1       2.132   6.420  -6.005  1.00  0.00    -0.200 F 
ATOM     77  F   UNL     1       4.338   7.991  -5.679  1.00  0.00    -0.200 F 
ENDBRANCH  53  67
BRANCH  54  78
ATOM     78  C   UNL     1       6.351   6.255 -16.462  1.00  0.00     0.064 A 
ATOM     79  C   UNL     1       7.306   6.626 -17.420  1.00  0.00     0.173 A 
ATOM     80  C   UNL     1       5.046   6.149 -17.140  1.00  0.00     0.173 A 
ATOM     81  F   UNL     1       8.553   6.922 -17.041  1.00  0.00    -0.203 F 
ATOM     82  C   UNL     1       7.004   6.746 -18.839  1.00  0.00     0.198 A 
ATOM     83  C   UNL     1       4.782   6.097 -18.521  1.00  0.00     0.198 A 
ATOM     84  F   UNL     1       3.890   6.295 -16.495  1.00  0.00    -0.203 F 
ATOM     85  F   UNL     1       7.937   7.204 -19.687  1.00  0.00    -0.200 F 
ATOM     86  C   UNL     1       5.773   6.406 -19.390  1.00  0.00     0.200 A 
ATOM     87  F   UNL     1       3.539   5.824 -18.962  1.00  0.00    -0.200 F 
ATOM     88  F   UNL     1       5.523   6.452 -20.708  1.00  0.00    -0.200 F 
ENDBRANCH  54  78
BRANCH  66  89
ATOM     89  C   UNL     1       2.971   7.539 -12.319  1.00  0.00     0.064 A 
ATOM     90  C   UNL     1       2.401   8.712 -12.825  1.00  0.00     0.173 A 
ATOM     91  C   UNL     1       4.144   7.705 -11.555  1.00  0.00     0.173 A 
ATOM     92  F   UNL     1       1.332   8.634 -13.629  1.00  0.00    -0.203 F 
ATOM     93  C   UNL     1       2.957   9.972 -12.565  1.00  0.00     0.198 A 
ATOM     94  C   UNL     1       4.695   8.960 -11.275  1.00  0.00     0.198 A 
ATOM     95  F   UNL     1       4.816   6.619 -11.169  1.00  0.00    -0.203 F 
ATOM     96  F   UNL     1       2.399  11.068 -13.097  1.00  0.00    -0.200 F 
ATOM     97  C   UNL     1       4.100  10.096 -11.788  1.00  0.00     0.200 A 
ATOM     98  F   UNL     1       5.814   9.063 -10.543  1.00  0.00    -0.200 F 
ATOM     99  F   UNL     1       4.635  11.304 -11.556  1.00  0.00    -0.200 F 
ENDBRANCH  66  89
ENDBRANCH  40  41
ENDBRANCH  33  35
ENDBRANCH  32  33
ENDBRANCH  31  32
ENDBRANCH  30  31
ENDBRANCH  29  30
ENDBRANCH   1  29
TORSDOF 18
