REMARK SMILES CCc1sc(NC(=O)[C@H]2CC(C)=C(C)C[C@H]2C(=O)OCCOCCOC(=O)c2ccc(-c3c4nc(c(-c5c(F)c(F)c(F)c(F)c5F)c5ccc([nH]5)c(-c5c(F)c(F)c(F)c(F)c5F)c5nc(c(-c6c(F)c(F)c(F)c(F)c6F)c6ccc3[nH]6)C=C5)C=C4)cc2)nc1-c1ccccc1
REMARK SMILES IDX 21 1 20 2 19 3 17 4 18 5 16 6 9 7 10 8 11 9 15 10 12 11
REMARK SMILES IDX 13 12 14 13 7 14 6 15 8 17 5 18 3 19 4 20 92 21 91 22 2 23
REMARK SMILES IDX 1 24 93 25 94 26 98 27 95 28 97 29 96 30 22 31 23 32 24 33
REMARK SMILES IDX 25 34 26 35 27 36 28 37 29 38 90 39 30 40 89 41 31 42 32 43
REMARK SMILES IDX 33 44 83 45 34 46 88 47 82 48 84 49 35 50 87 51 81 52 80 53
REMARK SMILES IDX 36 55 68 56 48 57 67 58 49 59 52 60 66 61 85 62 50 63 51 64
REMARK SMILES IDX 65 66 86 67 53 68 37 69 38 70 46 71 39 72 40 73 44 74 47 75
REMARK SMILES IDX 41 76 42 77 45 78 43 79 69 80 70 81 78 82 71 83 72 84 76 85
REMARK SMILES IDX 79 86 73 87 74 88 77 89 75 90 54 91 55 92 63 93 56 94 57 95
REMARK SMILES IDX 61 96 64 97 58 98 59 99 62 100 60 101
REMARK H PARENT 6 16 84 54 52 65
REMARK Flexibility Score: inf
ROOT
ATOM      1  C   UNL     1       2.875   6.285   1.261  1.00  0.00     0.202 C 
ENDROOT
BRANCH   1   2
ATOM      2  C   UNL     1       4.076   5.417   0.837  1.00  0.00     0.261 C 
BRANCH   2   3
ATOM      3  O   UNL     1       4.343   4.323   1.751  1.00  0.00    -0.463 OA
BRANCH   3   4
ATOM      4  C   UNL     1       5.555   4.217   2.340  1.00  0.00     0.310 C 
ATOM      5  O   UNL     1       6.442   5.056   2.253  1.00  0.00    -0.252 OA
BRANCH   4   6
ATOM      6  C   UNL     1       5.737   2.885   3.079  1.00  0.00     0.116 C 
ATOM      7  C   UNL     1       5.002   2.717   4.420  1.00  0.00     0.097 C 
ATOM      8  C   UNL     1       4.754   1.284   4.908  1.00  0.00     0.045 C 
ATOM      9  C   UNL     1       4.714   0.195   3.869  1.00  0.00    -0.074 C 
ATOM     10  C   UNL     1       5.661   1.708   2.095  1.00  0.00     0.046 C 
ATOM     11  C   UNL     1       4.105  -1.096   4.375  1.00  0.00     0.039 C 
ATOM     12  C   UNL     1       5.138   0.386   2.604  1.00  0.00    -0.073 C 
ATOM     13  C   UNL     1       5.130  -0.709   1.566  1.00  0.00     0.039 C 
BRANCH   7  14
ATOM     14  C   UNL     1       3.829   3.636   4.750  1.00  0.00     0.230 C 
ATOM     15  N   UNL     1       2.581   3.525   4.232  1.00  0.00    -0.302 N 
ATOM     16  H   UNL     1       1.857   3.996   4.705  1.00  0.00     0.172 HD
ATOM     17  O   UNL     1       4.011   4.552   5.566  1.00  0.00    -0.274 OA
BRANCH  15  18
ATOM     18  C   UNL     1       2.239   2.824   3.121  1.00  0.00     0.190 A 
ATOM     19  C   UNL     1       1.337   1.158   1.625  1.00  0.00     0.034 A 
ATOM     20  S   UNL     1       1.685   1.240   3.318  1.00  0.00    -0.101 S 
ATOM     21  C   UNL     1       1.449   2.442   1.102  1.00  0.00     0.087 A 
ATOM     22  N   UNL     1       1.895   3.388   1.998  1.00  0.00    -0.220 NA
BRANCH  19  23
ATOM     23  C   UNL     1       0.822  -0.141   1.090  1.00  0.00     0.046 C 
ATOM     24  C   UNL     1       1.211  -0.426  -0.347  1.00  0.00     0.010 C 
ENDBRANCH  19  23
BRANCH  21  25
ATOM     25  C   UNL     1       0.774   2.926  -0.088  1.00  0.00     0.001 A 
ATOM     26  C   UNL     1      -0.597   3.059   0.034  1.00  0.00     0.010 A 
ATOM     27  C   UNL     1       1.379   3.426  -1.235  1.00  0.00     0.010 A 
ATOM     28  C   UNL     1      -1.386   3.593  -0.981  1.00  0.00     0.001 A 
ATOM     29  C   UNL     1       0.589   4.003  -2.249  1.00  0.00     0.001 A 
ATOM     30  C   UNL     1      -0.796   4.074  -2.127  1.00  0.00     0.000 A 
ENDBRANCH  21  25
ENDBRANCH  15  18
ENDBRANCH   7  14
ENDBRANCH   4   6
ENDBRANCH   3   4
ENDBRANCH   2   3
ENDBRANCH   1   2
BRANCH   1  31
ATOM     31  O   UNL     1       3.212   7.339   2.166  1.00  0.00    -0.374 OA
BRANCH  31  32
ATOM     32  C   UNL     1       3.376   6.922   3.518  1.00  0.00     0.202 C 
BRANCH  32  33
ATOM     33  C   UNL     1       2.092   6.994   4.362  1.00  0.00     0.261 C 
BRANCH  33  34
ATOM     34  O   UNL     1       1.062   6.052   3.946  1.00  0.00    -0.460 OA
BRANCH  34  35
ATOM     35  C   UNL     1      -0.034   6.622   3.370  1.00  0.00     0.338 C 
ATOM     36  O   UNL     1      -0.200   7.816   3.185  1.00  0.00    -0.246 OA
BRANCH  35  37
ATOM     37  C   UNL     1      -1.058   5.631   2.914  1.00  0.00     0.060 A 
ATOM     38  C   UNL     1      -1.807   5.983   1.785  1.00  0.00     0.016 A 
ATOM     39  C   UNL     1      -1.390   4.449   3.591  1.00  0.00     0.016 A 
ATOM     40  C   UNL     1      -2.858   5.168   1.336  1.00  0.00     0.010 A 
ATOM     41  C   UNL     1      -2.445   3.617   3.126  1.00  0.00     0.010 A 
ATOM     42  C   UNL     1      -3.181   3.953   1.977  1.00  0.00    -0.014 A 
BRANCH  42  43
ATOM     43  C   UNL     1      -4.402   3.209   1.498  1.00  0.00     0.031 A 
ATOM     44  C   UNL     1      -5.721   3.734   1.961  1.00  0.00     0.074 A 
ATOM     45  C   UNL     1      -4.407   2.178   0.619  1.00  0.00     0.049 A 
ATOM     46  N   UNL     1      -6.925   3.343   1.643  1.00  0.00    -0.248 NA
ATOM     47  C   UNL     1      -5.665   4.777   2.994  1.00  0.00     0.031 C 
ATOM     48  C   UNL     1      -3.248   1.408   0.219  1.00  0.00     0.029 A 
ATOM     49  N   UNL     1      -5.406   1.641  -0.173  1.00  0.00    -0.354 N 
ATOM     50  C   UNL     1      -7.770   4.047   2.482  1.00  0.00     0.074 A 
ATOM     51  C   UNL     1      -6.940   4.882   3.323  1.00  0.00     0.031 C 
ATOM     52  C   UNL     1      -3.508   0.726  -0.905  1.00  0.00     0.029 A 
ATOM     53  C   UNL     1      -4.936   0.802  -1.172  1.00  0.00     0.049 A 
ATOM     54  H   UNL     1      -6.362   1.835  -0.039  1.00  0.00     0.167 HD
ATOM     55  C   UNL     1      -9.119   3.973   2.562  1.00  0.00     0.037 A 
ATOM     56  C   UNL     1      -5.573   0.115  -2.148  1.00  0.00     0.037 A 
ATOM     57  C   UNL     1      -9.921   3.099   1.748  1.00  0.00     0.049 A 
ATOM     58  C   UNL     1      -7.074   0.076  -2.077  1.00  0.00     0.074 A 
ATOM     59  C   UNL     1     -11.293   2.932   1.753  1.00  0.00     0.029 A 
ATOM     60  N   UNL     1      -9.416   2.230   0.785  1.00  0.00    -0.354 N 
ATOM     61  N   UNL     1      -7.867   0.719  -1.255  1.00  0.00    -0.248 NA
ATOM     62  C   UNL     1      -7.766  -0.853  -2.980  1.00  0.00     0.031 C 
ATOM     63  C   UNL     1     -11.614   1.938   0.820  1.00  0.00     0.029 A 
ATOM     64  C   UNL     1     -10.451   1.530   0.184  1.00  0.00     0.049 A 
ATOM     65  H   UNL     1      -8.462   2.128   0.562  1.00  0.00     0.167 HD
ATOM     66  C   UNL     1      -9.146   0.257  -1.515  1.00  0.00     0.074 A 
ATOM     67  C   UNL     1      -9.028  -0.697  -2.603  1.00  0.00     0.031 C 
ATOM     68  C   UNL     1     -10.306   0.581  -0.894  1.00  0.00     0.037 A 
BRANCH  55  69
ATOM     69  C   UNL     1      -9.754   4.815   3.630  1.00  0.00     0.064 A 
ATOM     70  C   UNL     1      -9.703   6.219   3.590  1.00  0.00     0.173 A 
ATOM     71  C   UNL     1     -10.310   4.213   4.769  1.00  0.00     0.173 A 
ATOM     72  F   UNL     1      -9.146   6.843   2.541  1.00  0.00    -0.203 F 
ATOM     73  C   UNL     1     -10.114   6.982   4.679  1.00  0.00     0.198 A 
ATOM     74  C   UNL     1     -10.762   4.982   5.837  1.00  0.00     0.198 A 
ATOM     75  F   UNL     1     -10.375   2.876   4.865  1.00  0.00    -0.203 F 
ATOM     76  F   UNL     1      -9.944   8.312   4.664  1.00  0.00    -0.200 F 
ATOM     77  C   UNL     1     -10.645   6.364   5.800  1.00  0.00     0.200 A 
ATOM     78  F   UNL     1     -11.279   4.384   6.919  1.00  0.00    -0.200 F 
ATOM     79  F   UNL     1     -11.017   7.098   6.858  1.00  0.00    -0.200 F 
ENDBRANCH  55  69
BRANCH  56  80
ATOM     80  C   UNL     1      -4.824  -0.680  -3.177  1.00  0.00     0.064 A 
ATOM     81  C   UNL     1      -4.930  -0.397  -4.551  1.00  0.00     0.173 A 
ATOM     82  C   UNL     1      -3.967  -1.734  -2.818  1.00  0.00     0.173 A 
ATOM     83  F   UNL     1      -5.780   0.549  -4.978  1.00  0.00    -0.203 F 
ATOM     84  C   UNL     1      -4.185  -1.102  -5.504  1.00  0.00     0.198 A 
ATOM     85  C   UNL     1      -3.187  -2.403  -3.763  1.00  0.00     0.198 A 
ATOM     86  F   UNL     1      -3.858  -2.101  -1.533  1.00  0.00    -0.203 F 
ATOM     87  F   UNL     1      -4.330  -0.827  -6.808  1.00  0.00    -0.200 F 
ATOM     88  C   UNL     1      -3.295  -2.086  -5.106  1.00  0.00     0.200 A 
ATOM     89  F   UNL     1      -2.322  -3.345  -3.363  1.00  0.00    -0.200 F 
ATOM     90  F   UNL     1      -2.548  -2.733  -6.012  1.00  0.00    -0.200 F 
ENDBRANCH  56  80
BRANCH  68  91
ATOM     91  C   UNL     1     -11.549  -0.056  -1.436  1.00  0.00     0.064 A 
ATOM     92  C   UNL     1     -11.855  -1.407  -1.216  1.00  0.00     0.173 A 
ATOM     93  C   UNL     1     -12.446   0.712  -2.193  1.00  0.00     0.173 A 
ATOM     94  F   UNL     1     -11.016  -2.186  -0.517  1.00  0.00    -0.203 F 
ATOM     95  C   UNL     1     -13.004  -1.973  -1.763  1.00  0.00     0.198 A 
ATOM     96  C   UNL     1     -13.607   0.150  -2.712  1.00  0.00     0.198 A 
ATOM     97  F   UNL     1     -12.193   2.008  -2.429  1.00  0.00    -0.203 F 
ATOM     98  F   UNL     1     -13.251  -3.279  -1.593  1.00  0.00    -0.200 F 
ATOM     99  C   UNL     1     -13.880  -1.194  -2.505  1.00  0.00     0.200 A 
ATOM    100  F   UNL     1     -14.454   0.907  -3.421  1.00  0.00    -0.200 F 
ATOM    101  F   UNL     1     -14.982  -1.742  -3.035  1.00  0.00    -0.200 F 
ENDBRANCH  68  91
ENDBRANCH  42  43
ENDBRANCH  35  37
ENDBRANCH  34  35
ENDBRANCH  33  34
ENDBRANCH  32  33
ENDBRANCH  31  32
ENDBRANCH   1  31
TORSDOF 18
