REMARK SMILES Cc1sc2[nH]c(SCC(=O)OCCOCCOC(=O)c3ccc(-c4c5nc(c(-c6c(F)c(F)c(F)c(F)c6F)c6ccc([nH]6)c(-c6c(F)c(F)c(F)c(F)c6F)c6nc(c(-c7c(F)c(F)c(F)c(F)c7F)c7ccc4[nH]7)C=C6)C=C5)cc3)nc(=O)c2c1C
REMARK SMILES IDX 14 1 13 2 12 3 11 4 9 5 10 6 8 7 7 8 6 9 1 10 2 11 3 12
REMARK SMILES IDX 87 13 4 14 86 15 88 16 5 17 84 18 83 20 85 21 15 22 16 23
REMARK SMILES IDX 17 24 18 25 19 26 20 27 21 28 82 29 22 30 81 31 23 32 24 33
REMARK SMILES IDX 25 34 75 35 26 36 80 37 74 38 76 39 27 40 79 41 73 42 72 43
REMARK SMILES IDX 28 45 60 46 40 47 59 48 41 49 44 50 58 51 77 52 42 53 43 54
REMARK SMILES IDX 57 56 78 57 45 58 29 59 30 60 38 61 31 62 32 63 36 64 39 65
REMARK SMILES IDX 33 66 34 67 37 68 35 69 61 70 62 71 70 72 63 73 64 74 68 75
REMARK SMILES IDX 71 76 65 77 66 78 69 79 67 80 46 81 47 82 55 83 48 84 49 85
REMARK SMILES IDX 53 86 56 87 50 88 51 89 54 90 52 91
REMARK H PARENT 5 19 76 44 44 55
REMARK Flexibility Score: inf
ROOT
ATOM      1  O   UNL     1       2.877  -5.224  -6.481  1.00  0.00    -0.374 OA
ENDROOT
BRANCH   1   2
ATOM      2  C   UNL     1       3.116  -4.795  -7.809  1.00  0.00     0.202 C 
BRANCH   2   3
ATOM      3  C   UNL     1       1.939  -4.550  -8.761  1.00  0.00     0.261 C 
BRANCH   3   4
ATOM      4  O   UNL     1       0.807  -3.862  -8.187  1.00  0.00    -0.463 OA
BRANCH   4   5
ATOM      5  C   UNL     1      -0.347  -4.584  -8.155  1.00  0.00     0.316 C 
ATOM      6  O   UNL     1      -0.440  -5.736  -8.577  1.00  0.00    -0.251 OA
BRANCH   5   7
ATOM      7  C   UNL     1      -1.568  -3.887  -7.591  1.00  0.00     0.200 C 
BRANCH   7   8
ATOM      8  S   UNL     1      -1.418  -2.174  -7.045  1.00  0.00    -0.076 SA
BRANCH   8   9
ATOM      9  C   UNL     1      -1.131  -2.309  -5.319  1.00  0.00     0.170 A 
ATOM     10  C   UNL     1       1.073   0.105  -0.081  1.00  0.00     0.057 C 
ATOM     11  C   UNL     1       0.492  -0.604  -1.265  1.00  0.00     0.007 A 
ATOM     12  S   UNL     1      -0.146   0.320  -2.563  1.00  0.00    -0.122 S 
ATOM     13  C   UNL     1       0.413  -1.972  -1.507  1.00  0.00    -0.022 A 
ATOM     14  C   UNL     1      -0.526  -1.069  -3.439  1.00  0.00     0.108 A 
ATOM     15  C   UNL     1      -0.248  -2.235  -2.769  1.00  0.00     0.080 A 
ATOM     16  C   UNL     1       0.973  -3.033  -0.609  1.00  0.00     0.046 C 
ATOM     17  N   UNL     1      -1.006  -1.101  -4.693  1.00  0.00    -0.326 N 
ATOM     18  C   UNL     1      -0.583  -3.513  -3.418  1.00  0.00     0.282 A 
ATOM     19  H   UNL     1      -1.264  -0.270  -5.152  1.00  0.00     0.169 HD
ATOM     20  N   UNL     1      -0.959  -3.461  -4.757  1.00  0.00    -0.185 NA
ATOM     21  O   UNL     1      -0.468  -4.580  -2.822  1.00  0.00    -0.267 OA
ENDBRANCH   8   9
ENDBRANCH   7   8
ENDBRANCH   5   7
ENDBRANCH   4   5
ENDBRANCH   3   4
ENDBRANCH   2   3
ENDBRANCH   1   2
BRANCH   1  22
ATOM     22  C   UNL     1       2.012  -4.464  -5.653  1.00  0.00     0.202 C 
BRANCH  22  23
ATOM     23  C   UNL     1       2.221  -2.948  -5.494  1.00  0.00     0.261 C 
BRANCH  23  24
ATOM     24  O   UNL     1       3.224  -2.344  -6.297  1.00  0.00    -0.460 OA
BRANCH  24  25
ATOM     25  C   UNL     1       4.433  -2.384  -5.710  1.00  0.00     0.338 C 
ATOM     26  O   UNL     1       4.737  -2.890  -4.645  1.00  0.00    -0.246 OA
BRANCH  25  27
ATOM     27  C   UNL     1       5.389  -1.648  -6.527  1.00  0.00     0.060 A 
ATOM     28  C   UNL     1       6.305  -2.358  -7.304  1.00  0.00     0.016 A 
ATOM     29  C   UNL     1       5.534  -0.289  -6.273  1.00  0.00     0.016 A 
ATOM     30  C   UNL     1       7.450  -1.711  -7.756  1.00  0.00     0.010 A 
ATOM     31  C   UNL     1       6.693   0.339  -6.699  1.00  0.00     0.010 A 
ATOM     32  C   UNL     1       7.678  -0.372  -7.410  1.00  0.00    -0.014 A 
BRANCH  32  33
ATOM     33  C   UNL     1       8.942   0.275  -7.832  1.00  0.00     0.031 A 
ATOM     34  C   UNL     1       8.779   1.709  -8.226  1.00  0.00     0.074 A 
ATOM     35  C   UNL     1      10.141  -0.134  -7.351  1.00  0.00     0.049 A 
ATOM     36  N   UNL     1       8.672   2.651  -7.333  1.00  0.00    -0.248 NA
ATOM     37  C   UNL     1       8.375   2.128  -9.566  1.00  0.00     0.031 C 
ATOM     38  C   UNL     1      10.320  -0.841  -6.074  1.00  0.00     0.029 A 
ATOM     39  N   UNL     1      11.431   0.133  -7.761  1.00  0.00    -0.354 N 
ATOM     40  C   UNL     1       8.109   3.749  -7.950  1.00  0.00     0.074 A 
ATOM     41  C   UNL     1       7.985   3.397  -9.348  1.00  0.00     0.031 C 
ATOM     42  C   UNL     1      11.619  -0.779  -5.718  1.00  0.00     0.029 A 
ATOM     43  C   UNL     1      12.392  -0.149  -6.787  1.00  0.00     0.049 A 
ATOM     44  H   UNL     1      11.653   0.487  -8.652  1.00  0.00     0.167 HD
ATOM     45  C   UNL     1       7.744   4.860  -7.255  1.00  0.00     0.037 A 
ATOM     46  C   UNL     1      13.510   0.601  -6.559  1.00  0.00     0.037 A 
ATOM     47  C   UNL     1       7.912   4.793  -5.832  1.00  0.00     0.049 A 
ATOM     48  C   UNL     1      12.898   1.872  -6.012  1.00  0.00     0.074 A 
ATOM     49  C   UNL     1       7.127   4.595  -4.716  1.00  0.00     0.029 A 
ATOM     50  N   UNL     1       9.184   4.928  -5.331  1.00  0.00    -0.354 N 
ATOM     51  N   UNL     1      12.426   2.058  -4.807  1.00  0.00    -0.248 NA
ATOM     52  C   UNL     1      12.484   2.875  -6.994  1.00  0.00     0.031 C 
ATOM     53  C   UNL     1       8.025   4.138  -3.696  1.00  0.00     0.029 A 
ATOM     54  C   UNL     1       9.293   4.066  -4.270  1.00  0.00     0.049 A 
ATOM     55  H   UNL     1       9.886   5.530  -5.669  1.00  0.00     0.167 HD
ATOM     56  C   UNL     1      11.449   3.048  -4.943  1.00  0.00     0.074 A 
ATOM     57  C   UNL     1      11.550   3.515  -6.309  1.00  0.00     0.031 C 
ATOM     58  C   UNL     1      10.498   3.316  -4.002  1.00  0.00     0.037 A 
BRANCH  45  59
ATOM     59  C   UNL     1       7.403   6.156  -7.864  1.00  0.00     0.064 A 
ATOM     60  C   UNL     1       8.423   7.121  -7.888  1.00  0.00     0.173 A 
ATOM     61  C   UNL     1       6.106   6.552  -8.192  1.00  0.00     0.173 A 
ATOM     62  F   UNL     1       9.680   6.772  -7.561  1.00  0.00    -0.203 F 
ATOM     63  C   UNL     1       8.151   8.449  -8.178  1.00  0.00     0.198 A 
ATOM     64  C   UNL     1       5.838   7.888  -8.501  1.00  0.00     0.198 A 
ATOM     65  F   UNL     1       5.098   5.669  -8.166  1.00  0.00    -0.203 F 
ATOM     66  F   UNL     1       9.137   9.355  -8.129  1.00  0.00    -0.200 F 
ATOM     67  C   UNL     1       6.856   8.835  -8.476  1.00  0.00     0.200 A 
ATOM     68  F   UNL     1       4.585   8.270  -8.787  1.00  0.00    -0.200 F 
ATOM     69  F   UNL     1       6.585  10.124  -8.724  1.00  0.00    -0.200 F 
ENDBRANCH  45  59
BRANCH  46  70
ATOM     70  C   UNL     1      14.548   0.610  -7.644  1.00  0.00     0.064 A 
ATOM     71  C   UNL     1      14.917  -0.612  -8.245  1.00  0.00     0.173 A 
ATOM     72  C   UNL     1      15.206   1.751  -8.130  1.00  0.00     0.173 A 
ATOM     73  F   UNL     1      14.451  -1.772  -7.755  1.00  0.00    -0.203 F 
ATOM     74  C   UNL     1      15.754  -0.666  -9.359  1.00  0.00     0.198 A 
ATOM     75  C   UNL     1      16.018   1.704  -9.266  1.00  0.00     0.198 A 
ATOM     76  F   UNL     1      15.062   2.941  -7.531  1.00  0.00    -0.203 F 
ATOM     77  F   UNL     1      16.034  -1.847  -9.928  1.00  0.00    -0.200 F 
ATOM     78  C   UNL     1      16.271   0.498  -9.896  1.00  0.00     0.200 A 
ATOM     79  F   UNL     1      16.529   2.838  -9.767  1.00  0.00    -0.200 F 
ATOM     80  F   UNL     1      17.013   0.460 -11.011  1.00  0.00    -0.200 F 
ENDBRANCH  46  70
BRANCH  58  81
ATOM     81  C   UNL     1      10.650   2.609  -2.701  1.00  0.00     0.064 A 
ATOM     82  C   UNL     1      11.678   2.976  -1.823  1.00  0.00     0.173 A 
ATOM     83  C   UNL     1       9.741   1.625  -2.280  1.00  0.00     0.173 A 
ATOM     84  F   UNL     1      12.561   3.924  -2.175  1.00  0.00    -0.203 F 
ATOM     85  C   UNL     1      11.777   2.402  -0.560  1.00  0.00     0.198 A 
ATOM     86  C   UNL     1       9.829   1.071  -1.006  1.00  0.00     0.198 A 
ATOM     87  F   UNL     1       8.744   1.223  -3.083  1.00  0.00    -0.203 F 
ATOM     88  F   UNL     1      12.757   2.783   0.271  1.00  0.00    -0.200 F 
ATOM     89  C   UNL     1      10.844   1.464  -0.146  1.00  0.00     0.200 A 
ATOM     90  F   UNL     1       8.913   0.181  -0.596  1.00  0.00    -0.200 F 
ATOM     91  F   UNL     1      10.911   0.951   1.091  1.00  0.00    -0.200 F 
ENDBRANCH  58  81
ENDBRANCH  32  33
ENDBRANCH  25  27
ENDBRANCH  24  25
ENDBRANCH  23  24
ENDBRANCH  22  23
ENDBRANCH   1  22
TORSDOF 16
