REMARK SMILES C[NH+](C)Cc1noc(C[C@@](C)(C(=O)OCCOCCOC(=O)c2ccc(-c3c4nc(c(-c5c(F)c(F)c(F)c(F)c5F)c5ccc([nH]5)c(-c5c(F)c(F)c(F)c(F)c5F)c5nc(c(-c6c(F)c(F)c(F)c(F)c6F)c6ccc3[nH]6)C=C5)C=C4)cc2)c2ccccc2)n1
REMARK SMILES IDX 16 1 15 2 14 3 12 4 13 5 10 6 11 7 9 8 8 9 5 10 6 11 92 12
REMARK SMILES IDX 7 13 4 14 2 15 1 16 3 17 86 19 87 20 91 21 88 22 90 23 89 24
REMARK SMILES IDX 17 25 18 26 19 27 20 28 21 29 22 30 23 31 24 32 85 33 25 34
REMARK SMILES IDX 84 35 26 36 27 37 28 38 78 39 29 40 83 41 77 42 79 43 30 44
REMARK SMILES IDX 82 45 76 46 75 47 31 49 63 50 43 51 62 52 44 53 47 54 61 55
REMARK SMILES IDX 80 56 45 57 46 58 60 60 81 61 48 62 32 63 33 64 41 65 34 66
REMARK SMILES IDX 35 67 39 68 42 69 36 70 37 71 40 72 38 73 64 74 65 75 73 76
REMARK SMILES IDX 66 77 67 78 71 79 74 80 68 81 69 82 72 83 70 84 49 85 50 86
REMARK SMILES IDX 58 87 51 88 52 89 56 90 59 91 53 92 54 93 57 94 55 95
REMARK H PARENT 2 18 79 48 47 59
REMARK Flexibility Score: inf
ROOT
ATOM      1  C   UNL     1       2.224  -9.575   3.337  1.00  0.00     0.202 C 
ENDROOT
BRANCH   1   2
ATOM      2  C   UNL     1       0.750  -9.157   3.303  1.00  0.00     0.261 C 
BRANCH   2   3
ATOM      3  O   UNL     1       0.571  -7.743   3.119  1.00  0.00    -0.463 OA
BRANCH   3   4
ATOM      4  C   UNL     1      -0.172  -7.116   4.076  1.00  0.00     0.316 C 
ATOM      5  O   UNL     1      -0.764  -7.716   4.968  1.00  0.00    -0.251 OA
BRANCH   4   6
ATOM      6  C   UNL     1      -0.188  -5.569   3.942  1.00  0.00     0.099 C 
ATOM      7  C   UNL     1      -1.706  -5.255   3.878  1.00  0.00     0.029 C 
BRANCH   6   8
ATOM      8  C   UNL     1       0.523  -5.128   2.622  1.00  0.00     0.123 C 
BRANCH   8   9
ATOM      9  C   UNL     1       0.360  -3.697   2.256  1.00  0.00     0.228 A 
ATOM     10  C   UNL     1       0.429  -1.616   2.009  1.00  0.00     0.226 A 
ATOM     11  N   UNL     1      -0.833  -1.934   1.681  1.00  0.00    -0.056 NA
ATOM     12  N   UNL     1       1.207  -2.699   2.360  1.00  0.00    -0.190 NA
ATOM     13  O   UNL     1      -0.864  -3.318   1.792  1.00  0.00    -0.339 OA
BRANCH  10  14
ATOM     14  C   UNL     1       0.937  -0.206   2.113  1.00  0.00     0.344 C 
BRANCH  14  15
ATOM     15  N   UNL     1       0.632   0.700   0.985  1.00  0.00    -0.333 N 
ATOM     16  C   UNL     1       1.131   0.199  -0.291  1.00  0.00     0.332 C 
ATOM     17  C   UNL     1      -0.779   1.066   0.904  1.00  0.00     0.332 C 
ATOM     18  H   UNL     1       1.141   1.560   1.189  1.00  0.00     0.348 HD
ENDBRANCH  14  15
ENDBRANCH  10  14
ENDBRANCH   8   9
ENDBRANCH   6   8
BRANCH   6  19
ATOM     19  C   UNL     1       0.445  -4.891   5.188  1.00  0.00    -0.030 A 
ATOM     20  C   UNL     1       1.196  -5.609   6.139  1.00  0.00     0.005 A 
ATOM     21  C   UNL     1       0.280  -3.511   5.424  1.00  0.00     0.005 A 
ATOM     22  C   UNL     1       1.736  -4.982   7.269  1.00  0.00     0.000 A 
ATOM     23  C   UNL     1       0.841  -2.880   6.538  1.00  0.00     0.000 A 
ATOM     24  C   UNL     1       1.564  -3.617   7.466  1.00  0.00     0.000 A 
ENDBRANCH   6  19
ENDBRANCH   4   6
ENDBRANCH   3   4
ENDBRANCH   2   3
ENDBRANCH   1   2
BRANCH   1  25
ATOM     25  O   UNL     1       3.100  -8.816   4.162  1.00  0.00    -0.374 OA
BRANCH  25  26
ATOM     26  C   UNL     1       3.464  -7.506   3.726  1.00  0.00     0.202 C 
BRANCH  26  27
ATOM     27  C   UNL     1       4.257  -7.380   2.417  1.00  0.00     0.261 C 
BRANCH  27  28
ATOM     28  O   UNL     1       3.487  -7.760   1.258  1.00  0.00    -0.460 OA
BRANCH  28  29
ATOM     29  C   UNL     1       4.032  -8.755   0.516  1.00  0.00     0.338 C 
ATOM     30  O   UNL     1       5.102  -9.319   0.697  1.00  0.00    -0.246 OA
BRANCH  29  31
ATOM     31  C   UNL     1       3.071  -9.226  -0.495  1.00  0.00     0.060 A 
ATOM     32  C   UNL     1       2.661 -10.566  -0.441  1.00  0.00     0.016 A 
ATOM     33  C   UNL     1       2.676  -8.405  -1.551  1.00  0.00     0.016 A 
ATOM     34  C   UNL     1       1.883 -11.102  -1.466  1.00  0.00     0.010 A 
ATOM     35  C   UNL     1       1.906  -8.948  -2.585  1.00  0.00     0.010 A 
ATOM     36  C   UNL     1       1.533 -10.305  -2.563  1.00  0.00    -0.014 A 
BRANCH  36  37
ATOM     37  C   UNL     1       0.907 -10.916  -3.761  1.00  0.00     0.031 A 
ATOM     38  C   UNL     1       1.772 -11.255  -4.942  1.00  0.00     0.074 A 
ATOM     39  C   UNL     1      -0.415 -11.158  -3.800  1.00  0.00     0.049 A 
ATOM     40  N   UNL     1       1.429 -11.681  -6.130  1.00  0.00    -0.248 NA
ATOM     41  C   UNL     1       3.223 -11.089  -4.756  1.00  0.00     0.031 C 
ATOM     42  C   UNL     1      -1.348 -10.925  -2.701  1.00  0.00     0.029 A 
ATOM     43  N   UNL     1      -1.202 -11.639  -4.817  1.00  0.00    -0.354 N 
ATOM     44  C   UNL     1       2.616 -11.819  -6.838  1.00  0.00     0.074 A 
ATOM     45  C   UNL     1       3.688 -11.416  -5.953  1.00  0.00     0.031 C 
ATOM     46  C   UNL     1      -2.589 -11.241  -3.111  1.00  0.00     0.029 A 
ATOM     47  C   UNL     1      -2.540 -11.658  -4.511  1.00  0.00     0.049 A 
ATOM     48  H   UNL     1      -0.841 -11.940  -5.683  1.00  0.00     0.167 HD
ATOM     49  C   UNL     1       2.794 -12.245  -8.111  1.00  0.00     0.037 A 
ATOM     50  C   UNL     1      -3.604 -11.944  -5.287  1.00  0.00     0.037 A 
ATOM     51  C   UNL     1       1.726 -12.649  -8.987  1.00  0.00     0.049 A 
ATOM     52  C   UNL     1      -3.388 -12.337  -6.726  1.00  0.00     0.074 A 
ATOM     53  C   UNL     1       1.804 -13.112 -10.289  1.00  0.00     0.029 A 
ATOM     54  N   UNL     1       0.381 -12.632  -8.648  1.00  0.00    -0.354 N 
ATOM     55  N   UNL     1      -2.264 -12.474  -7.386  1.00  0.00    -0.248 NA
ATOM     56  C   UNL     1      -4.589 -12.611  -7.528  1.00  0.00     0.031 C 
ATOM     57  C   UNL     1       0.504 -13.329 -10.754  1.00  0.00     0.029 A 
ATOM     58  C   UNL     1      -0.382 -13.051  -9.726  1.00  0.00     0.049 A 
ATOM     59  H   UNL     1       0.022 -12.361  -7.772  1.00  0.00     0.167 HD
ATOM     60  C   UNL     1      -2.619 -12.879  -8.667  1.00  0.00     0.074 A 
ATOM     61  C   UNL     1      -4.063 -12.970  -8.691  1.00  0.00     0.031 C 
ATOM     62  C   UNL     1      -1.819 -13.152  -9.727  1.00  0.00     0.037 A 
BRANCH  49  63
ATOM     63  C   UNL     1       4.195 -12.268  -8.646  1.00  0.00     0.064 A 
ATOM     64  C   UNL     1       5.132 -13.222  -8.223  1.00  0.00     0.173 A 
ATOM     65  C   UNL     1       4.595 -11.344  -9.623  1.00  0.00     0.173 A 
ATOM     66  F   UNL     1       4.803 -14.119  -7.281  1.00  0.00    -0.203 F 
ATOM     67  C   UNL     1       6.424 -13.236  -8.742  1.00  0.00     0.198 A 
ATOM     68  C   UNL     1       5.879 -11.377 -10.159  1.00  0.00     0.198 A 
ATOM     69  F   UNL     1       3.736 -10.413 -10.065  1.00  0.00    -0.203 F 
ATOM     70  F   UNL     1       7.316 -14.130  -8.292  1.00  0.00    -0.200 F 
ATOM     71  C   UNL     1       6.794 -12.318  -9.713  1.00  0.00     0.200 A 
ATOM     72  F   UNL     1       6.231 -10.496 -11.106  1.00  0.00    -0.200 F 
ATOM     73  F   UNL     1       8.036 -12.337 -10.216  1.00  0.00    -0.200 F 
ENDBRANCH  49  63
BRANCH  50  74
ATOM     74  C   UNL     1      -4.977 -11.845  -4.727  1.00  0.00     0.064 A 
ATOM     75  C   UNL     1      -5.761 -12.988  -4.528  1.00  0.00     0.173 A 
ATOM     76  C   UNL     1      -5.538 -10.602  -4.396  1.00  0.00     0.173 A 
ATOM     77  F   UNL     1      -5.279 -14.196  -4.856  1.00  0.00    -0.203 F 
ATOM     78  C   UNL     1      -7.060 -12.893  -4.032  1.00  0.00     0.198 A 
ATOM     79  C   UNL     1      -6.827 -10.510  -3.874  1.00  0.00     0.198 A 
ATOM     80  F   UNL     1      -4.830  -9.477  -4.571  1.00  0.00    -0.203 F 
ATOM     81  F   UNL     1      -7.805 -13.998  -3.892  1.00  0.00    -0.200 F 
ATOM     82  C   UNL     1      -7.589 -11.654  -3.699  1.00  0.00     0.200 A 
ATOM     83  F   UNL     1      -7.329  -9.312  -3.544  1.00  0.00    -0.200 F 
ATOM     84  F   UNL     1      -8.837 -11.563  -3.219  1.00  0.00    -0.200 F 
ENDBRANCH  50  74
BRANCH  62  85
ATOM     85  C   UNL     1      -2.478 -13.621 -10.992  1.00  0.00     0.064 A 
ATOM     86  C   UNL     1      -3.184 -12.742 -11.824  1.00  0.00     0.173 A 
ATOM     87  C   UNL     1      -2.342 -14.955 -11.406  1.00  0.00     0.173 A 
ATOM     88  F   UNL     1      -3.354 -11.461 -11.464  1.00  0.00    -0.203 F 
ATOM     89  C   UNL     1      -3.743 -13.185 -13.020  1.00  0.00     0.198 A 
ATOM     90  C   UNL     1      -2.879 -15.388 -12.615  1.00  0.00     0.198 A 
ATOM     91  F   UNL     1      -1.669 -15.834 -10.648  1.00  0.00    -0.203 F 
ATOM     92  F   UNL     1      -4.444 -12.336 -13.785  1.00  0.00    -0.200 F 
ATOM     93  C   UNL     1      -3.582 -14.504 -13.419  1.00  0.00     0.200 A 
ATOM     94  F   UNL     1      -2.710 -16.659 -13.005  1.00  0.00    -0.200 F 
ATOM     95  F   UNL     1      -4.109 -14.925 -14.577  1.00  0.00    -0.200 F 
ENDBRANCH  62  85
ENDBRANCH  36  37
ENDBRANCH  29  31
ENDBRANCH  28  29
ENDBRANCH  27  28
ENDBRANCH  26  27
ENDBRANCH  25  26
ENDBRANCH   1  25
TORSDOF 19
