REMARK SMILES C[C@@](O)(CNC(=O)c1ccc(Br)cc1N)CC(=O)OCCOCCOC(=O)c1ccc(-c2c3nc(c(-c4c(F)c(F)c(F)c(F)c4F)c4ccc([nH]4)c(-c4c(F)c(F)c(F)c(F)c4F)c4nc(c(-c5c(F)c(F)c(F)c(F)c5F)c5ccc2[nH]5)C=C4)C=C3)cc1
REMARK SMILES IDX 20 1 19 2 17 3 18 4 16 5 2 6 1 7 3 8 4 10 5 11 6 12 7 14
REMARK SMILES IDX 8 15 9 16 14 17 10 18 13 19 11 20 12 21 15 22 21 25 22 26
REMARK SMILES IDX 23 27 24 28 25 29 26 30 27 31 28 32 29 33 90 34 30 35 89 36
REMARK SMILES IDX 31 37 32 38 33 39 83 40 34 41 88 42 82 43 84 44 35 45 87 46
REMARK SMILES IDX 81 47 80 48 36 50 68 51 48 52 67 53 49 54 52 55 66 56 85 57
REMARK SMILES IDX 50 58 51 59 65 61 86 62 53 63 37 64 38 65 46 66 39 67 40 68
REMARK SMILES IDX 44 69 47 70 41 71 42 72 45 73 43 74 69 75 70 76 78 77 71 78
REMARK SMILES IDX 72 79 76 80 79 81 73 82 74 83 77 84 75 85 54 86 55 87 63 88
REMARK SMILES IDX 56 89 57 90 61 91 64 92 58 93 59 94 62 95 60 96
REMARK H PARENT 3 9 5 13 15 23 15 24 84 49 52 60
REMARK Flexibility Score: inf
ROOT
ATOM      1  C   UNL     1      -0.207   2.950   3.390  1.00  0.00     0.261 C 
ENDROOT
BRANCH   1   2
ATOM      2  O   UNL     1      -0.132   2.644   1.980  1.00  0.00    -0.463 OA
BRANCH   2   3
ATOM      3  C   UNL     1       0.989   3.025   1.332  1.00  0.00     0.308 C 
ATOM      4  O   UNL     1       1.962   3.539   1.875  1.00  0.00    -0.252 OA
BRANCH   3   5
ATOM      5  C   UNL     1       0.927   2.849  -0.168  1.00  0.00     0.159 C 
BRANCH   5   6
ATOM      6  C   UNL     1       0.416   1.558  -0.834  1.00  0.00     0.090 C 
ATOM      7  C   UNL     1       0.970   0.252  -0.272  1.00  0.00     0.044 C 
BRANCH   6   8
ATOM      8  O   UNL     1       0.920   1.613  -2.200  1.00  0.00    -0.388 OA
ATOM      9  H   UNL     1       0.632   0.822  -2.682  1.00  0.00     0.211 HD
ENDBRANCH   6   8
BRANCH   6  10
ATOM     10  C   UNL     1      -1.121   1.480  -1.006  1.00  0.00     0.151 C 
BRANCH  10  11
ATOM     11  N   UNL     1      -1.933   1.501   0.201  1.00  0.00    -0.349 N 
ATOM     12  C   UNL     1      -2.799   2.479   0.643  1.00  0.00     0.253 C 
ATOM     13  H   UNL     1      -1.853   0.710   0.781  1.00  0.00     0.163 HD
ATOM     14  O   UNL     1      -3.323   2.400   1.752  1.00  0.00    -0.269 OA
BRANCH  12  15
ATOM     15  C   UNL     1      -3.036   3.673  -0.199  1.00  0.00     0.062 A 
ATOM     16  C   UNL     1      -3.509   3.502  -1.508  1.00  0.00     0.017 A 
ATOM     17  C   UNL     1      -2.735   4.954   0.300  1.00  0.00     0.045 A 
ATOM     18  C   UNL     1      -3.518   4.583  -2.384  1.00  0.00     0.016 A 
ATOM     19  C   UNL     1      -2.704   6.018  -0.607  1.00  0.00     0.042 A 
ATOM     20  C   UNL     1      -3.082   5.828  -1.938  1.00  0.00     0.020 A 
ATOM     21  Br  UNL     1      -2.979   7.273  -3.152  1.00  0.00    -0.051 Br
BRANCH  17  22
ATOM     22  N   UNL     1      -2.309   5.166   1.610  1.00  0.00    -0.398 N 
ATOM     23  H   UNL     1      -2.325   4.426   2.259  1.00  0.00     0.156 HD
ATOM     24  H   UNL     1      -1.992   6.056   1.886  1.00  0.00     0.156 HD
ENDBRANCH  17  22
ENDBRANCH  12  15
ENDBRANCH  10  11
ENDBRANCH   6  10
ENDBRANCH   5   6
ENDBRANCH   3   5
ENDBRANCH   2   3
ENDBRANCH   1   2
BRANCH   1  25
ATOM     25  C   UNL     1      -0.370   1.684   4.228  1.00  0.00     0.202 C 
BRANCH  25  26
ATOM     26  O   UNL     1       0.815   0.904   4.381  1.00  0.00    -0.374 OA
BRANCH  26  27
ATOM     27  C   UNL     1       1.197   0.111   3.262  1.00  0.00     0.202 C 
BRANCH  27  28
ATOM     28  C   UNL     1       0.445  -1.220   3.126  1.00  0.00     0.261 C 
BRANCH  28  29
ATOM     29  O   UNL     1      -0.926  -1.026   2.713  1.00  0.00    -0.460 OA
BRANCH  29  30
ATOM     30  C   UNL     1      -1.855  -1.329   3.654  1.00  0.00     0.338 C 
ATOM     31  O   UNL     1      -1.649  -1.805   4.762  1.00  0.00    -0.246 OA
BRANCH  30  32
ATOM     32  C   UNL     1      -3.191  -0.853   3.238  1.00  0.00     0.060 A 
ATOM     33  C   UNL     1      -3.738  -1.159   1.990  1.00  0.00     0.016 A 
ATOM     34  C   UNL     1      -3.935  -0.124   4.174  1.00  0.00     0.016 A 
ATOM     35  C   UNL     1      -5.049  -0.756   1.697  1.00  0.00     0.010 A 
ATOM     36  C   UNL     1      -5.242   0.268   3.883  1.00  0.00     0.010 A 
ATOM     37  C   UNL     1      -5.821  -0.062   2.650  1.00  0.00    -0.014 A 
BRANCH  37  38
ATOM     38  C   UNL     1      -7.270   0.193   2.427  1.00  0.00     0.031 A 
ATOM     39  C   UNL     1      -7.808   1.574   2.188  1.00  0.00     0.074 A 
ATOM     40  C   UNL     1      -8.125  -0.845   2.507  1.00  0.00     0.049 A 
ATOM     41  N   UNL     1      -9.046   1.950   1.972  1.00  0.00    -0.248 NA
ATOM     42  C   UNL     1      -6.839   2.677   2.201  1.00  0.00     0.031 C 
ATOM     43  C   UNL     1      -7.738  -2.228   2.780  1.00  0.00     0.029 A 
ATOM     44  N   UNL     1      -9.491  -0.900   2.371  1.00  0.00    -0.354 N 
ATOM     45  C   UNL     1      -9.003   3.326   1.799  1.00  0.00     0.074 A 
ATOM     46  C   UNL     1      -7.623   3.727   1.988  1.00  0.00     0.031 C 
ATOM     47  C   UNL     1      -8.834  -3.002   2.761  1.00  0.00     0.029 A 
ATOM     48  C   UNL     1     -10.005  -2.165   2.511  1.00  0.00     0.049 A 
ATOM     49  H   UNL     1     -10.047  -0.108   2.191  1.00  0.00     0.167 HD
ATOM     50  C   UNL     1     -10.016   4.172   1.489  1.00  0.00     0.037 A 
ATOM     51  C   UNL     1     -11.276  -2.608   2.447  1.00  0.00     0.037 A 
ATOM     52  C   UNL     1     -11.395   3.779   1.326  1.00  0.00     0.049 A 
ATOM     53  C   UNL     1     -12.390  -1.638   2.169  1.00  0.00     0.074 A 
ATOM     54  C   UNL     1     -12.481   4.567   0.982  1.00  0.00     0.029 A 
ATOM     55  N   UNL     1     -11.884   2.494   1.512  1.00  0.00    -0.354 N 
ATOM     56  N   UNL     1     -12.327  -0.352   1.930  1.00  0.00    -0.248 NA
ATOM     57  C   UNL     1     -13.755  -2.185   2.148  1.00  0.00     0.031 C 
ATOM     58  C   UNL     1     -13.632   3.774   1.014  1.00  0.00     0.029 A 
ATOM     59  C   UNL     1     -13.259   2.476   1.319  1.00  0.00     0.049 A 
ATOM     60  H   UNL     1     -11.337   1.710   1.747  1.00  0.00     0.167 HD
ATOM     61  C   UNL     1     -13.634   0.060   1.707  1.00  0.00     0.074 A 
ATOM     62  C   UNL     1     -14.470  -1.116   1.822  1.00  0.00     0.031 C 
ATOM     63  C   UNL     1     -14.093   1.306   1.433  1.00  0.00     0.037 A 
BRANCH  50  64
ATOM     64  C   UNL     1      -9.679   5.622   1.284  1.00  0.00     0.064 A 
ATOM     65  C   UNL     1      -8.958   6.047   0.157  1.00  0.00     0.173 A 
ATOM     66  C   UNL     1     -10.154   6.604   2.166  1.00  0.00     0.173 A 
ATOM     67  F   UNL     1      -8.483   5.149  -0.719  1.00  0.00    -0.203 F 
ATOM     68  C   UNL     1      -8.710   7.398  -0.069  1.00  0.00     0.198 A 
ATOM     69  C   UNL     1      -9.930   7.957   1.922  1.00  0.00     0.198 A 
ATOM     70  F   UNL     1     -10.862   6.255   3.251  1.00  0.00    -0.203 F 
ATOM     71  F   UNL     1      -7.994   7.777  -1.136  1.00  0.00    -0.200 F 
ATOM     72  C   UNL     1      -9.204   8.352   0.808  1.00  0.00     0.200 A 
ATOM     73  F   UNL     1     -10.426   8.880   2.758  1.00  0.00    -0.200 F 
ATOM     74  F   UNL     1      -8.982   9.654   0.578  1.00  0.00    -0.200 F 
ENDBRANCH  50  64
BRANCH  51  75
ATOM     75  C   UNL     1     -11.551  -4.059   2.603  1.00  0.00     0.064 A 
ATOM     76  C   UNL     1     -11.964  -4.828   1.507  1.00  0.00     0.173 A 
ATOM     77  C   UNL     1     -11.382  -4.711   3.833  1.00  0.00     0.173 A 
ATOM     78  F   UNL     1     -12.160  -4.244   0.316  1.00  0.00    -0.203 F 
ATOM     79  C   UNL     1     -12.202  -6.194   1.636  1.00  0.00     0.198 A 
ATOM     80  C   UNL     1     -11.592  -6.083   3.954  1.00  0.00     0.198 A 
ATOM     81  F   UNL     1     -10.986  -4.019   4.912  1.00  0.00    -0.203 F 
ATOM     82  F   UNL     1     -12.627  -6.900   0.579  1.00  0.00    -0.200 F 
ATOM     83  C   UNL     1     -12.007  -6.822   2.857  1.00  0.00     0.200 A 
ATOM     84  F   UNL     1     -11.388  -6.689   5.131  1.00  0.00    -0.200 F 
ATOM     85  F   UNL     1     -12.221  -8.139   2.976  1.00  0.00    -0.200 F 
ENDBRANCH  51  75
BRANCH  63  86
ATOM     86  C   UNL     1     -15.571   1.474   1.217  1.00  0.00     0.064 A 
ATOM     87  C   UNL     1     -16.486   1.375   2.276  1.00  0.00     0.173 A 
ATOM     88  C   UNL     1     -16.074   1.802  -0.052  1.00  0.00     0.173 A 
ATOM     89  F   UNL     1     -16.061   1.049   3.506  1.00  0.00    -0.203 F 
ATOM     90  C   UNL     1     -17.848   1.584   2.071  1.00  0.00     0.198 A 
ATOM     91  C   UNL     1     -17.432   2.040  -0.248  1.00  0.00     0.198 A 
ATOM     92  F   UNL     1     -15.245   1.914  -1.101  1.00  0.00    -0.203 F 
ATOM     93  F   UNL     1     -18.706   1.447   3.091  1.00  0.00    -0.200 F 
ATOM     94  C   UNL     1     -18.318   1.927   0.812  1.00  0.00     0.200 A 
ATOM     95  F   UNL     1     -17.883   2.387  -1.462  1.00  0.00    -0.200 F 
ATOM     96  F   UNL     1     -19.627   2.144   0.620  1.00  0.00    -0.200 F 
ENDBRANCH  63  86
ENDBRANCH  37  38
ENDBRANCH  30  32
ENDBRANCH  29  30
ENDBRANCH  28  29
ENDBRANCH  27  28
ENDBRANCH  26  27
ENDBRANCH  25  26
ENDBRANCH   1  25
TORSDOF 20
