REMARK SMILES Cc1cccc2c1N=CN1C2=[NH+]NC(=O)[C@@H]1CC(=O)OCCOCCOC(=O)c1ccc(-c2c3nc(c(-c4c(F)c(F)c(F)c(F)c4F)c4ccc([nH]4)c(-c4c(F)c(F)c(F)c(F)c4F)c4nc(c(-c5c(F)c(F)c(F)c(F)c5F)c5ccc2[nH]5)C=C4)C=C3)cc1
REMARK SMILES IDX 24 1 23 2 22 3 21 4 20 5 18 6 19 7 17 8 16 9 1 10 2 11 3 12
REMARK SMILES IDX 7 13 4 14 6 15 8 16 5 17 11 18 9 19 10 20 12 21 13 22 14 24
REMARK SMILES IDX 15 26 25 27 26 28 27 29 28 30 29 31 30 32 91 33 31 34 90 35
REMARK SMILES IDX 32 36 33 37 34 38 84 39 35 40 89 41 83 42 85 43 36 44 88 45
REMARK SMILES IDX 82 46 81 47 37 49 69 50 49 51 68 52 50 53 53 54 67 55 86 56
REMARK SMILES IDX 51 57 52 58 66 60 87 61 54 62 38 63 39 64 47 65 40 66 41 67
REMARK SMILES IDX 45 68 48 69 42 70 43 71 46 72 44 73 70 74 71 75 79 76 72 77
REMARK SMILES IDX 73 78 77 79 80 80 74 81 75 82 78 83 76 84 55 85 56 86 64 87
REMARK SMILES IDX 57 88 58 89 62 90 65 91 59 92 60 93 63 94 61 95
REMARK H PARENT 12 23 13 25 85 48 53 59
REMARK Flexibility Score: inf
ROOT
ATOM      1  C   UNL     1      -2.201  -4.561  -7.021  1.00  0.00     0.202 C 
ENDROOT
BRANCH   1   2
ATOM      2  O   UNL     1      -1.209  -3.950  -7.853  1.00  0.00    -0.374 OA
BRANCH   2   3
ATOM      3  C   UNL     1      -0.137  -3.267  -7.205  1.00  0.00     0.202 C 
BRANCH   3   4
ATOM      4  C   UNL     1      -0.520  -1.995  -6.440  1.00  0.00     0.261 C 
BRANCH   4   5
ATOM      5  O   UNL     1      -1.544  -2.241  -5.461  1.00  0.00    -0.463 OA
BRANCH   5   6
ATOM      6  C   UNL     1      -2.375  -1.193  -5.253  1.00  0.00     0.310 C 
ATOM      7  O   UNL     1      -2.174  -0.049  -5.643  1.00  0.00    -0.252 OA
BRANCH   6   8
ATOM      8  C   UNL     1      -3.655  -1.593  -4.575  1.00  0.00     0.183 C 
BRANCH   8   9
ATOM      9  C   UNL     1      -3.550  -2.260  -3.204  1.00  0.00     0.286 C 
ATOM     10  C   UNL     1       1.111   0.723   0.221  1.00  0.00     0.047 C 
ATOM     11  C   UNL     1       0.682  -0.717   0.166  1.00  0.00    -0.024 A 
ATOM     12  C   UNL     1       1.285  -1.639   1.039  1.00  0.00     0.006 A 
ATOM     13  C   UNL     1      -0.358  -1.136  -0.683  1.00  0.00     0.085 A 
ATOM     14  C   UNL     1       0.863  -2.966   1.079  1.00  0.00     0.001 A 
ATOM     15  C   UNL     1      -0.746  -2.488  -0.656  1.00  0.00     0.092 A 
ATOM     16  N   UNL     1      -1.009  -0.180  -1.497  1.00  0.00    -0.215 NA
ATOM     17  C   UNL     1      -0.160  -3.392   0.237  1.00  0.00     0.019 A 
ATOM     18  C   UNL     1      -1.815  -2.925  -1.605  1.00  0.00     0.309 C 
ATOM     19  C   UNL     1      -1.960  -0.614  -2.257  1.00  0.00     0.317 C 
ATOM     20  N   UNL     1      -2.371  -1.922  -2.392  1.00  0.00    -0.202 N 
ATOM     21  N   UNL     1      -2.143  -4.184  -1.615  1.00  0.00    -0.169 N 
ATOM     22  N   UNL     1      -3.102  -4.579  -2.482  1.00  0.00    -0.193 N 
ATOM     23  H   UNL     1      -1.706  -4.827  -1.012  1.00  0.00     0.340 HD
ATOM     24  C   UNL     1      -3.788  -3.762  -3.336  1.00  0.00     0.300 C 
ATOM     25  H   UNL     1      -3.325  -5.538  -2.500  1.00  0.00     0.216 HD
ATOM     26  O   UNL     1      -4.619  -4.240  -4.111  1.00  0.00    -0.267 OA
ENDBRANCH   8   9
ENDBRANCH   6   8
ENDBRANCH   5   6
ENDBRANCH   4   5
ENDBRANCH   3   4
ENDBRANCH   2   3
ENDBRANCH   1   2
BRANCH   1  27
ATOM     27  C   UNL     1      -1.699  -5.626  -6.037  1.00  0.00     0.261 C 
BRANCH  27  28
ATOM     28  O   UNL     1      -0.816  -5.074  -5.039  1.00  0.00    -0.460 OA
BRANCH  28  29
ATOM     29  C   UNL     1       0.170  -5.915  -4.642  1.00  0.00     0.338 C 
ATOM     30  O   UNL     1       0.313  -7.085  -4.951  1.00  0.00    -0.246 OA
BRANCH  29  31
ATOM     31  C   UNL     1       1.114  -5.225  -3.745  1.00  0.00     0.060 A 
ATOM     32  C   UNL     1       2.177  -4.473  -4.259  1.00  0.00     0.016 A 
ATOM     33  C   UNL     1       1.047  -5.501  -2.383  1.00  0.00     0.016 A 
ATOM     34  C   UNL     1       3.188  -4.011  -3.403  1.00  0.00     0.010 A 
ATOM     35  C   UNL     1       2.051  -5.029  -1.534  1.00  0.00     0.010 A 
ATOM     36  C   UNL     1       3.147  -4.303  -2.032  1.00  0.00    -0.014 A 
BRANCH  36  37
ATOM     37  C   UNL     1       4.295  -3.996  -1.127  1.00  0.00     0.031 A 
ATOM     38  C   UNL     1       5.066  -5.135  -0.506  1.00  0.00     0.074 A 
ATOM     39  C   UNL     1       4.647  -2.731  -0.826  1.00  0.00     0.049 A 
ATOM     40  N   UNL     1       6.013  -5.108   0.400  1.00  0.00    -0.248 NA
ATOM     41  C   UNL     1       4.706  -6.491  -0.951  1.00  0.00     0.031 C 
ATOM     42  C   UNL     1       4.011  -1.524  -1.345  1.00  0.00     0.029 A 
ATOM     43  N   UNL     1       5.631  -2.256   0.013  1.00  0.00    -0.354 N 
ATOM     44  C   UNL     1       6.340  -6.436   0.645  1.00  0.00     0.074 A 
ATOM     45  C   UNL     1       5.454  -7.246  -0.161  1.00  0.00     0.031 C 
ATOM     46  C   UNL     1       4.617  -0.447  -0.815  1.00  0.00     0.029 A 
ATOM     47  C   UNL     1       5.663  -0.886   0.106  1.00  0.00     0.049 A 
ATOM     48  H   UNL     1       6.252  -2.844   0.500  1.00  0.00     0.167 HD
ATOM     49  C   UNL     1       7.315  -6.942   1.437  1.00  0.00     0.037 A 
ATOM     50  C   UNL     1       6.436  -0.076   0.858  1.00  0.00     0.037 A 
ATOM     51  C   UNL     1       8.247  -6.155   2.196  1.00  0.00     0.049 A 
ATOM     52  C   UNL     1       7.491  -0.660   1.761  1.00  0.00     0.074 A 
ATOM     53  C   UNL     1       9.308  -6.588   2.973  1.00  0.00     0.029 A 
ATOM     54  N   UNL     1       8.241  -4.771   2.260  1.00  0.00    -0.354 N 
ATOM     55  N   UNL     1       7.807  -1.915   1.961  1.00  0.00    -0.248 NA
ATOM     56  C   UNL     1       8.303   0.291   2.539  1.00  0.00     0.031 C 
ATOM     57  C   UNL     1       9.929  -5.466   3.530  1.00  0.00     0.029 A 
ATOM     58  C   UNL     1       9.275  -4.334   3.073  1.00  0.00     0.049 A 
ATOM     59  H   UNL     1       7.599  -4.186   1.798  1.00  0.00     0.167 HD
ATOM     60  C   UNL     1       8.874  -1.904   2.851  1.00  0.00     0.074 A 
ATOM     61  C   UNL     1       9.152  -0.518   3.159  1.00  0.00     0.031 C 
ATOM     62  C   UNL     1       9.563  -2.954   3.359  1.00  0.00     0.037 A 
BRANCH  49  63
ATOM     63  C   UNL     1       7.444  -8.435   1.501  1.00  0.00     0.064 A 
ATOM     64  C   UNL     1       7.950  -9.170   0.419  1.00  0.00     0.173 A 
ATOM     65  C   UNL     1       7.100  -9.133   2.668  1.00  0.00     0.173 A 
ATOM     66  F   UNL     1       8.283  -8.548  -0.722  1.00  0.00    -0.203 F 
ATOM     67  C   UNL     1       8.079 -10.554   0.491  1.00  0.00     0.198 A 
ATOM     68  C   UNL     1       7.257 -10.514   2.747  1.00  0.00     0.198 A 
ATOM     69  F   UNL     1       6.621  -8.474   3.734  1.00  0.00    -0.203 F 
ATOM     70  F   UNL     1       8.520 -11.240  -0.572  1.00  0.00    -0.200 F 
ATOM     71  C   UNL     1       7.739 -11.223   1.657  1.00  0.00     0.200 A 
ATOM     72  F   UNL     1       6.941 -11.159   3.879  1.00  0.00    -0.200 F 
ATOM     73  F   UNL     1       7.871 -12.555   1.728  1.00  0.00    -0.200 F 
ENDBRANCH  49  63
BRANCH  50  74
ATOM     74  C   UNL     1       6.254   1.396   0.784  1.00  0.00     0.064 A 
ATOM     75  C   UNL     1       7.196   2.204   0.133  1.00  0.00     0.173 A 
ATOM     76  C   UNL     1       5.152   2.024   1.380  1.00  0.00     0.173 A 
ATOM     77  F   UNL     1       8.283   1.648  -0.422  1.00  0.00    -0.203 F 
ATOM     78  C   UNL     1       7.049   3.588   0.092  1.00  0.00     0.198 A 
ATOM     79  C   UNL     1       4.994   3.407   1.319  1.00  0.00     0.198 A 
ATOM     80  F   UNL     1       4.230   1.293   2.024  1.00  0.00    -0.203 F 
ATOM     81  F   UNL     1       7.986   4.342  -0.500  1.00  0.00    -0.200 F 
ATOM     82  C   UNL     1       5.946   4.189   0.680  1.00  0.00     0.200 A 
ATOM     83  F   UNL     1       3.925   3.983   1.886  1.00  0.00    -0.200 F 
ATOM     84  F   UNL     1       5.806   5.521   0.642  1.00  0.00    -0.200 F 
ENDBRANCH  50  74
BRANCH  62  85
ATOM     85  C   UNL     1      10.720  -2.664   4.269  1.00  0.00     0.064 A 
ATOM     86  C   UNL     1      10.525  -2.263   5.598  1.00  0.00     0.173 A 
ATOM     87  C   UNL     1      12.036  -2.877   3.831  1.00  0.00     0.173 A 
ATOM     88  F   UNL     1       9.287  -2.034   6.059  1.00  0.00    -0.203 F 
ATOM     89  C   UNL     1      11.608  -2.080   6.455  1.00  0.00     0.198 A 
ATOM     90  C   UNL     1      13.114  -2.716   4.697  1.00  0.00     0.198 A 
ATOM     91  F   UNL     1      12.274  -3.267   2.570  1.00  0.00    -0.203 F 
ATOM     92  F   UNL     1      11.401  -1.676   7.716  1.00  0.00    -0.200 F 
ATOM     93  C   UNL     1      12.900  -2.317   6.007  1.00  0.00     0.200 A 
ATOM     94  F   UNL     1      14.360  -2.958   4.266  1.00  0.00    -0.200 F 
ATOM     95  F   UNL     1      13.938  -2.160   6.840  1.00  0.00    -0.200 F 
ENDBRANCH  62  85
ENDBRANCH  36  37
ENDBRANCH  29  31
ENDBRANCH  28  29
ENDBRANCH  27  28
ENDBRANCH   1  27
TORSDOF 15
