REMARK SMILES CC(=O)N[C@@H](C(=O)N(CC(=O)OCCOCCOC(=O)c1ccc(-c2c3nc(c(-c4c(F)c(F)c(F)c(F)c4F)c4ccc([nH]4)c(-c4c(F)c(F)c(F)c(F)c4F)c4nc(c(-c5c(F)c(F)c(F)c(F)c5F)c5ccc2[nH]5)C=C4)C=C3)cc1)C(C)(C)C)C(C)C
REMARK SMILES IDX 14 1 13 2 12 3 10 4 11 5 9 6 8 7 6 8 7 9 5 10 4 11 1 12 2 13
REMARK SMILES IDX 3 14 88 16 89 17 90 18 84 19 85 20 86 21 87 22 15 23 16 24
REMARK SMILES IDX 17 25 18 26 19 27 20 28 21 29 22 30 83 31 23 32 82 33 24 34
REMARK SMILES IDX 25 35 26 36 76 37 27 38 81 39 75 40 77 41 28 42 80 43 74 44
REMARK SMILES IDX 73 45 29 47 61 48 41 49 60 50 42 51 45 52 59 53 78 54 43 55
REMARK SMILES IDX 44 56 58 58 79 59 46 60 30 61 31 62 39 63 32 64 33 65 37 66
REMARK SMILES IDX 40 67 34 68 35 69 38 70 36 71 62 72 63 73 71 74 64 75 65 76
REMARK SMILES IDX 69 77 72 78 66 79 67 80 70 81 68 82 47 83 48 84 56 85 49 86
REMARK SMILES IDX 50 87 54 88 57 89 51 90 52 91 55 92 53 93
REMARK H PARENT 4 15 77 46 45 57
REMARK Flexibility Score: inf
ROOT
ATOM      1  C   UNL     1       2.892   5.669  -1.104  1.00  0.00     0.202 C 
ENDROOT
BRANCH   1   2
ATOM      2  C   UNL     1       2.244   4.285  -0.961  1.00  0.00     0.261 C 
BRANCH   2   3
ATOM      3  O   UNL     1       2.858   3.465   0.063  1.00  0.00    -0.462 OA
BRANCH   3   4
ATOM      4  C   UNL     1       3.210   2.212  -0.334  1.00  0.00     0.325 C 
ATOM      5  O   UNL     1       3.093   1.782  -1.478  1.00  0.00    -0.250 OA
BRANCH   4   6
ATOM      6  C   UNL     1       3.795   1.322   0.772  1.00  0.00     0.242 C 
BRANCH   6   7
ATOM      7  N   UNL     1       3.890   1.798   2.165  1.00  0.00    -0.325 N 
BRANCH   7   8
ATOM      8  C   UNL     1       2.796   1.711   3.045  1.00  0.00     0.246 C 
ATOM      9  O   UNL     1       2.773   2.344   4.105  1.00  0.00    -0.272 OA
BRANCH   8  10
ATOM     10  C   UNL     1       1.565   0.826   2.666  1.00  0.00     0.174 C 
BRANCH  10  11
ATOM     11  N   UNL     1       0.748   1.623   1.750  1.00  0.00    -0.344 N 
ATOM     12  C   UNL     1       0.281  -0.159   0.101  1.00  0.00     0.114 C 
ATOM     13  C   UNL     1       0.136   1.258   0.589  1.00  0.00     0.217 C 
ATOM     14  O   UNL     1      -0.496   2.102  -0.043  1.00  0.00    -0.275 OA
ATOM     15  H   UNL     1       0.623   2.564   2.011  1.00  0.00     0.164 HD
ENDBRANCH  10  11
BRANCH  10  16
ATOM     16  C   UNL     1       0.764   0.433   3.944  1.00  0.00     0.015 C 
ATOM     17  C   UNL     1      -0.549  -0.292   3.632  1.00  0.00     0.010 C 
ATOM     18  C   UNL     1       1.602  -0.467   4.866  1.00  0.00     0.010 C 
ENDBRANCH  10  16
ENDBRANCH   8  10
ENDBRANCH   7   8
BRANCH   7  19
ATOM     19  C   UNL     1       5.204   2.330   2.696  1.00  0.00     0.035 C 
ATOM     20  C   UNL     1       5.051   3.755   3.272  1.00  0.00     0.034 C 
ATOM     21  C   UNL     1       5.715   1.379   3.805  1.00  0.00     0.034 C 
ATOM     22  C   UNL     1       6.341   2.385   1.648  1.00  0.00     0.034 C 
ENDBRANCH   7  19
ENDBRANCH   6   7
ENDBRANCH   4   6
ENDBRANCH   3   4
ENDBRANCH   2   3
ENDBRANCH   1   2
BRANCH   1  23
ATOM     23  O   UNL     1       4.215   5.698  -1.648  1.00  0.00    -0.374 OA
BRANCH  23  24
ATOM     24  C   UNL     1       5.255   5.173  -0.827  1.00  0.00     0.202 C 
BRANCH  24  25
ATOM     25  C   UNL     1       5.734   6.095   0.299  1.00  0.00     0.261 C 
BRANCH  25  26
ATOM     26  O   UNL     1       4.655   6.454   1.176  1.00  0.00    -0.460 OA
BRANCH  26  27
ATOM     27  C   UNL     1       4.581   7.770   1.463  1.00  0.00     0.338 C 
ATOM     28  O   UNL     1       5.430   8.627   1.246  1.00  0.00    -0.246 OA
BRANCH  27  29
ATOM     29  C   UNL     1       3.227   8.110   1.926  1.00  0.00     0.060 A 
ATOM     30  C   UNL     1       2.482   8.985   1.128  1.00  0.00     0.016 A 
ATOM     31  C   UNL     1       2.732   7.671   3.157  1.00  0.00     0.016 A 
ATOM     32  C   UNL     1       1.268   9.484   1.591  1.00  0.00     0.010 A 
ATOM     33  C   UNL     1       1.511   8.177   3.623  1.00  0.00     0.010 A 
ATOM     34  C   UNL     1       0.798   9.120   2.861  1.00  0.00    -0.014 A 
BRANCH  34  35
ATOM     35  C   UNL     1      -0.365   9.854   3.420  1.00  0.00     0.031 A 
ATOM     36  C   UNL     1      -0.126  11.024   4.334  1.00  0.00     0.074 A 
ATOM     37  C   UNL     1      -1.617   9.535   3.051  1.00  0.00     0.049 A 
ATOM     38  N   UNL     1      -0.983  11.881   4.830  1.00  0.00    -0.248 NA
ATOM     39  C   UNL     1       1.267  11.264   4.742  1.00  0.00     0.031 C 
ATOM     40  C   UNL     1      -1.977   8.428   2.167  1.00  0.00     0.029 A 
ATOM     41  N   UNL     1      -2.817  10.121   3.367  1.00  0.00    -0.354 N 
ATOM     42  C   UNL     1      -0.235  12.763   5.598  1.00  0.00     0.074 A 
ATOM     43  C   UNL     1       1.141  12.318   5.535  1.00  0.00     0.031 C 
ATOM     44  C   UNL     1      -3.311   8.416   2.009  1.00  0.00     0.029 A 
ATOM     45  C   UNL     1      -3.897   9.508   2.784  1.00  0.00     0.049 A 
ATOM     46  H   UNL     1      -2.895  10.907   3.955  1.00  0.00     0.167 HD
ATOM     47  C   UNL     1      -0.655  13.855   6.282  1.00  0.00     0.037 A 
ATOM     48  C   UNL     1      -5.210   9.798   2.867  1.00  0.00     0.037 A 
ATOM     49  C   UNL     1      -2.022  14.298   6.345  1.00  0.00     0.049 A 
ATOM     50  C   UNL     1      -5.657  10.999   3.657  1.00  0.00     0.074 A 
ATOM     51  C   UNL     1      -2.540  15.419   6.971  1.00  0.00     0.029 A 
ATOM     52  N   UNL     1      -3.094  13.631   5.770  1.00  0.00    -0.354 N 
ATOM     53  N   UNL     1      -4.935  11.868   4.321  1.00  0.00    -0.248 NA
ATOM     54  C   UNL     1      -7.102  11.266   3.698  1.00  0.00     0.031 C 
ATOM     55  C   UNL     1      -3.931  15.403   6.817  1.00  0.00     0.029 A 
ATOM     56  C   UNL     1      -4.275  14.297   6.056  1.00  0.00     0.049 A 
ATOM     57  H   UNL     1      -3.025  12.806   5.237  1.00  0.00     0.167 HD
ATOM     58  C   UNL     1      -5.830  12.790   4.846  1.00  0.00     0.074 A 
ATOM     59  C   UNL     1      -7.150  12.386   4.406  1.00  0.00     0.031 C 
ATOM     60  C   UNL     1      -5.582  13.874   5.622  1.00  0.00     0.037 A 
BRANCH  47  61
ATOM     61  C   UNL     1       0.381  14.636   7.035  1.00  0.00     0.064 A 
ATOM     62  C   UNL     1       1.324  15.438   6.375  1.00  0.00     0.173 A 
ATOM     63  C   UNL     1       0.415  14.602   8.437  1.00  0.00     0.173 A 
ATOM     64  F   UNL     1       1.340  15.495   5.034  1.00  0.00    -0.203 F 
ATOM     65  C   UNL     1       2.281  16.155   7.089  1.00  0.00     0.198 A 
ATOM     66  C   UNL     1       1.357  15.339   9.149  1.00  0.00     0.198 A 
ATOM     67  F   UNL     1      -0.468  13.855   9.117  1.00  0.00    -0.203 F 
ATOM     68  F   UNL     1       3.200  16.879   6.436  1.00  0.00    -0.200 F 
ATOM     69  C   UNL     1       2.293  16.109   8.476  1.00  0.00     0.200 A 
ATOM     70  F   UNL     1       1.362  15.301  10.489  1.00  0.00    -0.200 F 
ATOM     71  F   UNL     1       3.213  16.800   9.162  1.00  0.00    -0.200 F 
ENDBRANCH  47  61
BRANCH  48  72
ATOM     72  C   UNL     1      -6.195   8.933   2.168  1.00  0.00     0.064 A 
ATOM     73  C   UNL     1      -6.883   9.384   1.034  1.00  0.00     0.173 A 
ATOM     74  C   UNL     1      -6.457   7.631   2.618  1.00  0.00     0.173 A 
ATOM     75  F   UNL     1      -6.686  10.631   0.582  1.00  0.00    -0.203 F 
ATOM     76  C   UNL     1      -7.804   8.567   0.381  1.00  0.00     0.198 A 
ATOM     77  C   UNL     1      -7.359   6.806   1.950  1.00  0.00     0.198 A 
ATOM     78  F   UNL     1      -5.826   7.156   3.702  1.00  0.00    -0.203 F 
ATOM     79  F   UNL     1      -8.475   9.033  -0.681  1.00  0.00    -0.200 F 
ATOM     80  C   UNL     1      -8.035   7.276   0.834  1.00  0.00     0.200 A 
ATOM     81  F   UNL     1      -7.574   5.558   2.388  1.00  0.00    -0.200 F 
ATOM     82  F   UNL     1      -8.915   6.489   0.201  1.00  0.00    -0.200 F 
ENDBRANCH  48  72
BRANCH  60  83
ATOM     83  C   UNL     1      -6.762  14.700   6.046  1.00  0.00     0.064 A 
ATOM     84  C   UNL     1      -7.663  14.241   7.018  1.00  0.00     0.173 A 
ATOM     85  C   UNL     1      -6.971  15.977   5.505  1.00  0.00     0.173 A 
ATOM     86  F   UNL     1      -7.513  13.021   7.555  1.00  0.00    -0.203 F 
ATOM     87  C   UNL     1      -8.745  15.022   7.416  1.00  0.00     0.198 A 
ATOM     88  C   UNL     1      -8.040  16.766   5.924  1.00  0.00     0.198 A 
ATOM     89  F   UNL     1      -6.134  16.465   4.578  1.00  0.00    -0.203 F 
ATOM     90  F   UNL     1      -9.618  14.546   8.314  1.00  0.00    -0.200 F 
ATOM     91  C   UNL     1      -8.929  16.285   6.874  1.00  0.00     0.200 A 
ATOM     92  F   UNL     1      -8.210  17.991   5.408  1.00  0.00    -0.200 F 
ATOM     93  F   UNL     1      -9.968  17.037   7.261  1.00  0.00    -0.200 F 
ENDBRANCH  60  83
ENDBRANCH  34  35
ENDBRANCH  27  29
ENDBRANCH  26  27
ENDBRANCH  25  26
ENDBRANCH  24  25
ENDBRANCH  23  24
ENDBRANCH   1  23
TORSDOF 20
