REMARK SMILES [NH3+]Cc1c(-c2ccccc2)c(C(=O)OCCOCCOC(=O)c2ccc(-c3c4nc(c(-c5c(F)c(F)c(F)c(F)c5F)c5ccc([nH]5)c(-c5c(F)c(F)c(F)c(F)c5F)c5nc(c(-c6c(F)c(F)c(F)c(F)c6F)c6ccc3[nH]6)C=C5)C=C4)cc2)c2ccccn12
REMARK SMILES IDX 17 1 16 2 15 3 14 4 12 5 13 6 11 7 3 8 4 9 91 10 86 11 90 12
REMARK SMILES IDX 87 13 89 14 88 15 2 16 1 17 5 21 6 22 10 23 7 24 9 25 8 26
REMARK SMILES IDX 18 27 19 28 20 29 21 30 22 31 23 32 24 33 85 34 25 35 84 36
REMARK SMILES IDX 26 37 27 38 28 39 78 40 29 41 83 42 77 43 79 44 30 45 82 46
REMARK SMILES IDX 76 47 75 48 31 50 63 51 43 52 62 53 44 54 47 55 61 56 80 57
REMARK SMILES IDX 45 58 46 59 60 61 81 62 48 63 32 64 33 65 41 66 34 67 35 68
REMARK SMILES IDX 39 69 42 70 36 71 37 72 40 73 38 74 64 75 65 76 73 77 66 78
REMARK SMILES IDX 67 79 71 80 74 81 68 82 69 83 72 84 70 85 49 86 50 87 58 88
REMARK SMILES IDX 51 89 52 90 56 91 59 92 53 93 54 94 57 95 55 96
REMARK H PARENT 1 18 1 19 1 20 79 49 47 60
REMARK Flexibility Score: inf
ROOT
ATOM      1  O   UNL     1       2.336   1.879   8.247  1.00  0.00    -0.374 OA
ENDROOT
BRANCH   1   2
ATOM      2  C   UNL     1       2.810   3.187   7.908  1.00  0.00     0.202 C 
BRANCH   2   3
ATOM      3  C   UNL     1       3.786   3.227   6.730  1.00  0.00     0.261 C 
BRANCH   3   4
ATOM      4  O   UNL     1       3.041   3.171   5.499  1.00  0.00    -0.460 OA
BRANCH   4   5
ATOM      5  C   UNL     1       3.429   2.205   4.619  1.00  0.00     0.341 C 
ATOM      6  O   UNL     1       4.477   1.575   4.708  1.00  0.00    -0.246 OA
BRANCH   5   7
ATOM      7  C   UNL     1       2.416   1.922   3.609  1.00  0.00     0.093 A 
ATOM      8  C   UNL     1       1.119   0.761   2.122  1.00  0.00     0.086 A 
ATOM      9  C   UNL     1       2.061   0.623   3.130  1.00  0.00     0.024 A 
ATOM     10  N   UNL     1       0.817   2.111   2.023  1.00  0.00    -0.314 N 
ATOM     11  C   UNL     1       1.577   2.816   2.961  1.00  0.00     0.061 A 
ATOM     12  C   UNL     1      -0.081   2.748   1.157  1.00  0.00     0.092 A 
ATOM     13  C   UNL     1       1.373   4.229   3.039  1.00  0.00     0.027 A 
ATOM     14  C   UNL     1      -0.251   4.078   1.225  1.00  0.00     0.018 A 
ATOM     15  C   UNL     1       0.497   4.830   2.212  1.00  0.00     0.004 A 
BRANCH   8  16
ATOM     16  C   UNL     1       0.478  -0.278   1.266  1.00  0.00     0.315 C 
BRANCH  16  17
ATOM     17  N   UNL     1       1.171  -0.361  -0.012  1.00  0.00    -0.353 N 
ATOM     18  H   UNL     1       0.729  -1.073  -0.594  1.00  0.00     0.344 HD
ATOM     19  H   UNL     1       2.148  -0.609   0.146  1.00  0.00     0.344 HD
ATOM     20  H   UNL     1       1.122   0.542  -0.484  1.00  0.00     0.344 HD
ENDBRANCH  16  17
ENDBRANCH   8  16
BRANCH   9  21
ATOM     21  C   UNL     1       2.505  -0.656   3.655  1.00  0.00    -0.015 A 
ATOM     22  C   UNL     1       1.822  -1.222   4.741  1.00  0.00     0.009 A 
ATOM     23  C   UNL     1       3.652  -1.275   3.159  1.00  0.00     0.009 A 
ATOM     24  C   UNL     1       2.303  -2.382   5.347  1.00  0.00     0.001 A 
ATOM     25  C   UNL     1       4.124  -2.445   3.759  1.00  0.00     0.001 A 
ATOM     26  C   UNL     1       3.456  -2.991   4.857  1.00  0.00     0.000 A 
ENDBRANCH   9  21
ENDBRANCH   5   7
ENDBRANCH   4   5
ENDBRANCH   3   4
ENDBRANCH   2   3
ENDBRANCH   1   2
BRANCH   1  27
ATOM     27  C   UNL     1       1.355   1.313   7.380  1.00  0.00     0.202 C 
BRANCH  27  28
ATOM     28  C   UNL     1      -0.100   1.636   7.739  1.00  0.00     0.261 C 
BRANCH  28  29
ATOM     29  O   UNL     1      -0.322   3.050   7.833  1.00  0.00    -0.460 OA
BRANCH  29  30
ATOM     30  C   UNL     1      -0.343   3.522   9.103  1.00  0.00     0.338 C 
ATOM     31  O   UNL     1      -0.337   2.876  10.137  1.00  0.00    -0.246 OA
BRANCH  30  32
ATOM     32  C   UNL     1      -0.219   4.991   9.087  1.00  0.00     0.060 A 
ATOM     33  C   UNL     1       0.698   5.564   9.977  1.00  0.00     0.016 A 
ATOM     34  C   UNL     1      -1.005   5.796   8.258  1.00  0.00     0.016 A 
ATOM     35  C   UNL     1       0.796   6.948  10.079  1.00  0.00     0.010 A 
ATOM     36  C   UNL     1      -0.910   7.187   8.366  1.00  0.00     0.010 A 
ATOM     37  C   UNL     1      -0.035   7.766   9.301  1.00  0.00    -0.014 A 
BRANCH  37  38
ATOM     38  C   UNL     1      -0.076   9.220   9.579  1.00  0.00     0.031 A 
ATOM     39  C   UNL     1      -1.145   9.755  10.489  1.00  0.00     0.074 A 
ATOM     40  C   UNL     1       0.856  10.041   9.067  1.00  0.00     0.049 A 
ATOM     41  N   UNL     1      -1.344  10.980  10.905  1.00  0.00    -0.248 NA
ATOM     42  C   UNL     1      -2.122   8.779  10.997  1.00  0.00     0.031 C 
ATOM     43  C   UNL     1       1.951   9.632   8.191  1.00  0.00     0.029 A 
ATOM     44  N   UNL     1       1.027  11.394   9.215  1.00  0.00    -0.354 N 
ATOM     45  C   UNL     1      -2.461  10.919  11.728  1.00  0.00     0.074 A 
ATOM     46  C   UNL     1      -2.919   9.547  11.725  1.00  0.00     0.031 C 
ATOM     47  C   UNL     1       2.683  10.714   7.875  1.00  0.00     0.029 A 
ATOM     48  C   UNL     1       2.097  11.891   8.514  1.00  0.00     0.049 A 
ATOM     49  H   UNL     1       0.439  11.954   9.771  1.00  0.00     0.167 HD
ATOM     50  C   UNL     1      -3.042  11.918  12.434  1.00  0.00     0.037 A 
ATOM     51  C   UNL     1       2.546  13.156   8.401  1.00  0.00     0.037 A 
ATOM     52  C   UNL     1      -2.588  13.282  12.435  1.00  0.00     0.049 A 
ATOM     53  C   UNL     1       1.852  14.257   9.158  1.00  0.00     0.074 A 
ATOM     54  C   UNL     1      -3.098  14.364  13.131  1.00  0.00     0.029 A 
ATOM     55  N   UNL     1      -1.514  13.753  11.693  1.00  0.00    -0.354 N 
ATOM     56  N   UNL     1       0.823  14.184   9.967  1.00  0.00    -0.248 NA
ATOM     57  C   UNL     1       2.389  15.615   8.993  1.00  0.00     0.031 C 
ATOM     58  C   UNL     1      -2.358  15.498  12.779  1.00  0.00     0.029 A 
ATOM     59  C   UNL     1      -1.360  15.114  11.898  1.00  0.00     0.049 A 
ATOM     60  H   UNL     1      -0.946  13.202  11.108  1.00  0.00     0.167 HD
ATOM     61  C   UNL     1       0.607  15.476  10.429  1.00  0.00     0.074 A 
ATOM     62  C   UNL     1       1.618  16.312   9.816  1.00  0.00     0.031 C 
ATOM     63  C   UNL     1      -0.342  15.928  11.285  1.00  0.00     0.037 A 
BRANCH  50  64
ATOM     64  C   UNL     1      -4.249  11.569  13.253  1.00  0.00     0.064 A 
ATOM     65  C   UNL     1      -4.140  10.831  14.442  1.00  0.00     0.173 A 
ATOM     66  C   UNL     1      -5.524  11.999  12.860  1.00  0.00     0.173 A 
ATOM     67  F   UNL     1      -2.944  10.384  14.851  1.00  0.00    -0.203 F 
ATOM     68  C   UNL     1      -5.269  10.518  15.195  1.00  0.00     0.198 A 
ATOM     69  C   UNL     1      -6.647  11.706  13.628  1.00  0.00     0.198 A 
ATOM     70  F   UNL     1      -5.680  12.709  11.732  1.00  0.00    -0.203 F 
ATOM     71  F   UNL     1      -5.148   9.777  16.305  1.00  0.00    -0.200 F 
ATOM     72  C   UNL     1      -6.520  10.961  14.791  1.00  0.00     0.200 A 
ATOM     73  F   UNL     1      -7.855  12.140  13.240  1.00  0.00    -0.200 F 
ATOM     74  F   UNL     1      -7.605  10.662  15.518  1.00  0.00    -0.200 F 
ENDBRANCH  50  64
BRANCH  51  75
ATOM     75  C   UNL     1       3.722  13.447   7.542  1.00  0.00     0.064 A 
ATOM     76  C   UNL     1       4.952  13.819   8.101  1.00  0.00     0.173 A 
ATOM     77  C   UNL     1       3.636  13.367   6.145  1.00  0.00     0.173 A 
ATOM     78  F   UNL     1       5.075  13.932   9.432  1.00  0.00    -0.203 F 
ATOM     79  C   UNL     1       6.049  14.113   7.294  1.00  0.00     0.198 A 
ATOM     80  C   UNL     1       4.739  13.639   5.340  1.00  0.00     0.198 A 
ATOM     81  F   UNL     1       2.480  13.017   5.562  1.00  0.00    -0.203 F 
ATOM     82  F   UNL     1       7.203  14.504   7.852  1.00  0.00    -0.200 F 
ATOM     83  C   UNL     1       5.943  14.017   5.915  1.00  0.00     0.200 A 
ATOM     84  F   UNL     1       4.636  13.536   4.008  1.00  0.00    -0.200 F 
ATOM     85  F   UNL     1       6.999  14.297   5.139  1.00  0.00    -0.200 F 
ENDBRANCH  51  75
BRANCH  63  86
ATOM     86  C   UNL     1      -0.313  17.386  11.637  1.00  0.00     0.064 A 
ATOM     87  C   UNL     1      -0.730  18.369  10.728  1.00  0.00     0.173 A 
ATOM     88  C   UNL     1       0.095  17.800  12.914  1.00  0.00     0.173 A 
ATOM     89  F   UNL     1      -1.115  18.023   9.490  1.00  0.00    -0.203 F 
ATOM     90  C   UNL     1      -0.720  19.716  11.078  1.00  0.00     0.198 A 
ATOM     91  C   UNL     1       0.080  19.146  13.269  1.00  0.00     0.198 A 
ATOM     92  F   UNL     1       0.497  16.897  13.821  1.00  0.00    -0.203 F 
ATOM     93  F   UNL     1      -1.085  20.643  10.181  1.00  0.00    -0.200 F 
ATOM     94  C   UNL     1      -0.322  20.103  12.350  1.00  0.00     0.200 A 
ATOM     95  F   UNL     1       0.454  19.517  14.501  1.00  0.00    -0.200 F 
ATOM     96  F   UNL     1      -0.319  21.400  12.687  1.00  0.00    -0.200 F 
ENDBRANCH  63  86
ENDBRANCH  37  38
ENDBRANCH  30  32
ENDBRANCH  29  30
ENDBRANCH  28  29
ENDBRANCH  27  28
ENDBRANCH   1  27
TORSDOF 17
