REMARK SMILES O=C(CCC(=O)c1c[nH]c2ccccc12)OCCOCCOC(=O)c1ccc(-c2c3nc(c(-c4c(F)c(F)c(F)c(F)c4F)c4ccc([nH]4)c(-c4c(F)c(F)c(F)c(F)c4F)c4nc(c(-c5c(F)c(F)c(F)c(F)c5F)c5ccc2[nH]5)C=C4)C=C3)cc1
REMARK SMILES IDX 18 1 17 2 16 3 2 4 1 5 3 6 4 7 5 8 6 9 7 10 8 11 15 12 9 13
REMARK SMILES IDX 10 14 14 15 11 17 13 18 12 19 19 20 20 21 21 22 22 23 23 24
REMARK SMILES IDX 24 25 25 26 26 27 87 28 27 29 86 30 28 31 29 32 30 33 80 34
REMARK SMILES IDX 31 35 85 36 79 37 81 38 32 39 84 40 78 41 77 42 33 44 65 45
REMARK SMILES IDX 45 46 64 47 46 48 49 49 63 50 82 51 47 52 48 53 62 55 83 56
REMARK SMILES IDX 50 57 34 58 35 59 43 60 36 61 37 62 41 63 44 64 38 65 39 66
REMARK SMILES IDX 42 67 40 68 66 69 67 70 75 71 68 72 69 73 73 74 76 75 70 76
REMARK SMILES IDX 71 77 74 78 72 79 51 80 52 81 60 82 53 83 54 84 58 85 61 86
REMARK SMILES IDX 55 87 56 88 59 89 57 90
REMARK H PARENT 9 16 81 43 49 54
REMARK Flexibility Score: inf
ROOT
ATOM      1  C   UNL     1       5.401  -2.291   0.638  1.00  0.00     0.202 C 
ENDROOT
BRANCH   1   2
ATOM      2  C   UNL     1       5.111  -1.200  -0.394  1.00  0.00     0.261 C 
BRANCH   2   3
ATOM      3  O   UNL     1       3.737  -0.797  -0.322  1.00  0.00    -0.463 OA
BRANCH   3   4
ATOM      4  C   UNL     1       2.977  -0.822  -1.444  1.00  0.00     0.306 C 
ATOM      5  O   UNL     1       1.829  -1.257  -1.429  1.00  0.00    -0.252 OA
BRANCH   4   6
ATOM      6  C   UNL     1       3.508  -0.029  -2.603  1.00  0.00     0.131 C 
BRANCH   6   7
ATOM      7  C   UNL     1       3.204   1.443  -2.359  1.00  0.00     0.093 C 
BRANCH   7   8
ATOM      8  C   UNL     1       4.202   2.049  -1.395  1.00  0.00     0.165 C 
ATOM      9  O   UNL     1       5.410   1.887  -1.581  1.00  0.00    -0.294 OA
BRANCH   8  10
ATOM     10  C   UNL     1       3.726   2.896  -0.306  1.00  0.00     0.043 A 
ATOM     11  C   UNL     1       4.227   4.167  -0.087  1.00  0.00     0.095 A 
ATOM     12  C   UNL     1       2.784   2.635   0.747  1.00  0.00     0.010 A 
ATOM     13  N   UNL     1       3.622   4.688   1.020  1.00  0.00    -0.360 N 
ATOM     14  C   UNL     1       2.776   3.760   1.578  1.00  0.00     0.046 A 
ATOM     15  C   UNL     1       1.966   1.546   1.123  1.00  0.00     0.011 A 
ATOM     16  H   UNL     1       3.771   5.596   1.369  1.00  0.00     0.166 HD
ATOM     17  C   UNL     1       2.019   3.839   2.755  1.00  0.00     0.027 A 
ATOM     18  C   UNL     1       1.215   1.601   2.306  1.00  0.00     0.001 A 
ATOM     19  C   UNL     1       1.247   2.732   3.112  1.00  0.00     0.002 A 
ENDBRANCH   8  10
ENDBRANCH   7   8
ENDBRANCH   6   7
ENDBRANCH   4   6
ENDBRANCH   3   4
ENDBRANCH   2   3
ENDBRANCH   1   2
BRANCH   1  20
ATOM     20  O   UNL     1       4.570  -3.444   0.537  1.00  0.00    -0.374 OA
BRANCH  20  21
ATOM     21  C   UNL     1       3.249  -3.354   1.086  1.00  0.00     0.202 C 
BRANCH  21  22
ATOM     22  C   UNL     1       3.161  -3.247   2.612  1.00  0.00     0.261 C 
BRANCH  22  23
ATOM     23  O   UNL     1       3.498  -1.929   3.100  1.00  0.00    -0.460 OA
BRANCH  23  24
ATOM     24  C   UNL     1       4.501  -1.905   4.001  1.00  0.00     0.338 C 
ATOM     25  O   UNL     1       5.149  -2.864   4.416  1.00  0.00    -0.246 OA
BRANCH  24  26
ATOM     26  C   UNL     1       4.833  -0.543   4.441  1.00  0.00     0.060 A 
ATOM     27  C   UNL     1       6.124  -0.072   4.176  1.00  0.00     0.016 A 
ATOM     28  C   UNL     1       4.015   0.107   5.370  1.00  0.00     0.016 A 
ATOM     29  C   UNL     1       6.645   0.983   4.924  1.00  0.00     0.010 A 
ATOM     30  C   UNL     1       4.540   1.168   6.118  1.00  0.00     0.010 A 
ATOM     31  C   UNL     1       5.882   1.556   5.951  1.00  0.00    -0.014 A 
BRANCH  31  32
ATOM     32  C   UNL     1       6.568   2.371   6.988  1.00  0.00     0.031 A 
ATOM     33  C   UNL     1       6.994   1.705   8.273  1.00  0.00     0.074 A 
ATOM     34  C   UNL     1       6.867   3.663   6.775  1.00  0.00     0.049 A 
ATOM     35  N   UNL     1       7.637   2.207   9.299  1.00  0.00    -0.248 NA
ATOM     36  C   UNL     1       6.648   0.282   8.422  1.00  0.00     0.031 C 
ATOM     37  C   UNL     1       6.544   4.417   5.567  1.00  0.00     0.029 A 
ATOM     38  N   UNL     1       7.520   4.567   7.577  1.00  0.00    -0.354 N 
ATOM     39  C   UNL     1       7.766   1.166  10.211  1.00  0.00     0.074 A 
ATOM     40  C   UNL     1       7.110   0.013   9.634  1.00  0.00     0.031 C 
ATOM     41  C   UNL     1       7.002   5.674   5.706  1.00  0.00     0.029 A 
ATOM     42  C   UNL     1       7.636   5.814   7.017  1.00  0.00     0.049 A 
ATOM     43  H   UNL     1       7.871   4.341   8.468  1.00  0.00     0.167 HD
ATOM     44  C   UNL     1       8.386   1.163  11.416  1.00  0.00     0.037 A 
ATOM     45  C   UNL     1       8.189   6.939   7.510  1.00  0.00     0.037 A 
ATOM     46  C   UNL     1       9.057   2.298  11.991  1.00  0.00     0.049 A 
ATOM     47  C   UNL     1       8.844   6.920   8.867  1.00  0.00     0.074 A 
ATOM     48  C   UNL     1       9.734   2.384  13.196  1.00  0.00     0.029 A 
ATOM     49  N   UNL     1       9.136   3.548  11.399  1.00  0.00    -0.354 N 
ATOM     50  N   UNL     1       8.989   5.923   9.704  1.00  0.00    -0.248 NA
ATOM     51  C   UNL     1       9.422   8.187   9.340  1.00  0.00     0.031 C 
ATOM     52  C   UNL     1      10.193   3.697  13.348  1.00  0.00     0.029 A 
ATOM     53  C   UNL     1       9.836   4.417  12.220  1.00  0.00     0.049 A 
ATOM     54  H   UNL     1       8.751   3.784  10.524  1.00  0.00     0.167 HD
ATOM     55  C   UNL     1       9.703   6.430  10.783  1.00  0.00     0.074 A 
ATOM     56  C   UNL     1       9.967   7.823  10.493  1.00  0.00     0.031 C 
ATOM     57  C   UNL     1      10.108   5.796  11.911  1.00  0.00     0.037 A 
BRANCH  44  58
ATOM     58  C   UNL     1       8.355  -0.112  12.206  1.00  0.00     0.064 A 
ATOM     59  C   UNL     1       9.148  -1.214  11.853  1.00  0.00     0.173 A 
ATOM     60  C   UNL     1       7.549  -0.219  13.348  1.00  0.00     0.173 A 
ATOM     61  F   UNL     1       9.927  -1.163  10.762  1.00  0.00    -0.203 F 
ATOM     62  C   UNL     1       9.118  -2.386  12.604  1.00  0.00     0.198 A 
ATOM     63  C   UNL     1       7.539  -1.384  14.110  1.00  0.00     0.198 A 
ATOM     64  F   UNL     1       6.777   0.809  13.730  1.00  0.00    -0.203 F 
ATOM     65  F   UNL     1       9.855  -3.440  12.228  1.00  0.00    -0.200 F 
ATOM     66  C   UNL     1       8.318  -2.468  13.735  1.00  0.00     0.200 A 
ATOM     67  F   UNL     1       6.773  -1.459  15.208  1.00  0.00    -0.200 F 
ATOM     68  F   UNL     1       8.294  -3.595  14.460  1.00  0.00    -0.200 F 
ENDBRANCH  44  58
BRANCH  45  69
ATOM     69  C   UNL     1       8.168   8.185   6.704  1.00  0.00     0.064 A 
ATOM     70  C   UNL     1       9.342   8.698   6.137  1.00  0.00     0.173 A 
ATOM     71  C   UNL     1       6.977   8.897   6.503  1.00  0.00     0.173 A 
ATOM     72  F   UNL     1      10.508   8.064   6.325  1.00  0.00    -0.203 F 
ATOM     73  C   UNL     1       9.329   9.887   5.410  1.00  0.00     0.198 A 
ATOM     74  C   UNL     1       6.961  10.073   5.756  1.00  0.00     0.198 A 
ATOM     75  F   UNL     1       5.828   8.447   7.027  1.00  0.00    -0.203 F 
ATOM     76  F   UNL     1      10.472  10.378   4.913  1.00  0.00    -0.200 F 
ATOM     77  C   UNL     1       8.138  10.571   5.217  1.00  0.00     0.200 A 
ATOM     78  F   UNL     1       5.807  10.726   5.563  1.00  0.00    -0.200 F 
ATOM     79  F   UNL     1       8.125  11.713   4.516  1.00  0.00    -0.200 F 
ENDBRANCH  45  69
BRANCH  57  80
ATOM     80  C   UNL     1      10.918   6.587  12.894  1.00  0.00     0.064 A 
ATOM     81  C   UNL     1      10.335   7.565  13.712  1.00  0.00     0.173 A 
ATOM     82  C   UNL     1      12.291   6.338  13.043  1.00  0.00     0.173 A 
ATOM     83  F   UNL     1       9.029   7.849  13.597  1.00  0.00    -0.203 F 
ATOM     84  C   UNL     1      11.101   8.283  14.627  1.00  0.00     0.198 A 
ATOM     85  C   UNL     1      13.050   7.041  13.975  1.00  0.00     0.198 A 
ATOM     86  F   UNL     1      12.896   5.408  12.289  1.00  0.00    -0.203 F 
ATOM     87  F   UNL     1      10.532   9.243  15.368  1.00  0.00    -0.200 F 
ATOM     88  C   UNL     1      12.456   8.017  14.761  1.00  0.00     0.200 A 
ATOM     89  F   UNL     1      14.357   6.776  14.111  1.00  0.00    -0.200 F 
ATOM     90  F   UNL     1      13.192   8.708  15.643  1.00  0.00    -0.200 F 
ENDBRANCH  57  80
ENDBRANCH  31  32
ENDBRANCH  24  26
ENDBRANCH  23  24
ENDBRANCH  22  23
ENDBRANCH  21  22
ENDBRANCH  20  21
ENDBRANCH   1  20
TORSDOF 17
