REMARK SMILES COC[C@H](O)CC1(C(=O)OCCOCCOC(=O)c2ccc(-c3c4nc(c(-c5c(F)c(F)c(F)c(F)c5F)c5ccc([nH]5)c(-c5c(F)c(F)c(F)c(F)c5F)c5nc(c(-c6c(F)c(F)c(F)c(F)c6F)c6ccc3[nH]6)C=C5)C=C4)cc2)CC1
REMARK SMILES IDX 12 1 11 2 10 3 8 4 9 5 7 6 82 7 83 8 6 9 4 10 3 11 2 12 1 13
REMARK SMILES IDX 5 14 13 16 14 17 15 18 16 19 17 20 18 21 19 22 20 23 81 24
REMARK SMILES IDX 21 25 80 26 22 27 23 28 24 29 74 30 25 31 79 32 73 33 75 34
REMARK SMILES IDX 26 35 78 36 72 37 71 38 27 40 59 41 39 42 58 43 40 44 43 45
REMARK SMILES IDX 57 46 76 47 41 48 42 49 56 51 77 52 44 53 28 54 29 55 37 56
REMARK SMILES IDX 30 57 31 58 35 59 38 60 32 61 33 62 36 63 34 64 60 65 61 66
REMARK SMILES IDX 69 67 62 68 63 69 67 70 70 71 64 72 65 73 68 74 66 75 45 76
REMARK SMILES IDX 46 77 54 78 47 79 48 80 52 81 55 82 49 83 50 84 53 85 51 86
REMARK H PARENT 5 15 75 39 43 50
REMARK Flexibility Score: inf
ROOT
ATOM      1  C   UNL     1      -2.500   1.215  -6.607  1.00  0.00     0.202 C 
ENDROOT
BRANCH   1   2
ATOM      2  C   UNL     1      -1.333   0.489  -7.283  1.00  0.00     0.261 C 
BRANCH   2   3
ATOM      3  O   UNL     1      -0.838  -0.552  -6.434  1.00  0.00    -0.463 OA
BRANCH   3   4
ATOM      4  C   UNL     1       0.512  -0.586  -6.295  1.00  0.00     0.312 C 
ATOM      5  O   UNL     1       1.331  -0.039  -7.017  1.00  0.00    -0.252 OA
BRANCH   4   6
ATOM      6  C   UNL     1       0.927  -1.267  -5.015  1.00  0.00     0.071 C 
ATOM      7  C   UNL     1       1.534  -2.657  -5.182  1.00  0.00     0.020 C 
ATOM      8  C   UNL     1       0.177  -2.523  -4.568  1.00  0.00     0.020 C 
BRANCH   6   9
ATOM      9  C   UNL     1       1.597  -0.328  -3.995  1.00  0.00     0.053 C 
BRANCH   9  10
ATOM     10  C   UNL     1       1.119  -0.420  -2.535  1.00  0.00     0.141 C 
BRANCH  10  11
ATOM     11  C   UNL     1       1.347   0.934  -1.815  1.00  0.00     0.191 C 
BRANCH  11  12
ATOM     12  O   UNL     1       1.337   0.871  -0.388  1.00  0.00    -0.382 OA
ATOM     13  C   UNL     1       0.082   0.555   0.186  1.00  0.00     0.195 C 
ENDBRANCH  11  12
ENDBRANCH  10  11
BRANCH  10  14
ATOM     14  O   UNL     1       1.849  -1.443  -1.852  1.00  0.00    -0.391 OA
ATOM     15  H   UNL     1       2.795  -1.226  -1.862  1.00  0.00     0.211 HD
ENDBRANCH  10  14
ENDBRANCH   9  10
ENDBRANCH   6   9
ENDBRANCH   4   6
ENDBRANCH   3   4
ENDBRANCH   2   3
ENDBRANCH   1   2
BRANCH   1  16
ATOM     16  O   UNL     1      -2.240   1.833  -5.347  1.00  0.00    -0.374 OA
BRANCH  16  17
ATOM     17  C   UNL     1      -2.004   0.997  -4.216  1.00  0.00     0.202 C 
BRANCH  17  18
ATOM     18  C   UNL     1      -3.189   0.231  -3.614  1.00  0.00     0.261 C 
BRANCH  18  19
ATOM     19  O   UNL     1      -3.805  -0.679  -4.536  1.00  0.00    -0.460 OA
BRANCH  19  20
ATOM     20  C   UNL     1      -5.040  -0.303  -4.953  1.00  0.00     0.338 C 
ATOM     21  O   UNL     1      -5.678   0.675  -4.606  1.00  0.00    -0.246 OA
BRANCH  20  22
ATOM     22  C   UNL     1      -5.472  -1.176  -6.057  1.00  0.00     0.060 A 
ATOM     23  C   UNL     1      -5.800  -0.572  -7.279  1.00  0.00     0.016 A 
ATOM     24  C   UNL     1      -5.634  -2.549  -5.870  1.00  0.00     0.016 A 
ATOM     25  C   UNL     1      -6.330  -1.338  -8.314  1.00  0.00     0.010 A 
ATOM     26  C   UNL     1      -6.180  -3.312  -6.903  1.00  0.00     0.010 A 
ATOM     27  C   UNL     1      -6.561  -2.704  -8.114  1.00  0.00    -0.014 A 
BRANCH  27  28
ATOM     28  C   UNL     1      -7.364  -3.470  -9.092  1.00  0.00     0.031 A 
ATOM     29  C   UNL     1      -8.821  -3.690  -8.802  1.00  0.00     0.074 A 
ATOM     30  C   UNL     1      -6.804  -3.969 -10.206  1.00  0.00     0.049 A 
ATOM     31  N   UNL     1      -9.693  -4.432  -9.433  1.00  0.00    -0.248 NA
ATOM     32  C   UNL     1      -9.367  -2.979  -7.634  1.00  0.00     0.031 C 
ATOM     33  C   UNL     1      -5.416  -3.770 -10.615  1.00  0.00     0.029 A 
ATOM     34  N   UNL     1      -7.336  -4.766 -11.188  1.00  0.00    -0.354 N 
ATOM     35  C   UNL     1     -10.882  -4.293  -8.730  1.00  0.00     0.074 A 
ATOM     36  C   UNL     1     -10.617  -3.413  -7.613  1.00  0.00     0.031 C 
ATOM     37  C   UNL     1      -5.197  -4.449 -11.754  1.00  0.00     0.029 A 
ATOM     38  C   UNL     1      -6.417  -5.161 -12.128  1.00  0.00     0.049 A 
ATOM     39  H   UNL     1      -8.285  -5.028 -11.216  1.00  0.00     0.167 HD
ATOM     40  C   UNL     1     -12.086  -4.850  -8.997  1.00  0.00     0.037 A 
ATOM     41  C   UNL     1      -6.545  -6.030 -13.150  1.00  0.00     0.037 A 
ATOM     42  C   UNL     1     -12.337  -5.723 -10.112  1.00  0.00     0.049 A 
ATOM     43  C   UNL     1      -7.876  -6.699 -13.383  1.00  0.00     0.074 A 
ATOM     44  C   UNL     1     -13.521  -6.336 -10.480  1.00  0.00     0.029 A 
ATOM     45  N   UNL     1     -11.378  -6.112 -11.037  1.00  0.00    -0.354 N 
ATOM     46  N   UNL     1      -9.000  -6.560 -12.721  1.00  0.00    -0.248 NA
ATOM     47  C   UNL     1      -7.957  -7.647 -14.503  1.00  0.00     0.031 C 
ATOM     48  C   UNL     1     -13.267  -7.136 -11.599  1.00  0.00     0.029 A 
ATOM     49  C   UNL     1     -11.939  -6.974 -11.964  1.00  0.00     0.049 A 
ATOM     50  H   UNL     1     -10.439  -5.817 -11.035  1.00  0.00     0.167 HD
ATOM     51  C   UNL     1      -9.928  -7.367 -13.366  1.00  0.00     0.074 A 
ATOM     52  C   UNL     1      -9.236  -7.996 -14.472  1.00  0.00     0.031 C 
ATOM     53  C   UNL     1     -11.237  -7.567 -13.073  1.00  0.00     0.037 A 
BRANCH  40  54
ATOM     54  C   UNL     1     -13.211  -4.559  -8.048  1.00  0.00     0.064 A 
ATOM     55  C   UNL     1     -13.809  -3.292  -7.973  1.00  0.00     0.173 A 
ATOM     56  C   UNL     1     -13.715  -5.572  -7.216  1.00  0.00     0.173 A 
ATOM     57  F   UNL     1     -13.354  -2.286  -8.735  1.00  0.00    -0.203 F 
ATOM     58  C   UNL     1     -14.850  -3.042  -7.082  1.00  0.00     0.198 A 
ATOM     59  C   UNL     1     -14.776  -5.326  -6.349  1.00  0.00     0.198 A 
ATOM     60  F   UNL     1     -13.181  -6.802  -7.249  1.00  0.00    -0.203 F 
ATOM     61  F   UNL     1     -15.371  -1.811  -6.992  1.00  0.00    -0.200 F 
ATOM     62  C   UNL     1     -15.337  -4.061  -6.276  1.00  0.00     0.200 A 
ATOM     63  F   UNL     1     -15.252  -6.315  -5.579  1.00  0.00    -0.200 F 
ATOM     64  F   UNL     1     -16.342  -3.820  -5.424  1.00  0.00    -0.200 F 
ENDBRANCH  40  54
BRANCH  41  65
ATOM     65  C   UNL     1      -5.378  -6.330 -14.019  1.00  0.00     0.064 A 
ATOM     66  C   UNL     1      -5.353  -5.925 -15.361  1.00  0.00     0.173 A 
ATOM     67  C   UNL     1      -4.269  -7.037 -13.531  1.00  0.00     0.173 A 
ATOM     68  F   UNL     1      -6.400  -5.268 -15.880  1.00  0.00    -0.203 F 
ATOM     69  C   UNL     1      -4.271  -6.230 -16.185  1.00  0.00     0.198 A 
ATOM     70  C   UNL     1      -3.175  -7.316 -14.348  1.00  0.00     0.198 A 
ATOM     71  F   UNL     1      -4.242  -7.449 -12.255  1.00  0.00    -0.203 F 
ATOM     72  F   UNL     1      -4.294  -5.869 -17.475  1.00  0.00    -0.200 F 
ATOM     73  C   UNL     1      -3.181  -6.919 -15.677  1.00  0.00     0.200 A 
ATOM     74  F   UNL     1      -2.118  -7.971 -13.849  1.00  0.00    -0.200 F 
ATOM     75  F   UNL     1      -2.139  -7.208 -16.469  1.00  0.00    -0.200 F 
ENDBRANCH  41  65
BRANCH  53  76
ATOM     76  C   UNL     1     -12.030  -8.448 -13.993  1.00  0.00     0.064 A 
ATOM     77  C   UNL     1     -11.876  -9.841 -14.000  1.00  0.00     0.173 A 
ATOM     78  C   UNL     1     -13.015  -7.889 -14.824  1.00  0.00     0.173 A 
ATOM     79  F   UNL     1     -10.940 -10.421 -13.235  1.00  0.00    -0.203 F 
ATOM     80  C   UNL     1     -12.671 -10.643 -14.816  1.00  0.00     0.198 A 
ATOM     81  C   UNL     1     -13.827  -8.696 -15.615  1.00  0.00     0.198 A 
ATOM     82  F   UNL     1     -13.207  -6.562 -14.847  1.00  0.00    -0.203 F 
ATOM     83  F   UNL     1     -12.485 -11.970 -14.832  1.00  0.00    -0.200 F 
ATOM     84  C   UNL     1     -13.652 -10.071 -15.613  1.00  0.00     0.200 A 
ATOM     85  F   UNL     1     -14.785  -8.143 -16.372  1.00  0.00    -0.200 F 
ATOM     86  F   UNL     1     -14.428 -10.847 -16.383  1.00  0.00    -0.200 F 
ENDBRANCH  53  76
ENDBRANCH  27  28
ENDBRANCH  20  22
ENDBRANCH  19  20
ENDBRANCH  18  19
ENDBRANCH  17  18
ENDBRANCH  16  17
ENDBRANCH   1  16
TORSDOF 19
