REMARK SMILES COc1ccc2c(c1)OC[C@]1(C(=O)OCCOCCOC(=O)c3ccc(-c4c5nc(c(-c6c(F)c(F)c(F)c(F)c6F)c6ccc([nH]6)c(-c6c(F)c(F)c(F)c(F)c6F)c6nc(c(-c7c(F)c(F)c(F)c(F)c7F)c7ccc4[nH]7)C=C6)C=C5)cc3)C[N@@H+](Cc3cc(C(C)(C)C)n[nH]3)C[C@H]21
REMARK SMILES IDX 16 1 15 2 14 3 12 4 13 5 11 6 3 7 4 8 8 9 5 10 7 11 6 12
REMARK SMILES IDX 9 13 99 14 10 15 98 16 86 17 87 18 2 20 1 21 88 22 89 23
REMARK SMILES IDX 90 24 97 25 91 26 96 27 92 29 93 30 94 31 95 32 17 33 18 34
REMARK SMILES IDX 19 35 20 36 21 37 22 38 23 39 24 40 85 41 25 42 84 43 26 44
REMARK SMILES IDX 27 45 28 46 78 47 29 48 83 49 77 50 79 51 30 52 82 53 76 54
REMARK SMILES IDX 75 55 31 57 63 58 43 59 62 60 44 61 47 62 61 63 80 64 45 65
REMARK SMILES IDX 46 66 60 68 81 69 48 70 32 71 33 72 41 73 34 74 35 75 39 76
REMARK SMILES IDX 42 77 36 78 37 79 40 80 38 81 64 82 65 83 73 84 66 85 67 86
REMARK SMILES IDX 71 87 74 88 68 89 69 90 72 91 70 92 49 93 50 94 58 95 51 96
REMARK SMILES IDX 52 97 56 98 59 99 53 100 54 101 57 102 55 103
REMARK H PARENT 87 19 97 28 79 56 47 67
REMARK Flexibility Score: inf
ROOT
ATOM      1  C   UNL     1       7.430  -6.265   1.167  1.00  0.00     0.202 C 
ENDROOT
BRANCH   1   2
ATOM      2  C   UNL     1       6.796  -6.394   2.580  1.00  0.00     0.261 C 
BRANCH   2   3
ATOM      3  O   UNL     1       5.398  -6.749   2.423  1.00  0.00    -0.463 OA
BRANCH   3   4
ATOM      4  C   UNL     1       4.408  -6.305   3.285  1.00  0.00     0.322 C 
ATOM      5  O   UNL     1       4.596  -5.900   4.417  1.00  0.00    -0.251 OA
BRANCH   4   6
ATOM      6  C   UNL     1       3.112  -6.229   2.450  1.00  0.00     0.162 C 
ATOM      7  C   UNL     1       0.482  -1.789   1.818  1.00  0.00     0.122 A 
ATOM      8  C   UNL     1      -0.227  -2.480   2.806  1.00  0.00     0.047 A 
ATOM      9  C   UNL     1       1.571  -2.407   1.224  1.00  0.00     0.093 A 
ATOM     10  C   UNL     1       0.197  -3.745   3.250  1.00  0.00     0.012 A 
ATOM     11  C   UNL     1       1.903  -3.704   1.595  1.00  0.00     0.126 A 
ATOM     12  C   UNL     1       1.312  -4.359   2.671  1.00  0.00     0.005 A 
ATOM     13  O   UNL     1       2.660  -4.416   0.711  1.00  0.00    -0.492 OA
ATOM     14  C   UNL     1       1.733  -5.783   2.977  1.00  0.00     0.105 C 
ATOM     15  C   UNL     1       3.585  -5.226   1.397  1.00  0.00     0.255 C 
ATOM     16  C   UNL     1       0.777  -6.670   2.146  1.00  0.00     0.272 C 
ATOM     17  C   UNL     1       2.873  -7.688   1.988  1.00  0.00     0.286 C 
ATOM     18  N   UNL     1       1.435  -7.953   1.951  1.00  0.00    -0.328 N 
ATOM     19  H   UNL     1       1.194  -8.347   1.042  1.00  0.00     0.348 HD
BRANCH   7  20
ATOM     20  O   UNL     1      -0.006  -0.558   1.468  1.00  0.00    -0.497 OA
ATOM     21  C   UNL     1       0.595   0.050   0.326  1.00  0.00     0.278 C 
ENDBRANCH   7  20
BRANCH  18  22
ATOM     22  C   UNL     1       0.946  -9.040   2.807  1.00  0.00     0.319 C 
BRANCH  22  23
ATOM     23  C   UNL     1       0.931  -8.735   4.263  1.00  0.00     0.090 A 
ATOM     24  C   UNL     1       0.112  -7.926   5.023  1.00  0.00     0.055 A 
ATOM     25  N   UNL     1       1.810  -9.280   5.155  1.00  0.00    -0.277 N 
ATOM     26  C   UNL     1       0.731  -7.850   6.292  1.00  0.00     0.068 A 
ATOM     27  N   UNL     1       1.730  -8.740   6.381  1.00  0.00    -0.180 NA
ATOM     28  H   UNL     1       2.440 -10.000   4.922  1.00  0.00     0.190 HD
BRANCH  26  29
ATOM     29  C   UNL     1       0.408  -6.903   7.436  1.00  0.00     0.006 C 
ATOM     30  C   UNL     1      -0.451  -7.622   8.488  1.00  0.00     0.017 C 
ATOM     31  C   UNL     1       1.703  -6.384   8.096  1.00  0.00     0.017 C 
ATOM     32  C   UNL     1      -0.368  -5.663   6.935  1.00  0.00     0.017 C 
ENDBRANCH  26  29
ENDBRANCH  22  23
ENDBRANCH  18  22
ENDBRANCH   4   6
ENDBRANCH   3   4
ENDBRANCH   2   3
ENDBRANCH   1   2
BRANCH   1  33
ATOM     33  O   UNL     1       7.650  -4.956   0.621  1.00  0.00    -0.374 OA
BRANCH  33  34
ATOM     34  C   UNL     1       6.522  -4.159   0.280  1.00  0.00     0.202 C 
BRANCH  34  35
ATOM     35  C   UNL     1       5.778  -4.456  -1.041  1.00  0.00     0.261 C 
BRANCH  35  36
ATOM     36  O   UNL     1       5.765  -5.844  -1.388  1.00  0.00    -0.460 OA
BRANCH  36  37
ATOM     37  C   UNL     1       6.709  -6.182  -2.295  1.00  0.00     0.338 C 
ATOM     38  O   UNL     1       7.448  -5.436  -2.921  1.00  0.00    -0.246 OA
BRANCH  37  39
ATOM     39  C   UNL     1       6.870  -7.641  -2.298  1.00  0.00     0.060 A 
ATOM     40  C   UNL     1       5.852  -8.495  -2.725  1.00  0.00     0.016 A 
ATOM     41  C   UNL     1       8.112  -8.143  -1.899  1.00  0.00     0.016 A 
ATOM     42  C   UNL     1       6.100  -9.870  -2.781  1.00  0.00     0.010 A 
ATOM     43  C   UNL     1       8.356  -9.511  -1.953  1.00  0.00     0.010 A 
ATOM     44  C   UNL     1       7.360 -10.382  -2.417  1.00  0.00    -0.014 A 
BRANCH  44  45
ATOM     45  C   UNL     1       7.697 -11.806  -2.655  1.00  0.00     0.031 A 
ATOM     46  C   UNL     1       7.812 -12.780  -1.523  1.00  0.00     0.074 A 
ATOM     47  C   UNL     1       7.956 -12.194  -3.918  1.00  0.00     0.049 A 
ATOM     48  N   UNL     1       8.089 -14.059  -1.565  1.00  0.00    -0.248 NA
ATOM     49  C   UNL     1       7.597 -12.255  -0.167  1.00  0.00     0.031 C 
ATOM     50  C   UNL     1       7.919 -11.314  -5.088  1.00  0.00     0.029 A 
ATOM     51  N   UNL     1       8.305 -13.417  -4.431  1.00  0.00    -0.354 N 
ATOM     52  C   UNL     1       8.059 -14.498  -0.250  1.00  0.00     0.074 A 
ATOM     53  C   UNL     1       7.788 -13.338   0.575  1.00  0.00     0.031 C 
ATOM     54  C   UNL     1       8.206 -12.031  -6.184  1.00  0.00     0.029 A 
ATOM     55  C   UNL     1       8.481 -13.410  -5.793  1.00  0.00     0.049 A 
ATOM     56  H   UNL     1       8.419 -14.222  -3.876  1.00  0.00     0.167 HD
ATOM     57  C   UNL     1       8.223 -15.759   0.217  1.00  0.00     0.037 A 
ATOM     58  C   UNL     1       8.825 -14.405  -6.632  1.00  0.00     0.037 A 
ATOM     59  C   UNL     1       8.513 -16.901  -0.615  1.00  0.00     0.049 A 
ATOM     60  C   UNL     1       9.049 -15.784  -6.076  1.00  0.00     0.074 A 
ATOM     61  C   UNL     1       8.671 -18.223  -0.236  1.00  0.00     0.029 A 
ATOM     62  N   UNL     1       8.703 -16.856  -1.989  1.00  0.00    -0.354 N 
ATOM     63  N   UNL     1       8.943 -16.204  -4.839  1.00  0.00    -0.248 NA
ATOM     64  C   UNL     1       9.433 -16.830  -7.034  1.00  0.00     0.031 C 
ATOM     65  C   UNL     1       9.009 -18.968  -1.369  1.00  0.00     0.029 A 
ATOM     66  C   UNL     1       8.999 -18.123  -2.467  1.00  0.00     0.049 A 
ATOM     67  H   UNL     1       8.636 -16.044  -2.542  1.00  0.00     0.167 HD
ATOM     68  C   UNL     1       9.214 -17.565  -4.873  1.00  0.00     0.074 A 
ATOM     69  C   UNL     1       9.474 -17.904  -6.257  1.00  0.00     0.031 C 
ATOM     70  C   UNL     1       9.245 -18.452  -3.849  1.00  0.00     0.037 A 
BRANCH  57  71
ATOM     71  C   UNL     1       8.073 -15.994   1.692  1.00  0.00     0.064 A 
ATOM     72  C   UNL     1       6.816 -15.933   2.313  1.00  0.00     0.173 A 
ATOM     73  C   UNL     1       9.169 -16.397   2.471  1.00  0.00     0.173 A 
ATOM     74  F   UNL     1       5.737 -15.545   1.616  1.00  0.00    -0.203 F 
ATOM     75  C   UNL     1       6.663 -16.263   3.657  1.00  0.00     0.198 A 
ATOM     76  C   UNL     1       9.007 -16.753   3.808  1.00  0.00     0.198 A 
ATOM     77  F   UNL     1      10.392 -16.481   1.925  1.00  0.00    -0.203 F 
ATOM     78  F   UNL     1       5.455 -16.175   4.232  1.00  0.00    -0.200 F 
ATOM     79  C   UNL     1       7.755 -16.686   4.399  1.00  0.00     0.200 A 
ATOM     80  F   UNL     1      10.060 -17.178   4.519  1.00  0.00    -0.200 F 
ATOM     81  F   UNL     1       7.600 -17.029   5.685  1.00  0.00    -0.200 F 
ENDBRANCH  57  71
BRANCH  58  82
ATOM     82  C   UNL     1       8.934 -14.137  -8.090  1.00  0.00     0.064 A 
ATOM     83  C   UNL     1       8.016 -14.692  -8.992  1.00  0.00     0.173 A 
ATOM     84  C   UNL     1       9.943 -13.314  -8.610  1.00  0.00     0.173 A 
ATOM     85  F   UNL     1       7.043 -15.499  -8.545  1.00  0.00    -0.203 F 
ATOM     86  C   UNL     1       8.114 -14.449 -10.360  1.00  0.00     0.198 A 
ATOM     87  C   UNL     1      10.021 -13.045  -9.975  1.00  0.00     0.198 A 
ATOM     88  F   UNL     1      10.843 -12.753  -7.789  1.00  0.00    -0.203 F 
ATOM     89  F   UNL     1       7.249 -15.028 -11.204  1.00  0.00    -0.200 F 
ATOM     90  C   UNL     1       9.111 -13.619 -10.850  1.00  0.00     0.200 A 
ATOM     91  F   UNL     1      10.975 -12.228 -10.442  1.00  0.00    -0.200 F 
ATOM     92  F   UNL     1       9.199 -13.378 -12.165  1.00  0.00    -0.200 F 
ENDBRANCH  58  82
BRANCH  70  93
ATOM     93  C   UNL     1       9.539 -19.888  -4.180  1.00  0.00     0.064 A 
ATOM     94  C   UNL     1      10.816 -20.305  -4.583  1.00  0.00     0.173 A 
ATOM     95  C   UNL     1       8.547 -20.869  -4.025  1.00  0.00     0.173 A 
ATOM     96  F   UNL     1      11.796 -19.406  -4.759  1.00  0.00    -0.203 F 
ATOM     97  C   UNL     1      11.083 -21.648  -4.838  1.00  0.00     0.198 A 
ATOM     98  C   UNL     1       8.826 -22.214  -4.247  1.00  0.00     0.198 A 
ATOM     99  F   UNL     1       7.310 -20.525  -3.633  1.00  0.00    -0.203 F 
ATOM    100  F   UNL     1      12.298 -22.017  -5.264  1.00  0.00    -0.200 F 
ATOM    101  C   UNL     1      10.092 -22.602  -4.659  1.00  0.00     0.200 A 
ATOM    102  F   UNL     1       7.873 -23.136  -4.054  1.00  0.00    -0.200 F 
ATOM    103  F   UNL     1      10.357 -23.895  -4.887  1.00  0.00    -0.200 F 
ENDBRANCH  70  93
ENDBRANCH  44  45
ENDBRANCH  37  39
ENDBRANCH  36  37
ENDBRANCH  35  36
ENDBRANCH  34  35
ENDBRANCH  33  34
ENDBRANCH   1  33
TORSDOF 18
