REMARK SMILES CCC[C@@]1(C(=O)OCCOCCOC(=O)c2ccc(-c3c4nc(c(-c5c(F)c(F)c(F)c(F)c5F)c5ccc([nH]5)c(-c5c(F)c(F)c(F)c(F)c5F)c5nc(c(-c6c(F)c(F)c(F)c(F)c6F)c6ccc3[nH]6)C=C5)C=C4)cc2)CCN(C(=O)NC[C@]2(C)CCCO2)C1
REMARK SMILES IDX 9 1 8 2 7 3 5 4 6 5 4 6 79 7 92 8 80 9 81 10 3 11 2 12 1 13
REMARK SMILES IDX 82 14 83 15 84 16 85 18 86 19 88 20 91 21 87 22 89 23 90 24
REMARK SMILES IDX 10 25 11 26 12 27 13 28 14 29 15 30 16 31 17 32 78 33 18 34
REMARK SMILES IDX 77 35 19 36 20 37 21 38 71 39 22 40 76 41 70 42 72 43 23 44
REMARK SMILES IDX 75 45 69 46 68 47 24 49 56 50 36 51 55 52 37 53 40 54 54 55
REMARK SMILES IDX 73 56 38 57 39 58 53 60 74 61 41 62 25 63 26 64 34 65 27 66
REMARK SMILES IDX 28 67 32 68 35 69 29 70 30 71 33 72 31 73 57 74 58 75 66 76
REMARK SMILES IDX 59 77 60 78 64 79 67 80 61 81 62 82 65 83 63 84 42 85 43 86
REMARK SMILES IDX 51 87 44 88 45 89 49 90 52 91 46 92 47 93 50 94 48 95
REMARK H PARENT 84 17 72 48 40 59
REMARK Flexibility Score: inf
ROOT
ATOM      1  C   UNL     1      -4.841 -11.787  -3.287  1.00  0.00     0.202 C 
ENDROOT
BRANCH   1   2
ATOM      2  C   UNL     1      -4.924 -10.534  -4.159  1.00  0.00     0.261 C 
BRANCH   2   3
ATOM      3  O   UNL     1      -3.632  -9.913  -4.275  1.00  0.00    -0.463 OA
BRANCH   3   4
ATOM      4  C   UNL     1      -3.471  -8.738  -3.608  1.00  0.00     0.314 C 
ATOM      5  O   UNL     1      -4.383  -8.164  -3.027  1.00  0.00    -0.252 OA
BRANCH   4   6
ATOM      6  C   UNL     1      -2.000  -8.264  -3.588  1.00  0.00     0.087 C 
ATOM      7  C   UNL     1      -1.434  -8.416  -2.167  1.00  0.00     0.042 C 
ATOM      8  C   UNL     1      -2.010  -6.729  -3.741  1.00  0.00     0.140 C 
ATOM      9  C   UNL     1      -2.026  -7.248  -1.408  1.00  0.00     0.122 C 
ATOM     10  N   UNL     1      -2.051  -6.181  -2.383  1.00  0.00    -0.324 N 
BRANCH   6  11
ATOM     11  C   UNL     1      -1.148  -8.958  -4.688  1.00  0.00     0.020 C 
BRANCH  11  12
ATOM     12  C   UNL     1       0.382  -8.879  -4.562  1.00  0.00    -0.002 C 
ATOM     13  C   UNL     1       0.979 -10.057  -3.795  1.00  0.00     0.004 C 
ENDBRANCH  11  12
ENDBRANCH   6  11
BRANCH  10  14
ATOM     14  C   UNL     1      -2.048  -4.835  -2.199  1.00  0.00     0.317 C 
ATOM     15  O   UNL     1      -1.899  -4.061  -3.147  1.00  0.00    -0.249 OA
ATOM     16  N   UNL     1      -2.189  -4.285  -0.976  1.00  0.00    -0.335 N 
ATOM     17  H   UNL     1      -1.994  -3.320  -0.963  1.00  0.00     0.165 HD
BRANCH  16  18
ATOM     18  C   UNL     1      -2.565  -4.807   0.330  1.00  0.00     0.152 C 
BRANCH  18  19
ATOM     19  C   UNL     1      -1.400  -4.915   1.363  1.00  0.00     0.083 C 
ATOM     20  C   UNL     1      -1.527  -6.166   2.240  1.00  0.00     0.039 C 
ATOM     21  O   UNL     1      -1.548  -3.820   2.302  1.00  0.00    -0.373 OA
ATOM     22  C   UNL     1      -0.001  -4.809   0.753  1.00  0.00     0.044 C 
ATOM     23  C   UNL     1      -2.571  -5.756   3.247  1.00  0.00     0.031 C 
ATOM     24  C   UNL     1      -2.261  -4.289   3.459  1.00  0.00     0.161 C 
ENDBRANCH  18  19
ENDBRANCH  16  18
ENDBRANCH  10  14
ENDBRANCH   4   6
ENDBRANCH   3   4
ENDBRANCH   2   3
ENDBRANCH   1   2
BRANCH   1  25
ATOM     25  O   UNL     1      -4.405 -11.570  -1.946  1.00  0.00    -0.374 OA
BRANCH  25  26
ATOM     26  C   UNL     1      -2.993 -11.613  -1.741  1.00  0.00     0.202 C 
BRANCH  26  27
ATOM     27  C   UNL     1      -2.397 -13.000  -1.483  1.00  0.00     0.261 C 
BRANCH  27  28
ATOM     28  O   UNL     1      -2.353 -13.769  -2.695  1.00  0.00    -0.460 OA
BRANCH  28  29
ATOM     29  C   UNL     1      -3.347 -14.674  -2.831  1.00  0.00     0.338 C 
ATOM     30  O   UNL     1      -4.197 -14.980  -2.009  1.00  0.00    -0.246 OA
BRANCH  29  31
ATOM     31  C   UNL     1      -3.392 -15.120  -4.234  1.00  0.00     0.060 A 
ATOM     32  C   UNL     1      -4.629 -15.085  -4.893  1.00  0.00     0.016 A 
ATOM     33  C   UNL     1      -2.250 -15.592  -4.882  1.00  0.00     0.016 A 
ATOM     34  C   UNL     1      -4.740 -15.573  -6.191  1.00  0.00     0.010 A 
ATOM     35  C   UNL     1      -2.365 -16.092  -6.179  1.00  0.00     0.010 A 
ATOM     36  C   UNL     1      -3.617 -16.120  -6.821  1.00  0.00    -0.014 A 
BRANCH  36  37
ATOM     37  C   UNL     1      -3.768 -16.902  -8.068  1.00  0.00     0.031 A 
ATOM     38  C   UNL     1      -3.764 -18.401  -7.968  1.00  0.00     0.074 A 
ATOM     39  C   UNL     1      -3.884 -16.294  -9.260  1.00  0.00     0.049 A 
ATOM     40  N   UNL     1      -3.727 -19.299  -8.917  1.00  0.00    -0.248 NA
ATOM     41  C   UNL     1      -3.792 -18.961  -6.607  1.00  0.00     0.031 C 
ATOM     42  C   UNL     1      -3.953 -14.850  -9.470  1.00  0.00     0.029 A 
ATOM     43  N   UNL     1      -3.938 -16.825 -10.524  1.00  0.00    -0.354 N 
ATOM     44  C   UNL     1      -3.704 -20.527  -8.268  1.00  0.00     0.074 A 
ATOM     45  C   UNL     1      -3.704 -20.260  -6.847  1.00  0.00     0.031 C 
ATOM     46  C   UNL     1      -4.016 -14.606 -10.790  1.00  0.00     0.029 A 
ATOM     47  C   UNL     1      -3.945 -15.874 -11.514  1.00  0.00     0.049 A 
ATOM     48  H   UNL     1      -3.969 -17.792 -10.703  1.00  0.00     0.167 HD
ATOM     49  C   UNL     1      -3.687 -21.765  -8.814  1.00  0.00     0.037 A 
ATOM     50  C   UNL     1      -3.865 -16.019 -12.851  1.00  0.00     0.037 A 
ATOM     51  C   UNL     1      -3.691 -22.017 -10.230  1.00  0.00     0.049 A 
ATOM     52  C   UNL     1      -3.771 -17.407 -13.435  1.00  0.00     0.074 A 
ATOM     53  C   UNL     1      -3.687 -23.231 -10.892  1.00  0.00     0.029 A 
ATOM     54  N   UNL     1      -3.691 -21.029 -11.205  1.00  0.00    -0.354 N 
ATOM     55  N   UNL     1      -3.758 -18.566 -12.822  1.00  0.00    -0.248 NA
ATOM     56  C   UNL     1      -3.682 -17.506 -14.899  1.00  0.00     0.031 C 
ATOM     57  C   UNL     1      -3.628 -22.979 -12.265  1.00  0.00     0.029 A 
ATOM     58  C   UNL     1      -3.666 -21.607 -12.463  1.00  0.00     0.049 A 
ATOM     59  H   UNL     1      -3.707 -20.060 -11.028  1.00  0.00     0.167 HD
ATOM     60  C   UNL     1      -3.704 -19.530 -13.822  1.00  0.00     0.074 A 
ATOM     61  C   UNL     1      -3.688 -18.819 -15.083  1.00  0.00     0.031 C 
ATOM     62  C   UNL     1      -3.678 -20.881 -13.707  1.00  0.00     0.037 A 
BRANCH  49  63
ATOM     63  C   UNL     1      -3.630 -22.938  -7.878  1.00  0.00     0.064 A 
ATOM     64  C   UNL     1      -4.714 -23.286  -7.058  1.00  0.00     0.173 A 
ATOM     65  C   UNL     1      -2.481 -23.741  -7.820  1.00  0.00     0.173 A 
ATOM     66  F   UNL     1      -5.830 -22.542  -7.062  1.00  0.00    -0.203 F 
ATOM     67  C   UNL     1      -4.638 -24.376  -6.194  1.00  0.00     0.198 A 
ATOM     68  C   UNL     1      -2.422 -24.851  -6.981  1.00  0.00     0.198 A 
ATOM     69  F   UNL     1      -1.415 -23.455  -8.583  1.00  0.00    -0.203 F 
ATOM     70  F   UNL     1      -5.666 -24.657  -5.381  1.00  0.00    -0.200 F 
ATOM     71  C   UNL     1      -3.496 -25.162  -6.163  1.00  0.00     0.200 A 
ATOM     72  F   UNL     1      -1.322 -25.616  -6.962  1.00  0.00    -0.200 F 
ATOM     73  F   UNL     1      -3.429 -26.216  -5.338  1.00  0.00    -0.200 F 
ENDBRANCH  49  63
BRANCH  50  74
ATOM     74  C   UNL     1      -3.855 -14.821 -13.731  1.00  0.00     0.064 A 
ATOM     75  C   UNL     1      -4.922 -14.555 -14.601  1.00  0.00     0.173 A 
ATOM     76  C   UNL     1      -2.773 -13.928 -13.737  1.00  0.00     0.173 A 
ATOM     77  F   UNL     1      -5.969 -15.392 -14.649  1.00  0.00    -0.203 F 
ATOM     78  C   UNL     1      -4.897 -13.457 -15.458  1.00  0.00     0.198 A 
ATOM     79  C   UNL     1      -2.763 -12.812 -14.572  1.00  0.00     0.198 A 
ATOM     80  F   UNL     1      -1.726 -14.135 -12.925  1.00  0.00    -0.203 F 
ATOM     81  F   UNL     1      -5.907 -13.257 -16.316  1.00  0.00    -0.200 F 
ATOM     82  C   UNL     1      -3.820 -12.583 -15.438  1.00  0.00     0.200 A 
ATOM     83  F   UNL     1      -1.727 -11.963 -14.539  1.00  0.00    -0.200 F 
ATOM     84  F   UNL     1      -3.798 -11.526 -16.261  1.00  0.00    -0.200 F 
ENDBRANCH  50  74
BRANCH  62  85
ATOM     85  C   UNL     1      -3.703 -21.688 -14.974  1.00  0.00     0.064 A 
ATOM     86  C   UNL     1      -2.596 -21.762 -15.832  1.00  0.00     0.173 A 
ATOM     87  C   UNL     1      -4.836 -22.453 -15.296  1.00  0.00     0.173 A 
ATOM     88  F   UNL     1      -1.494 -21.042 -15.576  1.00  0.00    -0.203 F 
ATOM     89  C   UNL     1      -2.631 -22.555 -16.976  1.00  0.00     0.198 A 
ATOM     90  C   UNL     1      -4.855 -23.270 -16.422  1.00  0.00     0.198 A 
ATOM     91  F   UNL     1      -5.918 -22.424 -14.503  1.00  0.00    -0.203 F 
ATOM     92  F   UNL     1      -1.579 -22.578 -17.805  1.00  0.00    -0.200 F 
ATOM     93  C   UNL     1      -3.755 -23.316 -17.265  1.00  0.00     0.200 A 
ATOM     94  F   UNL     1      -5.935 -24.018 -16.687  1.00  0.00    -0.200 F 
ATOM     95  F   UNL     1      -3.780 -24.090 -18.358  1.00  0.00    -0.200 F 
ENDBRANCH  62  85
ENDBRANCH  36  37
ENDBRANCH  29  31
ENDBRANCH  28  29
ENDBRANCH  27  28
ENDBRANCH  26  27
ENDBRANCH  25  26
ENDBRANCH   1  25
TORSDOF 19
