REMARK SMILES CC(C)CC[C@@]1(CC(=O)OCCOCCOC(=O)c2ccc(-c3c4nc(c(-c5c(F)c(F)c(F)c(F)c5F)c5ccc([nH]5)c(-c5c(F)c(F)c(F)c(F)c5F)c5nc(c(-c6c(F)c(F)c(F)c(F)c6F)c6ccc3[nH]6)C=C5)C=C4)cc2)CCOC(C)(C)C1
REMARK SMILES IDX 12 1 11 2 10 3 8 4 9 5 7 6 6 7 82 8 88 9 83 10 85 11 84 12
REMARK SMILES IDX 86 13 87 14 5 15 4 16 2 17 1 18 3 19 13 20 14 21 15 22 16 23
REMARK SMILES IDX 17 24 18 25 19 26 20 27 81 28 21 29 80 30 22 31 23 32 24 33
REMARK SMILES IDX 74 34 25 35 79 36 73 37 75 38 26 39 78 40 72 41 71 42 27 44
REMARK SMILES IDX 59 45 39 46 58 47 40 48 43 49 57 50 76 51 41 52 42 53 56 55
REMARK SMILES IDX 77 56 44 57 28 58 29 59 37 60 30 61 31 62 35 63 38 64 32 65
REMARK SMILES IDX 33 66 36 67 34 68 60 69 61 70 69 71 62 72 63 73 67 74 70 75
REMARK SMILES IDX 64 76 65 77 68 78 66 79 45 80 46 81 54 82 47 83 48 84 52 85
REMARK SMILES IDX 55 86 49 87 50 88 53 89 51 90
REMARK H PARENT 75 43 43 54
REMARK Flexibility Score: inf
ROOT
ATOM      1  C   UNL     1      -5.177   3.353   2.724  1.00  0.00     0.202 C 
ENDROOT
BRANCH   1   2
ATOM      2  C   UNL     1      -4.286   3.003   3.920  1.00  0.00     0.261 C 
BRANCH   2   3
ATOM      3  O   UNL     1      -3.170   2.150   3.587  1.00  0.00    -0.463 OA
BRANCH   3   4
ATOM      4  C   UNL     1      -3.132   0.967   4.245  1.00  0.00     0.306 C 
ATOM      5  O   UNL     1      -4.002   0.583   5.024  1.00  0.00    -0.252 OA
BRANCH   4   6
ATOM      6  C   UNL     1      -1.893   0.116   4.014  1.00  0.00     0.130 C 
BRANCH   6   7
ATOM      7  C   UNL     1      -0.719   0.470   3.009  1.00  0.00    -0.014 C 
ATOM      8  C   UNL     1       0.467  -0.394   3.530  1.00  0.00     0.036 C 
ATOM      9  C   UNL     1      -0.329   1.966   3.146  1.00  0.00     0.042 C 
ATOM     10  C   UNL     1       1.807   0.033   2.989  1.00  0.00     0.161 C 
ATOM     11  C   UNL     1       1.169   2.375   3.012  1.00  0.00     0.063 C 
ATOM     12  O   UNL     1       2.096   1.357   3.394  1.00  0.00    -0.376 OA
ATOM     13  C   UNL     1       1.524   2.932   1.628  1.00  0.00     0.042 C 
ATOM     14  C   UNL     1       1.462   3.513   4.014  1.00  0.00     0.042 C 
BRANCH   7  15
ATOM     15  C   UNL     1      -1.163  -0.059   1.584  1.00  0.00     0.008 C 
BRANCH  15  16
ATOM     16  C   UNL     1      -0.859   0.658   0.255  1.00  0.00     0.003 C 
BRANCH  16  17
ATOM     17  C   UNL     1       0.487   0.396  -0.452  1.00  0.00    -0.017 C 
ATOM     18  C   UNL     1       0.665  -1.049  -0.918  1.00  0.00     0.007 C 
ATOM     19  C   UNL     1       0.648   1.333  -1.658  1.00  0.00     0.007 C 
ENDBRANCH  16  17
ENDBRANCH  15  16
ENDBRANCH   7  15
ENDBRANCH   6   7
ENDBRANCH   4   6
ENDBRANCH   3   4
ENDBRANCH   2   3
ENDBRANCH   1   2
BRANCH   1  20
ATOM     20  O   UNL     1      -5.791   2.256   2.054  1.00  0.00    -0.374 OA
BRANCH  20  21
ATOM     21  C   UNL     1      -4.948   1.420   1.260  1.00  0.00     0.202 C 
BRANCH  21  22
ATOM     22  C   UNL     1      -4.335   2.088   0.026  1.00  0.00     0.261 C 
BRANCH  22  23
ATOM     23  O   UNL     1      -3.370   3.094   0.394  1.00  0.00    -0.460 OA
BRANCH  23  24
ATOM     24  C   UNL     1      -3.353   4.162  -0.436  1.00  0.00     0.338 C 
ATOM     25  O   UNL     1      -3.920   4.274  -1.510  1.00  0.00    -0.246 OA
BRANCH  24  26
ATOM     26  C   UNL     1      -2.654   5.294   0.197  1.00  0.00     0.060 A 
ATOM     27  C   UNL     1      -3.425   6.372   0.645  1.00  0.00     0.016 A 
ATOM     28  C   UNL     1      -1.261   5.372   0.187  1.00  0.00     0.016 A 
ATOM     29  C   UNL     1      -2.801   7.560   1.031  1.00  0.00     0.010 A 
ATOM     30  C   UNL     1      -0.637   6.564   0.580  1.00  0.00     0.010 A 
ATOM     31  C   UNL     1      -1.405   7.681   0.959  1.00  0.00    -0.014 A 
BRANCH  31  32
ATOM     32  C   UNL     1      -0.779   9.018   1.137  1.00  0.00     0.031 A 
ATOM     33  C   UNL     1      -0.370   9.812  -0.075  1.00  0.00     0.074 A 
ATOM     34  C   UNL     1      -0.623   9.549   2.364  1.00  0.00     0.049 A 
ATOM     35  N   UNL     1       0.160  11.008  -0.147  1.00  0.00    -0.248 NA
ATOM     36  C   UNL     1      -0.587   9.174  -1.383  1.00  0.00     0.031 C 
ATOM     37  C   UNL     1      -0.997   8.899   3.617  1.00  0.00     0.029 A 
ATOM     38  N   UNL     1      -0.110  10.762   2.752  1.00  0.00    -0.354 N 
ATOM     39  C   UNL     1       0.339  11.264  -1.501  1.00  0.00     0.074 A 
ATOM     40  C   UNL     1      -0.106  10.087  -2.215  1.00  0.00     0.031 C 
ATOM     41  C   UNL     1      -0.702   9.722   4.639  1.00  0.00     0.029 A 
ATOM     42  C   UNL     1      -0.101  10.946   4.113  1.00  0.00     0.049 A 
ATOM     43  H   UNL     1       0.220  11.437   2.115  1.00  0.00     0.167 HD
ATOM     44  C   UNL     1       0.816  12.384  -2.097  1.00  0.00     0.037 A 
ATOM     45  C   UNL     1       0.348  11.981   4.850  1.00  0.00     0.037 A 
ATOM     46  C   UNL     1       1.250  13.563  -1.395  1.00  0.00     0.049 A 
ATOM     47  C   UNL     1       0.921  13.195   4.164  1.00  0.00     0.074 A 
ATOM     48  C   UNL     1       1.719  14.756  -1.919  1.00  0.00     0.029 A 
ATOM     49  N   UNL     1       1.273  13.697  -0.016  1.00  0.00    -0.354 N 
ATOM     50  N   UNL     1       1.046  13.440   2.883  1.00  0.00    -0.248 NA
ATOM     51  C   UNL     1       1.409  14.278   5.031  1.00  0.00     0.031 C 
ATOM     52  C   UNL     1       2.065  15.596  -0.856  1.00  0.00     0.029 A 
ATOM     53  C   UNL     1       1.771  14.943   0.330  1.00  0.00     0.049 A 
ATOM     54  H   UNL     1       0.979  13.008   0.623  1.00  0.00     0.167 HD
ATOM     55  C   UNL     1       1.602  14.710   2.790  1.00  0.00     0.074 A 
ATOM     56  C   UNL     1       1.778  15.191   4.143  1.00  0.00     0.031 C 
ATOM     57  C   UNL     1       1.936  15.414   1.680  1.00  0.00     0.037 A 
BRANCH  44  58
ATOM     58  C   UNL     1       0.906  12.386  -3.595  1.00  0.00     0.064 A 
ATOM     59  C   UNL     1      -0.238  12.495  -4.399  1.00  0.00     0.173 A 
ATOM     60  C   UNL     1       2.155  12.327  -4.232  1.00  0.00     0.173 A 
ATOM     61  F   UNL     1      -1.455  12.544  -3.837  1.00  0.00    -0.203 F 
ATOM     62  C   UNL     1      -0.137  12.524  -5.787  1.00  0.00     0.198 A 
ATOM     63  C   UNL     1       2.254  12.381  -5.619  1.00  0.00     0.198 A 
ATOM     64  F   UNL     1       3.280  12.229  -3.507  1.00  0.00    -0.203 F 
ATOM     65  F   UNL     1      -1.245  12.592  -6.537  1.00  0.00    -0.200 F 
ATOM     66  C   UNL     1       1.109  12.474  -6.396  1.00  0.00     0.200 A 
ATOM     67  F   UNL     1       3.459  12.344  -6.206  1.00  0.00    -0.200 F 
ATOM     68  F   UNL     1       1.205  12.509  -7.732  1.00  0.00    -0.200 F 
ENDBRANCH  44  58
BRANCH  45  69
ATOM     69  C   UNL     1       0.275  11.920   6.333  1.00  0.00     0.064 A 
ATOM     70  C   UNL     1      -0.607  12.741   7.048  1.00  0.00     0.173 A 
ATOM     71  C   UNL     1       1.101  11.053   7.063  1.00  0.00     0.173 A 
ATOM     72  F   UNL     1      -1.396  13.606   6.394  1.00  0.00    -0.203 F 
ATOM     73  C   UNL     1      -0.649  12.709   8.441  1.00  0.00     0.198 A 
ATOM     74  C   UNL     1       1.039  11.004   8.454  1.00  0.00     0.198 A 
ATOM     75  F   UNL     1       1.964  10.251   6.424  1.00  0.00    -0.203 F 
ATOM     76  F   UNL     1      -1.470  13.535   9.103  1.00  0.00    -0.200 F 
ATOM     77  C   UNL     1       0.170  11.836   9.142  1.00  0.00     0.200 A 
ATOM     78  F   UNL     1       1.826  10.153   9.127  1.00  0.00    -0.200 F 
ATOM     79  F   UNL     1       0.128  11.805  10.481  1.00  0.00    -0.200 F 
ENDBRANCH  45  69
BRANCH  57  80
ATOM     80  C   UNL     1       2.502  16.789   1.878  1.00  0.00     0.064 A 
ATOM     81  C   UNL     1       3.810  16.985   2.346  1.00  0.00     0.173 A 
ATOM     82  C   UNL     1       1.743  17.924   1.555  1.00  0.00     0.173 A 
ATOM     83  F   UNL     1       4.570  15.932   2.683  1.00  0.00    -0.203 F 
ATOM     84  C   UNL     1       4.329  18.267   2.503  1.00  0.00     0.198 A 
ATOM     85  C   UNL     1       2.275  19.204   1.689  1.00  0.00     0.198 A 
ATOM     86  F   UNL     1       0.489  17.791   1.097  1.00  0.00    -0.203 F 
ATOM     87  F   UNL     1       5.567  18.431   2.990  1.00  0.00    -0.200 F 
ATOM     88  C   UNL     1       3.565  19.375   2.168  1.00  0.00     0.200 A 
ATOM     89  F   UNL     1       1.539  20.273   1.354  1.00  0.00    -0.200 F 
ATOM     90  F   UNL     1       4.069  20.608   2.314  1.00  0.00    -0.200 F 
ENDBRANCH  57  80
ENDBRANCH  31  32
ENDBRANCH  24  26
ENDBRANCH  23  24
ENDBRANCH  22  23
ENDBRANCH  21  22
ENDBRANCH  20  21
ENDBRANCH   1  20
TORSDOF 18
