REMARK SMILES [NH3+]C[C@H]1CC[C@@H](C(=O)N[C@@H]2C=C[C@@H](C(=O)OCCOCCOC(=O)c3ccc(-c4c5nc(c(-c6c(F)c(F)c(F)c(F)c6F)c6ccc([nH]6)c(-c6c(F)c(F)c(F)c(F)c6F)c6nc(c(-c7c(F)c(F)c(F)c(F)c7F)c7ccc4[nH]7)C=C6)C=C5)cc3)C2)CC1
REMARK SMILES IDX 18 1 17 2 16 3 14 4 15 5 13 6 10 7 11 8 88 9 12 10 9 11 7 12
REMARK SMILES IDX 8 13 6 15 3 16 4 17 90 18 5 19 89 20 2 21 1 22 19 26 20 27
REMARK SMILES IDX 21 28 22 29 23 30 24 31 25 32 26 33 87 34 27 35 86 36 28 37
REMARK SMILES IDX 29 38 30 39 80 40 31 41 85 42 79 43 81 44 32 45 84 46 78 47
REMARK SMILES IDX 77 48 33 50 65 51 45 52 64 53 46 54 49 55 63 56 82 57 47 58
REMARK SMILES IDX 48 59 62 61 83 62 50 63 34 64 35 65 43 66 36 67 37 68 41 69
REMARK SMILES IDX 44 70 38 71 39 72 42 73 40 74 66 75 67 76 75 77 68 78 69 79
REMARK SMILES IDX 73 80 76 81 70 82 71 83 74 84 72 85 51 86 52 87 60 88 53 89
REMARK SMILES IDX 54 90 58 91 61 92 55 93 56 94 59 95 57 96
REMARK H PARENT 9 14 1 23 1 24 1 25 81 49 49 60
REMARK Flexibility Score: inf
ROOT
ATOM      1  C   UNL     1       0.361  -4.053   5.810  1.00  0.00     0.202 C 
ENDROOT
BRANCH   1   2
ATOM      2  C   UNL     1       1.483  -3.119   5.346  1.00  0.00     0.261 C 
BRANCH   2   3
ATOM      3  O   UNL     1       1.052  -2.320   4.226  1.00  0.00    -0.463 OA
BRANCH   3   4
ATOM      4  C   UNL     1       1.943  -2.213   3.206  1.00  0.00     0.312 C 
ATOM      5  O   UNL     1       3.104  -2.606   3.256  1.00  0.00    -0.252 OA
BRANCH   4   6
ATOM      6  C   UNL     1       1.371  -1.532   1.964  1.00  0.00     0.124 C 
ATOM      7  C   UNL     1      -0.432   0.151   1.901  1.00  0.00     0.106 C 
ATOM      8  C   UNL     1       0.915   0.773   1.803  1.00  0.00    -0.006 C 
ATOM      9  C   UNL     1      -0.152  -1.354   1.849  1.00  0.00     0.048 C 
ATOM     10  C   UNL     1       1.895  -0.134   1.854  1.00  0.00    -0.014 C 
BRANCH   7  11
ATOM     11  N   UNL     1      -1.254   0.614   0.817  1.00  0.00    -0.350 N 
ATOM     12  C   UNL     1      -2.460   1.224   0.762  1.00  0.00     0.223 C 
ATOM     13  O   UNL     1      -2.879   1.469  -0.377  1.00  0.00    -0.275 OA
ATOM     14  H   UNL     1      -0.857   0.454  -0.070  1.00  0.00     0.164 HD
BRANCH  12  15
ATOM     15  C   UNL     1      -3.322   1.628   1.970  1.00  0.00     0.078 C 
ATOM     16  C   UNL     1      -2.470   1.097   4.821  1.00  0.00     0.044 C 
ATOM     17  C   UNL     1      -1.941   2.315   4.038  1.00  0.00     0.010 C 
ATOM     18  C   UNL     1      -3.169   0.012   3.973  1.00  0.00     0.010 C 
ATOM     19  C   UNL     1      -2.783   2.750   2.849  1.00  0.00     0.014 C 
ATOM     20  C   UNL     1      -3.959   0.500   2.771  1.00  0.00     0.014 C 
BRANCH  16  21
ATOM     21  C   UNL     1      -1.359   0.405   5.657  1.00  0.00     0.262 C 
BRANCH  21  22
ATOM     22  N   UNL     1      -0.491   1.307   6.399  1.00  0.00    -0.357 N 
ATOM     23  H   UNL     1       0.203   0.765   6.913  1.00  0.00     0.344 HD
ATOM     24  H   UNL     1      -1.050   1.855   7.054  1.00  0.00     0.344 HD
ATOM     25  H   UNL     1      -0.018   1.935   5.749  1.00  0.00     0.344 HD
ENDBRANCH  21  22
ENDBRANCH  16  21
ENDBRANCH  12  15
ENDBRANCH   7  11
ENDBRANCH   4   6
ENDBRANCH   3   4
ENDBRANCH   2   3
ENDBRANCH   1   2
BRANCH   1  26
ATOM     26  O   UNL     1      -0.024  -5.070   4.880  1.00  0.00    -0.374 OA
BRANCH  26  27
ATOM     27  C   UNL     1      -0.834  -4.662   3.781  1.00  0.00     0.202 C 
BRANCH  27  28
ATOM     28  C   UNL     1      -2.337  -4.501   4.052  1.00  0.00     0.261 C 
BRANCH  28  29
ATOM     29  O   UNL     1      -2.626  -3.692   5.205  1.00  0.00    -0.460 OA
BRANCH  29  30
ATOM     30  C   UNL     1      -2.965  -4.408   6.303  1.00  0.00     0.338 C 
ATOM     31  O   UNL     1      -3.139  -5.621   6.367  1.00  0.00    -0.246 OA
BRANCH  30  32
ATOM     32  C   UNL     1      -2.982  -3.563   7.509  1.00  0.00     0.060 A 
ATOM     33  C   UNL     1      -2.332  -4.062   8.644  1.00  0.00     0.016 A 
ATOM     34  C   UNL     1      -3.696  -2.363   7.576  1.00  0.00     0.016 A 
ATOM     35  C   UNL     1      -2.451  -3.403   9.864  1.00  0.00     0.010 A 
ATOM     36  C   UNL     1      -3.808  -1.696   8.803  1.00  0.00     0.010 A 
ATOM     37  C   UNL     1      -3.226  -2.239   9.963  1.00  0.00    -0.014 A 
BRANCH  37  38
ATOM     38  C   UNL     1      -3.534  -1.699  11.312  1.00  0.00     0.031 A 
ATOM     39  C   UNL     1      -4.865  -2.008  11.943  1.00  0.00     0.074 A 
ATOM     40  C   UNL     1      -2.607  -1.013  12.005  1.00  0.00     0.049 A 
ATOM     41  N   UNL     1      -5.310  -1.707  13.138  1.00  0.00    -0.248 NA
ATOM     42  C   UNL     1      -5.825  -2.758  11.117  1.00  0.00     0.031 C 
ATOM     43  C   UNL     1      -1.274  -0.669  11.517  1.00  0.00     0.029 A 
ATOM     44  N   UNL     1      -2.647  -0.494  13.275  1.00  0.00    -0.354 N 
ATOM     45  C   UNL     1      -6.594  -2.233  13.207  1.00  0.00     0.074 A 
ATOM     46  C   UNL     1      -6.875  -2.835  11.922  1.00  0.00     0.031 C 
ATOM     47  C   UNL     1      -0.616  -0.004  12.481  1.00  0.00     0.029 A 
ATOM     48  C   UNL     1      -1.488   0.142  13.645  1.00  0.00     0.049 A 
ATOM     49  H   UNL     1      -3.432  -0.571  13.865  1.00  0.00     0.167 HD
ATOM     50  C   UNL     1      -7.456  -2.230  14.253  1.00  0.00     0.037 A 
ATOM     51  C   UNL     1      -1.169   0.771  14.793  1.00  0.00     0.037 A 
ATOM     52  C   UNL     1      -7.179  -1.637  15.535  1.00  0.00     0.049 A 
ATOM     53  C   UNL     1      -2.163   0.799  15.926  1.00  0.00     0.074 A 
ATOM     54  C   UNL     1      -7.982  -1.601  16.662  1.00  0.00     0.029 A 
ATOM     55  N   UNL     1      -6.006  -0.972  15.860  1.00  0.00    -0.354 N 
ATOM     56  N   UNL     1      -3.359   0.267  15.994  1.00  0.00    -0.248 NA
ATOM     57  C   UNL     1      -1.753   1.507  17.147  1.00  0.00     0.031 C 
ATOM     58  C   UNL     1      -7.315  -0.874  17.654  1.00  0.00     0.029 A 
ATOM     59  C   UNL     1      -6.074  -0.501  17.162  1.00  0.00     0.049 A 
ATOM     60  H   UNL     1      -5.239  -0.852  15.255  1.00  0.00     0.167 HD
ATOM     61  C   UNL     1      -3.832   0.550  17.269  1.00  0.00     0.074 A 
ATOM     62  C   UNL     1      -2.787   1.287  17.947  1.00  0.00     0.031 C 
ATOM     63  C   UNL     1      -5.025   0.228  17.827  1.00  0.00     0.037 A 
BRANCH  50  64
ATOM     64  C   UNL     1      -8.794  -2.878  14.047  1.00  0.00     0.064 A 
ATOM     65  C   UNL     1      -8.932  -4.271  13.954  1.00  0.00     0.173 A 
ATOM     66  C   UNL     1      -9.958  -2.097  13.978  1.00  0.00     0.173 A 
ATOM     67  F   UNL     1      -7.848  -5.061  14.000  1.00  0.00    -0.203 F 
ATOM     68  C   UNL     1     -10.182  -4.857  13.774  1.00  0.00     0.198 A 
ATOM     69  C   UNL     1     -11.210  -2.688  13.826  1.00  0.00     0.198 A 
ATOM     70  F   UNL     1      -9.883  -0.761  14.066  1.00  0.00    -0.203 F 
ATOM     71  F   UNL     1     -10.285  -6.187  13.643  1.00  0.00    -0.200 F 
ATOM     72  C   UNL     1     -11.320  -4.066  13.718  1.00  0.00     0.200 A 
ATOM     73  F   UNL     1     -12.310  -1.924  13.783  1.00  0.00    -0.200 F 
ATOM     74  F   UNL     1     -12.524  -4.632  13.551  1.00  0.00    -0.200 F 
ENDBRANCH  50  64
BRANCH  51  75
ATOM     75  C   UNL     1       0.159   1.422  14.937  1.00  0.00     0.064 A 
ATOM     76  C   UNL     1       1.125   0.914  15.816  1.00  0.00     0.173 A 
ATOM     77  C   UNL     1       0.480   2.578  14.211  1.00  0.00     0.173 A 
ATOM     78  F   UNL     1       0.853  -0.174  16.552  1.00  0.00    -0.203 F 
ATOM     79  C   UNL     1       2.355   1.548  15.978  1.00  0.00     0.198 A 
ATOM     80  C   UNL     1       1.721   3.196  14.353  1.00  0.00     0.198 A 
ATOM     81  F   UNL     1      -0.411   3.106  13.359  1.00  0.00    -0.203 F 
ATOM     82  F   UNL     1       3.242   1.069  16.861  1.00  0.00    -0.200 F 
ATOM     83  C   UNL     1       2.654   2.685  15.242  1.00  0.00     0.200 A 
ATOM     84  F   UNL     1       2.009   4.288  13.633  1.00  0.00    -0.200 F 
ATOM     85  F   UNL     1       3.837   3.294  15.397  1.00  0.00    -0.200 F 
ENDBRANCH  51  75
BRANCH  63  86
ATOM     86  C   UNL     1      -5.252   0.643  19.253  1.00  0.00     0.064 A 
ATOM     87  C   UNL     1      -5.449   1.986  19.607  1.00  0.00     0.173 A 
ATOM     88  C   UNL     1      -5.295  -0.318  20.275  1.00  0.00     0.173 A 
ATOM     89  F   UNL     1      -5.404   2.945  18.670  1.00  0.00    -0.203 F 
ATOM     90  C   UNL     1      -5.647   2.355  20.936  1.00  0.00     0.198 A 
ATOM     91  C   UNL     1      -5.524   0.051  21.598  1.00  0.00     0.198 A 
ATOM     92  F   UNL     1      -5.121  -1.617  19.989  1.00  0.00    -0.203 F 
ATOM     93  F   UNL     1      -5.779   3.649  21.257  1.00  0.00    -0.200 F 
ATOM     94  C   UNL     1      -5.690   1.387  21.928  1.00  0.00     0.200 A 
ATOM     95  F   UNL     1      -5.577  -0.887  22.554  1.00  0.00    -0.200 F 
ATOM     96  F   UNL     1      -5.882   1.744  23.206  1.00  0.00    -0.200 F 
ENDBRANCH  63  86
ENDBRANCH  37  38
ENDBRANCH  30  32
ENDBRANCH  29  30
ENDBRANCH  28  29
ENDBRANCH  27  28
ENDBRANCH  26  27
ENDBRANCH   1  26
TORSDOF 18
