REMARK SMILES Cc1cc(C)c2c(c1)C=C(C(=O)OCCOCCOC(=O)c1ccc(-c3c4nc(c(-c5c(F)c(F)c(F)c(F)c5F)c5ccc([nH]5)c(-c5c(F)c(F)c(F)c(F)c5F)c5nc(c(-c6c(F)c(F)c(F)c(F)c6F)c6ccc3[nH]6)C=C5)C=C4)cc1)[C@@H](C(F)(F)F)O2
REMARK SMILES IDX 17 1 16 2 15 3 14 4 13 5 11 6 12 7 10 8 1 9 2 10 3 11 8 12
REMARK SMILES IDX 4 13 7 14 5 15 6 16 9 17 90 18 85 19 86 20 87 21 88 22 89 23
REMARK SMILES IDX 18 24 19 25 20 26 21 27 22 28 23 29 84 30 24 31 83 32 25 33
REMARK SMILES IDX 26 34 27 35 77 36 28 37 82 38 76 39 78 40 29 41 81 42 75 43
REMARK SMILES IDX 74 44 30 46 62 47 42 48 61 49 43 50 46 51 60 52 79 53 44 54
REMARK SMILES IDX 45 55 59 57 80 58 47 59 31 60 32 61 40 62 33 63 34 64 38 65
REMARK SMILES IDX 41 66 35 67 36 68 39 69 37 70 63 71 64 72 72 73 65 74 66 75
REMARK SMILES IDX 70 76 73 77 67 78 68 79 71 80 69 81 48 82 49 83 57 84 50 85
REMARK SMILES IDX 51 86 55 87 58 88 52 89 53 90 56 91 54 92
REMARK H PARENT 78 45 46 56
REMARK Flexibility Score: inf
ROOT
ATOM      1  C   UNL     1      -5.601  -3.615  -3.143  1.00  0.00     0.202 C 
ENDROOT
BRANCH   1   2
ATOM      2  O   UNL     1      -6.072  -3.601  -4.493  1.00  0.00    -0.374 OA
BRANCH   2   3
ATOM      3  C   UNL     1      -5.882  -4.779  -5.273  1.00  0.00     0.202 C 
BRANCH   3   4
ATOM      4  C   UNL     1      -4.483  -4.989  -5.858  1.00  0.00     0.261 C 
BRANCH   4   5
ATOM      5  O   UNL     1      -3.486  -5.045  -4.825  1.00  0.00    -0.460 OA
BRANCH   5   6
ATOM      6  C   UNL     1      -2.589  -4.032  -4.856  1.00  0.00     0.338 C 
ATOM      7  O   UNL     1      -2.470  -3.188  -5.730  1.00  0.00    -0.246 OA
BRANCH   6   8
ATOM      8  C   UNL     1      -1.816  -4.005  -3.601  1.00  0.00     0.087 C 
ATOM      9  C   UNL     1       0.904   0.053   0.140  1.00  0.00     0.044 C 
ATOM     10  C   UNL     1       0.519  -1.300  -0.381  1.00  0.00    -0.050 A 
ATOM     11  C   UNL     1       1.078  -2.457   0.175  1.00  0.00     0.010 A 
ATOM     12  C   UNL     1      -0.400  -1.426  -1.426  1.00  0.00     0.015 A 
ATOM     13  C   UNL     1       0.731  -3.732  -0.304  1.00  0.00    -0.008 A 
ATOM     14  C   UNL     1      -0.740  -2.688  -1.925  1.00  0.00     0.018 A 
ATOM     15  C   UNL     1       1.373  -4.954   0.289  1.00  0.00     0.048 C 
ATOM     16  C   UNL     1      -0.194  -3.840  -1.354  1.00  0.00     0.130 A 
ATOM     17  C   UNL     1      -1.605  -2.790  -3.084  1.00  0.00     0.027 C 
ATOM     18  O   UNL     1      -0.526  -5.102  -1.767  1.00  0.00    -0.475 OA
ATOM     19  C   UNL     1      -1.289  -5.274  -2.994  1.00  0.00     0.316 C 
BRANCH  19  20
ATOM     20  C   UNL     1      -0.440  -6.094  -3.977  1.00  0.00     0.430 C 
ATOM     21  F   UNL     1       0.051  -7.211  -3.387  1.00  0.00    -0.167 F 
ATOM     22  F   UNL     1      -1.167  -6.511  -5.040  1.00  0.00    -0.167 F 
ATOM     23  F   UNL     1       0.611  -5.391  -4.455  1.00  0.00    -0.167 F 
ENDBRANCH  19  20
ENDBRANCH   6   8
ENDBRANCH   5   6
ENDBRANCH   4   5
ENDBRANCH   3   4
ENDBRANCH   2   3
ENDBRANCH   1   2
BRANCH   1  24
ATOM     24  C   UNL     1      -6.420  -4.431  -2.137  1.00  0.00     0.261 C 
BRANCH  24  25
ATOM     25  O   UNL     1      -6.323  -5.846  -2.389  1.00  0.00    -0.460 OA
BRANCH  25  26
ATOM     26  C   UNL     1      -7.491  -6.442  -2.724  1.00  0.00     0.338 C 
ATOM     27  O   UNL     1      -8.604  -5.939  -2.749  1.00  0.00    -0.246 OA
BRANCH  26  28
ATOM     28  C   UNL     1      -7.237  -7.795  -3.248  1.00  0.00     0.060 A 
ATOM     29  C   UNL     1      -7.694  -8.085  -4.540  1.00  0.00     0.016 A 
ATOM     30  C   UNL     1      -6.665  -8.790  -2.453  1.00  0.00     0.016 A 
ATOM     31  C   UNL     1      -7.635  -9.389  -5.023  1.00  0.00     0.010 A 
ATOM     32  C   UNL     1      -6.622 -10.103  -2.933  1.00  0.00     0.010 A 
ATOM     33  C   UNL     1      -7.146 -10.413  -4.202  1.00  0.00    -0.014 A 
BRANCH  33  34
ATOM     34  C   UNL     1      -7.364 -11.825  -4.596  1.00  0.00     0.031 A 
ATOM     35  C   UNL     1      -8.571 -12.543  -4.061  1.00  0.00     0.074 A 
ATOM     36  C   UNL     1      -6.535 -12.441  -5.455  1.00  0.00     0.049 A 
ATOM     37  N   UNL     1      -8.948 -13.783  -4.238  1.00  0.00    -0.248 NA
ATOM     38  C   UNL     1      -9.481 -11.753  -3.214  1.00  0.00     0.031 C 
ATOM     39  C   UNL     1      -5.372 -11.828  -6.093  1.00  0.00     0.029 A 
ATOM     40  N   UNL     1      -6.550 -13.724  -5.940  1.00  0.00    -0.354 N 
ATOM     41  C   UNL     1     -10.136 -13.920  -3.532  1.00  0.00     0.074 A 
ATOM     42  C   UNL     1     -10.404 -12.648  -2.897  1.00  0.00     0.031 C 
ATOM     43  C   UNL     1      -4.781 -12.738  -6.886  1.00  0.00     0.029 A 
ATOM     44  C   UNL     1      -5.505 -14.005  -6.784  1.00  0.00     0.049 A 
ATOM     45  H   UNL     1      -7.245 -14.381  -5.706  1.00  0.00     0.167 HD
ATOM     46  C   UNL     1     -10.937 -15.007  -3.432  1.00  0.00     0.037 A 
ATOM     47  C   UNL     1      -5.164 -15.160  -7.387  1.00  0.00     0.037 A 
ATOM     48  C   UNL     1     -10.666 -16.273  -4.059  1.00  0.00     0.049 A 
ATOM     49  C   UNL     1      -6.014 -16.386  -7.174  1.00  0.00     0.074 A 
ATOM     50  C   UNL     1     -11.413 -17.436  -4.010  1.00  0.00     0.029 A 
ATOM     51  N   UNL     1      -9.557 -16.540  -4.847  1.00  0.00    -0.354 N 
ATOM     52  N   UNL     1      -7.129 -16.512  -6.496  1.00  0.00    -0.248 NA
ATOM     53  C   UNL     1      -5.553 -17.631  -7.804  1.00  0.00     0.031 C 
ATOM     54  C   UNL     1     -10.733 -18.421  -4.734  1.00  0.00     0.029 A 
ATOM     55  C   UNL     1      -9.586 -17.858  -5.271  1.00  0.00     0.049 A 
ATOM     56  H   UNL     1      -8.853 -15.889  -5.072  1.00  0.00     0.167 HD
ATOM     57  C   UNL     1      -7.511 -17.841  -6.629  1.00  0.00     0.074 A 
ATOM     58  C   UNL     1      -6.517 -18.478  -7.468  1.00  0.00     0.031 C 
ATOM     59  C   UNL     1      -8.586 -18.477  -6.102  1.00  0.00     0.037 A 
BRANCH  46  60
ATOM     60  C   UNL     1     -12.176 -14.880  -2.599  1.00  0.00     0.064 A 
ATOM     61  C   UNL     1     -13.289 -14.154  -3.047  1.00  0.00     0.173 A 
ATOM     62  C   UNL     1     -12.270 -15.529  -1.359  1.00  0.00     0.173 A 
ATOM     63  F   UNL     1     -13.242 -13.502  -4.219  1.00  0.00    -0.203 F 
ATOM     64  C   UNL     1     -14.446 -14.071  -2.278  1.00  0.00     0.198 A 
ATOM     65  C   UNL     1     -13.437 -15.464  -0.603  1.00  0.00     0.198 A 
ATOM     66  F   UNL     1     -11.233 -16.236  -0.886  1.00  0.00    -0.203 F 
ATOM     67  F   UNL     1     -15.486 -13.344  -2.710  1.00  0.00    -0.200 F 
ATOM     68  C   UNL     1     -14.522 -14.732  -1.061  1.00  0.00     0.200 A 
ATOM     69  F   UNL     1     -13.512 -16.111   0.568  1.00  0.00    -0.200 F 
ATOM     70  F   UNL     1     -15.641 -14.660  -0.327  1.00  0.00    -0.200 F 
ENDBRANCH  46  60
BRANCH  47  71
ATOM     71  C   UNL     1      -3.952 -15.217  -8.243  1.00  0.00     0.064 A 
ATOM     72  C   UNL     1      -4.057 -15.376  -9.632  1.00  0.00     0.173 A 
ATOM     73  C   UNL     1      -2.666 -15.117  -7.693  1.00  0.00     0.173 A 
ATOM     74  F   UNL     1      -5.264 -15.506 -10.201  1.00  0.00    -0.203 F 
ATOM     75  C   UNL     1      -2.921 -15.439 -10.436  1.00  0.00     0.198 A 
ATOM     76  C   UNL     1      -1.531 -15.155  -8.501  1.00  0.00     0.198 A 
ATOM     77  F   UNL     1      -2.512 -14.971  -6.368  1.00  0.00    -0.203 F 
ATOM     78  F   UNL     1      -3.048 -15.628 -11.757  1.00  0.00    -0.200 F 
ATOM     79  C   UNL     1      -1.660 -15.321  -9.871  1.00  0.00     0.200 A 
ATOM     80  F   UNL     1      -0.315 -15.033  -7.951  1.00  0.00    -0.200 F 
ATOM     81  F   UNL     1      -0.568 -15.375 -10.646  1.00  0.00    -0.200 F 
ENDBRANCH  47  71
BRANCH  59  82
ATOM     82  C   UNL     1      -8.753 -19.934  -6.418  1.00  0.00     0.064 A 
ATOM     83  C   UNL     1      -7.936 -20.908  -5.827  1.00  0.00     0.173 A 
ATOM     84  C   UNL     1      -9.783 -20.366  -7.268  1.00  0.00     0.173 A 
ATOM     85  F   UNL     1      -6.930 -20.544  -5.017  1.00  0.00    -0.203 F 
ATOM     86  C   UNL     1      -8.133 -22.262  -6.087  1.00  0.00     0.198 A 
ATOM     87  C   UNL     1      -9.995 -21.722  -7.504  1.00  0.00     0.198 A 
ATOM     88  F   UNL     1     -10.597 -19.474  -7.851  1.00  0.00    -0.203 F 
ATOM     89  F   UNL     1      -7.319 -23.173  -5.538  1.00  0.00    -0.200 F 
ATOM     90  C   UNL     1      -9.167 -22.668  -6.918  1.00  0.00     0.200 A 
ATOM     91  F   UNL     1     -11.003 -22.113  -8.296  1.00  0.00    -0.200 F 
ATOM     92  F   UNL     1      -9.364 -23.972  -7.156  1.00  0.00    -0.200 F 
ENDBRANCH  59  82
ENDBRANCH  33  34
ENDBRANCH  26  28
ENDBRANCH  25  26
ENDBRANCH  24  25
ENDBRANCH   1  24
TORSDOF 15
