REMARK SMILES C[C@@H]1CCC[C@H]1NC(=O)c1csc(/C=C/C(=O)OCCOCCOC(=O)c2ccc(-c3c4nc(c(-c5c(F)c(F)c(F)c(F)c5F)c5ccc([nH]5)c(-c5c(F)c(F)c(F)c(F)c5F)c5nc(c(-c6c(F)c(F)c(F)c(F)c6F)c6ccc3[nH]6)C=C5)C=C4)cc2)c1
REMARK SMILES IDX 20 1 19 2 18 3 16 4 17 5 15 6 14 7 13 8 10 9 11 10 90 11
REMARK SMILES IDX 12 12 8 13 7 14 9 16 6 17 1 18 2 19 3 20 4 21 5 22 21 23
REMARK SMILES IDX 22 24 23 25 24 26 25 27 26 28 27 29 28 30 89 31 29 32 88 33
REMARK SMILES IDX 30 34 31 35 32 36 82 37 33 38 87 39 81 40 83 41 34 42 86 43
REMARK SMILES IDX 80 44 79 45 35 47 67 48 47 49 66 50 48 51 51 52 65 53 84 54
REMARK SMILES IDX 49 55 50 56 64 58 85 59 52 60 36 61 37 62 45 63 38 64 39 65
REMARK SMILES IDX 43 66 46 67 40 68 41 69 44 70 42 71 68 72 69 73 77 74 70 75
REMARK SMILES IDX 71 76 75 77 78 78 72 79 73 80 76 81 74 82 53 83 54 84 62 85
REMARK SMILES IDX 55 86 56 87 60 88 63 89 57 90 58 91 61 92 59 93
REMARK H PARENT 7 15 83 46 51 57
REMARK Flexibility Score: inf
ROOT
ATOM      1  C   UNL     1       6.078  10.040   2.901  1.00  0.00     0.202 C 
ENDROOT
BRANCH   1   2
ATOM      2  C   UNL     1       4.645  10.367   3.325  1.00  0.00     0.261 C 
BRANCH   2   3
ATOM      3  O   UNL     1       3.771   9.252   3.072  1.00  0.00    -0.460 OA
BRANCH   3   4
ATOM      4  C   UNL     1       2.808   9.474   2.147  1.00  0.00     0.330 C 
ATOM      5  O   UNL     1       2.554  10.539   1.605  1.00  0.00    -0.247 OA
BRANCH   4   6
ATOM      6  C   UNL     1       2.087   8.242   1.775  1.00  0.00     0.095 C 
ATOM      7  C   UNL     1       2.214   7.035   2.350  1.00  0.00     0.026 C 
BRANCH   7   8
ATOM      8  C   UNL     1       1.450   5.901   1.924  1.00  0.00     0.028 A 
ATOM      9  C   UNL     1       0.301   3.817   1.957  1.00  0.00     0.051 A 
ATOM     10  C   UNL     1      -0.024   4.310   0.711  1.00  0.00     0.079 A 
ATOM     11  C   UNL     1       1.145   4.760   2.651  1.00  0.00     0.033 A 
ATOM     12  S   UNL     1       0.771   5.770   0.343  1.00  0.00    -0.144 S 
BRANCH   9  13
ATOM     13  C   UNL     1      -0.227   2.594   2.556  1.00  0.00     0.252 C 
ATOM     14  N   UNL     1      -0.459   1.476   1.795  1.00  0.00    -0.349 N 
ATOM     15  H   UNL     1      -1.015   0.792   2.233  1.00  0.00     0.164 HD
ATOM     16  O   UNL     1      -0.470   2.533   3.760  1.00  0.00    -0.269 OA
BRANCH  14  17
ATOM     17  C   UNL     1      -0.021   1.130   0.445  1.00  0.00     0.085 C 
ATOM     18  C   UNL     1       1.801  -0.167  -0.752  1.00  0.00     0.010 C 
ATOM     19  C   UNL     1       0.883  -0.113   0.470  1.00  0.00     0.008 C 
ATOM     20  C   UNL     1      -0.113  -1.272   0.484  1.00  0.00     0.005 C 
ATOM     21  C   UNL     1      -1.282  -0.810  -0.379  1.00  0.00     0.002 C 
ATOM     22  C   UNL     1      -1.217   0.719  -0.420  1.00  0.00     0.025 C 
ENDBRANCH  14  17
ENDBRANCH   9  13
ENDBRANCH   7   8
ENDBRANCH   4   6
ENDBRANCH   3   4
ENDBRANCH   2   3
ENDBRANCH   1   2
BRANCH   1  23
ATOM     23  O   UNL     1       6.262   9.861   1.497  1.00  0.00    -0.374 OA
BRANCH  23  24
ATOM     24  C   UNL     1       5.978   8.560   0.978  1.00  0.00     0.202 C 
BRANCH  24  25
ATOM     25  C   UNL     1       7.118   7.545   1.126  1.00  0.00     0.261 C 
BRANCH  25  26
ATOM     26  O   UNL     1       7.312   7.175   2.506  1.00  0.00    -0.460 OA
BRANCH  26  27
ATOM     27  C   UNL     1       8.465   7.613   3.059  1.00  0.00     0.338 C 
ATOM     28  O   UNL     1       9.391   8.181   2.495  1.00  0.00    -0.246 OA
BRANCH  27  29
ATOM     29  C   UNL     1       8.412   7.466   4.526  1.00  0.00     0.060 A 
ATOM     30  C   UNL     1       8.786   8.575   5.297  1.00  0.00     0.016 A 
ATOM     31  C   UNL     1       8.070   6.259   5.143  1.00  0.00     0.016 A 
ATOM     32  C   UNL     1       8.875   8.464   6.683  1.00  0.00     0.010 A 
ATOM     33  C   UNL     1       8.166   6.149   6.535  1.00  0.00     0.010 A 
ATOM     34  C   UNL     1       8.605   7.239   7.307  1.00  0.00    -0.014 A 
BRANCH  34  35
ATOM     35  C   UNL     1       8.928   7.073   8.746  1.00  0.00     0.031 A 
ATOM     36  C   UNL     1      10.232   6.431   9.132  1.00  0.00     0.074 A 
ATOM     37  C   UNL     1       8.096   7.533   9.697  1.00  0.00     0.049 A 
ATOM     38  N   UNL     1      10.728   6.204  10.322  1.00  0.00    -0.248 NA
ATOM     39  C   UNL     1      11.095   5.986   8.026  1.00  0.00     0.031 C 
ATOM     40  C   UNL     1       6.821   8.201   9.451  1.00  0.00     0.029 A 
ATOM     41  N   UNL     1       8.206   7.506  11.065  1.00  0.00    -0.354 N 
ATOM     42  C   UNL     1      11.958   5.595  10.109  1.00  0.00     0.074 A 
ATOM     43  C   UNL     1      12.119   5.455   8.677  1.00  0.00     0.031 C 
ATOM     44  C   UNL     1       6.262   8.520  10.631  1.00  0.00     0.029 A 
ATOM     45  C   UNL     1       7.130   8.059  11.713  1.00  0.00     0.049 A 
ATOM     46  H   UNL     1       8.983   7.128  11.536  1.00  0.00     0.167 HD
ATOM     47  C   UNL     1      12.876   5.200  11.023  1.00  0.00     0.037 A 
ATOM     48  C   UNL     1       6.873   8.168  13.031  1.00  0.00     0.037 A 
ATOM     49  C   UNL     1      12.718   5.338  12.446  1.00  0.00     0.049 A 
ATOM     50  C   UNL     1       7.883   7.663  14.029  1.00  0.00     0.074 A 
ATOM     51  C   UNL     1      13.599   4.982  13.452  1.00  0.00     0.029 A 
ATOM     52  N   UNL     1      11.598   5.872  13.066  1.00  0.00    -0.354 N 
ATOM     53  N   UNL     1       9.056   7.118  13.817  1.00  0.00    -0.248 NA
ATOM     54  C   UNL     1       7.533   7.796  15.451  1.00  0.00     0.031 C 
ATOM     55  C   UNL     1      12.995   5.261  14.683  1.00  0.00     0.029 A 
ATOM     56  C   UNL     1      11.757   5.834  14.443  1.00  0.00     0.049 A 
ATOM     57  H   UNL     1      10.807   6.226  12.598  1.00  0.00     0.167 HD
ATOM     58  C   UNL     1       9.595   6.870  15.073  1.00  0.00     0.074 A 
ATOM     59  C   UNL     1       8.625   7.335  16.043  1.00  0.00     0.031 C 
ATOM     60  C   UNL     1      10.786   6.309  15.395  1.00  0.00     0.037 A 
BRANCH  47  61
ATOM     61  C   UNL     1      14.132   4.563  10.508  1.00  0.00     0.064 A 
ATOM     62  C   UNL     1      15.129   5.315   9.870  1.00  0.00     0.173 A 
ATOM     63  C   UNL     1      14.357   3.189  10.686  1.00  0.00     0.173 A 
ATOM     64  F   UNL     1      14.955   6.629   9.664  1.00  0.00    -0.203 F 
ATOM     65  C   UNL     1      16.296   4.712   9.409  1.00  0.00     0.198 A 
ATOM     66  C   UNL     1      15.536   2.594  10.246  1.00  0.00     0.198 A 
ATOM     67  F   UNL     1      13.436   2.426  11.293  1.00  0.00    -0.203 F 
ATOM     68  F   UNL     1      17.217   5.442   8.765  1.00  0.00    -0.200 F 
ATOM     69  C   UNL     1      16.501   3.354   9.603  1.00  0.00     0.200 A 
ATOM     70  F   UNL     1      15.737   1.284  10.444  1.00  0.00    -0.200 F 
ATOM     71  F   UNL     1      17.628   2.775   9.164  1.00  0.00    -0.200 F 
ENDBRANCH  47  61
BRANCH  48  72
ATOM     72  C   UNL     1       5.601   8.783  13.490  1.00  0.00     0.064 A 
ATOM     73  C   UNL     1       5.590  10.026  14.136  1.00  0.00     0.173 A 
ATOM     74  C   UNL     1       4.373   8.129  13.311  1.00  0.00     0.173 A 
ATOM     75  F   UNL     1       6.742  10.677  14.354  1.00  0.00    -0.203 F 
ATOM     76  C   UNL     1       4.401  10.585  14.602  1.00  0.00     0.198 A 
ATOM     77  C   UNL     1       3.182   8.700  13.754  1.00  0.00     0.198 A 
ATOM     78  F   UNL     1       4.331   6.935  12.702  1.00  0.00    -0.203 F 
ATOM     79  F   UNL     1       4.424  11.753  15.257  1.00  0.00    -0.200 F 
ATOM     80  C   UNL     1       3.198   9.923  14.406  1.00  0.00     0.200 A 
ATOM     81  F   UNL     1       2.021   8.061  13.555  1.00  0.00    -0.200 F 
ATOM     82  F   UNL     1       2.055  10.461  14.854  1.00  0.00    -0.200 F 
ENDBRANCH  48  72
BRANCH  60  83
ATOM     83  C   UNL     1      11.124   6.196  16.853  1.00  0.00     0.064 A 
ATOM     84  C   UNL     1      10.492   5.261  17.685  1.00  0.00     0.173 A 
ATOM     85  C   UNL     1      12.121   7.009  17.415  1.00  0.00     0.173 A 
ATOM     86  F   UNL     1       9.523   4.471  17.198  1.00  0.00    -0.203 F 
ATOM     87  C   UNL     1      10.828   5.161  19.033  1.00  0.00     0.198 A 
ATOM     88  C   UNL     1      12.473   6.887  18.756  1.00  0.00     0.198 A 
ATOM     89  F   UNL     1      12.761   7.914  16.660  1.00  0.00    -0.203 F 
ATOM     90  F   UNL     1      10.179   4.292  19.820  1.00  0.00    -0.200 F 
ATOM     91  C   UNL     1      11.822   5.969  19.565  1.00  0.00     0.200 A 
ATOM     92  F   UNL     1      13.442   7.660  19.266  1.00  0.00    -0.200 F 
ATOM     93  F   UNL     1      12.147   5.867  20.861  1.00  0.00    -0.200 F 
ENDBRANCH  60  83
ENDBRANCH  34  35
ENDBRANCH  27  29
ENDBRANCH  26  27
ENDBRANCH  25  26
ENDBRANCH  24  25
ENDBRANCH  23  24
ENDBRANCH   1  23
TORSDOF 17
