REMARK SMILES COc1ccc2c(c1)[C@H]([NH2+][C@H]1CCC[C@H](C(=O)OCCOCCOC(=O)c3ccc(-c4c5nc(c(-c6c(F)c(F)c(F)c(F)c6F)c6ccc([nH]6)c(-c6c(F)c(F)c(F)c(F)c6F)c6nc(c(-c7c(F)c(F)c(F)c(F)c7F)c7ccc4[nH]7)C=C6)C=C5)cc3)C1)CC2
REMARK SMILES IDX 20 1 19 2 18 3 16 4 17 5 15 6 11 7 12 8 90 9 13 10 14 11
REMARK SMILES IDX 10 12 9 15 3 16 4 17 8 18 5 19 7 20 6 21 92 22 91 23 2 24
REMARK SMILES IDX 1 25 21 26 22 27 23 28 24 29 25 30 26 31 27 32 28 33 89 34
REMARK SMILES IDX 29 35 88 36 30 37 31 38 32 39 82 40 33 41 87 42 81 43 83 44
REMARK SMILES IDX 34 45 86 46 80 47 79 48 35 50 67 51 47 52 66 53 48 54 51 55
REMARK SMILES IDX 65 56 84 57 49 58 50 59 64 61 85 62 52 63 36 64 37 65 45 66
REMARK SMILES IDX 38 67 39 68 43 69 46 70 40 71 41 72 44 73 42 74 68 75 69 76
REMARK SMILES IDX 77 77 70 78 71 79 75 80 78 81 72 82 73 83 76 84 74 85 53 86
REMARK SMILES IDX 54 87 62 88 55 89 56 90 60 91 63 92 57 93 58 94 61 95 59 96
REMARK H PARENT 10 13 10 14 83 49 51 60
REMARK Flexibility Score: inf
ROOT
ATOM      1  C   UNL     1      -7.406  -1.347   3.697  1.00  0.00     0.202 C 
ENDROOT
BRANCH   1   2
ATOM      2  C   UNL     1      -6.772  -0.273   4.614  1.00  0.00     0.261 C 
BRANCH   2   3
ATOM      3  O   UNL     1      -6.428   0.995   4.049  1.00  0.00    -0.463 OA
BRANCH   3   4
ATOM      4  C   UNL     1      -5.271   0.899   3.362  1.00  0.00     0.309 C 
ATOM      5  O   UNL     1      -4.749  -0.171   3.075  1.00  0.00    -0.252 OA
BRANCH   4   6
ATOM      6  C   UNL     1      -4.630   2.188   2.964  1.00  0.00     0.105 C 
ATOM      7  C   UNL     1      -2.537   3.481   3.368  1.00  0.00     0.183 C 
ATOM      8  C   UNL     1      -3.279   4.755   2.860  1.00  0.00     0.065 C 
ATOM      9  C   UNL     1      -3.626   2.630   4.023  1.00  0.00     0.080 C 
ATOM     10  C   UNL     1      -4.527   4.474   1.987  1.00  0.00     0.007 C 
ATOM     11  C   UNL     1      -5.466   3.385   2.548  1.00  0.00     0.016 C 
BRANCH   7  12
ATOM     12  N   UNL     1      -1.848   2.863   2.236  1.00  0.00    -0.338 N 
ATOM     13  H   UNL     1      -2.582   2.545   1.603  1.00  0.00     0.347 HD
ATOM     14  H   UNL     1      -1.215   3.611   1.954  1.00  0.00     0.347 HD
BRANCH  12  15
ATOM     15  C   UNL     1      -0.917   1.732   2.373  1.00  0.00     0.214 C 
ATOM     16  C   UNL     1      -2.417  -1.340   4.192  1.00  0.00     0.119 A 
ATOM     17  C   UNL     1      -2.539  -2.188   3.085  1.00  0.00     0.047 A 
ATOM     18  C   UNL     1      -1.810  -0.081   4.041  1.00  0.00     0.056 A 
ATOM     19  C   UNL     1      -2.032  -1.793   1.845  1.00  0.00     0.008 A 
ATOM     20  C   UNL     1      -1.447   0.378   2.778  1.00  0.00     0.016 A 
ATOM     21  C   UNL     1      -1.470  -0.527   1.719  1.00  0.00    -0.038 A 
ATOM     22  C   UNL     1      -0.711  -0.018   0.545  1.00  0.00     0.042 C 
ATOM     23  C   UNL     1      -0.442   1.446   0.908  1.00  0.00     0.075 C 
BRANCH  16  24
ATOM     24  O   UNL     1      -2.902  -1.596   5.450  1.00  0.00    -0.497 OA
ATOM     25  C   UNL     1      -3.815  -2.682   5.577  1.00  0.00     0.278 C 
ENDBRANCH  16  24
ENDBRANCH  12  15
ENDBRANCH   7  12
ENDBRANCH   4   6
ENDBRANCH   3   4
ENDBRANCH   2   3
ENDBRANCH   1   2
BRANCH   1  26
ATOM     26  O   UNL     1      -7.115  -1.463   2.314  1.00  0.00    -0.374 OA
BRANCH  26  27
ATOM     27  C   UNL     1      -7.339  -0.390   1.408  1.00  0.00     0.202 C 
BRANCH  27  28
ATOM     28  C   UNL     1      -8.699   0.307   1.366  1.00  0.00     0.261 C 
BRANCH  28  29
ATOM     29  O   UNL     1      -9.084   0.863   2.631  1.00  0.00    -0.460 OA
BRANCH  29  30
ATOM     30  C   UNL     1     -10.146   0.260   3.206  1.00  0.00     0.338 C 
ATOM     31  O   UNL     1     -10.827  -0.651   2.747  1.00  0.00    -0.246 OA
BRANCH  30  32
ATOM     32  C   UNL     1     -10.292   0.714   4.595  1.00  0.00     0.060 A 
ATOM     33  C   UNL     1     -10.406  -0.265   5.594  1.00  0.00     0.016 A 
ATOM     34  C   UNL     1     -10.412   2.069   4.902  1.00  0.00     0.016 A 
ATOM     35  C   UNL     1     -10.713   0.104   6.897  1.00  0.00     0.010 A 
ATOM     36  C   UNL     1     -10.745   2.438   6.206  1.00  0.00     0.010 A 
ATOM     37  C   UNL     1     -10.948   1.452   7.190  1.00  0.00    -0.014 A 
BRANCH  37  38
ATOM     38  C   UNL     1     -11.648   1.804   8.444  1.00  0.00     0.031 A 
ATOM     39  C   UNL     1     -13.138   1.998   8.385  1.00  0.00     0.074 A 
ATOM     40  C   UNL     1     -10.980   1.924   9.602  1.00  0.00     0.049 A 
ATOM     41  N   UNL     1     -13.962   2.399   9.317  1.00  0.00    -0.248 NA
ATOM     42  C   UNL     1     -13.787   1.704   7.095  1.00  0.00     0.031 C 
ATOM     43  C   UNL     1      -9.548   1.697   9.780  1.00  0.00     0.029 A 
ATOM     44  N   UNL     1     -11.425   2.285  10.848  1.00  0.00    -0.354 N 
ATOM     45  C   UNL     1     -15.217   2.421   8.723  1.00  0.00     0.074 A 
ATOM     46  C   UNL     1     -15.049   2.014   7.346  1.00  0.00     0.031 C 
ATOM     47  C   UNL     1      -9.225   1.949  11.061  1.00  0.00     0.029 A 
ATOM     48  C   UNL     1     -10.420   2.392  11.777  1.00  0.00     0.049 A 
ATOM     49  H   UNL     1     -12.373   2.451  11.056  1.00  0.00     0.167 HD
ATOM     50  C   UNL     1     -16.404   2.750   9.282  1.00  0.00     0.037 A 
ATOM     51  C   UNL     1     -10.466   2.833  13.049  1.00  0.00     0.037 A 
ATOM     52  C   UNL     1     -16.559   3.144  10.656  1.00  0.00     0.049 A 
ATOM     53  C   UNL     1     -11.793   3.265  13.625  1.00  0.00     0.074 A 
ATOM     54  C   UNL     1     -17.718   3.483  11.330  1.00  0.00     0.029 A 
ATOM     55  N   UNL     1     -15.517   3.255  11.564  1.00  0.00    -0.354 N 
ATOM     56  N   UNL     1     -12.979   3.269  13.066  1.00  0.00    -0.248 NA
ATOM     57  C   UNL     1     -11.786   3.753  15.012  1.00  0.00     0.031 C 
ATOM     58  C   UNL     1     -17.370   3.856  12.631  1.00  0.00     0.029 A 
ATOM     59  C   UNL     1     -16.004   3.683  12.787  1.00  0.00     0.049 A 
ATOM     60  H   UNL     1     -14.572   3.060  11.368  1.00  0.00     0.167 HD
ATOM     61  C   UNL     1     -13.862   3.715  14.042  1.00  0.00     0.074 A 
ATOM     62  C   UNL     1     -13.076   3.967  15.230  1.00  0.00     0.031 C 
ATOM     63  C   UNL     1     -15.204   3.897  13.965  1.00  0.00     0.037 A 
BRANCH  50  64
ATOM     64  C   UNL     1     -17.623   2.732   8.408  1.00  0.00     0.064 A 
ATOM     65  C   UNL     1     -18.192   1.533   7.955  1.00  0.00     0.173 A 
ATOM     66  C   UNL     1     -18.263   3.933   8.066  1.00  0.00     0.173 A 
ATOM     67  F   UNL     1     -17.609   0.358   8.239  1.00  0.00    -0.203 F 
ATOM     68  C   UNL     1     -19.351   1.538   7.182  1.00  0.00     0.198 A 
ATOM     69  C   UNL     1     -19.437   3.933   7.319  1.00  0.00     0.198 A 
ATOM     70  F   UNL     1     -17.759   5.108   8.473  1.00  0.00    -0.203 F 
ATOM     71  F   UNL     1     -19.858   0.383   6.730  1.00  0.00    -0.200 F 
ATOM     72  C   UNL     1     -19.978   2.737   6.874  1.00  0.00     0.200 A 
ATOM     73  F   UNL     1     -20.048   5.091   7.034  1.00  0.00    -0.200 F 
ATOM     74  F   UNL     1     -21.103   2.739   6.146  1.00  0.00    -0.200 F 
ENDBRANCH  50  64
BRANCH  51  75
ATOM     75  C   UNL     1      -9.222   2.922  13.859  1.00  0.00     0.064 A 
ATOM     76  C   UNL     1      -9.042   2.130  15.002  1.00  0.00     0.173 A 
ATOM     77  C   UNL     1      -8.208   3.837  13.537  1.00  0.00     0.173 A 
ATOM     78  F   UNL     1      -9.992   1.257  15.367  1.00  0.00    -0.203 F 
ATOM     79  C   UNL     1      -7.915   2.274  15.809  1.00  0.00     0.198 A 
ATOM     80  C   UNL     1      -7.065   3.955  14.324  1.00  0.00     0.198 A 
ATOM     81  F   UNL     1      -8.328   4.620  12.454  1.00  0.00    -0.203 F 
ATOM     82  F   UNL     1      -7.801   1.550  16.931  1.00  0.00    -0.200 F 
ATOM     83  C   UNL     1      -6.926   3.183  15.467  1.00  0.00     0.200 A 
ATOM     84  F   UNL     1      -6.106   4.827  13.983  1.00  0.00    -0.200 F 
ATOM     85  F   UNL     1      -5.845   3.326  16.247  1.00  0.00    -0.200 F 
ENDBRANCH  51  75
BRANCH  63  86
ATOM     86  C   UNL     1     -15.921   4.324  15.213  1.00  0.00     0.064 A 
ATOM     87  C   UNL     1     -15.795   5.619  15.735  1.00  0.00     0.173 A 
ATOM     88  C   UNL     1     -16.798   3.438  15.858  1.00  0.00     0.173 A 
ATOM     89  F   UNL     1     -14.961   6.500  15.163  1.00  0.00    -0.203 F 
ATOM     90  C   UNL     1     -16.505   6.004  16.870  1.00  0.00     0.198 A 
ATOM     91  C   UNL     1     -17.531   3.836  16.971  1.00  0.00     0.198 A 
ATOM     92  F   UNL     1     -16.962   2.190  15.392  1.00  0.00    -0.203 F 
ATOM     93  F   UNL     1     -16.336   7.232  17.378  1.00  0.00    -0.200 F 
ATOM     94  C   UNL     1     -17.379   5.116  17.480  1.00  0.00     0.200 A 
ATOM     95  F   UNL     1     -18.390   2.983  17.547  1.00  0.00    -0.200 F 
ATOM     96  F   UNL     1     -18.072   5.494  18.563  1.00  0.00    -0.200 F 
ENDBRANCH  63  86
ENDBRANCH  37  38
ENDBRANCH  30  32
ENDBRANCH  29  30
ENDBRANCH  28  29
ENDBRANCH  27  28
ENDBRANCH  26  27
ENDBRANCH   1  26
TORSDOF 17
