REMARK SMILES CC[C@@](C)(NC(=O)c1cccc2ccccc12)C(=O)OCCOCCOC(=O)c1ccc(-c2c3nc(c(-c4c(F)c(F)c(F)c(F)c4F)c4ccc([nH]4)c(-c4c(F)c(F)c(F)c(F)c4F)c4nc(c(-c5c(F)c(F)c(F)c(F)c5F)c5ccc2[nH]5)C=C4)C=C3)cc1
REMARK SMILES IDX 23 1 22 2 21 3 20 4 18 5 19 6 3 7 4 8 2 9 1 10 5 11 6 12
REMARK SMILES IDX 7 14 8 15 9 16 17 17 10 18 12 19 16 20 11 21 13 22 15 23
REMARK SMILES IDX 14 24 24 25 25 26 26 27 27 28 28 29 29 30 30 31 91 32 31 33
REMARK SMILES IDX 90 34 32 35 33 36 34 37 84 38 35 39 89 40 83 41 85 42 36 43
REMARK SMILES IDX 88 44 82 45 81 46 37 48 69 49 49 50 68 51 50 52 53 53 67 54
REMARK SMILES IDX 86 55 51 56 52 57 66 59 87 60 54 61 38 62 39 63 47 64 40 65
REMARK SMILES IDX 41 66 45 67 48 68 42 69 43 70 46 71 44 72 70 73 71 74 79 75
REMARK SMILES IDX 72 76 73 77 77 78 80 79 74 80 75 81 78 82 76 83 55 84 56 85
REMARK SMILES IDX 64 86 57 87 58 88 62 89 65 90 59 91 60 92 63 93 61 94
REMARK H PARENT 5 13 85 47 53 58
REMARK Flexibility Score: inf
ROOT
ATOM      1  O   UNL     1       3.560   1.451   2.724  1.00  0.00    -0.374 OA
ENDROOT
BRANCH   1   2
ATOM      2  C   UNL     1       3.948   0.305   1.950  1.00  0.00     0.202 C 
BRANCH   2   3
ATOM      3  C   UNL     1       4.494   0.717   0.553  1.00  0.00     0.261 C 
BRANCH   3   4
ATOM      4  O   UNL     1       3.697   1.739  -0.045  1.00  0.00    -0.462 OA
BRANCH   4   5
ATOM      5  C   UNL     1       2.470   1.353  -0.457  1.00  0.00     0.331 C 
ATOM      6  O   UNL     1       2.300   0.439  -1.234  1.00  0.00    -0.249 OA
BRANCH   5   7
ATOM      7  C   UNL     1       1.380   2.281   0.138  1.00  0.00     0.135 C 
ATOM      8  C   UNL     1       0.799   3.162  -0.982  1.00  0.00     0.047 C 
BRANCH   7   9
ATOM      9  C   UNL     1       0.148   1.417   0.670  1.00  0.00     0.037 C 
ATOM     10  C   UNL     1      -0.148   0.070   0.002  1.00  0.00     0.007 C 
ENDBRANCH   7   9
BRANCH   7  11
ATOM     11  N   UNL     1       1.934   3.159   1.277  1.00  0.00    -0.336 N 
ATOM     12  C   UNL     1       3.004   4.083   1.308  1.00  0.00     0.252 C 
ATOM     13  H   UNL     1       1.461   3.058   2.134  1.00  0.00     0.165 HD
ATOM     14  O   UNL     1       2.682   5.255   1.068  1.00  0.00    -0.269 OA
BRANCH  12  15
ATOM     15  C   UNL     1       4.531   3.812   1.629  1.00  0.00     0.047 A 
ATOM     16  C   UNL     1       5.260   4.263   0.517  1.00  0.00     0.014 A 
ATOM     17  C   UNL     1       5.331   3.366   2.868  1.00  0.00    -0.006 A 
ATOM     18  C   UNL     1       6.646   4.220   0.492  1.00  0.00     0.001 A 
ATOM     19  C   UNL     1       6.746   3.308   2.748  1.00  0.00    -0.018 A 
ATOM     20  C   UNL     1       4.989   3.022   4.253  1.00  0.00     0.009 A 
ATOM     21  C   UNL     1       7.363   3.723   1.573  1.00  0.00     0.009 A 
ATOM     22  C   UNL     1       7.614   2.894   3.804  1.00  0.00     0.009 A 
ATOM     23  C   UNL     1       5.831   2.637   5.313  1.00  0.00     0.001 A 
ATOM     24  C   UNL     1       7.170   2.555   5.076  1.00  0.00     0.001 A 
ENDBRANCH  12  15
ENDBRANCH   7  11
ENDBRANCH   5   7
ENDBRANCH   4   5
ENDBRANCH   3   4
ENDBRANCH   2   3
ENDBRANCH   1   2
BRANCH   1  25
ATOM     25  C   UNL     1       2.377   1.434   3.519  1.00  0.00     0.202 C 
BRANCH  25  26
ATOM     26  C   UNL     1       1.835   2.840   4.192  1.00  0.00     0.261 C 
BRANCH  26  27
ATOM     27  O   UNL     1       2.403   4.161   3.758  1.00  0.00    -0.460 OA
BRANCH  27  28
ATOM     28  C   UNL     1       2.657   5.216   4.613  1.00  0.00     0.338 C 
ATOM     29  O   UNL     1       2.321   5.225   5.788  1.00  0.00    -0.246 OA
BRANCH  28  30
ATOM     30  C   UNL     1       3.462   6.383   4.009  1.00  0.00     0.060 A 
ATOM     31  C   UNL     1       4.843   6.300   3.771  1.00  0.00     0.016 A 
ATOM     32  C   UNL     1       2.917   7.661   3.848  1.00  0.00     0.016 A 
ATOM     33  C   UNL     1       5.616   7.347   3.213  1.00  0.00     0.010 A 
ATOM     34  C   UNL     1       3.708   8.757   3.373  1.00  0.00     0.010 A 
ATOM     35  C   UNL     1       5.064   8.610   3.020  1.00  0.00    -0.014 A 
BRANCH  35  36
ATOM     36  C   UNL     1       5.932   9.782   2.639  1.00  0.00     0.031 A 
ATOM     37  C   UNL     1       6.667  10.543   3.717  1.00  0.00     0.074 A 
ATOM     38  C   UNL     1       6.141  10.171   1.362  1.00  0.00     0.049 A 
ATOM     39  N   UNL     1       7.252  11.717   3.673  1.00  0.00    -0.248 NA
ATOM     40  C   UNL     1       6.777   9.871   5.019  1.00  0.00     0.031 C 
ATOM     41  C   UNL     1       5.694   9.453   0.172  1.00  0.00     0.029 A 
ATOM     42  N   UNL     1       6.785  11.285   0.854  1.00  0.00    -0.354 N 
ATOM     43  C   UNL     1       7.750  11.945   4.951  1.00  0.00     0.074 A 
ATOM     44  C   UNL     1       7.438  10.769   5.735  1.00  0.00     0.031 C 
ATOM     45  C   UNL     1       6.037  10.162  -0.921  1.00  0.00     0.029 A 
ATOM     46  C   UNL     1       6.664  11.420  -0.512  1.00  0.00     0.049 A 
ATOM     47  H   UNL     1       7.284  11.921   1.416  1.00  0.00     0.167 HD
ATOM     48  C   UNL     1       8.380  13.043   5.439  1.00  0.00     0.037 A 
ATOM     49  C   UNL     1       6.959  12.458  -1.328  1.00  0.00     0.037 A 
ATOM     50  C   UNL     1       8.699  14.217   4.667  1.00  0.00     0.049 A 
ATOM     51  C   UNL     1       7.525  13.738  -0.749  1.00  0.00     0.074 A 
ATOM     52  C   UNL     1       9.268  15.407   5.090  1.00  0.00     0.029 A 
ATOM     53  N   UNL     1       8.479  14.346   3.304  1.00  0.00    -0.354 N 
ATOM     54  N   UNL     1       7.875  14.008   0.485  1.00  0.00    -0.248 NA
ATOM     55  C   UNL     1       7.712  14.870  -1.675  1.00  0.00     0.031 C 
ATOM     56  C   UNL     1       9.348  16.273   3.993  1.00  0.00     0.029 A 
ATOM     57  C   UNL     1       8.882  15.601   2.875  1.00  0.00     0.049 A 
ATOM     58  H   UNL     1       8.093  13.649   2.726  1.00  0.00     0.167 HD
ATOM     59  C   UNL     1       8.339  15.320   0.479  1.00  0.00     0.074 A 
ATOM     60  C   UNL     1       8.241  15.793  -0.884  1.00  0.00     0.031 C 
ATOM     61  C   UNL     1       8.801  16.065   1.514  1.00  0.00     0.037 A 
BRANCH  48  62
ATOM     62  C   UNL     1       8.676  13.066   6.912  1.00  0.00     0.064 A 
ATOM     63  C   UNL     1       9.694  12.292   7.485  1.00  0.00     0.173 A 
ATOM     64  C   UNL     1       7.918  13.887   7.763  1.00  0.00     0.173 A 
ATOM     65  F   UNL     1      10.438  11.480   6.719  1.00  0.00    -0.203 F 
ATOM     66  C   UNL     1       9.918  12.311   8.861  1.00  0.00     0.198 A 
ATOM     67  C   UNL     1       8.164  13.926   9.132  1.00  0.00     0.198 A 
ATOM     68  F   UNL     1       6.938  14.656   7.264  1.00  0.00    -0.203 F 
ATOM     69  F   UNL     1      10.859  11.520   9.396  1.00  0.00    -0.200 F 
ATOM     70  C   UNL     1       9.156  13.129   9.682  1.00  0.00     0.200 A 
ATOM     71  F   UNL     1       7.435  14.728   9.920  1.00  0.00    -0.200 F 
ATOM     72  F   UNL     1       9.371  13.143  11.005  1.00  0.00    -0.200 F 
ENDBRANCH  48  62
BRANCH  49  73
ATOM     73  C   UNL     1       6.636  12.391  -2.786  1.00  0.00     0.064 A 
ATOM     74  C   UNL     1       7.640  12.448  -3.765  1.00  0.00     0.173 A 
ATOM     75  C   UNL     1       5.306  12.335  -3.231  1.00  0.00     0.173 A 
ATOM     76  F   UNL     1       8.926  12.558  -3.400  1.00  0.00    -0.203 F 
ATOM     77  C   UNL     1       7.327  12.456  -5.125  1.00  0.00     0.198 A 
ATOM     78  C   UNL     1       4.995  12.309  -4.590  1.00  0.00     0.198 A 
ATOM     79  F   UNL     1       4.301  12.313  -2.344  1.00  0.00    -0.203 F 
ATOM     80  F   UNL     1       8.303  12.567  -6.036  1.00  0.00    -0.200 F 
ATOM     81  C   UNL     1       6.005  12.376  -5.537  1.00  0.00     0.200 A 
ATOM     82  F   UNL     1       3.716  12.232  -4.982  1.00  0.00    -0.200 F 
ATOM     83  F   UNL     1       5.704  12.381  -6.843  1.00  0.00    -0.200 F 
ENDBRANCH  49  73
BRANCH  61  84
ATOM     84  C   UNL     1       9.286  17.456   1.218  1.00  0.00     0.064 A 
ATOM     85  C   UNL     1       8.400  18.503   0.920  1.00  0.00     0.173 A 
ATOM     86  C   UNL     1      10.655  17.759   1.288  1.00  0.00     0.173 A 
ATOM     87  F   UNL     1       7.083  18.266   0.829  1.00  0.00    -0.203 F 
ATOM     88  C   UNL     1       8.869  19.794   0.686  1.00  0.00     0.198 A 
ATOM     89  C   UNL     1      11.118  19.056   1.079  1.00  0.00     0.198 A 
ATOM     90  F   UNL     1      11.546  16.798   1.577  1.00  0.00    -0.203 F 
ATOM     91  F   UNL     1       8.008  20.770   0.366  1.00  0.00    -0.200 F 
ATOM     92  C   UNL     1      10.225  20.071   0.773  1.00  0.00     0.200 A 
ATOM     93  F   UNL     1      12.427  19.324   1.177  1.00  0.00    -0.200 F 
ATOM     94  F   UNL     1      10.672  21.316   0.556  1.00  0.00    -0.200 F 
ENDBRANCH  61  84
ENDBRANCH  35  36
ENDBRANCH  28  30
ENDBRANCH  27  28
ENDBRANCH  26  27
ENDBRANCH  25  26
ENDBRANCH   1  25
TORSDOF 17
