REMARK SMILES CCCC(O)(CCC)[C@@]1(C)CC[C@@H](C(=O)OCCOCCOC(=O)c2ccc(-c3c4nc(c(-c5c(F)c(F)c(F)c(F)c5F)c5ccc([nH]5)c(-c5c(F)c(F)c(F)c(F)c5F)c5nc(c(-c6c(F)c(F)c(F)c(F)c6F)c6ccc3[nH]6)C=C5)C=C4)cc2)C(C)(C)O1
REMARK SMILES IDX 18 1 17 2 16 3 14 4 15 5 13 6 9 7 10 8 11 9 91 10 12 11
REMARK SMILES IDX 88 12 89 13 90 14 4 15 3 16 2 17 1 18 5 19 6 21 7 22 8 23
REMARK SMILES IDX 19 24 20 25 21 26 22 27 23 28 24 29 25 30 26 31 87 32 27 33
REMARK SMILES IDX 86 34 28 35 29 36 30 37 80 38 31 39 85 40 79 41 81 42 32 43
REMARK SMILES IDX 84 44 78 45 77 46 33 48 65 49 45 50 64 51 46 52 49 53 63 54
REMARK SMILES IDX 82 55 47 56 48 57 62 59 83 60 50 61 34 62 35 63 43 64 36 65
REMARK SMILES IDX 37 66 41 67 44 68 38 69 39 70 42 71 40 72 66 73 67 74 75 75
REMARK SMILES IDX 68 76 69 77 73 78 76 79 70 80 71 81 74 82 72 83 51 84 52 85
REMARK SMILES IDX 60 86 53 87 54 88 58 89 61 90 55 91 56 92 59 93 57 94
REMARK H PARENT 5 20 81 47 49 58
REMARK Flexibility Score: inf
ROOT
ATOM      1  C   UNL     1      -1.988   4.632   7.534  1.00  0.00     0.202 C 
ENDROOT
BRANCH   1   2
ATOM      2  C   UNL     1      -2.199   4.603   6.017  1.00  0.00     0.261 C 
BRANCH   2   3
ATOM      3  O   UNL     1      -1.447   3.558   5.362  1.00  0.00    -0.463 OA
BRANCH   3   4
ATOM      4  C   UNL     1      -0.448   3.971   4.543  1.00  0.00     0.311 C 
ATOM      5  O   UNL     1      -0.119   5.143   4.391  1.00  0.00    -0.252 OA
BRANCH   4   6
ATOM      6  C   UNL     1       0.197   2.856   3.744  1.00  0.00     0.131 C 
ATOM      7  C   UNL     1       1.118   0.525   2.207  1.00  0.00     0.095 C 
ATOM      8  C   UNL     1       2.415   0.737   1.378  1.00  0.00     0.045 C 
ATOM      9  C   UNL     1       0.065   1.513   1.592  1.00  0.00     0.039 C 
ATOM     10  O   UNL     1       1.499   0.901   3.542  1.00  0.00    -0.366 OA
ATOM     11  C   UNL     1      -0.635   2.524   2.509  1.00  0.00     0.021 C 
ATOM     12  C   UNL     1       0.585   1.551   4.442  1.00  0.00     0.077 C 
ATOM     13  C   UNL     1      -0.615   0.690   4.882  1.00  0.00     0.043 C 
ATOM     14  C   UNL     1       1.462   1.744   5.683  1.00  0.00     0.043 C 
BRANCH   7  15
ATOM     15  C   UNL     1       0.746  -1.031   2.248  1.00  0.00     0.093 C 
BRANCH  15  16
ATOM     16  C   UNL     1       0.993  -1.878   0.962  1.00  0.00     0.038 C 
BRANCH  16  17
ATOM     17  C   UNL     1       0.106  -1.689  -0.275  1.00  0.00    -0.000 C 
ATOM     18  C   UNL     1       0.601  -0.648  -1.262  1.00  0.00     0.004 C 
ENDBRANCH  16  17
ENDBRANCH  15  16
BRANCH  15  19
ATOM     19  O   UNL     1      -0.657  -1.177   2.570  1.00  0.00    -0.387 OA
ATOM     20  H   UNL     1      -0.886  -2.120   2.595  1.00  0.00     0.211 HD
ENDBRANCH  15  19
BRANCH  15  21
ATOM     21  C   UNL     1       1.455  -1.793   3.445  1.00  0.00     0.038 C 
BRANCH  21  22
ATOM     22  C   UNL     1       2.963  -2.085   3.438  1.00  0.00    -0.000 C 
ATOM     23  C   UNL     1       3.878  -0.985   3.964  1.00  0.00     0.004 C 
ENDBRANCH  21  22
ENDBRANCH  15  21
ENDBRANCH   7  15
ENDBRANCH   4   6
ENDBRANCH   3   4
ENDBRANCH   2   3
ENDBRANCH   1   2
BRANCH   1  24
ATOM     24  O   UNL     1      -0.739   5.141   7.994  1.00  0.00    -0.374 OA
BRANCH  24  25
ATOM     25  C   UNL     1       0.385   4.268   7.905  1.00  0.00     0.202 C 
BRANCH  25  26
ATOM     26  C   UNL     1       0.421   3.137   8.946  1.00  0.00     0.261 C 
BRANCH  26  27
ATOM     27  O   UNL     1      -0.610   2.158   8.698  1.00  0.00    -0.460 OA
BRANCH  27  28
ATOM     28  C   UNL     1      -1.416   1.901   9.752  1.00  0.00     0.338 C 
ATOM     29  O   UNL     1      -1.278   2.291  10.906  1.00  0.00    -0.246 OA
BRANCH  28  30
ATOM     30  C   UNL     1      -2.645   1.221   9.309  1.00  0.00     0.060 A 
ATOM     31  C   UNL     1      -3.853   1.904   9.497  1.00  0.00     0.016 A 
ATOM     32  C   UNL     1      -2.639  -0.098   8.852  1.00  0.00     0.016 A 
ATOM     33  C   UNL     1      -5.064   1.248   9.297  1.00  0.00     0.010 A 
ATOM     34  C   UNL     1      -3.861  -0.758   8.656  1.00  0.00     0.010 A 
ATOM     35  C   UNL     1      -5.077  -0.103   8.927  1.00  0.00    -0.014 A 
BRANCH  35  36
ATOM     36  C   UNL     1      -6.358  -0.852   9.013  1.00  0.00     0.031 A 
ATOM     37  C   UNL     1      -6.636  -1.689  10.233  1.00  0.00     0.074 A 
ATOM     38  C   UNL     1      -7.305  -0.719   8.068  1.00  0.00     0.049 A 
ATOM     39  N   UNL     1      -7.706  -2.376  10.549  1.00  0.00    -0.248 NA
ATOM     40  C   UNL     1      -5.563  -1.755  11.237  1.00  0.00     0.031 C 
ATOM     41  C   UNL     1      -7.186   0.103   6.867  1.00  0.00     0.029 A 
ATOM     42  N   UNL     1      -8.561  -1.266   7.981  1.00  0.00    -0.354 N 
ATOM     43  C   UNL     1      -7.435  -2.953  11.783  1.00  0.00     0.074 A 
ATOM     44  C   UNL     1      -6.087  -2.568  12.142  1.00  0.00     0.031 C 
ATOM     45  C   UNL     1      -8.328   0.013   6.164  1.00  0.00     0.029 A 
ATOM     46  C   UNL     1      -9.246  -0.894   6.852  1.00  0.00     0.049 A 
ATOM     47  H   UNL     1      -8.935  -1.869   8.664  1.00  0.00     0.167 HD
ATOM     48  C   UNL     1      -8.239  -3.723  12.555  1.00  0.00     0.037 A 
ATOM     49  C   UNL     1     -10.471  -1.253   6.418  1.00  0.00     0.037 A 
ATOM     50  C   UNL     1      -9.581  -4.109  12.201  1.00  0.00     0.049 A 
ATOM     51  C   UNL     1     -11.314  -2.183   7.251  1.00  0.00     0.074 A 
ATOM     52  C   UNL     1     -10.480  -4.870  12.928  1.00  0.00     0.029 A 
ATOM     53  N   UNL     1     -10.212  -3.771  11.013  1.00  0.00    -0.354 N 
ATOM     54  N   UNL     1     -11.060  -2.703   8.427  1.00  0.00    -0.248 NA
ATOM     55  C   UNL     1     -12.617  -2.573   6.693  1.00  0.00     0.031 C 
ATOM     56  C   UNL     1     -11.634  -5.040  12.155  1.00  0.00     0.029 A 
ATOM     57  C   UNL     1     -11.477  -4.337  10.971  1.00  0.00     0.049 A 
ATOM     58  H   UNL     1      -9.819  -3.212  10.305  1.00  0.00     0.167 HD
ATOM     59  C   UNL     1     -12.178  -3.457   8.762  1.00  0.00     0.074 A 
ATOM     60  C   UNL     1     -13.117  -3.318   7.669  1.00  0.00     0.031 C 
ATOM     61  C   UNL     1     -12.406  -4.194   9.878  1.00  0.00     0.037 A 
BRANCH  48  62
ATOM     62  C   UNL     1      -7.670  -4.230  13.848  1.00  0.00     0.064 A 
ATOM     63  C   UNL     1      -7.426  -3.376  14.935  1.00  0.00     0.173 A 
ATOM     64  C   UNL     1      -7.372  -5.592  14.006  1.00  0.00     0.173 A 
ATOM     65  F   UNL     1      -7.682  -2.063  14.833  1.00  0.00    -0.203 F 
ATOM     66  C   UNL     1      -6.872  -3.861  16.118  1.00  0.00     0.198 A 
ATOM     67  C   UNL     1      -6.847  -6.079  15.200  1.00  0.00     0.198 A 
ATOM     68  F   UNL     1      -7.591  -6.453  13.001  1.00  0.00    -0.203 F 
ATOM     69  F   UNL     1      -6.595  -3.018  17.122  1.00  0.00    -0.200 F 
ATOM     70  C   UNL     1      -6.588  -5.212  16.250  1.00  0.00     0.200 A 
ATOM     71  F   UNL     1      -6.585  -7.386  15.331  1.00  0.00    -0.200 F 
ATOM     72  F   UNL     1      -6.054  -5.677  17.389  1.00  0.00    -0.200 F 
ENDBRANCH  48  62
BRANCH  49  73
ATOM     73  C   UNL     1     -10.977  -0.724   5.125  1.00  0.00     0.064 A 
ATOM     74  C   UNL     1     -12.034   0.195   5.084  1.00  0.00     0.173 A 
ATOM     75  C   UNL     1     -10.412  -1.127   3.906  1.00  0.00     0.173 A 
ATOM     76  F   UNL     1     -12.624   0.589   6.221  1.00  0.00    -0.203 F 
ATOM     77  C   UNL     1     -12.512   0.686   3.870  1.00  0.00     0.198 A 
ATOM     78  C   UNL     1     -10.873  -0.615   2.696  1.00  0.00     0.198 A 
ATOM     79  F   UNL     1      -9.402  -2.008   3.893  1.00  0.00    -0.203 F 
ATOM     80  F   UNL     1     -13.546   1.538   3.855  1.00  0.00    -0.200 F 
ATOM     81  C   UNL     1     -11.926   0.287   2.678  1.00  0.00     0.200 A 
ATOM     82  F   UNL     1     -10.297  -0.995   1.547  1.00  0.00    -0.200 F 
ATOM     83  F   UNL     1     -12.379   0.768   1.512  1.00  0.00    -0.200 F 
ENDBRANCH  49  73
BRANCH  61  84
ATOM     84  C   UNL     1     -13.734  -4.887   9.992  1.00  0.00     0.064 A 
ATOM     85  C   UNL     1     -14.055  -6.003   9.204  1.00  0.00     0.173 A 
ATOM     86  C   UNL     1     -14.683  -4.454  10.931  1.00  0.00     0.173 A 
ATOM     87  F   UNL     1     -13.189  -6.448   8.281  1.00  0.00    -0.203 F 
ATOM     88  C   UNL     1     -15.285  -6.643   9.335  1.00  0.00     0.198 A 
ATOM     89  C   UNL     1     -15.900  -5.115  11.080  1.00  0.00     0.198 A 
ATOM     90  F   UNL     1     -14.425  -3.396  11.715  1.00  0.00    -0.203 F 
ATOM     91  F   UNL     1     -15.588  -7.678   8.539  1.00  0.00    -0.200 F 
ATOM     92  C   UNL     1     -16.203  -6.204  10.278  1.00  0.00     0.200 A 
ATOM     93  F   UNL     1     -16.779  -4.697  12.001  1.00  0.00    -0.200 F 
ATOM     94  F   UNL     1     -17.383  -6.825  10.407  1.00  0.00    -0.200 F 
ENDBRANCH  61  84
ENDBRANCH  35  36
ENDBRANCH  28  30
ENDBRANCH  27  28
ENDBRANCH  26  27
ENDBRANCH  25  26
ENDBRANCH  24  25
ENDBRANCH   1  24
TORSDOF 20
