REMARK SMILES CC1=C(C(=O)OCCOCCOC(=O)c2ccc(-c3c4nc(c(-c5c(F)c(F)c(F)c(F)c5F)c5ccc([nH]5)c(-c5c(F)c(F)c(F)c(F)c5F)c5nc(c(-c6c(F)c(F)c(F)c(F)c6F)c6ccc3[nH]6)C=C5)C=C4)cc2)[C@H](c2ccc(Cl)cc2)n2ncnc2N1
REMARK SMILES IDX 10 1 9 2 8 3 7 4 6 5 4 6 5 7 3 8 1 9 2 10 91 11 78 12 90 13
REMARK SMILES IDX 86 15 89 16 87 17 88 18 79 19 80 20 85 21 81 22 84 23 82 24
REMARK SMILES IDX 83 25 11 26 12 27 13 28 14 29 15 30 16 31 77 32 17 33 76 34
REMARK SMILES IDX 18 35 19 36 20 37 70 38 21 39 75 40 69 41 71 42 22 43 74 44
REMARK SMILES IDX 68 45 67 46 23 48 55 49 35 50 54 51 36 52 39 53 53 54 72 55
REMARK SMILES IDX 37 56 38 57 52 59 73 60 40 61 24 62 25 63 33 64 26 65 27 66
REMARK SMILES IDX 31 67 34 68 28 69 29 70 32 71 30 72 56 73 57 74 65 75 58 76
REMARK SMILES IDX 59 77 63 78 66 79 60 80 61 81 64 82 62 83 41 84 42 85 50 86
REMARK SMILES IDX 43 87 44 88 48 89 51 90 45 91 46 92 49 93 47 94
REMARK H PARENT 91 14 71 47 39 58
REMARK Flexibility Score: inf
ROOT
ATOM      1  C   UNL     1       1.854   2.882  -3.941  1.00  0.00     0.202 C 
ENDROOT
BRANCH   1   2
ATOM      2  O   UNL     1       1.556   4.171  -3.416  1.00  0.00    -0.374 OA
BRANCH   2   3
ATOM      3  C   UNL     1       1.491   4.393  -2.007  1.00  0.00     0.202 C 
BRANCH   3   4
ATOM      4  C   UNL     1       0.524   3.559  -1.163  1.00  0.00     0.261 C 
BRANCH   4   5
ATOM      5  O   UNL     1       0.701   2.145  -1.344  1.00  0.00    -0.460 OA
BRANCH   5   6
ATOM      6  C   UNL     1      -0.438   1.462  -1.617  1.00  0.00     0.338 C 
ATOM      7  O   UNL     1      -1.573   1.925  -1.607  1.00  0.00    -0.246 OA
BRANCH   6   8
ATOM      8  C   UNL     1      -0.132   0.076  -2.008  1.00  0.00     0.085 C 
ATOM      9  C   UNL     1       0.700  -0.449   0.327  1.00  0.00     0.065 C 
ATOM     10  C   UNL     1       0.394  -0.792  -1.109  1.00  0.00     0.028 C 
ATOM     11  N   UNL     1       0.684  -2.093  -1.496  1.00  0.00    -0.328 N 
ATOM     12  C   UNL     1      -0.395  -0.319  -3.463  1.00  0.00     0.181 C 
ATOM     13  C   UNL     1       0.548  -2.538  -2.758  1.00  0.00     0.226 A 
ATOM     14  H   UNL     1       1.006  -2.723  -0.811  1.00  0.00     0.169 HD
ATOM     15  N   UNL     1       0.074  -1.690  -3.723  1.00  0.00    -0.219 N 
ATOM     16  N   UNL     1       0.809  -3.704  -3.290  1.00  0.00    -0.200 NA
ATOM     17  N   UNL     1       0.115  -2.271  -4.942  1.00  0.00    -0.157 NA
ATOM     18  C   UNL     1       0.527  -3.502  -4.617  1.00  0.00     0.248 A 
BRANCH  12  19
ATOM     19  C   UNL     1      -1.841  -0.119  -3.923  1.00  0.00    -0.018 A 
ATOM     20  C   UNL     1      -2.801  -1.146  -3.875  1.00  0.00     0.008 A 
ATOM     21  C   UNL     1      -2.254   1.152  -4.372  1.00  0.00     0.008 A 
ATOM     22  C   UNL     1      -4.128  -0.905  -4.242  1.00  0.00     0.021 A 
ATOM     23  C   UNL     1      -3.588   1.401  -4.704  1.00  0.00     0.021 A 
ATOM     24  C   UNL     1      -4.520   0.372  -4.633  1.00  0.00     0.041 A 
ATOM     25  Cl  UNL     1      -6.168   0.681  -5.016  1.00  0.00    -0.084 Cl
ENDBRANCH  12  19
ENDBRANCH   6   8
ENDBRANCH   5   6
ENDBRANCH   4   5
ENDBRANCH   3   4
ENDBRANCH   2   3
ENDBRANCH   1   2
BRANCH   1  26
ATOM     26  C   UNL     1       3.252   2.305  -3.749  1.00  0.00     0.261 C 
BRANCH  26  27
ATOM     27  O   UNL     1       3.590   2.231  -2.375  1.00  0.00    -0.460 OA
BRANCH  27  28
ATOM     28  C   UNL     1       4.356   3.251  -1.950  1.00  0.00     0.338 C 
ATOM     29  O   UNL     1       4.718   4.232  -2.603  1.00  0.00    -0.246 OA
BRANCH  28  30
ATOM     30  C   UNL     1       4.801   2.988  -0.581  1.00  0.00     0.060 A 
ATOM     31  C   UNL     1       5.751   3.893  -0.103  1.00  0.00     0.016 A 
ATOM     32  C   UNL     1       4.699   1.675  -0.104  1.00  0.00     0.016 A 
ATOM     33  C   UNL     1       6.844   3.370   0.535  1.00  0.00     0.010 A 
ATOM     34  C   UNL     1       5.804   1.147   0.505  1.00  0.00     0.010 A 
ATOM     35  C   UNL     1       6.901   1.984   0.698  1.00  0.00    -0.014 A 
BRANCH  35  36
ATOM     36  C   UNL     1       8.168   1.416   1.077  1.00  0.00     0.031 A 
ATOM     37  C   UNL     1       8.406   1.481   2.528  1.00  0.00     0.074 A 
ATOM     38  C   UNL     1       8.961   0.806   0.180  1.00  0.00     0.049 A 
ATOM     39  N   UNL     1       9.274   2.193   3.163  1.00  0.00    -0.248 NA
ATOM     40  C   UNL     1       7.413   0.820   3.388  1.00  0.00     0.031 C 
ATOM     41  C   UNL     1       8.656   0.423  -1.202  1.00  0.00     0.029 A 
ATOM     42  N   UNL     1      10.199   0.289   0.375  1.00  0.00    -0.354 N 
ATOM     43  C   UNL     1       9.048   1.923   4.508  1.00  0.00     0.074 A 
ATOM     44  C   UNL     1       7.765   1.285   4.584  1.00  0.00     0.031 C 
ATOM     45  C   UNL     1       9.584  -0.467  -1.626  1.00  0.00     0.029 A 
ATOM     46  C   UNL     1      10.595  -0.618  -0.594  1.00  0.00     0.049 A 
ATOM     47  H   UNL     1      10.767   0.536   1.140  1.00  0.00     0.167 HD
ATOM     48  C   UNL     1      10.059   1.983   5.414  1.00  0.00     0.037 A 
ATOM     49  C   UNL     1      11.611  -1.504  -0.449  1.00  0.00     0.037 A 
ATOM     50  C   UNL     1      11.161   2.762   4.905  1.00  0.00     0.049 A 
ATOM     51  C   UNL     1      12.451  -1.033   0.692  1.00  0.00     0.074 A 
ATOM     52  C   UNL     1      11.304   4.069   4.479  1.00  0.00     0.029 A 
ATOM     53  N   UNL     1      12.261   2.093   4.423  1.00  0.00    -0.354 N 
ATOM     54  N   UNL     1      13.180   0.051   0.661  1.00  0.00    -0.248 NA
ATOM     55  C   UNL     1      12.102  -1.508   2.026  1.00  0.00     0.031 C 
ATOM     56  C   UNL     1      12.215   4.008   3.385  1.00  0.00     0.029 A 
ATOM     57  C   UNL     1      12.609   2.679   3.235  1.00  0.00     0.049 A 
ATOM     58  H   UNL     1      12.714   1.332   4.853  1.00  0.00     0.167 HD
ATOM     59  C   UNL     1      13.047   0.610   1.926  1.00  0.00     0.074 A 
ATOM     60  C   UNL     1      12.430  -0.430   2.744  1.00  0.00     0.031 C 
ATOM     61  C   UNL     1      13.176   1.955   2.123  1.00  0.00     0.037 A 
BRANCH  48  62
ATOM     62  C   UNL     1      10.212   1.011   6.564  1.00  0.00     0.064 A 
ATOM     63  C   UNL     1      11.296   1.189   7.445  1.00  0.00     0.173 A 
ATOM     64  C   UNL     1       9.550  -0.235   6.669  1.00  0.00     0.173 A 
ATOM     65  F   UNL     1      11.993   2.335   7.450  1.00  0.00    -0.203 F 
ATOM     66  C   UNL     1      11.757   0.159   8.267  1.00  0.00     0.198 A 
ATOM     67  C   UNL     1       9.979  -1.240   7.531  1.00  0.00     0.198 A 
ATOM     68  F   UNL     1       8.530  -0.590   5.883  1.00  0.00    -0.203 F 
ATOM     69  F   UNL     1      12.881   0.330   8.975  1.00  0.00    -0.200 F 
ATOM     70  C   UNL     1      11.107  -1.060   8.298  1.00  0.00     0.200 A 
ATOM     71  F   UNL     1       9.334  -2.415   7.541  1.00  0.00    -0.200 F 
ATOM     72  F   UNL     1      11.590  -2.074   9.027  1.00  0.00    -0.200 F 
ENDBRANCH  48  62
BRANCH  49  73
ATOM     73  C   UNL     1      11.672  -2.892  -0.969  1.00  0.00     0.064 A 
ATOM     74  C   UNL     1      12.886  -3.593  -1.019  1.00  0.00     0.173 A 
ATOM     75  C   UNL     1      10.504  -3.650  -1.193  1.00  0.00     0.173 A 
ATOM     76  F   UNL     1      14.040  -2.959  -0.764  1.00  0.00    -0.203 F 
ATOM     77  C   UNL     1      12.929  -4.970  -1.268  1.00  0.00     0.198 A 
ATOM     78  C   UNL     1      10.548  -5.019  -1.453  1.00  0.00     0.198 A 
ATOM     79  F   UNL     1       9.288  -3.098  -1.072  1.00  0.00    -0.203 F 
ATOM     80  F   UNL     1      14.103  -5.616  -1.253  1.00  0.00    -0.200 F 
ATOM     81  C   UNL     1      11.760  -5.682  -1.480  1.00  0.00     0.200 A 
ATOM     82  F   UNL     1       9.405  -5.701  -1.617  1.00  0.00    -0.200 F 
ATOM     83  F   UNL     1      11.796  -7.009  -1.666  1.00  0.00    -0.200 F 
ENDBRANCH  49  73
BRANCH  61  84
ATOM     84  C   UNL     1      13.706   2.786   0.992  1.00  0.00     0.064 A 
ATOM     85  C   UNL     1      13.021   2.968  -0.221  1.00  0.00     0.173 A 
ATOM     86  C   UNL     1      14.841   3.575   1.221  1.00  0.00     0.173 A 
ATOM     87  F   UNL     1      11.873   2.323  -0.465  1.00  0.00    -0.203 F 
ATOM     88  C   UNL     1      13.472   3.880  -1.173  1.00  0.00     0.198 A 
ATOM     89  C   UNL     1      15.269   4.510   0.284  1.00  0.00     0.198 A 
ATOM     90  F   UNL     1      15.499   3.482   2.388  1.00  0.00    -0.203 F 
ATOM     91  F   UNL     1      12.800   4.040  -2.322  1.00  0.00    -0.200 F 
ATOM     92  C   UNL     1      14.589   4.658  -0.914  1.00  0.00     0.200 A 
ATOM     93  F   UNL     1      16.319   5.296   0.560  1.00  0.00    -0.200 F 
ATOM     94  F   UNL     1      14.991   5.575  -1.806  1.00  0.00    -0.200 F 
ENDBRANCH  61  84
ENDBRANCH  35  36
ENDBRANCH  28  30
ENDBRANCH  27  28
ENDBRANCH  26  27
ENDBRANCH   1  26
TORSDOF 15
