REMARK SMILES CC(C)(C)[NH2+]CC(=O)N1Cc2nc[nH]c2C[C@@H]1C(=O)OCCOCCOC(=O)c1ccc(-c2c3nc(c(-c4c(F)c(F)c(F)c(F)c4F)c4ccc([nH]4)c(-c4c(F)c(F)c(F)c(F)c4F)c4nc(c(-c5c(F)c(F)c(F)c(F)c5F)c5ccc2[nH]5)C=C4)C=C3)cc1
REMARK SMILES IDX 22 1 21 2 20 3 18 4 19 5 17 6 9 7 10 8 11 9 16 10 12 11
REMARK SMILES IDX 15 12 13 13 14 14 7 16 8 17 6 18 5 19 2 22 1 23 3 24 4 25
REMARK SMILES IDX 23 26 24 27 25 28 26 29 27 30 28 31 29 32 30 33 91 34 31 35
REMARK SMILES IDX 90 36 32 37 33 38 34 39 84 40 35 41 89 42 83 43 85 44 36 45
REMARK SMILES IDX 88 46 82 47 81 48 37 50 69 51 49 52 68 53 50 54 53 55 67 56
REMARK SMILES IDX 86 57 51 58 52 59 66 61 87 62 54 63 38 64 39 65 47 66 40 67
REMARK SMILES IDX 41 68 45 69 48 70 42 71 43 72 46 73 44 74 70 75 71 76 79 77
REMARK SMILES IDX 72 78 73 79 77 80 80 81 74 82 75 83 78 84 76 85 55 86 56 87
REMARK SMILES IDX 64 88 57 89 58 90 62 91 65 92 59 93 60 94 63 95 61 96
REMARK H PARENT 14 15 5 20 5 21 85 49 53 60
REMARK Flexibility Score: inf
ROOT
ATOM      1  C   UNL     1      -1.931  -2.431   4.028  1.00  0.00     0.202 C 
ENDROOT
BRANCH   1   2
ATOM      2  C   UNL     1      -0.378  -2.619   3.913  1.00  0.00     0.261 C 
BRANCH   2   3
ATOM      3  O   UNL     1       0.519  -1.519   4.159  1.00  0.00    -0.462 OA
BRANCH   3   4
ATOM      4  C   UNL     1       0.382  -0.609   3.186  1.00  0.00     0.329 C 
ATOM      5  O   UNL     1      -0.546  -0.717   2.390  1.00  0.00    -0.250 OA
BRANCH   4   6
ATOM      6  C   UNL     1       1.370   0.553   3.090  1.00  0.00     0.201 C 
ATOM      7  N   UNL     1       2.815   0.335   2.828  1.00  0.00    -0.318 N 
ATOM      8  C   UNL     1       3.653   1.556   2.623  1.00  0.00     0.178 C 
ATOM      9  C   UNL     1       2.979   2.798   3.119  1.00  0.00     0.081 A 
ATOM     10  C   UNL     1       1.085   1.573   4.218  1.00  0.00     0.093 C 
ATOM     11  N   UNL     1       3.289   4.077   2.732  1.00  0.00    -0.240 NA
ATOM     12  C   UNL     1       1.819   2.802   3.854  1.00  0.00     0.042 A 
ATOM     13  C   UNL     1       2.331   4.834   3.228  1.00  0.00     0.197 A 
ATOM     14  N   UNL     1       1.411   4.099   3.930  1.00  0.00    -0.348 N 
ATOM     15  H   UNL     1       0.615   4.441   4.396  1.00  0.00     0.167 HD
BRANCH   7  16
ATOM     16  C   UNL     1       3.249  -0.712   2.010  1.00  0.00     0.278 C 
ATOM     17  O   UNL     1       4.297  -1.302   2.299  1.00  0.00    -0.268 OA
BRANCH  16  18
ATOM     18  C   UNL     1       2.613  -0.911   0.597  1.00  0.00     0.362 C 
BRANCH  18  19
ATOM     19  N   UNL     1       1.171  -0.809   0.590  1.00  0.00    -0.334 N 
ATOM     20  H   UNL     1       0.844  -1.774   0.532  1.00  0.00     0.347 HD
ATOM     21  H   UNL     1       1.055  -0.206   1.404  1.00  0.00     0.347 HD
BRANCH  19  22
ATOM     22  C   UNL     1       0.323  -0.073  -0.354  1.00  0.00     0.088 C 
ATOM     23  C   UNL     1       1.026   0.300  -1.653  1.00  0.00     0.078 C 
ATOM     24  C   UNL     1      -0.249   1.248   0.235  1.00  0.00     0.078 C 
ATOM     25  C   UNL     1      -0.896  -0.979  -0.655  1.00  0.00     0.078 C 
ENDBRANCH  19  22
ENDBRANCH  18  19
ENDBRANCH  16  18
ENDBRANCH   7  16
ENDBRANCH   4   6
ENDBRANCH   3   4
ENDBRANCH   2   3
ENDBRANCH   1   2
BRANCH   1  26
ATOM     26  O   UNL     1      -2.720  -1.259   3.838  1.00  0.00    -0.374 OA
BRANCH  26  27
ATOM     27  C   UNL     1      -2.479   0.083   4.243  1.00  0.00     0.202 C 
BRANCH  27  28
ATOM     28  C   UNL     1      -2.051   0.463   5.656  1.00  0.00     0.261 C 
BRANCH  28  29
ATOM     29  O   UNL     1      -1.218  -0.517   6.212  1.00  0.00    -0.460 OA
BRANCH  29  30
ATOM     30  C   UNL     1      -1.962  -1.513   6.744  1.00  0.00     0.338 C 
ATOM     31  O   UNL     1      -3.171  -1.552   6.856  1.00  0.00    -0.246 OA
BRANCH  30  32
ATOM     32  C   UNL     1      -1.050  -2.538   7.268  1.00  0.00     0.060 A 
ATOM     33  C   UNL     1      -1.661  -3.255   8.281  1.00  0.00     0.016 A 
ATOM     34  C   UNL     1       0.334  -2.301   7.215  1.00  0.00     0.016 A 
ATOM     35  C   UNL     1      -1.000  -3.225   9.468  1.00  0.00     0.010 A 
ATOM     36  C   UNL     1       1.026  -2.353   8.382  1.00  0.00     0.010 A 
ATOM     37  C   UNL     1       0.287  -2.663   9.506  1.00  0.00    -0.014 A 
BRANCH  37  38
ATOM     38  C   UNL     1       0.892  -2.547  10.795  1.00  0.00     0.031 A 
ATOM     39  C   UNL     1       1.153  -3.890  11.315  1.00  0.00     0.074 A 
ATOM     40  C   UNL     1       1.143  -1.372  11.384  1.00  0.00     0.049 A 
ATOM     41  N   UNL     1       0.411  -4.542  12.142  1.00  0.00    -0.248 NA
ATOM     42  C   UNL     1       2.138  -4.708  10.592  1.00  0.00     0.031 C 
ATOM     43  C   UNL     1       1.153  -0.027  10.804  1.00  0.00     0.029 A 
ATOM     44  N   UNL     1       1.525  -1.168  12.668  1.00  0.00    -0.354 N 
ATOM     45  C   UNL     1       1.004  -5.790  12.230  1.00  0.00     0.074 A 
ATOM     46  C   UNL     1       1.870  -5.917  11.089  1.00  0.00     0.031 C 
ATOM     47  C   UNL     1       1.747   0.821  11.675  1.00  0.00     0.029 A 
ATOM     48  C   UNL     1       2.000   0.108  12.915  1.00  0.00     0.049 A 
ATOM     49  H   UNL     1       1.469  -1.864  13.362  1.00  0.00     0.167 HD
ATOM     50  C   UNL     1       1.029  -6.418  13.432  1.00  0.00     0.037 A 
ATOM     51  C   UNL     1       2.641   0.467  14.050  1.00  0.00     0.037 A 
ATOM     52  C   UNL     1       0.051  -5.849  14.329  1.00  0.00     0.049 A 
ATOM     53  C   UNL     1       2.229  -0.495  15.108  1.00  0.00     0.074 A 
ATOM     54  C   UNL     1      -1.315  -5.925  14.494  1.00  0.00     0.029 A 
ATOM     55  N   UNL     1       0.475  -4.708  14.962  1.00  0.00    -0.354 N 
ATOM     56  N   UNL     1       1.001  -0.587  15.547  1.00  0.00    -0.248 NA
ATOM     57  C   UNL     1       3.083  -1.639  15.417  1.00  0.00     0.031 C 
ATOM     58  C   UNL     1      -1.712  -4.709  15.131  1.00  0.00     0.029 A 
ATOM     59  C   UNL     1      -0.580  -3.929  15.357  1.00  0.00     0.049 A 
ATOM     60  H   UNL     1       1.420  -4.477  15.113  1.00  0.00     0.167 HD
ATOM     61  C   UNL     1       0.826  -1.931  15.827  1.00  0.00     0.074 A 
ATOM     62  C   UNL     1       2.169  -2.491  15.892  1.00  0.00     0.031 C 
ATOM     63  C   UNL     1      -0.390  -2.527  15.661  1.00  0.00     0.037 A 
BRANCH  50  64
ATOM     64  C   UNL     1       2.268  -7.103  13.957  1.00  0.00     0.064 A 
ATOM     65  C   UNL     1       2.171  -7.824  15.159  1.00  0.00     0.173 A 
ATOM     66  C   UNL     1       3.583  -6.821  13.518  1.00  0.00     0.173 A 
ATOM     67  F   UNL     1       0.971  -8.123  15.679  1.00  0.00    -0.203 F 
ATOM     68  C   UNL     1       3.305  -8.174  15.896  1.00  0.00     0.198 A 
ATOM     69  C   UNL     1       4.710  -7.220  14.227  1.00  0.00     0.198 A 
ATOM     70  F   UNL     1       3.847  -6.048  12.460  1.00  0.00    -0.203 F 
ATOM     71  F   UNL     1       3.163  -8.754  17.095  1.00  0.00    -0.200 F 
ATOM     72  C   UNL     1       4.572  -7.868  15.432  1.00  0.00     0.200 A 
ATOM     73  F   UNL     1       5.926  -6.887  13.769  1.00  0.00    -0.200 F 
ATOM     74  F   UNL     1       5.656  -8.149  16.166  1.00  0.00    -0.200 F 
ENDBRANCH  50  64
BRANCH  51  75
ATOM     75  C   UNL     1       3.848   1.315  14.152  1.00  0.00     0.064 A 
ATOM     76  C   UNL     1       4.237   1.867  15.380  1.00  0.00     0.173 A 
ATOM     77  C   UNL     1       4.794   1.367  13.108  1.00  0.00     0.173 A 
ATOM     78  F   UNL     1       3.406   1.817  16.432  1.00  0.00    -0.203 F 
ATOM     79  C   UNL     1       5.511   2.412  15.565  1.00  0.00     0.198 A 
ATOM     80  C   UNL     1       6.063   1.914  13.292  1.00  0.00     0.198 A 
ATOM     81  F   UNL     1       4.540   0.800  11.920  1.00  0.00    -0.203 F 
ATOM     82  F   UNL     1       5.871   2.874  16.770  1.00  0.00    -0.200 F 
ATOM     83  C   UNL     1       6.426   2.424  14.524  1.00  0.00     0.200 A 
ATOM     84  F   UNL     1       6.951   1.884  12.289  1.00  0.00    -0.200 F 
ATOM     85  F   UNL     1       7.669   2.886  14.720  1.00  0.00    -0.200 F 
ENDBRANCH  51  75
BRANCH  63  86
ATOM     86  C   UNL     1      -1.588  -1.631  15.629  1.00  0.00     0.064 A 
ATOM     87  C   UNL     1      -1.893  -0.761  14.570  1.00  0.00     0.173 A 
ATOM     88  C   UNL     1      -2.505  -1.717  16.683  1.00  0.00     0.173 A 
ATOM     89  F   UNL     1      -1.097  -0.683  13.496  1.00  0.00    -0.203 F 
ATOM     90  C   UNL     1      -3.051   0.015  14.587  1.00  0.00     0.198 A 
ATOM     91  C   UNL     1      -3.676  -0.967  16.684  1.00  0.00     0.198 A 
ATOM     92  F   UNL     1      -2.279  -2.565  17.699  1.00  0.00    -0.203 F 
ATOM     93  F   UNL     1      -3.317   0.851  13.572  1.00  0.00    -0.200 F 
ATOM     94  C   UNL     1      -3.945  -0.095  15.641  1.00  0.00     0.200 A 
ATOM     95  F   UNL     1      -4.554  -1.106  17.686  1.00  0.00    -0.200 F 
ATOM     96  F   UNL     1      -5.075   0.625  15.643  1.00  0.00    -0.200 F 
ENDBRANCH  63  86
ENDBRANCH  37  38
ENDBRANCH  30  32
ENDBRANCH  29  30
ENDBRANCH  28  29
ENDBRANCH  27  28
ENDBRANCH  26  27
ENDBRANCH   1  26
TORSDOF 18
