REMARK SMILES CCCCS[C@@H]1CC[C@@]([NH2+]CC)(C(=O)OCCOCCOC(=O)c2ccc(-c3c4nc(c(-c5c(F)c(F)c(F)c(F)c5F)c5ccc([nH]5)c(-c5c(F)c(F)c(F)c(F)c5F)c5nc(c(-c6c(F)c(F)c(F)c(F)c6F)c6ccc3[nH]6)C=C5)C=C4)cc2)C1
REMARK SMILES IDX 17 1 16 2 15 3 13 4 14 5 9 6 6 7 7 8 87 9 8 10 5 11 4 12
REMARK SMILES IDX 3 13 2 14 1 15 10 16 11 19 12 20 18 21 19 22 20 23 21 24
REMARK SMILES IDX 22 25 23 26 24 27 25 28 86 29 26 30 85 31 27 32 28 33 29 34
REMARK SMILES IDX 79 35 30 36 84 37 78 38 80 39 31 40 83 41 77 42 76 43 32 45
REMARK SMILES IDX 64 46 44 47 63 48 45 49 48 50 62 51 81 52 46 53 47 54 61 56
REMARK SMILES IDX 82 57 49 58 33 59 34 60 42 61 35 62 36 63 40 64 43 65 37 66
REMARK SMILES IDX 38 67 41 68 39 69 65 70 66 71 74 72 67 73 68 74 72 75 75 76
REMARK SMILES IDX 69 77 70 78 73 79 71 80 50 81 51 82 59 83 52 84 53 85 57 86
REMARK SMILES IDX 60 87 54 88 55 89 58 90 56 91
REMARK H PARENT 10 17 10 18 80 44 48 55
REMARK Flexibility Score: inf
ROOT
ATOM      1  C   UNL     1      -1.063   1.171   3.974  1.00  0.00     0.202 C 
ENDROOT
BRANCH   1   2
ATOM      2  C   UNL     1      -1.797   2.377   3.377  1.00  0.00     0.261 C 
BRANCH   2   3
ATOM      3  O   UNL     1      -2.712   1.994   2.334  1.00  0.00    -0.459 OA
BRANCH   3   4
ATOM      4  C   UNL     1      -2.234   2.170   1.070  1.00  0.00     0.368 C 
ATOM      5  O   UNL     1      -1.137   2.661   0.825  1.00  0.00    -0.245 OA
BRANCH   4   6
ATOM      6  C   UNL     1      -3.249   1.745  -0.032  1.00  0.00     0.195 C 
ATOM      7  C   UNL     1      -2.100  -0.009  -1.255  1.00  0.00     0.053 C 
ATOM      8  C   UNL     1      -3.391  -0.638  -0.748  1.00  0.00     0.022 C 
ATOM      9  C   UNL     1      -2.489   1.461  -1.351  1.00  0.00     0.095 C 
ATOM     10  C   UNL     1      -3.945   0.382   0.261  1.00  0.00     0.082 C 
BRANCH   7  11
ATOM     11  S   UNL     1      -1.560  -0.656  -2.862  1.00  0.00    -0.158 SA
BRANCH  11  12
ATOM     12  C   UNL     1       0.266  -0.701  -2.671  1.00  0.00     0.070 C 
BRANCH  12  13
ATOM     13  C   UNL     1       0.993   0.626  -2.422  1.00  0.00     0.011 C 
BRANCH  13  14
ATOM     14  C   UNL     1       1.225   1.020  -0.961  1.00  0.00    -0.003 C 
ATOM     15  C   UNL     1       2.050   0.027  -0.156  1.00  0.00     0.004 C 
ENDBRANCH  13  14
ENDBRANCH  12  13
ENDBRANCH  11  12
ENDBRANCH   7  11
BRANCH   6  16
ATOM     16  N   UNL     1      -4.300   2.780  -0.186  1.00  0.00    -0.332 N 
ATOM     17  H   UNL     1      -4.968   2.654   0.575  1.00  0.00     0.347 HD
ATOM     18  H   UNL     1      -4.678   2.634  -1.122  1.00  0.00     0.347 HD
BRANCH  16  19
ATOM     19  C   UNL     1      -3.869   4.178  -0.167  1.00  0.00     0.257 C 
ATOM     20  C   UNL     1      -2.926   4.595  -1.284  1.00  0.00     0.071 C 
ENDBRANCH  16  19
ENDBRANCH   6  16
ENDBRANCH   4   6
ENDBRANCH   3   4
ENDBRANCH   2   3
ENDBRANCH   1   2
BRANCH   1  21
ATOM     21  O   UNL     1      -0.202   0.438   3.102  1.00  0.00    -0.374 OA
BRANCH  21  22
ATOM     22  C   UNL     1      -0.830  -0.492   2.225  1.00  0.00     0.202 C 
BRANCH  22  23
ATOM     23  C   UNL     1      -1.035  -1.912   2.747  1.00  0.00     0.261 C 
BRANCH  23  24
ATOM     24  O   UNL     1      -2.037  -1.924   3.773  1.00  0.00    -0.460 OA
BRANCH  24  25
ATOM     25  C   UNL     1      -1.537  -1.937   5.027  1.00  0.00     0.338 C 
ATOM     26  O   UNL     1      -0.372  -2.095   5.360  1.00  0.00    -0.246 OA
BRANCH  25  27
ATOM     27  C   UNL     1      -2.586  -1.523   5.975  1.00  0.00     0.060 A 
ATOM     28  C   UNL     1      -2.206  -0.634   6.988  1.00  0.00     0.016 A 
ATOM     29  C   UNL     1      -3.898  -1.999   5.896  1.00  0.00     0.016 A 
ATOM     30  C   UNL     1      -3.112  -0.283   7.979  1.00  0.00     0.010 A 
ATOM     31  C   UNL     1      -4.808  -1.647   6.894  1.00  0.00     0.010 A 
ATOM     32  C   UNL     1      -4.400  -0.832   7.965  1.00  0.00    -0.014 A 
BRANCH  32  33
ATOM     33  C   UNL     1      -5.243  -0.707   9.173  1.00  0.00     0.031 A 
ATOM     34  C   UNL     1      -5.321  -1.875  10.115  1.00  0.00     0.074 A 
ATOM     35  C   UNL     1      -5.876   0.444   9.451  1.00  0.00     0.049 A 
ATOM     36  N   UNL     1      -6.000  -2.007  11.225  1.00  0.00    -0.248 NA
ATOM     37  C   UNL     1      -4.524  -3.059   9.753  1.00  0.00     0.031 C 
ATOM     38  C   UNL     1      -5.822   1.655   8.636  1.00  0.00     0.029 A 
ATOM     39  N   UNL     1      -6.687   0.779  10.504  1.00  0.00    -0.354 N 
ATOM     40  C   UNL     1      -5.718  -3.286  11.688  1.00  0.00     0.074 A 
ATOM     41  C   UNL     1      -4.841  -3.906  10.720  1.00  0.00     0.031 C 
ATOM     42  C   UNL     1      -6.571   2.606   9.220  1.00  0.00     0.029 A 
ATOM     43  C   UNL     1      -7.184   2.055  10.428  1.00  0.00     0.049 A 
ATOM     44  H   UNL     1      -6.892   0.163  11.244  1.00  0.00     0.167 HD
ATOM     45  C   UNL     1      -6.144  -3.882  12.826  1.00  0.00     0.037 A 
ATOM     46  C   UNL     1      -8.052   2.693  11.235  1.00  0.00     0.037 A 
ATOM     47  C   UNL     1      -7.020  -3.255  13.780  1.00  0.00     0.049 A 
ATOM     48  C   UNL     1      -8.587   1.973  12.446  1.00  0.00     0.074 A 
ATOM     49  C   UNL     1      -7.508  -3.762  14.970  1.00  0.00     0.029 A 
ATOM     50  N   UNL     1      -7.548  -1.978  13.642  1.00  0.00    -0.354 N 
ATOM     51  N   UNL     1      -8.303   0.772  12.892  1.00  0.00    -0.248 NA
ATOM     52  C   UNL     1      -9.563   2.700  13.268  1.00  0.00     0.031 C 
ATOM     53  C   UNL     1      -8.381  -2.818  15.521  1.00  0.00     0.029 A 
ATOM     54  C   UNL     1      -8.383  -1.694  14.711  1.00  0.00     0.049 A 
ATOM     55  H   UNL     1      -7.357  -1.365  12.896  1.00  0.00     0.167 HD
ATOM     56  C   UNL     1      -9.035   0.614  14.062  1.00  0.00     0.074 A 
ATOM     57  C   UNL     1      -9.766   1.848  14.262  1.00  0.00     0.031 C 
ATOM     58  C   UNL     1      -9.095  -0.454  14.897  1.00  0.00     0.037 A 
BRANCH  45  59
ATOM     59  C   UNL     1      -5.698  -5.295  13.076  1.00  0.00     0.064 A 
ATOM     60  C   UNL     1      -4.361  -5.612  13.360  1.00  0.00     0.173 A 
ATOM     61  C   UNL     1      -6.625  -6.348  13.039  1.00  0.00     0.173 A 
ATOM     62  F   UNL     1      -3.429  -4.647  13.392  1.00  0.00    -0.203 F 
ATOM     63  C   UNL     1      -3.963  -6.932  13.562  1.00  0.00     0.198 A 
ATOM     64  C   UNL     1      -6.231  -7.662  13.277  1.00  0.00     0.198 A 
ATOM     65  F   UNL     1      -7.917  -6.103  12.774  1.00  0.00    -0.203 F 
ATOM     66  F   UNL     1      -2.670  -7.217  13.770  1.00  0.00    -0.200 F 
ATOM     67  C   UNL     1      -4.899  -7.955  13.526  1.00  0.00     0.200 A 
ATOM     68  F   UNL     1      -7.140  -8.646  13.256  1.00  0.00    -0.200 F 
ATOM     69  F   UNL     1      -4.516  -9.224  13.723  1.00  0.00    -0.200 F 
ENDBRANCH  45  59
BRANCH  46  70
ATOM     70  C   UNL     1      -8.472   4.085  10.926  1.00  0.00     0.064 A 
ATOM     71  C   UNL     1      -8.116   5.149  11.765  1.00  0.00     0.173 A 
ATOM     72  C   UNL     1      -9.249   4.378   9.795  1.00  0.00     0.173 A 
ATOM     73  F   UNL     1      -7.393   4.917  12.871  1.00  0.00    -0.203 F 
ATOM     74  C   UNL     1      -8.539   6.450  11.498  1.00  0.00     0.198 A 
ATOM     75  C   UNL     1      -9.644   5.683   9.511  1.00  0.00     0.198 A 
ATOM     76  F   UNL     1      -9.617   3.396   8.959  1.00  0.00    -0.203 F 
ATOM     77  F   UNL     1      -8.226   7.440  12.344  1.00  0.00    -0.200 F 
ATOM     78  C   UNL     1      -9.297   6.717  10.368  1.00  0.00     0.200 A 
ATOM     79  F   UNL     1     -10.364   5.939   8.411  1.00  0.00    -0.200 F 
ATOM     80  F   UNL     1      -9.700   7.968  10.109  1.00  0.00    -0.200 F 
ENDBRANCH  46  70
BRANCH  58  81
ATOM     81  C   UNL     1      -9.945  -0.318  16.129  1.00  0.00     0.064 A 
ATOM     82  C   UNL     1     -11.345  -0.270  16.064  1.00  0.00     0.173 A 
ATOM     83  C   UNL     1      -9.346  -0.273  17.398  1.00  0.00     0.173 A 
ATOM     84  F   UNL     1     -11.967  -0.295  14.875  1.00  0.00    -0.203 F 
ATOM     85  C   UNL     1     -12.112  -0.150  17.220  1.00  0.00     0.198 A 
ATOM     86  C   UNL     1     -10.118  -0.191  18.554  1.00  0.00     0.198 A 
ATOM     87  F   UNL     1      -8.011  -0.324  17.520  1.00  0.00    -0.203 F 
ATOM     88  F   UNL     1     -13.446  -0.049  17.128  1.00  0.00    -0.200 F 
ATOM     89  C   UNL     1     -11.499  -0.119  18.463  1.00  0.00     0.200 A 
ATOM     90  F   UNL     1      -9.524  -0.179  19.755  1.00  0.00    -0.200 F 
ATOM     91  F   UNL     1     -12.240  -0.013  19.575  1.00  0.00    -0.200 F 
ENDBRANCH  58  81
ENDBRANCH  32  33
ENDBRANCH  25  27
ENDBRANCH  24  25
ENDBRANCH  23  24
ENDBRANCH  22  23
ENDBRANCH  21  22
ENDBRANCH   1  21
TORSDOF 20
