REMARK SMILES C/C(=C(\C#N)C(=O)OCCOCCOC(=O)c1ccc(-c2c3nc(c(-c4c(F)c(F)c(F)c(F)c4F)c4ccc([nH]4)c(-c4c(F)c(F)c(F)c(F)c4F)c4nc(c(-c5c(F)c(F)c(F)c(F)c5F)c5ccc2[nH]5)C=C4)C=C3)cc1)c1cccc2ccccc12
REMARK SMILES IDX 12 1 11 2 10 3 9 4 8 5 6 6 7 7 3 8 1 9 2 10 80 11 81 12
REMARK SMILES IDX 89 13 82 14 84 15 88 16 83 17 85 18 87 19 86 20 4 21 5 22
REMARK SMILES IDX 13 23 14 24 15 25 16 26 17 27 18 28 79 29 19 30 78 31 20 32
REMARK SMILES IDX 21 33 22 34 72 35 23 36 77 37 71 38 73 39 24 40 76 41 70 42
REMARK SMILES IDX 69 43 25 45 57 46 37 47 56 48 38 49 41 50 55 51 74 52 39 53
REMARK SMILES IDX 40 54 54 56 75 57 42 58 26 59 27 60 35 61 28 62 29 63 33 64
REMARK SMILES IDX 36 65 30 66 31 67 34 68 32 69 58 70 59 71 67 72 60 73 61 74
REMARK SMILES IDX 65 75 68 76 62 77 63 78 66 79 64 80 43 81 44 82 52 83 45 84
REMARK SMILES IDX 46 85 50 86 53 87 47 88 48 89 51 90 49 91
REMARK H PARENT 73 44 41 55
REMARK Flexibility Score: inf
ROOT
ATOM      1  C   UNL     1      -2.387   1.405  -3.850  1.00  0.00     0.202 C 
ENDROOT
BRANCH   1   2
ATOM      2  O   UNL     1      -2.397   1.113  -5.238  1.00  0.00    -0.374 OA
BRANCH   2   3
ATOM      3  C   UNL     1      -2.300  -0.256  -5.623  1.00  0.00     0.202 C 
BRANCH   3   4
ATOM      4  C   UNL     1      -0.982  -0.997  -5.365  1.00  0.00     0.261 C 
BRANCH   4   5
ATOM      5  O   UNL     1      -0.711  -1.135  -3.956  1.00  0.00    -0.459 OA
BRANCH   5   6
ATOM      6  C   UNL     1       0.465  -0.608  -3.506  1.00  0.00     0.349 C 
ATOM      7  O   UNL     1       1.333  -0.120  -4.211  1.00  0.00    -0.245 OA
BRANCH   6   8
ATOM      8  C   UNL     1       0.530  -0.691  -2.011  1.00  0.00     0.140 C 
ATOM      9  C   UNL     1       1.134   0.218   0.274  1.00  0.00     0.047 C 
ATOM     10  C   UNL     1       1.011   0.315  -1.224  1.00  0.00    -0.018 C 
BRANCH  10  11
ATOM     11  C   UNL     1       1.310   1.659  -1.801  1.00  0.00    -0.013 A 
ATOM     12  C   UNL     1       0.201   2.416  -2.195  1.00  0.00     0.009 A 
ATOM     13  C   UNL     1       2.590   2.201  -2.061  1.00  0.00    -0.011 A 
ATOM     14  C   UNL     1       0.326   3.449  -3.119  1.00  0.00     0.001 A 
ATOM     15  C   UNL     1       2.706   3.169  -3.093  1.00  0.00    -0.018 A 
ATOM     16  C   UNL     1       3.743   1.946  -1.291  1.00  0.00     0.009 A 
ATOM     17  C   UNL     1       1.566   3.730  -3.665  1.00  0.00     0.009 A 
ATOM     18  C   UNL     1       3.955   3.666  -3.470  1.00  0.00     0.009 A 
ATOM     19  C   UNL     1       4.922   2.664  -1.513  1.00  0.00     0.001 A 
ATOM     20  C   UNL     1       5.046   3.477  -2.633  1.00  0.00     0.001 A 
ENDBRANCH  10  11
BRANCH   8  21
ATOM     21  C   UNL     1      -0.003  -1.892  -1.450  1.00  0.00     0.107 C 
ATOM     22  N   UNL     1      -0.472  -2.842  -0.980  1.00  0.00    -0.192 NA
ENDBRANCH   8  21
ENDBRANCH   6   8
ENDBRANCH   5   6
ENDBRANCH   4   5
ENDBRANCH   3   4
ENDBRANCH   2   3
ENDBRANCH   1   2
BRANCH   1  23
ATOM     23  C   UNL     1      -3.656   1.232  -3.013  1.00  0.00     0.261 C 
BRANCH  23  24
ATOM     24  O   UNL     1      -4.350   0.022  -3.283  1.00  0.00    -0.460 OA
BRANCH  24  25
ATOM     25  C   UNL     1      -5.283   0.155  -4.254  1.00  0.00     0.338 C 
ATOM     26  O   UNL     1      -5.617   1.166  -4.845  1.00  0.00    -0.246 OA
BRANCH  25  27
ATOM     27  C   UNL     1      -5.748  -1.186  -4.617  1.00  0.00     0.060 A 
ATOM     28  C   UNL     1      -5.645  -1.578  -5.956  1.00  0.00     0.016 A 
ATOM     29  C   UNL     1      -6.294  -2.030  -3.650  1.00  0.00     0.016 A 
ATOM     30  C   UNL     1      -6.137  -2.815  -6.348  1.00  0.00     0.010 A 
ATOM     31  C   UNL     1      -6.795  -3.264  -4.045  1.00  0.00     0.010 A 
ATOM     32  C   UNL     1      -6.751  -3.642  -5.400  1.00  0.00    -0.014 A 
BRANCH  32  33
ATOM     33  C   UNL     1      -7.508  -4.833  -5.832  1.00  0.00     0.031 A 
ATOM     34  C   UNL     1      -9.005  -4.749  -5.857  1.00  0.00     0.074 A 
ATOM     35  C   UNL     1      -6.870  -5.966  -6.164  1.00  0.00     0.049 A 
ATOM     36  N   UNL     1      -9.887  -5.693  -6.053  1.00  0.00    -0.248 NA
ATOM     37  C   UNL     1      -9.588  -3.419  -5.611  1.00  0.00     0.031 C 
ATOM     38  C   UNL     1      -5.420  -6.134  -6.215  1.00  0.00     0.029 A 
ATOM     39  N   UNL     1      -7.369  -7.198  -6.497  1.00  0.00    -0.354 N 
ATOM     40  C   UNL     1     -11.125  -5.077  -5.935  1.00  0.00     0.074 A 
ATOM     41  C   UNL     1     -10.885  -3.687  -5.617  1.00  0.00     0.031 C 
ATOM     42  C   UNL     1      -5.143  -7.408  -6.541  1.00  0.00     0.029 A 
ATOM     43  C   UNL     1      -6.395  -8.150  -6.669  1.00  0.00     0.049 A 
ATOM     44  H   UNL     1      -8.330  -7.382  -6.601  1.00  0.00     0.167 HD
ATOM     45  C   UNL     1     -12.352  -5.628  -6.086  1.00  0.00     0.037 A 
ATOM     46  C   UNL     1      -6.513  -9.476  -6.868  1.00  0.00     0.037 A 
ATOM     47  C   UNL     1     -12.569  -7.015  -6.399  1.00  0.00     0.049 A 
ATOM     48  C   UNL     1      -7.891 -10.084  -6.944  1.00  0.00     0.074 A 
ATOM     49  C   UNL     1     -13.767  -7.677  -6.592  1.00  0.00     0.029 A 
ATOM     50  N   UNL     1     -11.560  -7.955  -6.553  1.00  0.00    -0.354 N 
ATOM     51  N   UNL     1      -9.062  -9.499  -6.853  1.00  0.00    -0.248 NA
ATOM     52  C   UNL     1      -7.965 -11.537  -7.151  1.00  0.00     0.031 C 
ATOM     53  C   UNL     1     -13.487  -9.032  -6.791  1.00  0.00     0.029 A 
ATOM     54  C   UNL     1     -12.111  -9.200  -6.808  1.00  0.00     0.049 A 
ATOM     55  H   UNL     1     -10.595  -7.766  -6.490  1.00  0.00     0.167 HD
ATOM     56  C   UNL     1     -10.007 -10.500  -7.035  1.00  0.00     0.074 A 
ATOM     57  C   UNL     1      -9.274 -11.731  -7.243  1.00  0.00     0.031 C 
ATOM     58  C   UNL     1     -11.360 -10.409  -7.038  1.00  0.00     0.037 A 
BRANCH  45  59
ATOM     59  C   UNL     1     -13.546  -4.743  -5.878  1.00  0.00     0.064 A 
ATOM     60  C   UNL     1     -13.858  -3.697  -6.760  1.00  0.00     0.173 A 
ATOM     61  C   UNL     1     -14.410  -4.964  -4.794  1.00  0.00     0.173 A 
ATOM     62  F   UNL     1     -13.060  -3.433  -7.805  1.00  0.00    -0.203 F 
ATOM     63  C   UNL     1     -14.972  -2.888  -6.547  1.00  0.00     0.198 A 
ATOM     64  C   UNL     1     -15.543  -4.177  -4.606  1.00  0.00     0.198 A 
ATOM     65  F   UNL     1     -14.161  -5.951  -3.920  1.00  0.00    -0.203 F 
ATOM     66  F   UNL     1     -15.218  -1.860  -7.371  1.00  0.00    -0.200 F 
ATOM     67  C   UNL     1     -15.817  -3.134  -5.476  1.00  0.00     0.200 A 
ATOM     68  F   UNL     1     -16.368  -4.429  -3.580  1.00  0.00    -0.200 F 
ATOM     69  F   UNL     1     -16.894  -2.362  -5.279  1.00  0.00    -0.200 F 
ENDBRANCH  45  59
BRANCH  46  70
ATOM     70  C   UNL     1      -5.296 -10.321  -6.993  1.00  0.00     0.064 A 
ATOM     71  C   UNL     1      -4.989 -10.968  -8.198  1.00  0.00     0.173 A 
ATOM     72  C   UNL     1      -4.425 -10.515  -5.910  1.00  0.00     0.173 A 
ATOM     73  F   UNL     1      -5.801 -10.830  -9.257  1.00  0.00    -0.203 F 
ATOM     74  C   UNL     1      -3.875 -11.797  -8.307  1.00  0.00     0.198 A 
ATOM     75  C   UNL     1      -3.292 -11.316  -6.030  1.00  0.00     0.198 A 
ATOM     76  F   UNL     1      -4.670  -9.917  -4.734  1.00  0.00    -0.203 F 
ATOM     77  F   UNL     1      -3.638 -12.448  -9.454  1.00  0.00    -0.200 F 
ATOM     78  C   UNL     1      -3.024 -11.966  -7.225  1.00  0.00     0.200 A 
ATOM     79  F   UNL     1      -2.463 -11.462  -4.988  1.00  0.00    -0.200 F 
ATOM     80  F   UNL     1      -1.952 -12.762  -7.331  1.00  0.00    -0.200 F 
ENDBRANCH  46  70
BRANCH  58  81
ATOM     81  C   UNL     1     -12.146 -11.652  -7.345  1.00  0.00     0.064 A 
ATOM     82  C   UNL     1     -12.241 -12.716  -6.439  1.00  0.00     0.173 A 
ATOM     83  C   UNL     1     -12.884 -11.736  -8.537  1.00  0.00     0.173 A 
ATOM     84  F   UNL     1     -11.546 -12.692  -5.292  1.00  0.00    -0.203 F 
ATOM     85  C   UNL     1     -13.035 -13.826  -6.720  1.00  0.00     0.198 A 
ATOM     86  C   UNL     1     -13.705 -12.829  -8.798  1.00  0.00     0.198 A 
ATOM     87  F   UNL     1     -12.835 -10.741  -9.435  1.00  0.00    -0.203 F 
ATOM     88  F   UNL     1     -13.081 -14.850  -5.857  1.00  0.00    -0.200 F 
ATOM     89  C   UNL     1     -13.775 -13.875  -7.892  1.00  0.00     0.200 A 
ATOM     90  F   UNL     1     -14.436 -12.863  -9.921  1.00  0.00    -0.200 F 
ATOM     91  F   UNL     1     -14.557 -14.933  -8.149  1.00  0.00    -0.200 F 
ENDBRANCH  58  81
ENDBRANCH  32  33
ENDBRANCH  25  27
ENDBRANCH  24  25
ENDBRANCH  23  24
ENDBRANCH   1  23
TORSDOF 16
