REMARK SMILES O=C(OCCOCCOC(=O)[C@H]1CC=CC[C@H]1c1nc2cc(Br)ccc2o1)c1ccc(-c2c3nc(c(-c4c(F)c(F)c(F)c(F)c4F)c4ccc([nH]4)c(-c4c(F)c(F)c(F)c(F)c4F)c4nc(c(-c5c(F)c(F)c(F)c(F)c5F)c5ccc2[nH]5)C=C4)C=C3)cc1
REMARK SMILES IDX 5 1 4 2 3 3 2 4 1 5 28 6 29 7 90 8 30 9 89 10 31 11 32 12
REMARK SMILES IDX 33 13 83 14 34 15 88 16 82 17 84 18 35 19 87 20 81 21 80 22
REMARK SMILES IDX 36 24 68 25 48 26 67 27 49 28 52 29 66 30 85 31 50 32 51 33
REMARK SMILES IDX 65 35 86 36 53 37 37 38 38 39 46 40 39 41 40 42 44 43 47 44
REMARK SMILES IDX 41 45 42 46 45 47 43 48 69 49 70 50 78 51 71 52 72 53 76 54
REMARK SMILES IDX 79 55 73 56 74 57 77 58 75 59 54 60 55 61 63 62 56 63 57 64
REMARK SMILES IDX 61 65 64 66 58 67 59 68 62 69 60 70 6 71 7 72 8 73 9 74
REMARK SMILES IDX 10 75 11 76 12 77 13 78 17 79 14 80 16 81 15 82 18 83 19 84
REMARK SMILES IDX 27 85 20 86 26 87 21 88 25 89 22 90 24 91 23 92
REMARK H PARENT 84 23 52 34
REMARK Flexibility Score: inf
ROOT
ATOM      1  C   UNL     1       3.159  -0.484   0.315  1.00  0.00     0.202 C 
ENDROOT
BRANCH   1   2
ATOM      2  C   UNL     1       3.577   0.485   1.429  1.00  0.00     0.261 C 
BRANCH   2   3
ATOM      3  O   UNL     1       2.801   1.702   1.566  1.00  0.00    -0.460 OA
BRANCH   3   4
ATOM      4  C   UNL     1       2.564   2.640   0.601  1.00  0.00     0.338 C 
ATOM      5  O   UNL     1       1.665   3.463   0.729  1.00  0.00    -0.246 OA
BRANCH   4   6
ATOM      6  C   UNL     1       3.373   2.599  -0.646  1.00  0.00     0.060 A 
ATOM      7  C   UNL     1       2.740   2.728  -1.894  1.00  0.00     0.016 A 
ATOM      8  C   UNL     1       4.694   2.194  -0.588  1.00  0.00     0.016 A 
ATOM      9  C   UNL     1       3.379   2.267  -3.060  1.00  0.00     0.010 A 
ATOM     10  C   UNL     1       5.231   1.562  -1.696  1.00  0.00     0.010 A 
ATOM     11  C   UNL     1       4.603   1.598  -2.957  1.00  0.00    -0.014 A 
BRANCH  11  12
ATOM     12  C   UNL     1       5.507   1.344  -4.106  1.00  0.00     0.031 A 
ATOM     13  C   UNL     1       6.432   2.505  -4.200  1.00  0.00     0.074 A 
ATOM     14  C   UNL     1       5.668   0.335  -5.000  1.00  0.00     0.049 A 
ATOM     15  N   UNL     1       6.200   3.529  -4.954  1.00  0.00    -0.248 NA
ATOM     16  C   UNL     1       7.497   2.718  -3.207  1.00  0.00     0.031 C 
ATOM     17  C   UNL     1       4.922  -0.900  -5.225  1.00  0.00     0.029 A 
ATOM     18  N   UNL     1       6.664   0.227  -5.950  1.00  0.00    -0.354 N 
ATOM     19  C   UNL     1       7.175   4.450  -4.629  1.00  0.00     0.074 A 
ATOM     20  C   UNL     1       7.737   4.018  -3.381  1.00  0.00     0.031 C 
ATOM     21  C   UNL     1       5.588  -1.709  -6.095  1.00  0.00     0.029 A 
ATOM     22  C   UNL     1       6.781  -1.023  -6.569  1.00  0.00     0.049 A 
ATOM     23  H   UNL     1       7.255   0.981  -6.178  1.00  0.00     0.167 HD
ATOM     24  C   UNL     1       7.630   5.331  -5.556  1.00  0.00     0.037 A 
ATOM     25  C   UNL     1       7.583  -1.397  -7.610  1.00  0.00     0.037 A 
ATOM     26  C   UNL     1       6.752   5.378  -6.701  1.00  0.00     0.049 A 
ATOM     27  C   UNL     1       7.802  -0.146  -8.376  1.00  0.00     0.074 A 
ATOM     28  C   UNL     1       5.425   5.722  -6.884  1.00  0.00     0.029 A 
ATOM     29  N   UNL     1       7.090   4.612  -7.792  1.00  0.00    -0.354 N 
ATOM     30  N   UNL     1       6.858   0.436  -9.061  1.00  0.00    -0.248 NA
ATOM     31  C   UNL     1       8.927   0.696  -8.002  1.00  0.00     0.031 C 
ATOM     32  C   UNL     1       4.915   4.777  -7.823  1.00  0.00     0.029 A 
ATOM     33  C   UNL     1       5.965   3.951  -8.219  1.00  0.00     0.049 A 
ATOM     34  H   UNL     1       7.986   4.549  -8.197  1.00  0.00     0.167 HD
ATOM     35  C   UNL     1       7.040   1.786  -8.812  1.00  0.00     0.074 A 
ATOM     36  C   UNL     1       8.376   1.892  -8.226  1.00  0.00     0.031 C 
ATOM     37  C   UNL     1       5.985   2.650  -8.846  1.00  0.00     0.037 A 
BRANCH  24  38
ATOM     38  C   UNL     1       9.040   5.849  -5.570  1.00  0.00     0.064 A 
ATOM     39  C   UNL     1       9.369   6.903  -6.438  1.00  0.00     0.173 A 
ATOM     40  C   UNL     1      10.137   5.204  -4.950  1.00  0.00     0.173 A 
ATOM     41  F   UNL     1       8.410   7.559  -7.108  1.00  0.00    -0.203 F 
ATOM     42  C   UNL     1      10.696   7.251  -6.699  1.00  0.00     0.198 A 
ATOM     43  C   UNL     1      11.453   5.598  -5.161  1.00  0.00     0.198 A 
ATOM     44  F   UNL     1      10.002   4.096  -4.213  1.00  0.00    -0.203 F 
ATOM     45  F   UNL     1      10.967   8.182  -7.622  1.00  0.00    -0.200 F 
ATOM     46  C   UNL     1      11.736   6.602  -6.057  1.00  0.00     0.200 A 
ATOM     47  F   UNL     1      12.443   4.935  -4.546  1.00  0.00    -0.200 F 
ATOM     48  F   UNL     1      13.009   6.903  -6.342  1.00  0.00    -0.200 F 
ENDBRANCH  24  38
BRANCH  25  49
ATOM     49  C   UNL     1       8.552  -2.543  -7.747  1.00  0.00     0.064 A 
ATOM     50  C   UNL     1       9.217  -2.778  -8.966  1.00  0.00     0.173 A 
ATOM     51  C   UNL     1       9.067  -3.269  -6.660  1.00  0.00     0.173 A 
ATOM     52  F   UNL     1       8.819  -2.145 -10.078  1.00  0.00    -0.203 F 
ATOM     53  C   UNL     1      10.340  -3.620  -9.064  1.00  0.00     0.198 A 
ATOM     54  C   UNL     1      10.193  -4.098  -6.745  1.00  0.00     0.198 A 
ATOM     55  F   UNL     1       8.530  -3.163  -5.453  1.00  0.00    -0.203 F 
ATOM     56  F   UNL     1      10.965  -3.769 -10.241  1.00  0.00    -0.200 F 
ATOM     57  C   UNL     1      10.843  -4.261  -7.946  1.00  0.00     0.200 A 
ATOM     58  F   UNL     1      10.666  -4.692  -5.639  1.00  0.00    -0.200 F 
ATOM     59  F   UNL     1      11.953  -5.009  -8.020  1.00  0.00    -0.200 F 
ENDBRANCH  25  49
BRANCH  37  60
ATOM     60  C   UNL     1       4.677   2.130  -9.384  1.00  0.00     0.064 A 
ATOM     61  C   UNL     1       3.903   1.145  -8.747  1.00  0.00     0.173 A 
ATOM     62  C   UNL     1       4.114   2.755 -10.502  1.00  0.00     0.173 A 
ATOM     63  F   UNL     1       4.328   0.563  -7.624  1.00  0.00    -0.203 F 
ATOM     64  C   UNL     1       2.642   0.784  -9.218  1.00  0.00     0.198 A 
ATOM     65  C   UNL     1       2.840   2.418 -10.954  1.00  0.00     0.198 A 
ATOM     66  F   UNL     1       4.784   3.735 -11.128  1.00  0.00    -0.203 F 
ATOM     67  F   UNL     1       1.929  -0.161  -8.585  1.00  0.00    -0.200 F 
ATOM     68  C   UNL     1       2.106   1.429 -10.318  1.00  0.00     0.200 A 
ATOM     69  F   UNL     1       2.308   3.078 -11.993  1.00  0.00    -0.200 F 
ATOM     70  F   UNL     1       0.875   1.120 -10.747  1.00  0.00    -0.200 F 
ENDBRANCH  37  60
ENDBRANCH  11  12
ENDBRANCH   4   6
ENDBRANCH   3   4
ENDBRANCH   2   3
ENDBRANCH   1   2
BRANCH   1  71
ATOM     71  O   UNL     1       2.353   0.106  -0.681  1.00  0.00    -0.374 OA
BRANCH  71  72
ATOM     72  C   UNL     1       1.371  -0.730  -1.263  1.00  0.00     0.202 C 
BRANCH  72  73
ATOM     73  C   UNL     1       1.836  -1.550  -2.470  1.00  0.00     0.261 C 
BRANCH  73  74
ATOM     74  O   UNL     1       2.728  -2.647  -2.140  1.00  0.00    -0.463 OA
BRANCH  74  75
ATOM     75  C   UNL     1       4.051  -2.333  -2.232  1.00  0.00     0.310 C 
ATOM     76  O   UNL     1       4.447  -1.210  -2.437  1.00  0.00    -0.252 OA
BRANCH  75  77
ATOM     77  C   UNL     1       4.988  -3.528  -2.087  1.00  0.00     0.115 C 
ATOM     78  C   UNL     1       5.887  -3.608  -3.328  1.00  0.00     0.043 C 
ATOM     79  C   UNL     1       5.927  -3.413  -0.869  1.00  0.00     0.094 C 
ATOM     80  C   UNL     1       6.971  -2.560  -3.303  1.00  0.00    -0.030 C 
ATOM     81  C   UNL     1       6.788  -2.134  -0.882  1.00  0.00     0.041 C 
ATOM     82  C   UNL     1       7.379  -1.883  -2.225  1.00  0.00    -0.030 C 
BRANCH  79  83
ATOM     83  C   UNL     1       5.207  -3.569   0.411  1.00  0.00     0.199 A 
ATOM     84  N   UNL     1       4.771  -2.636   1.229  1.00  0.00    -0.213 NA
ATOM     85  O   UNL     1       4.952  -4.852   0.809  1.00  0.00    -0.440 OA
ATOM     86  C   UNL     1       4.107  -3.336   2.193  1.00  0.00     0.111 A 
ATOM     87  C   UNL     1       4.247  -4.693   1.964  1.00  0.00     0.154 A 
ATOM     88  C   UNL     1       3.344  -2.894   3.275  1.00  0.00     0.048 A 
ATOM     89  C   UNL     1       3.727  -5.685   2.779  1.00  0.00     0.050 A 
ATOM     90  C   UNL     1       2.772  -3.864   4.098  1.00  0.00     0.020 A 
ATOM     91  C   UNL     1       2.974  -5.230   3.871  1.00  0.00     0.019 A 
ATOM     92  Br  UNL     1       1.685  -3.300   5.540  1.00  0.00    -0.051 Br
ENDBRANCH  79  83
ENDBRANCH  75  77
ENDBRANCH  74  75
ENDBRANCH  73  74
ENDBRANCH  72  73
ENDBRANCH  71  72
ENDBRANCH   1  71
TORSDOF 15
