REMARK SMILES [NH3+][C@H]1CN(C(=O)OCC2c3ccccc3-c3ccccc32)C[C@@H]1C(=O)OCCOCCOC(=O)c1ccc(-c2c3nc(c(-c4c(F)c(F)c(F)c(F)c4F)c4ccc([nH]4)c(-c4c(F)c(F)c(F)c(F)c4F)c4nc(c(-c5c(F)c(F)c(F)c(F)c5F)c5ccc2[nH]5)C=C4)C=C3)cc1
REMARK SMILES IDX 28 1 27 2 26 3 24 4 25 5 23 6 2 7 3 8 4 9 22 10 1 11 5 15
REMARK SMILES IDX 6 16 7 17 8 18 9 19 10 20 21 21 11 22 15 23 16 24 20 25
REMARK SMILES IDX 12 26 14 27 17 28 19 29 13 30 18 31 29 32 30 33 31 34 32 35
REMARK SMILES IDX 33 36 34 37 35 38 36 39 97 40 37 41 96 42 38 43 39 44 40 45
REMARK SMILES IDX 90 46 41 47 95 48 89 49 91 50 42 51 94 52 88 53 87 54 43 56
REMARK SMILES IDX 75 57 55 58 74 59 56 60 59 61 73 62 92 63 57 64 58 65 72 67
REMARK SMILES IDX 93 68 60 69 44 70 45 71 53 72 46 73 47 74 51 75 54 76 48 77
REMARK SMILES IDX 49 78 52 79 50 80 76 81 77 82 85 83 78 84 79 85 83 86 86 87
REMARK SMILES IDX 80 88 81 89 84 90 82 91 61 92 62 93 70 94 63 95 64 96 68 97
REMARK SMILES IDX 71 98 65 99 66 100 69 101 67 102
REMARK H PARENT 1 12 1 13 1 14 91 55 59 66
REMARK Flexibility Score: inf
ROOT
ATOM      1  C   UNL     1       5.328  -0.992   0.697  1.00  0.00     0.202 C 
ENDROOT
BRANCH   1   2
ATOM      2  C   UNL     1       5.020  -0.882   2.196  1.00  0.00     0.261 C 
BRANCH   2   3
ATOM      3  O   UNL     1       3.620  -0.994   2.506  1.00  0.00    -0.463 OA
BRANCH   3   4
ATOM      4  C   UNL     1       2.992   0.212   2.590  1.00  0.00     0.316 C 
ATOM      5  O   UNL     1       3.543   1.279   2.352  1.00  0.00    -0.252 OA
BRANCH   4   6
ATOM      6  C   UNL     1       1.519   0.057   2.919  1.00  0.00     0.178 C 
ATOM      7  C   UNL     1       0.598   0.556   1.785  1.00  0.00     0.216 C 
ATOM      8  C   UNL     1       0.641   2.096   1.951  1.00  0.00     0.188 C 
ATOM      9  N   UNL     1       1.078   2.304   3.318  1.00  0.00    -0.301 N 
ATOM     10  C   UNL     1       1.225   1.046   4.028  1.00  0.00     0.145 C 
BRANCH   7  11
ATOM     11  N   UNL     1      -0.773   0.038   1.950  1.00  0.00    -0.353 N 
ATOM     12  H   UNL     1      -1.360   0.382   1.191  1.00  0.00     0.344 HD
ATOM     13  H   UNL     1      -1.151   0.356   2.843  1.00  0.00     0.344 HD
ATOM     14  H   UNL     1      -0.755  -0.981   1.932  1.00  0.00     0.344 HD
ENDBRANCH   7  11
BRANCH   9  15
ATOM     15  C   UNL     1       1.806   3.411   3.674  1.00  0.00     0.410 C 
ATOM     16  O   UNL     1       2.723   3.396   4.482  1.00  0.00    -0.224 OA
BRANCH  15  17
ATOM     17  O   UNL     1       1.267   4.534   3.130  1.00  0.00    -0.448 OA
BRANCH  17  18
ATOM     18  C   UNL     1       1.636   5.740   3.815  1.00  0.00     0.248 C 
BRANCH  18  19
ATOM     19  C   UNL     1       0.663   6.049   4.978  1.00  0.00     0.088 C 
ATOM     20  C   UNL     1       0.845   5.173   6.220  1.00  0.00    -0.029 A 
ATOM     21  C   UNL     1       0.975   7.429   5.549  1.00  0.00    -0.029 A 
ATOM     22  C   UNL     1       0.530   3.834   6.404  1.00  0.00     0.005 A 
ATOM     23  C   UNL     1       1.406   5.924   7.271  1.00  0.00    -0.014 A 
ATOM     24  C   UNL     1       1.433   7.315   6.880  1.00  0.00    -0.014 A 
ATOM     25  C   UNL     1       0.845   8.663   4.932  1.00  0.00     0.005 A 
ATOM     26  C   UNL     1       0.939   3.204   7.580  1.00  0.00     0.000 A 
ATOM     27  C   UNL     1       1.793   5.307   8.451  1.00  0.00     0.009 A 
ATOM     28  C   UNL     1       1.748   8.445   7.613  1.00  0.00     0.009 A 
ATOM     29  C   UNL     1       1.165   9.802   5.672  1.00  0.00     0.000 A 
ATOM     30  C   UNL     1       1.587   3.931   8.587  1.00  0.00     0.001 A 
ATOM     31  C   UNL     1       1.608   9.694   7.001  1.00  0.00     0.001 A 
ENDBRANCH  18  19
ENDBRANCH  17  18
ENDBRANCH  15  17
ENDBRANCH   9  15
ENDBRANCH   4   6
ENDBRANCH   3   4
ENDBRANCH   2   3
ENDBRANCH   1   2
BRANCH   1  32
ATOM     32  O   UNL     1       4.811  -0.000  -0.189  1.00  0.00    -0.374 OA
BRANCH  32  33
ATOM     33  C   UNL     1       3.428  -0.075  -0.521  1.00  0.00     0.202 C 
BRANCH  33  34
ATOM     34  C   UNL     1       3.013  -1.036  -1.635  1.00  0.00     0.261 C 
BRANCH  34  35
ATOM     35  O   UNL     1       3.288  -2.398  -1.272  1.00  0.00    -0.460 OA
BRANCH  35  36
ATOM     36  C   UNL     1       4.385  -2.913  -1.875  1.00  0.00     0.338 C 
ATOM     37  O   UNL     1       5.055  -2.402  -2.756  1.00  0.00    -0.246 OA
BRANCH  36  38
ATOM     38  C   UNL     1       4.802  -4.144  -1.181  1.00  0.00     0.060 A 
ATOM     39  C   UNL     1       6.151  -4.241  -0.816  1.00  0.00     0.016 A 
ATOM     40  C   UNL     1       3.920  -5.200  -0.943  1.00  0.00     0.016 A 
ATOM     41  C   UNL     1       6.643  -5.425  -0.278  1.00  0.00     0.010 A 
ATOM     42  C   UNL     1       4.418  -6.393  -0.412  1.00  0.00     0.010 A 
ATOM     43  C   UNL     1       5.788  -6.522  -0.123  1.00  0.00    -0.014 A 
BRANCH  43  44
ATOM     44  C   UNL     1       6.371  -7.851   0.171  1.00  0.00     0.031 A 
ATOM     45  C   UNL     1       6.561  -8.820  -0.964  1.00  0.00     0.074 A 
ATOM     46  C   UNL     1       6.763  -8.169   1.417  1.00  0.00     0.049 A 
ATOM     47  N   UNL     1       7.014 -10.047  -0.942  1.00  0.00    -0.248 NA
ATOM     48  C   UNL     1       6.186  -8.343  -2.306  1.00  0.00     0.031 C 
ATOM     49  C   UNL     1       6.667  -7.292   2.581  1.00  0.00     0.029 A 
ATOM     50  N   UNL     1       7.314  -9.325   1.908  1.00  0.00    -0.354 N 
ATOM     51  C   UNL     1       6.966 -10.489  -2.258  1.00  0.00     0.074 A 
ATOM     52  C   UNL     1       6.417  -9.413  -3.051  1.00  0.00     0.031 C 
ATOM     53  C   UNL     1       7.132  -7.947   3.659  1.00  0.00     0.029 A 
ATOM     54  C   UNL     1       7.523  -9.299   3.265  1.00  0.00     0.049 A 
ATOM     55  H   UNL     1       7.539 -10.099   1.343  1.00  0.00     0.167 HD
ATOM     56  C   UNL     1       7.356 -11.686  -2.756  1.00  0.00     0.037 A 
ATOM     57  C   UNL     1       7.957 -10.269   4.093  1.00  0.00     0.037 A 
ATOM     58  C   UNL     1       7.918 -12.745  -1.962  1.00  0.00     0.049 A 
ATOM     59  C   UNL     1       8.326 -11.613   3.515  1.00  0.00     0.074 A 
ATOM     60  C   UNL     1       8.373 -13.985  -2.376  1.00  0.00     0.029 A 
ATOM     61  N   UNL     1       8.096 -12.691  -0.587  1.00  0.00    -0.354 N 
ATOM     62  N   UNL     1       8.309 -12.013   2.267  1.00  0.00    -0.248 NA
ATOM     63  C   UNL     1       8.781 -12.639   4.464  1.00  0.00     0.031 C 
ATOM     64  C   UNL     1       8.773 -14.702  -1.244  1.00  0.00     0.029 A 
ATOM     65  C   UNL     1       8.627 -13.887  -0.134  1.00  0.00     0.049 A 
ATOM     66  H   UNL     1       7.877 -11.917  -0.019  1.00  0.00     0.167 HD
ATOM     67  C   UNL     1       8.781 -13.319   2.276  1.00  0.00     0.074 A 
ATOM     68  C   UNL     1       9.091 -13.640   3.653  1.00  0.00     0.031 C 
ATOM     69  C   UNL     1       8.944 -14.179   1.240  1.00  0.00     0.037 A 
BRANCH  56  70
ATOM     70  C   UNL     1       7.170 -11.931  -4.225  1.00  0.00     0.064 A 
ATOM     71  C   UNL     1       7.971 -11.302  -5.188  1.00  0.00     0.173 A 
ATOM     72  C   UNL     1       6.219 -12.863  -4.669  1.00  0.00     0.173 A 
ATOM     73  F   UNL     1       8.884 -10.391  -4.817  1.00  0.00    -0.203 F 
ATOM     74  C   UNL     1       7.821 -11.590  -6.543  1.00  0.00     0.198 A 
ATOM     75  C   UNL     1       6.091 -13.170  -6.021  1.00  0.00     0.198 A 
ATOM     76  F   UNL     1       5.428 -13.494  -3.788  1.00  0.00    -0.203 F 
ATOM     77  F   UNL     1       8.576 -10.954  -7.449  1.00  0.00    -0.200 F 
ATOM     78  C   UNL     1       6.890 -12.531  -6.956  1.00  0.00     0.200 A 
ATOM     79  F   UNL     1       5.200 -14.089  -6.416  1.00  0.00    -0.200 F 
ATOM     80  F   UNL     1       6.760 -12.820  -8.258  1.00  0.00    -0.200 F 
ENDBRANCH  56  70
BRANCH  57  81
ATOM     81  C   UNL     1       8.041 -10.024   5.557  1.00  0.00     0.064 A 
ATOM     82  C   UNL     1       9.274 -10.027   6.225  1.00  0.00     0.173 A 
ATOM     83  C   UNL     1       6.885  -9.829   6.327  1.00  0.00     0.173 A 
ATOM     84  F   UNL     1      10.407 -10.233   5.537  1.00  0.00    -0.203 F 
ATOM     85  C   UNL     1       9.344  -9.878   7.609  1.00  0.00     0.198 A 
ATOM     86  C   UNL     1       6.959  -9.646   7.707  1.00  0.00     0.198 A 
ATOM     87  F   UNL     1       5.679  -9.817   5.740  1.00  0.00    -0.203 F 
ATOM     88  F   UNL     1      10.530  -9.951   8.228  1.00  0.00    -0.200 F 
ATOM     89  C   UNL     1       8.188  -9.684   8.348  1.00  0.00     0.200 A 
ATOM     90  F   UNL     1       5.839  -9.445   8.414  1.00  0.00    -0.200 F 
ATOM     91  F   UNL     1       8.255  -9.547   9.679  1.00  0.00    -0.200 F 
ENDBRANCH  57  81
BRANCH  69  92
ATOM     92  C   UNL     1       9.527 -15.529   1.547  1.00  0.00     0.064 A 
ATOM     93  C   UNL     1       8.802 -16.506   2.245  1.00  0.00     0.173 A 
ATOM     94  C   UNL     1      10.813 -15.863   1.096  1.00  0.00     0.173 A 
ATOM     95  F   UNL     1       7.573 -16.232   2.709  1.00  0.00    -0.203 F 
ATOM     96  C   UNL     1       9.356 -17.756   2.506  1.00  0.00     0.198 A 
ATOM     97  C   UNL     1      11.350 -17.126   1.328  1.00  0.00     0.198 A 
ATOM     98  F   UNL     1      11.545 -14.968   0.414  1.00  0.00    -0.203 F 
ATOM     99  F   UNL     1       8.666 -18.655   3.221  1.00  0.00    -0.200 F 
ATOM    100  C   UNL     1      10.625 -18.068   2.041  1.00  0.00     0.200 A 
ATOM    101  F   UNL     1      12.569 -17.430   0.862  1.00  0.00    -0.200 F 
ATOM    102  F   UNL     1      11.152 -19.275   2.286  1.00  0.00    -0.200 F 
ENDBRANCH  69  92
ENDBRANCH  43  44
ENDBRANCH  36  38
ENDBRANCH  35  36
ENDBRANCH  34  35
ENDBRANCH  33  34
ENDBRANCH  32  33
ENDBRANCH   1  32
TORSDOF 19
