REMARK SMILES O=C(OCCOCCOC(=O)c1ccc(NC2CC2)c(F)c1F)c1ccc(-c2c3nc(c(-c4c(F)c(F)c(F)c(F)c4F)c4ccc([nH]4)c(-c4c(F)c(F)c(F)c(F)c4F)c4nc(c(-c5c(F)c(F)c(F)c(F)c5F)c5ccc2[nH]5)C=C4)C=C3)cc1
REMARK SMILES IDX 6 1 5 2 4 3 3 4 2 5 1 6 24 7 25 8 86 9 26 10 85 11 27 12
REMARK SMILES IDX 28 13 29 14 79 15 30 16 84 17 78 18 80 19 31 20 83 21 77 22
REMARK SMILES IDX 76 23 32 25 64 26 44 27 63 28 45 29 48 30 62 31 81 32 46 33
REMARK SMILES IDX 47 34 61 36 82 37 49 38 33 39 34 40 42 41 35 42 36 43 40 44
REMARK SMILES IDX 43 45 37 46 38 47 41 48 39 49 65 50 66 51 74 52 67 53 68 54
REMARK SMILES IDX 72 55 75 56 69 57 70 58 73 59 71 60 50 61 51 62 59 63 52 64
REMARK SMILES IDX 53 65 57 66 60 67 54 68 55 69 58 70 56 71 7 72 8 73 9 74
REMARK SMILES IDX 10 75 11 76 12 77 13 78 22 79 14 80 20 81 23 82 15 83 21 84
REMARK SMILES IDX 16 85 17 87 18 88 19 89
REMARK H PARENT 80 24 48 35 16 86
REMARK Flexibility Score: inf
ROOT
ATOM      1  O   UNL     1       4.080   1.629  -0.527  1.00  0.00    -0.374 OA
ENDROOT
BRANCH   1   2
ATOM      2  C   UNL     1       4.307   0.705  -1.590  1.00  0.00     0.202 C 
BRANCH   2   3
ATOM      3  C   UNL     1       3.956  -0.745  -1.249  1.00  0.00     0.261 C 
BRANCH   3   4
ATOM      4  O   UNL     1       2.578  -0.847  -0.853  1.00  0.00    -0.460 OA
BRANCH   4   5
ATOM      5  C   UNL     1       2.076  -1.012   0.393  1.00  0.00     0.338 C 
ATOM      6  O   UNL     1       0.862  -1.159   0.525  1.00  0.00    -0.246 OA
BRANCH   5   7
ATOM      7  C   UNL     1       2.913  -1.025   1.631  1.00  0.00     0.060 A 
ATOM      8  C   UNL     1       4.125  -0.349   1.780  1.00  0.00     0.016 A 
ATOM      9  C   UNL     1       2.385  -1.682   2.755  1.00  0.00     0.016 A 
ATOM     10  C   UNL     1       4.823  -0.362   2.976  1.00  0.00     0.010 A 
ATOM     11  C   UNL     1       3.059  -1.667   3.980  1.00  0.00     0.010 A 
ATOM     12  C   UNL     1       4.289  -1.010   4.084  1.00  0.00    -0.014 A 
BRANCH  12  13
ATOM     13  C   UNL     1       5.099  -1.034   5.312  1.00  0.00     0.031 A 
ATOM     14  C   UNL     1       5.857  -2.278   5.639  1.00  0.00     0.074 A 
ATOM     15  C   UNL     1       5.259   0.103   6.012  1.00  0.00     0.049 A 
ATOM     16  N   UNL     1       6.624  -2.533   6.663  1.00  0.00    -0.248 NA
ATOM     17  C   UNL     1       5.752  -3.383   4.671  1.00  0.00     0.031 C 
ATOM     18  C   UNL     1       4.656   1.392   5.664  1.00  0.00     0.029 A 
ATOM     19  N   UNL     1       6.005   0.373   7.127  1.00  0.00    -0.354 N 
ATOM     20  C   UNL     1       7.071  -3.832   6.478  1.00  0.00     0.074 A 
ATOM     21  C   UNL     1       6.495  -4.317   5.245  1.00  0.00     0.031 C 
ATOM     22  C   UNL     1       5.085   2.324   6.530  1.00  0.00     0.029 A 
ATOM     23  C   UNL     1       5.929   1.683   7.532  1.00  0.00     0.049 A 
ATOM     24  H   UNL     1       6.543  -0.307   7.593  1.00  0.00     0.167 HD
ATOM     25  C   UNL     1       7.886  -4.548   7.284  1.00  0.00     0.037 A 
ATOM     26  C   UNL     1       6.463   2.281   8.613  1.00  0.00     0.037 A 
ATOM     27  C   UNL     1       8.445  -4.024   8.500  1.00  0.00     0.049 A 
ATOM     28  C   UNL     1       7.290   1.437   9.543  1.00  0.00     0.074 A 
ATOM     29  C   UNL     1       9.231  -4.665   9.437  1.00  0.00     0.029 A 
ATOM     30  N   UNL     1       8.273  -2.717   8.939  1.00  0.00    -0.354 N 
ATOM     31  N   UNL     1       7.644   0.179   9.416  1.00  0.00    -0.248 NA
ATOM     32  C   UNL     1       7.771   2.075  10.773  1.00  0.00     0.031 C 
ATOM     33  C   UNL     1       9.494  -3.758  10.469  1.00  0.00     0.029 A 
ATOM     34  C   UNL     1       8.918  -2.536  10.149  1.00  0.00     0.049 A 
ATOM     35  H   UNL     1       7.766  -2.022   8.460  1.00  0.00     0.167 HD
ATOM     36  C   UNL     1       8.389  -0.127  10.544  1.00  0.00     0.074 A 
ATOM     37  C   UNL     1       8.456   1.087  11.335  1.00  0.00     0.031 C 
ATOM     38  C   UNL     1       8.958  -1.305  10.901  1.00  0.00     0.037 A 
BRANCH  25  39
ATOM     39  C   UNL     1       8.143  -5.976   6.909  1.00  0.00     0.064 A 
ATOM     40  C   UNL     1       7.542  -7.012   7.641  1.00  0.00     0.173 A 
ATOM     41  C   UNL     1       8.960  -6.328   5.825  1.00  0.00     0.173 A 
ATOM     42  F   UNL     1       6.744  -6.729   8.681  1.00  0.00    -0.203 F 
ATOM     43  C   UNL     1       7.752  -8.346   7.303  1.00  0.00     0.198 A 
ATOM     44  C   UNL     1       9.147  -7.663   5.473  1.00  0.00     0.198 A 
ATOM     45  F   UNL     1       9.534  -5.375   5.074  1.00  0.00    -0.203 F 
ATOM     46  F   UNL     1       7.173  -9.317   8.023  1.00  0.00    -0.200 F 
ATOM     47  C   UNL     1       8.547  -8.670   6.215  1.00  0.00     0.200 A 
ATOM     48  F   UNL     1       9.889  -7.975   4.401  1.00  0.00    -0.200 F 
ATOM     49  F   UNL     1       8.726  -9.954   5.874  1.00  0.00    -0.200 F 
ENDBRANCH  25  39
BRANCH  26  50
ATOM     50  C   UNL     1       6.188   3.719   8.875  1.00  0.00     0.064 A 
ATOM     51  C   UNL     1       4.886   4.170   9.147  1.00  0.00     0.173 A 
ATOM     52  C   UNL     1       7.206   4.679   8.816  1.00  0.00     0.173 A 
ATOM     53  F   UNL     1       3.873   3.294   9.221  1.00  0.00    -0.203 F 
ATOM     54  C   UNL     1       4.608   5.525   9.314  1.00  0.00     0.198 A 
ATOM     55  C   UNL     1       6.932   6.033   9.012  1.00  0.00     0.198 A 
ATOM     56  F   UNL     1       8.471   4.301   8.583  1.00  0.00    -0.203 F 
ATOM     57  F   UNL     1       3.348   5.928   9.527  1.00  0.00    -0.200 F 
ATOM     58  C   UNL     1       5.632   6.456   9.249  1.00  0.00     0.200 A 
ATOM     59  F   UNL     1       7.928   6.929   8.974  1.00  0.00    -0.200 F 
ATOM     60  F   UNL     1       5.367   7.759   9.417  1.00  0.00    -0.200 F 
ENDBRANCH  26  50
BRANCH  38  61
ATOM     61  C   UNL     1       9.703  -1.339  12.200  1.00  0.00     0.064 A 
ATOM     62  C   UNL     1      11.101  -1.450  12.212  1.00  0.00     0.173 A 
ATOM     63  C   UNL     1       9.023  -1.373  13.425  1.00  0.00     0.173 A 
ATOM     64  F   UNL     1      11.790  -1.433  11.061  1.00  0.00    -0.203 F 
ATOM     65  C   UNL     1      11.791  -1.620  13.406  1.00  0.00     0.198 A 
ATOM     66  C   UNL     1       9.720  -1.515  14.621  1.00  0.00     0.198 A 
ATOM     67  F   UNL     1       7.687  -1.258  13.461  1.00  0.00    -0.203 F 
ATOM     68  F   UNL     1      13.123  -1.770  13.393  1.00  0.00    -0.200 F 
ATOM     69  C   UNL     1      11.101  -1.651  14.609  1.00  0.00     0.200 A 
ATOM     70  F   UNL     1       9.056  -1.525  15.784  1.00  0.00    -0.200 F 
ATOM     71  F   UNL     1      11.768  -1.816  15.760  1.00  0.00    -0.200 F 
ENDBRANCH  38  61
ENDBRANCH  12  13
ENDBRANCH   5   7
ENDBRANCH   4   5
ENDBRANCH   3   4
ENDBRANCH   2   3
ENDBRANCH   1   2
BRANCH   1  72
ATOM     72  C   UNL     1       2.766   2.188  -0.444  1.00  0.00     0.202 C 
BRANCH  72  73
ATOM     73  C   UNL     1       2.891   3.696  -0.213  1.00  0.00     0.261 C 
BRANCH  73  74
ATOM     74  O   UNL     1       3.512   4.271  -1.373  1.00  0.00    -0.460 OA
BRANCH  74  75
ATOM     75  C   UNL     1       4.872   4.260  -1.378  1.00  0.00     0.341 C 
ATOM     76  O   UNL     1       5.618   4.190  -0.419  1.00  0.00    -0.246 OA
BRANCH  75  77
ATOM     77  C   UNL     1       5.275   4.169  -2.790  1.00  0.00     0.099 A 
ATOM     78  C   UNL     1       4.581   4.888  -3.766  1.00  0.00     0.021 A 
ATOM     79  C   UNL     1       6.261   3.270  -3.173  1.00  0.00     0.175 A 
ATOM     80  C   UNL     1       4.856   4.682  -5.119  1.00  0.00     0.030 A 
ATOM     81  C   UNL     1       6.511   3.059  -4.527  1.00  0.00     0.182 A 
ATOM     82  F   UNL     1       6.933   2.543  -2.268  1.00  0.00    -0.203 F 
ATOM     83  C   UNL     1       5.814   3.755  -5.533  1.00  0.00     0.074 A 
ATOM     84  F   UNL     1       7.426   2.142  -4.886  1.00  0.00    -0.201 F 
BRANCH  83  85
ATOM     85  N   UNL     1       6.126   3.475  -6.879  1.00  0.00    -0.380 N 
ATOM     86  H   UNL     1       6.654   2.656  -7.019  1.00  0.00     0.160 HD
BRANCH  85  87
ATOM     87  C   UNL     1       5.794   4.205  -8.097  1.00  0.00     0.079 C 
ATOM     88  C   UNL     1       4.455   4.783  -8.438  1.00  0.00     0.027 C 
ATOM     89  C   UNL     1       5.625   5.693  -8.163  1.00  0.00     0.027 C 
ENDBRANCH  85  87
ENDBRANCH  83  85
ENDBRANCH  75  77
ENDBRANCH  74  75
ENDBRANCH  73  74
ENDBRANCH  72  73
ENDBRANCH   1  72
TORSDOF 16
