REMARK SMILES O=C(OCCOCCOC(=O)[C@H]1CCCN(C(=O)C2CCN(S(=O)(=O)c3ccccc3)CC2)C1)c1ccc(-c2c3nc(c(-c4c(F)c(F)c(F)c(F)c4F)c4ccc([nH]4)c(-c4c(F)c(F)c(F)c(F)c4F)c4nc(c(-c5c(F)c(F)c(F)c(F)c5F)c5ccc2[nH]5)C=C4)C=C3)cc1
REMARK SMILES IDX 7 1 6 2 5 3 4 4 3 5 2 6 1 7 35 8 36 9 97 10 37 11 96 12
REMARK SMILES IDX 38 13 39 14 40 15 90 16 41 17 95 18 89 19 91 20 42 21 94 22
REMARK SMILES IDX 88 23 87 24 43 26 75 27 55 28 74 29 56 30 59 31 73 32 92 33
REMARK SMILES IDX 57 34 58 35 72 37 93 38 60 39 44 40 45 41 53 42 46 43 47 44
REMARK SMILES IDX 51 45 54 46 48 47 49 48 52 49 50 50 76 51 77 52 85 53 78 54
REMARK SMILES IDX 79 55 83 56 86 57 80 58 81 59 84 60 82 61 61 62 62 63 70 64
REMARK SMILES IDX 63 65 64 66 68 67 71 68 65 69 66 70 69 71 67 72 8 73 9 74
REMARK SMILES IDX 10 75 11 76 12 77 13 78 34 79 14 80 16 81 15 82 17 83 18 84
REMARK SMILES IDX 19 85 20 86 33 87 21 88 32 89 22 90 23 91 24 92 25 93 26 94
REMARK SMILES IDX 27 95 31 96 28 97 30 98 29 99
REMARK H PARENT 91 25 59 36
REMARK Flexibility Score: inf
ROOT
ATOM      1  C   UNL     1       6.613  -0.860   1.510  1.00  0.00     0.202 C 
ENDROOT
BRANCH   1   2
ATOM      2  O   UNL     1       6.549  -2.143   2.135  1.00  0.00    -0.374 OA
BRANCH   2   3
ATOM      3  C   UNL     1       5.236  -2.664   2.344  1.00  0.00     0.202 C 
BRANCH   3   4
ATOM      4  C   UNL     1       4.655  -2.484   3.747  1.00  0.00     0.261 C 
BRANCH   4   5
ATOM      5  O   UNL     1       4.647  -1.102   4.118  1.00  0.00    -0.460 OA
BRANCH   5   6
ATOM      6  C   UNL     1       5.709  -0.396   4.568  1.00  0.00     0.338 C 
ATOM      7  O   UNL     1       5.669   0.832   4.527  1.00  0.00    -0.246 OA
BRANCH   6   8
ATOM      8  C   UNL     1       6.892  -1.038   5.212  1.00  0.00     0.060 A 
ATOM      9  C   UNL     1       7.462  -2.262   4.844  1.00  0.00     0.016 A 
ATOM     10  C   UNL     1       7.515  -0.298   6.229  1.00  0.00     0.016 A 
ATOM     11  C   UNL     1       8.585  -2.760   5.471  1.00  0.00     0.010 A 
ATOM     12  C   UNL     1       8.653  -0.785   6.867  1.00  0.00     0.010 A 
ATOM     13  C   UNL     1       9.173  -2.026   6.489  1.00  0.00    -0.014 A 
BRANCH  13  14
ATOM     14  C   UNL     1      10.246  -2.670   7.243  1.00  0.00     0.031 A 
ATOM     15  C   UNL     1       9.882  -3.330   8.527  1.00  0.00     0.074 A 
ATOM     16  C   UNL     1      11.470  -2.755   6.701  1.00  0.00     0.049 A 
ATOM     17  N   UNL     1      10.653  -3.834   9.446  1.00  0.00    -0.248 NA
ATOM     18  C   UNL     1       8.440  -3.447   8.810  1.00  0.00     0.031 C 
ATOM     19  C   UNL     1      11.831  -2.284   5.362  1.00  0.00     0.029 A 
ATOM     20  N   UNL     1      12.626  -3.279   7.201  1.00  0.00    -0.354 N 
ATOM     21  C   UNL     1       9.796  -4.280  10.440  1.00  0.00     0.074 A 
ATOM     22  C   UNL     1       8.444  -4.019  10.003  1.00  0.00     0.031 C 
ATOM     23  C   UNL     1      13.133  -2.531   5.152  1.00  0.00     0.029 A 
ATOM     24  C   UNL     1      13.702  -3.097   6.370  1.00  0.00     0.049 A 
ATOM     25  H   UNL     1      12.683  -3.740   8.069  1.00  0.00     0.167 HD
ATOM     26  C   UNL     1      10.136  -4.826  11.629  1.00  0.00     0.037 A 
ATOM     27  C   UNL     1      15.007  -3.308   6.614  1.00  0.00     0.037 A 
ATOM     28  C   UNL     1      11.504  -5.045  12.009  1.00  0.00     0.049 A 
ATOM     29  C   UNL     1      15.376  -3.835   7.974  1.00  0.00     0.074 A 
ATOM     30  C   UNL     1      12.015  -5.497  13.208  1.00  0.00     0.029 A 
ATOM     31  N   UNL     1      12.587  -4.814  11.165  1.00  0.00    -0.354 N 
ATOM     32  N   UNL     1      14.586  -4.152   8.975  1.00  0.00    -0.248 NA
ATOM     33  C   UNL     1      16.804  -4.012   8.254  1.00  0.00     0.031 C 
ATOM     34  C   UNL     1      13.412  -5.501  13.102  1.00  0.00     0.029 A 
ATOM     35  C   UNL     1      13.769  -5.102  11.819  1.00  0.00     0.049 A 
ATOM     36  H   UNL     1      12.521  -4.492  10.237  1.00  0.00     0.167 HD
ATOM     37  C   UNL     1      15.414  -4.577  10.001  1.00  0.00     0.074 A 
ATOM     38  C   UNL     1      16.772  -4.485   9.493  1.00  0.00     0.031 C 
ATOM     39  C   UNL     1      15.091  -5.002  11.249  1.00  0.00     0.037 A 
BRANCH  26  40
ATOM     40  C   UNL     1       9.020  -5.085  12.595  1.00  0.00     0.064 A 
ATOM     41  C   UNL     1       8.075  -6.103  12.393  1.00  0.00     0.173 A 
ATOM     42  C   UNL     1       8.839  -4.233  13.695  1.00  0.00     0.173 A 
ATOM     43  F   UNL     1       8.179  -6.920  11.334  1.00  0.00    -0.203 F 
ATOM     44  C   UNL     1       6.970  -6.231  13.232  1.00  0.00     0.198 A 
ATOM     45  C   UNL     1       7.747  -4.381  14.547  1.00  0.00     0.198 A 
ATOM     46  F   UNL     1       9.703  -3.234  13.926  1.00  0.00    -0.203 F 
ATOM     47  F   UNL     1       6.038  -7.160  12.974  1.00  0.00    -0.200 F 
ATOM     48  C   UNL     1       6.807  -5.371  14.307  1.00  0.00     0.200 A 
ATOM     49  F   UNL     1       7.591  -3.546  15.583  1.00  0.00    -0.200 F 
ATOM     50  F   UNL     1       5.731  -5.480  15.099  1.00  0.00    -0.200 F 
ENDBRANCH  26  40
BRANCH  27  51
ATOM     51  C   UNL     1      16.015  -2.953   5.583  1.00  0.00     0.064 A 
ATOM     52  C   UNL     1      16.758  -3.936   4.920  1.00  0.00     0.173 A 
ATOM     53  C   UNL     1      16.209  -1.617   5.193  1.00  0.00     0.173 A 
ATOM     54  F   UNL     1      16.622  -5.224   5.265  1.00  0.00    -0.203 F 
ATOM     55  C   UNL     1      17.652  -3.599   3.903  1.00  0.00     0.198 A 
ATOM     56  C   UNL     1      17.081  -1.284   4.159  1.00  0.00     0.198 A 
ATOM     57  F   UNL     1      15.522  -0.634   5.794  1.00  0.00    -0.203 F 
ATOM     58  F   UNL     1      18.365  -4.557   3.296  1.00  0.00    -0.200 F 
ATOM     59  C   UNL     1      17.804  -2.275   3.516  1.00  0.00     0.200 A 
ATOM     60  F   UNL     1      17.209  -0.005   3.778  1.00  0.00    -0.200 F 
ATOM     61  F   UNL     1      18.647  -1.956   2.524  1.00  0.00    -0.200 F 
ENDBRANCH  27  51
BRANCH  39  62
ATOM     62  C   UNL     1      16.223  -5.436  12.124  1.00  0.00     0.064 A 
ATOM     63  C   UNL     1      17.047  -4.504  12.768  1.00  0.00     0.173 A 
ATOM     64  C   UNL     1      16.419  -6.798  12.390  1.00  0.00     0.173 A 
ATOM     65  F   UNL     1      16.898  -3.192  12.531  1.00  0.00    -0.203 F 
ATOM     66  C   UNL     1      18.038  -4.925  13.649  1.00  0.00     0.198 A 
ATOM     67  C   UNL     1      17.394  -7.213  13.288  1.00  0.00     0.198 A 
ATOM     68  F   UNL     1      15.645  -7.721  11.798  1.00  0.00    -0.203 F 
ATOM     69  F   UNL     1      18.832  -4.023  14.240  1.00  0.00    -0.200 F 
ATOM     70  C   UNL     1      18.203  -6.277  13.916  1.00  0.00     0.200 A 
ATOM     71  F   UNL     1      17.544  -8.518  13.556  1.00  0.00    -0.200 F 
ATOM     72  F   UNL     1      19.145  -6.679  14.780  1.00  0.00    -0.200 F 
ENDBRANCH  39  62
ENDBRANCH  13  14
ENDBRANCH   6   8
ENDBRANCH   5   6
ENDBRANCH   4   5
ENDBRANCH   3   4
ENDBRANCH   2   3
ENDBRANCH   1   2
BRANCH   1  73
ATOM     73  C   UNL     1       7.016  -0.987   0.042  1.00  0.00     0.261 C 
BRANCH  73  74
ATOM     74  O   UNL     1       6.008  -1.714  -0.685  1.00  0.00    -0.463 OA
BRANCH  74  75
ATOM     75  C   UNL     1       6.275  -3.035  -0.877  1.00  0.00     0.310 C 
ATOM     76  O   UNL     1       7.321  -3.592  -0.572  1.00  0.00    -0.252 OA
BRANCH  75  77
ATOM     77  C   UNL     1       5.075  -3.742  -1.483  1.00  0.00     0.119 C 
ATOM     78  C   UNL     1       5.530  -5.093  -2.045  1.00  0.00     0.019 C 
ATOM     79  C   UNL     1       4.001  -3.889  -0.399  1.00  0.00     0.134 C 
ATOM     80  C   UNL     1       4.343  -5.992  -2.329  1.00  0.00     0.022 C 
ATOM     81  N   UNL     1       2.965  -4.885  -0.643  1.00  0.00    -0.342 N 
ATOM     82  C   UNL     1       3.516  -6.155  -1.063  1.00  0.00     0.119 C 
BRANCH  81  83
ATOM     83  C   UNL     1       1.774  -4.750   0.061  1.00  0.00     0.225 C 
ATOM     84  O   UNL     1       1.708  -3.925   0.984  1.00  0.00    -0.275 OA
BRANCH  83  85
ATOM     85  C   UNL     1       0.487  -5.540  -0.282  1.00  0.00     0.081 C 
ATOM     86  C   UNL     1       0.286  -6.912   0.337  1.00  0.00     0.030 C 
ATOM     87  C   UNL     1       0.019  -5.530  -1.724  1.00  0.00     0.030 C 
ATOM     88  C   UNL     1       0.714  -8.111  -0.495  1.00  0.00     0.103 C 
ATOM     89  C   UNL     1       0.621  -6.624  -2.577  1.00  0.00     0.103 C 
ATOM     90  N   UNL     1       0.580  -7.987  -1.990  1.00  0.00    -0.198 NA
BRANCH  90  91
ATOM     91  S   UNL     1       1.622  -9.175  -2.747  1.00  0.00     0.243 S 
ATOM     92  O   UNL     1       2.994  -8.836  -2.409  1.00  0.00    -0.207 OA
ATOM     93  O   UNL     1       1.096 -10.470  -2.381  1.00  0.00    -0.207 OA
BRANCH  91  94
ATOM     94  C   UNL     1       1.501  -8.987  -4.509  1.00  0.00     0.082 A 
ATOM     95  C   UNL     1       1.038 -10.056  -5.278  1.00  0.00     0.022 A 
ATOM     96  C   UNL     1       2.059  -7.866  -5.140  1.00  0.00     0.022 A 
ATOM     97  C   UNL     1       1.086  -9.974  -6.671  1.00  0.00     0.001 A 
ATOM     98  C   UNL     1       2.062  -7.769  -6.530  1.00  0.00     0.001 A 
ATOM     99  C   UNL     1       1.577  -8.826  -7.295  1.00  0.00     0.000 A 
ENDBRANCH  91  94
ENDBRANCH  90  91
ENDBRANCH  83  85
ENDBRANCH  81  83
ENDBRANCH  75  77
ENDBRANCH  74  75
ENDBRANCH  73  74
ENDBRANCH   1  73
TORSDOF 18
