REMARK SMILES Cc1cscc1C(=O)Nc1cc(Br)ccc1C(=O)OCCOCCOC(=O)c1ccc(-c2c3nc(c(-c4c(F)c(F)c(F)c(F)c4F)c4ccc([nH]4)c(-c4c(F)c(F)c(F)c(F)c4F)c4nc(c(-c5c(F)c(F)c(F)c(F)c5F)c5ccc2[nH]5)C=C4)C=C3)cc1
REMARK SMILES IDX 22 1 21 2 20 3 19 4 17 5 18 6 16 7 10 8 11 9 12 10 15 11
REMARK SMILES IDX 13 12 14 13 9 14 7 15 8 16 6 18 1 19 2 20 3 21 4 22 5 23
REMARK SMILES IDX 23 24 24 25 25 26 26 27 27 28 28 29 29 30 90 31 30 32 89 33
REMARK SMILES IDX 31 34 32 35 33 36 83 37 34 38 88 39 82 40 84 41 35 42 87 43
REMARK SMILES IDX 81 44 80 45 36 47 68 48 48 49 67 50 49 51 52 52 66 53 85 54
REMARK SMILES IDX 50 55 51 56 65 58 86 59 53 60 37 61 38 62 46 63 39 64 40 65
REMARK SMILES IDX 44 66 47 67 41 68 42 69 45 70 43 71 69 72 70 73 78 74 71 75
REMARK SMILES IDX 72 76 76 77 79 78 73 79 74 80 77 81 75 82 54 83 55 84 63 85
REMARK SMILES IDX 56 86 57 87 61 88 64 89 58 90 59 91 62 92 60 93
REMARK H PARENT 9 17 84 46 52 57
REMARK Flexibility Score: inf
ROOT
ATOM      1  O   UNL     1       5.643   2.581   4.153  1.00  0.00    -0.374 OA
ENDROOT
BRANCH   1   2
ATOM      2  C   UNL     1       5.354   3.876   3.635  1.00  0.00     0.202 C 
BRANCH   2   3
ATOM      3  C   UNL     1       5.729   4.133   2.173  1.00  0.00     0.261 C 
BRANCH   3   4
ATOM      4  O   UNL     1       5.099   3.199   1.276  1.00  0.00    -0.460 OA
BRANCH   4   5
ATOM      5  C   UNL     1       5.920   2.219   0.824  1.00  0.00     0.340 C 
ATOM      6  O   UNL     1       7.120   2.146   1.050  1.00  0.00    -0.246 OA
BRANCH   5   7
ATOM      7  C   UNL     1       5.207   1.173   0.028  1.00  0.00     0.083 A 
ATOM      8  C   UNL     1       3.875   1.231  -0.446  1.00  0.00     0.057 A 
ATOM      9  C   UNL     1       3.450   0.268  -1.370  1.00  0.00     0.042 A 
ATOM     10  C   UNL     1       4.255  -0.837  -1.661  1.00  0.00     0.020 A 
ATOM     11  C   UNL     1       5.973   0.020  -0.229  1.00  0.00     0.019 A 
ATOM     12  Br  UNL     1       3.637  -2.162  -2.858  1.00  0.00    -0.051 Br
ATOM     13  C   UNL     1       5.489  -0.996  -1.046  1.00  0.00     0.017 A 
BRANCH   8  14
ATOM     14  N   UNL     1       2.999   2.227   0.020  1.00  0.00    -0.321 N 
ATOM     15  C   UNL     1       1.630   2.347   0.105  1.00  0.00     0.256 C 
ATOM     16  O   UNL     1       1.206   3.483   0.343  1.00  0.00    -0.269 OA
ATOM     17  H   UNL     1       3.473   3.018   0.365  1.00  0.00     0.170 HD
BRANCH  15  18
ATOM     18  C   UNL     1       0.682   1.222  -0.006  1.00  0.00     0.053 A 
ATOM     19  C   UNL     1       1.881  -0.885   1.093  1.00  0.00     0.046 C 
ATOM     20  C   UNL     1       0.758  -0.176   0.406  1.00  0.00    -0.028 A 
ATOM     21  C   UNL     1      -0.416  -0.854   0.110  1.00  0.00     0.069 A 
ATOM     22  S   UNL     1      -1.632   0.146  -0.526  1.00  0.00    -0.151 S 
ATOM     23  C   UNL     1      -0.604   1.499  -0.461  1.00  0.00     0.079 A 
ENDBRANCH  15  18
ENDBRANCH   8  14
ENDBRANCH   5   7
ENDBRANCH   4   5
ENDBRANCH   3   4
ENDBRANCH   2   3
ENDBRANCH   1   2
BRANCH   1  24
ATOM     24  C   UNL     1       4.720   1.530   3.861  1.00  0.00     0.202 C 
BRANCH  24  25
ATOM     25  C   UNL     1       3.403   1.530   4.645  1.00  0.00     0.261 C 
BRANCH  25  26
ATOM     26  O   UNL     1       2.553   2.628   4.265  1.00  0.00    -0.460 OA
BRANCH  26  27
ATOM     27  C   UNL     1       2.376   3.569   5.219  1.00  0.00     0.338 C 
ATOM     28  O   UNL     1       2.793   3.543   6.373  1.00  0.00    -0.246 OA
BRANCH  27  29
ATOM     29  C   UNL     1       1.757   4.772   4.638  1.00  0.00     0.060 A 
ATOM     30  C   UNL     1       2.408   5.997   4.837  1.00  0.00     0.016 A 
ATOM     31  C   UNL     1       0.532   4.719   3.971  1.00  0.00     0.016 A 
ATOM     32  C   UNL     1       1.812   7.182   4.410  1.00  0.00     0.010 A 
ATOM     33  C   UNL     1      -0.069   5.910   3.553  1.00  0.00     0.010 A 
ATOM     34  C   UNL     1       0.552   7.148   3.800  1.00  0.00    -0.014 A 
BRANCH  34  35
ATOM     35  C   UNL     1      -0.170   8.416   3.538  1.00  0.00     0.031 A 
ATOM     36  C   UNL     1      -1.241   8.861   4.494  1.00  0.00     0.074 A 
ATOM     37  C   UNL     1       0.142   9.173   2.472  1.00  0.00     0.049 A 
ATOM     38  N   UNL     1      -2.021   9.910   4.440  1.00  0.00    -0.248 NA
ATOM     39  C   UNL     1      -1.463   8.005   5.670  1.00  0.00     0.031 C 
ATOM     40  C   UNL     1       1.184   8.864   1.496  1.00  0.00     0.029 A 
ATOM     41  N   UNL     1      -0.397  10.355   2.030  1.00  0.00    -0.354 N 
ATOM     42  C   UNL     1      -2.831   9.836   5.566  1.00  0.00     0.074 A 
ATOM     43  C   UNL     1      -2.468   8.625   6.270  1.00  0.00     0.031 C 
ATOM     44  C   UNL     1       1.202   9.827   0.559  1.00  0.00     0.029 A 
ATOM     45  C   UNL     1       0.150  10.800   0.853  1.00  0.00     0.049 A 
ATOM     46  H   UNL     1      -1.107  10.838   2.511  1.00  0.00     0.167 HD
ATOM     47  C   UNL     1      -3.786  10.705   5.977  1.00  0.00     0.037 A 
ATOM     48  C   UNL     1      -0.180  11.858   0.087  1.00  0.00     0.037 A 
ATOM     49  C   UNL     1      -4.145  11.908   5.271  1.00  0.00     0.049 A 
ATOM     50  C   UNL     1      -1.294  12.771   0.529  1.00  0.00     0.074 A 
ATOM     51  C   UNL     1      -5.080  12.866   5.619  1.00  0.00     0.029 A 
ATOM     52  N   UNL     1      -3.590  12.310   4.065  1.00  0.00    -0.354 N 
ATOM     53  N   UNL     1      -2.033  12.714   1.611  1.00  0.00    -0.248 NA
ATOM     54  C   UNL     1      -1.617  13.898  -0.357  1.00  0.00     0.031 C 
ATOM     55  C   UNL     1      -5.132  13.819   4.596  1.00  0.00     0.029 A 
ATOM     56  C   UNL     1      -4.186  13.487   3.639  1.00  0.00     0.049 A 
ATOM     57  H   UNL     1      -2.879  11.830   3.582  1.00  0.00     0.167 HD
ATOM     58  C   UNL     1      -2.888  13.807   1.550  1.00  0.00     0.074 A 
ATOM     59  C   UNL     1      -2.565  14.520   0.331  1.00  0.00     0.031 C 
ATOM     60  C   UNL     1      -3.852  14.188   2.424  1.00  0.00     0.037 A 
BRANCH  47  61
ATOM     61  C   UNL     1      -4.532  10.370   7.236  1.00  0.00     0.064 A 
ATOM     62  C   UNL     1      -3.921  10.435   8.498  1.00  0.00     0.173 A 
ATOM     63  C   UNL     1      -5.887  10.011   7.183  1.00  0.00     0.173 A 
ATOM     64  F   UNL     1      -2.624  10.762   8.604  1.00  0.00    -0.203 F 
ATOM     65  C   UNL     1      -4.631  10.125   9.655  1.00  0.00     0.198 A 
ATOM     66  C   UNL     1      -6.603   9.731   8.344  1.00  0.00     0.198 A 
ATOM     67  F   UNL     1      -6.522   9.939   6.003  1.00  0.00    -0.203 F 
ATOM     68  F   UNL     1      -4.014  10.147  10.845  1.00  0.00    -0.200 F 
ATOM     69  C   UNL     1      -5.973   9.781   9.578  1.00  0.00     0.200 A 
ATOM     70  F   UNL     1      -7.902   9.412   8.268  1.00  0.00    -0.200 F 
ATOM     71  F   UNL     1      -6.657   9.490  10.693  1.00  0.00    -0.200 F 
ENDBRANCH  47  61
BRANCH  48  72
ATOM     72  C   UNL     1       0.547  12.106  -1.185  1.00  0.00     0.064 A 
ATOM     73  C   UNL     1       1.388  13.217  -1.334  1.00  0.00     0.173 A 
ATOM     74  C   UNL     1       0.407  11.242  -2.282  1.00  0.00     0.173 A 
ATOM     75  F   UNL     1       1.533  14.086  -0.323  1.00  0.00    -0.203 F 
ATOM     76  C   UNL     1       2.049  13.464  -2.535  1.00  0.00     0.198 A 
ATOM     77  C   UNL     1       1.092  11.473  -3.473  1.00  0.00     0.198 A 
ATOM     78  F   UNL     1      -0.388  10.166  -2.193  1.00  0.00    -0.203 F 
ATOM     79  F   UNL     1       2.811  14.558  -2.665  1.00  0.00    -0.200 F 
ATOM     80  C   UNL     1       1.907  12.588  -3.601  1.00  0.00     0.200 A 
ATOM     81  F   UNL     1       0.961  10.618  -4.496  1.00  0.00    -0.200 F 
ATOM     82  F   UNL     1       2.547  12.823  -4.754  1.00  0.00    -0.200 F 
ENDBRANCH  48  72
BRANCH  60  83
ATOM     83  C   UNL     1      -4.605  15.450   2.116  1.00  0.00     0.064 A 
ATOM     84  C   UNL     1      -5.535  15.518   1.067  1.00  0.00     0.173 A 
ATOM     85  C   UNL     1      -4.423  16.596   2.906  1.00  0.00     0.173 A 
ATOM     86  F   UNL     1      -5.736  14.456   0.273  1.00  0.00    -0.203 F 
ATOM     87  C   UNL     1      -6.233  16.694   0.805  1.00  0.00     0.198 A 
ATOM     88  C   UNL     1      -5.147  17.760   2.661  1.00  0.00     0.198 A 
ATOM     89  F   UNL     1      -3.552  16.583   3.926  1.00  0.00    -0.203 F 
ATOM     90  F   UNL     1      -7.079  16.751  -0.233  1.00  0.00    -0.200 F 
ATOM     91  C   UNL     1      -6.045  17.811   1.606  1.00  0.00     0.200 A 
ATOM     92  F   UNL     1      -4.974  18.833   3.445  1.00  0.00    -0.200 F 
ATOM     93  F   UNL     1      -6.724  18.939   1.356  1.00  0.00    -0.200 F 
ENDBRANCH  60  83
ENDBRANCH  34  35
ENDBRANCH  27  29
ENDBRANCH  26  27
ENDBRANCH  25  26
ENDBRANCH  24  25
ENDBRANCH   1  24
TORSDOF 16
