REMARK SMILES O=C(OCCOCCOC(=O)[C@H]1CC2=c3ccccc3=N[C@H]2[C@@H](c2ccccc2)[NH2+]1)c1ccc(-c2c3nc(c(-c4c(F)c(F)c(F)c(F)c4F)c4ccc([nH]4)c(-c4c(F)c(F)c(F)c(F)c4F)c4nc(c(-c5c(F)c(F)c(F)c(F)c5F)c5ccc2[nH]5)C=C4)C=C3)cc1
REMARK SMILES IDX 5 1 4 2 3 3 2 4 1 5 31 6 32 7 93 8 33 9 92 10 34 11 35 12
REMARK SMILES IDX 36 13 86 14 37 15 91 16 85 17 87 18 38 19 90 20 84 21 83 22
REMARK SMILES IDX 39 24 71 25 51 26 70 27 52 28 55 29 69 30 88 31 53 32 54 33
REMARK SMILES IDX 68 35 89 36 56 37 40 38 41 39 49 40 42 41 43 42 47 43 50 44
REMARK SMILES IDX 44 45 45 46 48 47 46 48 72 49 73 50 81 51 74 52 75 53 79 54
REMARK SMILES IDX 82 55 76 56 77 57 80 58 78 59 57 60 58 61 66 62 59 63 60 64
REMARK SMILES IDX 64 65 67 66 61 67 62 68 65 69 63 70 6 71 7 72 8 73 9 74
REMARK SMILES IDX 10 75 11 76 12 77 13 78 30 79 14 80 23 81 15 84 22 85 16 86
REMARK SMILES IDX 20 87 21 88 17 89 19 90 18 91 24 92 25 93 29 94 26 95 28 96
REMARK SMILES IDX 27 97
REMARK H PARENT 87 23 55 34 30 82 30 83
REMARK Flexibility Score: inf
ROOT
ATOM      1  C   UNL     1       4.710   0.633   1.206  1.00  0.00     0.202 C 
ENDROOT
BRANCH   1   2
ATOM      2  C   UNL     1       4.443   1.573   0.030  1.00  0.00     0.261 C 
BRANCH   2   3
ATOM      3  O   UNL     1       3.044   1.573  -0.310  1.00  0.00    -0.460 OA
BRANCH   3   4
ATOM      4  C   UNL     1       2.361   0.799  -1.184  1.00  0.00     0.338 C 
ATOM      5  O   UNL     1       1.139   0.947  -1.240  1.00  0.00    -0.246 OA
BRANCH   4   6
ATOM      6  C   UNL     1       2.965  -0.217  -2.112  1.00  0.00     0.060 A 
ATOM      7  C   UNL     1       2.151  -0.651  -3.180  1.00  0.00     0.016 A 
ATOM      8  C   UNL     1       4.215  -0.822  -1.978  1.00  0.00     0.016 A 
ATOM      9  C   UNL     1       2.576  -1.644  -4.071  1.00  0.00     0.010 A 
ATOM     10  C   UNL     1       4.639  -1.827  -2.843  1.00  0.00     0.010 A 
ATOM     11  C   UNL     1       3.829  -2.235  -3.900  1.00  0.00    -0.014 A 
BRANCH  11  12
ATOM     12  C   UNL     1       4.410  -3.171  -4.877  1.00  0.00     0.031 A 
ATOM     13  C   UNL     1       4.384  -4.646  -4.640  1.00  0.00     0.074 A 
ATOM     14  C   UNL     1       5.109  -2.630  -5.891  1.00  0.00     0.049 A 
ATOM     15  N   UNL     1       4.931  -5.600  -5.348  1.00  0.00    -0.248 NA
ATOM     16  C   UNL     1       3.665  -5.115  -3.446  1.00  0.00     0.031 C 
ATOM     17  C   UNL     1       5.244  -1.192  -6.139  1.00  0.00     0.029 A 
ATOM     18  N   UNL     1       5.871  -3.213  -6.864  1.00  0.00    -0.354 N 
ATOM     19  C   UNL     1       4.596  -6.784  -4.708  1.00  0.00     0.074 A 
ATOM     20  C   UNL     1       3.844  -6.429  -3.523  1.00  0.00     0.031 C 
ATOM     21  C   UNL     1       6.063  -1.004  -7.184  1.00  0.00     0.029 A 
ATOM     22  C   UNL     1       6.507  -2.304  -7.672  1.00  0.00     0.049 A 
ATOM     23  H   UNL     1       5.955  -4.188  -6.975  1.00  0.00     0.167 HD
ATOM     24  C   UNL     1       4.881  -8.049  -5.099  1.00  0.00     0.037 A 
ATOM     25  C   UNL     1       7.352  -2.506  -8.697  1.00  0.00     0.037 A 
ATOM     26  C   UNL     1       5.673  -8.368  -6.261  1.00  0.00     0.049 A 
ATOM     27  C   UNL     1       7.660  -3.918  -9.100  1.00  0.00     0.074 A 
ATOM     28  C   UNL     1       6.018  -9.612  -6.761  1.00  0.00     0.029 A 
ATOM     29  N   UNL     1       6.253  -7.426  -7.101  1.00  0.00    -0.354 N 
ATOM     30  N   UNL     1       7.273  -5.038  -8.539  1.00  0.00    -0.248 NA
ATOM     31  C   UNL     1       8.492  -4.096 -10.295  1.00  0.00     0.031 C 
ATOM     32  C   UNL     1       6.829  -9.422  -7.886  1.00  0.00     0.029 A 
ATOM     33  C   UNL     1       6.951  -8.060  -8.115  1.00  0.00     0.049 A 
ATOM     34  H   UNL     1       6.178  -6.450  -6.991  1.00  0.00     0.167 HD
ATOM     35  C   UNL     1       7.776  -6.055  -9.334  1.00  0.00     0.074 A 
ATOM     36  C   UNL     1       8.496  -5.416 -10.418  1.00  0.00     0.031 C 
ATOM     37  C   UNL     1       7.647  -7.396  -9.187  1.00  0.00     0.037 A 
BRANCH  24  38
ATOM     38  C   UNL     1       4.310  -9.183  -4.299  1.00  0.00     0.064 A 
ATOM     39  C   UNL     1       2.938  -9.479  -4.350  1.00  0.00     0.173 A 
ATOM     40  C   UNL     1       5.138 -10.045  -3.565  1.00  0.00     0.173 A 
ATOM     41  F   UNL     1       2.101  -8.683  -5.033  1.00  0.00    -0.203 F 
ATOM     42  C   UNL     1       2.418 -10.593  -3.696  1.00  0.00     0.198 A 
ATOM     43  C   UNL     1       4.617 -11.172  -2.931  1.00  0.00     0.198 A 
ATOM     44  F   UNL     1       6.457  -9.814  -3.489  1.00  0.00    -0.203 F 
ATOM     45  F   UNL     1       1.103 -10.846  -3.749  1.00  0.00    -0.200 F 
ATOM     46  C   UNL     1       3.259 -11.445  -2.997  1.00  0.00     0.200 A 
ATOM     47  F   UNL     1       5.434 -12.003  -2.268  1.00  0.00    -0.200 F 
ATOM     48  F   UNL     1       2.761 -12.531  -2.390  1.00  0.00    -0.200 F 
ENDBRANCH  24  38
BRANCH  25  49
ATOM     49  C   UNL     1       7.872  -1.343  -9.453  1.00  0.00     0.064 A 
ATOM     50  C   UNL     1       7.370  -1.046 -10.727  1.00  0.00     0.173 A 
ATOM     51  C   UNL     1       8.827  -0.474  -8.906  1.00  0.00     0.173 A 
ATOM     52  F   UNL     1       6.460  -1.853 -11.291  1.00  0.00    -0.203 F 
ATOM     53  C   UNL     1       7.813   0.069 -11.433  1.00  0.00     0.198 A 
ATOM     54  C   UNL     1       9.253   0.654  -9.604  1.00  0.00     0.198 A 
ATOM     55  F   UNL     1       9.323  -0.706  -7.681  1.00  0.00    -0.203 F 
ATOM     56  F   UNL     1       7.335   0.315 -12.661  1.00  0.00    -0.200 F 
ATOM     57  C   UNL     1       8.750   0.922 -10.868  1.00  0.00     0.200 A 
ATOM     58  F   UNL     1      10.144   1.487  -9.048  1.00  0.00    -0.200 F 
ATOM     59  F   UNL     1       9.166   2.002 -11.543  1.00  0.00    -0.200 F 
ENDBRANCH  25  49
BRANCH  37  60
ATOM     60  C   UNL     1       8.257  -8.253 -10.253  1.00  0.00     0.064 A 
ATOM     61  C   UNL     1       9.644  -8.428 -10.353  1.00  0.00     0.173 A 
ATOM     62  C   UNL     1       7.437  -8.927 -11.169  1.00  0.00     0.173 A 
ATOM     63  F   UNL     1      10.468  -7.790  -9.508  1.00  0.00    -0.203 F 
ATOM     64  C   UNL     1      10.191  -9.224 -11.354  1.00  0.00     0.198 A 
ATOM     65  C   UNL     1       7.986  -9.745 -12.152  1.00  0.00     0.198 A 
ATOM     66  F   UNL     1       6.103  -8.796 -11.108  1.00  0.00    -0.203 F 
ATOM     67  F   UNL     1      11.522  -9.338 -11.465  1.00  0.00    -0.200 F 
ATOM     68  C   UNL     1       9.362  -9.886 -12.248  1.00  0.00     0.200 A 
ATOM     69  F   UNL     1       7.184 -10.392 -13.008  1.00  0.00    -0.200 F 
ATOM     70  F   UNL     1       9.891 -10.654 -13.211  1.00  0.00    -0.200 F 
ENDBRANCH  37  60
ENDBRANCH  11  12
ENDBRANCH   4   6
ENDBRANCH   3   4
ENDBRANCH   2   3
ENDBRANCH   1   2
BRANCH   1  71
ATOM     71  O   UNL     1       4.328  -0.702   0.883  1.00  0.00    -0.374 OA
BRANCH  71  72
ATOM     72  C   UNL     1       3.114  -1.139   1.487  1.00  0.00     0.202 C 
BRANCH  72  73
ATOM     73  C   UNL     1       3.444  -1.985   2.701  1.00  0.00     0.261 C 
BRANCH  73  74
ATOM     74  O   UNL     1       3.971  -1.174   3.759  1.00  0.00    -0.459 OA
BRANCH  74  75
ATOM     75  C   UNL     1       5.316  -1.262   3.973  1.00  0.00     0.365 C 
ATOM     76  O   UNL     1       6.175  -1.418   3.101  1.00  0.00    -0.245 OA
BRANCH  75  77
ATOM     77  C   UNL     1       5.608  -1.245   5.476  1.00  0.00     0.298 C 
ATOM     78  C   UNL     1       6.126   0.139   5.983  1.00  0.00     0.111 C 
ATOM     79  N   UNL     1       4.441  -1.869   6.149  1.00  0.00    -0.326 N 
ATOM     80  C   UNL     1       5.307   0.903   7.049  1.00  0.00    -0.024 C 
ATOM     81  C   UNL     1       4.291  -1.322   7.489  1.00  0.00     0.243 C 
ATOM     82  H   UNL     1       4.584  -2.877   6.210  1.00  0.00     0.347 HD
ATOM     83  H   UNL     1       3.598  -1.672   5.610  1.00  0.00     0.347 HD
ATOM     84  C   UNL     1       4.970   2.169   6.779  1.00  0.00     0.002 A 
ATOM     85  C   UNL     1       4.021   0.198   7.422  1.00  0.00     0.196 C 
ATOM     86  C   UNL     1       4.933   3.310   7.668  1.00  0.00     0.010 A 
ATOM     87  C   UNL     1       3.624   1.909   6.170  1.00  0.00     0.066 A 
ATOM     88  N   UNL     1       3.079   0.736   6.369  1.00  0.00    -0.270 NA
ATOM     89  C   UNL     1       4.183   4.357   7.278  1.00  0.00     0.001 A 
ATOM     90  C   UNL     1       3.116   3.107   5.455  1.00  0.00     0.028 A 
ATOM     91  C   UNL     1       3.448   4.291   6.015  1.00  0.00     0.002 A 
BRANCH  81  92
ATOM     92  C   UNL     1       3.473  -2.239   8.378  1.00  0.00     0.012 A 
ATOM     93  C   UNL     1       3.887  -3.588   8.454  1.00  0.00     0.010 A 
ATOM     94  C   UNL     1       2.510  -1.790   9.286  1.00  0.00     0.010 A 
ATOM     95  C   UNL     1       3.434  -4.431   9.464  1.00  0.00     0.001 A 
ATOM     96  C   UNL     1       2.059  -2.638  10.304  1.00  0.00     0.001 A 
ATOM     97  C   UNL     1       2.540  -3.944  10.409  1.00  0.00     0.000 A 
ENDBRANCH  81  92
ENDBRANCH  75  77
ENDBRANCH  74  75
ENDBRANCH  73  74
ENDBRANCH  72  73
ENDBRANCH  71  72
ENDBRANCH   1  71
TORSDOF 15
