REMARK SMILES C[C@@H]1CCC[C@H](C)[N@H+]1Cc1cc2c(cc1Cl)C=C(C(=O)OCCOCCOC(=O)c1ccc(-c3c4nc(c(-c5c(F)c(F)c(F)c(F)c5F)c5ccc([nH]5)c(-c5c(F)c(F)c(F)c(F)c5F)c5nc(c(-c6c(F)c(F)c(F)c(F)c6F)c6ccc3[nH]6)C=C5)C=C4)cc1)[C@@H](C(F)(F)F)O2
REMARK SMILES IDX 24 1 23 2 22 3 21 4 19 5 20 6 18 7 10 8 11 9 15 10 12 11
REMARK SMILES IDX 14 12 16 13 13 14 98 15 17 16 93 17 9 18 8 19 7 20 6 21 5 22
REMARK SMILES IDX 4 23 2 24 3 26 1 27 94 28 95 29 96 30 97 31 25 32 26 33
REMARK SMILES IDX 27 34 28 35 29 36 30 37 31 38 92 39 32 40 91 41 33 42 34 43
REMARK SMILES IDX 35 44 85 45 36 46 90 47 84 48 86 49 37 50 89 51 83 52 82 53
REMARK SMILES IDX 38 55 70 56 50 57 69 58 51 59 54 60 68 61 87 62 52 63 53 64
REMARK SMILES IDX 67 66 88 67 55 68 39 69 40 70 48 71 41 72 42 73 46 74 49 75
REMARK SMILES IDX 43 76 44 77 47 78 45 79 71 80 72 81 80 82 73 83 74 84 78 85
REMARK SMILES IDX 81 86 75 87 76 88 79 89 77 90 56 91 57 92 65 93 58 94 59 95
REMARK SMILES IDX 63 96 66 97 60 98 61 99 64 100 62 101
REMARK H PARENT 8 25 86 54 54 65
REMARK Flexibility Score: inf
ROOT
ATOM      1  O   UNL     1       3.249   6.063  -9.410  1.00  0.00    -0.374 OA
ENDROOT
BRANCH   1   2
ATOM      2  C   UNL     1       2.248   6.230 -10.407  1.00  0.00     0.202 C 
BRANCH   2   3
ATOM      3  C   UNL     1       1.493   4.991 -10.897  1.00  0.00     0.261 C 
BRANCH   3   4
ATOM      4  O   UNL     1       0.931   4.221  -9.824  1.00  0.00    -0.460 OA
BRANCH   4   5
ATOM      5  C   UNL     1       1.579   3.051  -9.614  1.00  0.00     0.338 C 
ATOM      6  O   UNL     1       2.479   2.590 -10.299  1.00  0.00    -0.246 OA
BRANCH   5   7
ATOM      7  C   UNL     1       1.133   2.413  -8.364  1.00  0.00     0.087 C 
ATOM      8  C   UNL     1       0.928  -0.849  -4.555  1.00  0.00     0.029 A 
ATOM      9  C   UNL     1       0.043   0.148  -5.032  1.00  0.00     0.058 A 
ATOM     10  C   UNL     1       2.112  -1.072  -5.278  1.00  0.00     0.050 A 
ATOM     11  C   UNL     1       0.394   0.961  -6.115  1.00  0.00     0.128 A 
ATOM     12  C   UNL     1       2.511  -0.184  -6.272  1.00  0.00     0.033 A 
ATOM     13  Cl  UNL     1       3.129  -2.450  -5.048  1.00  0.00    -0.084 Cl
ATOM     14  C   UNL     1       1.664   0.843  -6.672  1.00  0.00     0.019 A 
ATOM     15  O   UNL     1      -0.518   1.877  -6.573  1.00  0.00    -0.475 OA
ATOM     16  C   UNL     1       2.089   1.728  -7.731  1.00  0.00     0.027 C 
ATOM     17  C   UNL     1      -0.305   2.411  -7.924  1.00  0.00     0.316 C 
BRANCH   8  18
ATOM     18  C   UNL     1       0.598  -1.613  -3.284  1.00  0.00     0.301 C 
BRANCH  18  19
ATOM     19  N   UNL     1       1.147  -1.095  -2.006  1.00  0.00    -0.327 N 
ATOM     20  C   UNL     1       0.411   0.124   0.027  1.00  0.00     0.075 C 
ATOM     21  C   UNL     1       0.519   0.136  -1.508  1.00  0.00     0.181 C 
ATOM     22  C   UNL     1       1.220   1.416  -1.982  1.00  0.00     0.065 C 
ATOM     23  C   UNL     1       2.728   1.389  -1.765  1.00  0.00     0.012 C 
ATOM     24  C   UNL     1       2.610  -1.175  -1.868  1.00  0.00     0.181 C 
ATOM     25  H   UNL     1       0.835  -1.788  -1.324  1.00  0.00     0.348 HD
ATOM     26  C   UNL     1       3.356   0.104  -2.289  1.00  0.00     0.065 C 
ATOM     27  C   UNL     1       3.045  -1.620  -0.464  1.00  0.00     0.075 C 
ENDBRANCH  18  19
ENDBRANCH   8  18
BRANCH  17  28
ATOM     28  C   UNL     1      -1.195   1.683  -8.942  1.00  0.00     0.430 C 
ATOM     29  F   UNL     1      -2.484   1.635  -8.531  1.00  0.00    -0.167 F 
ATOM     30  F   UNL     1      -1.193   2.322 -10.139  1.00  0.00    -0.167 F 
ATOM     31  F   UNL     1      -0.788   0.414  -9.164  1.00  0.00    -0.167 F 
ENDBRANCH  17  28
ENDBRANCH   5   7
ENDBRANCH   4   5
ENDBRANCH   3   4
ENDBRANCH   2   3
ENDBRANCH   1   2
BRANCH   1  32
ATOM     32  C   UNL     1       2.851   5.788  -8.068  1.00  0.00     0.202 C 
BRANCH  32  33
ATOM     33  C   UNL     1       2.093   6.867  -7.282  1.00  0.00     0.261 C 
BRANCH  33  34
ATOM     34  O   UNL     1       0.808   7.180  -7.846  1.00  0.00    -0.460 OA
BRANCH  34  35
ATOM     35  C   UNL     1       0.708   8.420  -8.386  1.00  0.00     0.338 C 
ATOM     36  O   UNL     1       1.567   9.288  -8.424  1.00  0.00    -0.246 OA
BRANCH  35  37
ATOM     37  C   UNL     1      -0.559   8.518  -9.132  1.00  0.00     0.060 A 
ATOM     38  C   UNL     1      -1.784   8.348  -8.488  1.00  0.00     0.016 A 
ATOM     39  C   UNL     1      -0.506   8.830 -10.497  1.00  0.00     0.016 A 
ATOM     40  C   UNL     1      -2.964   8.509  -9.216  1.00  0.00     0.010 A 
ATOM     41  C   UNL     1      -1.686   8.987 -11.223  1.00  0.00     0.010 A 
ATOM     42  C   UNL     1      -2.924   8.844 -10.583  1.00  0.00    -0.014 A 
BRANCH  42  43
ATOM     43  C   UNL     1      -4.178   9.165 -11.306  1.00  0.00     0.031 A 
ATOM     44  C   UNL     1      -4.765   8.223 -12.312  1.00  0.00     0.074 A 
ATOM     45  C   UNL     1      -4.782  10.340 -11.048  1.00  0.00     0.049 A 
ATOM     46  N   UNL     1      -5.891   8.323 -12.973  1.00  0.00    -0.248 NA
ATOM     47  C   UNL     1      -3.988   7.015 -12.624  1.00  0.00     0.031 C 
ATOM     48  C   UNL     1      -4.277  11.352 -10.120  1.00  0.00     0.029 A 
ATOM     49  N   UNL     1      -5.948  10.877 -11.530  1.00  0.00    -0.354 N 
ATOM     50  C   UNL     1      -5.972   7.184 -13.761  1.00  0.00     0.074 A 
ATOM     51  C   UNL     1      -4.753   6.433 -13.539  1.00  0.00     0.031 C 
ATOM     52  C   UNL     1      -5.148  12.371 -10.069  1.00  0.00     0.029 A 
ATOM     53  C   UNL     1      -6.254  12.099 -10.984  1.00  0.00     0.049 A 
ATOM     54  H   UNL     1      -6.512  10.430 -12.201  1.00  0.00     0.167 HD
ATOM     55  C   UNL     1      -6.983   6.795 -14.575  1.00  0.00     0.037 A 
ATOM     56  C   UNL     1      -7.310  12.909 -11.191  1.00  0.00     0.037 A 
ATOM     57  C   UNL     1      -8.184   7.560 -14.803  1.00  0.00     0.049 A 
ATOM     58  C   UNL     1      -8.393  12.476 -12.139  1.00  0.00     0.074 A 
ATOM     59  C   UNL     1      -9.280   7.230 -15.582  1.00  0.00     0.029 A 
ATOM     60  N   UNL     1      -8.442   8.814 -14.266  1.00  0.00    -0.354 N 
ATOM     61  N   UNL     1      -8.500  11.359 -12.817  1.00  0.00    -0.248 NA
ATOM     62  C   UNL     1      -9.506  13.412 -12.346  1.00  0.00     0.031 C 
ATOM     63  C   UNL     1     -10.170   8.307 -15.567  1.00  0.00     0.029 A 
ATOM     64  C   UNL     1      -9.663   9.284 -14.725  1.00  0.00     0.049 A 
ATOM     65  H   UNL     1      -7.846   9.298 -13.650  1.00  0.00     0.167 HD
ATOM     66  C   UNL     1      -9.697  11.448 -13.514  1.00  0.00     0.074 A 
ATOM     67  C   UNL     1     -10.292  12.720 -13.161  1.00  0.00     0.031 C 
ATOM     68  C   UNL     1     -10.248  10.555 -14.372  1.00  0.00     0.037 A 
BRANCH  55  69
ATOM     69  C   UNL     1      -6.848   5.475 -15.279  1.00  0.00     0.064 A 
ATOM     70  C   UNL     1      -6.917   4.262 -14.575  1.00  0.00     0.173 A 
ATOM     71  C   UNL     1      -6.731   5.415 -16.676  1.00  0.00     0.173 A 
ATOM     72  F   UNL     1      -7.023   4.263 -13.238  1.00  0.00    -0.203 F 
ATOM     73  C   UNL     1      -6.855   3.041 -15.242  1.00  0.00     0.198 A 
ATOM     74  C   UNL     1      -6.701   4.192 -17.342  1.00  0.00     0.198 A 
ATOM     75  F   UNL     1      -6.672   6.543 -17.399  1.00  0.00    -0.203 F 
ATOM     76  F   UNL     1      -6.887   1.897 -14.544  1.00  0.00    -0.200 F 
ATOM     77  C   UNL     1      -6.757   3.007 -16.625  1.00  0.00     0.200 A 
ATOM     78  F   UNL     1      -6.625   4.161 -18.680  1.00  0.00    -0.200 F 
ATOM     79  F   UNL     1      -6.717   1.831 -17.266  1.00  0.00    -0.200 F 
ENDBRANCH  55  69
BRANCH  56  80
ATOM     80  C   UNL     1      -7.404  14.190 -10.445  1.00  0.00     0.064 A 
ATOM     81  C   UNL     1      -8.368  14.368  -9.444  1.00  0.00     0.173 A 
ATOM     82  C   UNL     1      -6.510  15.244 -10.688  1.00  0.00     0.173 A 
ATOM     83  F   UNL     1      -9.255  13.396  -9.188  1.00  0.00    -0.203 F 
ATOM     84  C   UNL     1      -8.438  15.555  -8.717  1.00  0.00     0.198 A 
ATOM     85  C   UNL     1      -6.562  16.418  -9.939  1.00  0.00     0.198 A 
ATOM     86  F   UNL     1      -5.566  15.120 -11.632  1.00  0.00    -0.203 F 
ATOM     87  F   UNL     1      -9.389  15.711  -7.785  1.00  0.00    -0.200 F 
ATOM     88  C   UNL     1      -7.529  16.574  -8.958  1.00  0.00     0.200 A 
ATOM     89  F   UNL     1      -5.670  17.392 -10.163  1.00  0.00    -0.200 F 
ATOM     90  F   UNL     1      -7.586  17.707  -8.245  1.00  0.00    -0.200 F 
ENDBRANCH  56  80
BRANCH  68  91
ATOM     91  C   UNL     1     -11.573  10.907 -14.989  1.00  0.00     0.064 A 
ATOM     92  C   UNL     1     -11.687  11.913 -15.959  1.00  0.00     0.173 A 
ATOM     93  C   UNL     1     -12.729  10.181 -14.660  1.00  0.00     0.173 A 
ATOM     94  F   UNL     1     -10.617  12.647 -16.299  1.00  0.00    -0.203 F 
ATOM     95  C   UNL     1     -12.910  12.190 -16.565  1.00  0.00     0.198 A 
ATOM     96  C   UNL     1     -13.942  10.437 -15.293  1.00  0.00     0.198 A 
ATOM     97  F   UNL     1     -12.675   9.202 -13.744  1.00  0.00    -0.203 F 
ATOM     98  F   UNL     1     -13.002  13.182 -17.461  1.00  0.00    -0.200 F 
ATOM     99  C   UNL     1     -14.033  11.444 -16.241  1.00  0.00     0.200 A 
ATOM    100  F   UNL     1     -15.022   9.703 -14.990  1.00  0.00    -0.200 F 
ATOM    101  F   UNL     1     -15.205  11.699 -16.840  1.00  0.00    -0.200 F 
ENDBRANCH  68  91
ENDBRANCH  42  43
ENDBRANCH  35  37
ENDBRANCH  34  35
ENDBRANCH  33  34
ENDBRANCH  32  33
ENDBRANCH   1  32
TORSDOF 17
