REMARK SMILES CCCOc1ccc(N[C@H](C)[C@H](C)C(=O)OCCOCCOC(=O)c2ccc(-c3c4nc(c(-c5c(F)c(F)c(F)c(F)c5F)c5ccc([nH]5)c(-c5c(F)c(F)c(F)c(F)c5F)c5nc(c(-c6c(F)c(F)c(F)c(F)c6F)c6ccc3[nH]6)C=C5)C=C4)cc2)cc1
REMARK SMILES IDX 17 1 16 2 14 3 15 4 12 5 13 6 10 7 11 8 9 9 8 11 5 12 6 13
REMARK SMILES IDX 89 14 7 15 88 16 4 17 3 18 2 19 1 20 18 21 19 22 20 23 21 24
REMARK SMILES IDX 22 25 23 26 24 27 25 28 26 29 87 30 27 31 86 32 28 33 29 34
REMARK SMILES IDX 30 35 80 36 31 37 85 38 79 39 81 40 32 41 84 42 78 43 77 44
REMARK SMILES IDX 33 46 65 47 45 48 64 49 46 50 49 51 63 52 82 53 47 54 48 55
REMARK SMILES IDX 62 57 83 58 50 59 34 60 35 61 43 62 36 63 37 64 41 65 44 66
REMARK SMILES IDX 38 67 39 68 42 69 40 70 66 71 67 72 75 73 68 74 69 75 73 76
REMARK SMILES IDX 76 77 70 78 71 79 74 80 72 81 51 82 52 83 60 84 53 85 54 86
REMARK SMILES IDX 58 87 61 88 55 89 56 90 59 91 57 92
REMARK H PARENT 9 10 81 45 49 56
REMARK Flexibility Score: inf
ROOT
ATOM      1  C   UNL     1       0.329   4.099   9.838  1.00  0.00     0.261 C 
ENDROOT
BRANCH   1   2
ATOM      2  O   UNL     1       0.423   3.768   8.440  1.00  0.00    -0.463 OA
BRANCH   2   3
ATOM      3  C   UNL     1      -0.254   4.587   7.593  1.00  0.00     0.310 C 
ATOM      4  O   UNL     1      -0.983   5.508   7.949  1.00  0.00    -0.252 OA
BRANCH   3   5
ATOM      5  C   UNL     1      -0.078   4.234   6.128  1.00  0.00     0.118 C 
ATOM      6  C   UNL     1       1.286   3.656   5.763  1.00  0.00     0.022 C 
BRANCH   5   7
ATOM      7  C   UNL     1      -1.312   3.423   5.693  1.00  0.00     0.090 C 
ATOM      8  C   UNL     1      -1.799   3.778   4.292  1.00  0.00     0.031 C 
BRANCH   7   9
ATOM      9  N   UNL     1      -1.199   1.989   5.959  1.00  0.00    -0.382 N 
ATOM     10  H   UNL     1      -1.748   1.682   6.716  1.00  0.00     0.160 HD
BRANCH   9  11
ATOM     11  C   UNL     1      -0.475   0.985   5.357  1.00  0.00     0.034 A 
ATOM     12  C   UNL     1       0.935  -1.209   4.285  1.00  0.00     0.119 A 
ATOM     13  C   UNL     1       0.747  -0.067   3.520  1.00  0.00     0.048 A 
ATOM     14  C   UNL     1       0.529  -1.234   5.608  1.00  0.00     0.048 A 
ATOM     15  C   UNL     1       0.051   1.023   4.063  1.00  0.00     0.029 A 
ATOM     16  C   UNL     1      -0.192  -0.158   6.125  1.00  0.00     0.029 A 
BRANCH  12  17
ATOM     17  O   UNL     1       1.548  -2.312   3.767  1.00  0.00    -0.494 OA
BRANCH  17  18
ATOM     18  C   UNL     1       0.633  -3.098   2.984  1.00  0.00     0.229 C 
BRANCH  18  19
ATOM     19  C   UNL     1      -0.021  -4.204   3.819  1.00  0.00     0.038 C 
ATOM     20  C   UNL     1      -1.389  -3.821   4.373  1.00  0.00     0.007 C 
ENDBRANCH  18  19
ENDBRANCH  17  18
ENDBRANCH  12  17
ENDBRANCH   9  11
ENDBRANCH   7   9
ENDBRANCH   5   7
ENDBRANCH   3   5
ENDBRANCH   2   3
ENDBRANCH   1   2
BRANCH   1  21
ATOM     21  C   UNL     1       1.702   4.353  10.468  1.00  0.00     0.202 C 
BRANCH  21  22
ATOM     22  O   UNL     1       2.438   5.474   9.982  1.00  0.00    -0.374 OA
BRANCH  22  23
ATOM     23  C   UNL     1       2.999   5.375   8.675  1.00  0.00     0.202 C 
BRANCH  23  24
ATOM     24  C   UNL     1       4.238   4.485   8.516  1.00  0.00     0.261 C 
BRANCH  24  25
ATOM     25  O   UNL     1       3.988   3.111   8.866  1.00  0.00    -0.460 OA
BRANCH  25  26
ATOM     26  C   UNL     1       4.705   2.664   9.926  1.00  0.00     0.338 C 
ATOM     27  O   UNL     1       5.582   3.256  10.532  1.00  0.00    -0.246 OA
BRANCH  26  28
ATOM     28  C   UNL     1       4.176   1.373  10.402  1.00  0.00     0.060 A 
ATOM     29  C   UNL     1       3.751   1.309  11.736  1.00  0.00     0.016 A 
ATOM     30  C   UNL     1       4.206   0.223   9.611  1.00  0.00     0.016 A 
ATOM     31  C   UNL     1       3.409   0.084  12.302  1.00  0.00     0.010 A 
ATOM     32  C   UNL     1       3.871  -1.011  10.185  1.00  0.00     0.010 A 
ATOM     33  C   UNL     1       3.511  -1.090  11.543  1.00  0.00    -0.014 A 
BRANCH  33  34
ATOM     34  C   UNL     1       3.385  -2.401  12.228  1.00  0.00     0.031 A 
ATOM     35  C   UNL     1       4.632  -3.128  12.652  1.00  0.00     0.074 A 
ATOM     36  C   UNL     1       2.176  -2.907  12.528  1.00  0.00     0.049 A 
ATOM     37  N   UNL     1       4.755  -4.266  13.289  1.00  0.00    -0.248 NA
ATOM     38  C   UNL     1       5.912  -2.485  12.317  1.00  0.00     0.031 C 
ATOM     39  C   UNL     1       0.897  -2.279  12.209  1.00  0.00     0.029 A 
ATOM     40  N   UNL     1       1.832  -4.068  13.175  1.00  0.00    -0.354 N 
ATOM     41  C   UNL     1       6.121  -4.473  13.431  1.00  0.00     0.074 A 
ATOM     42  C   UNL     1       6.788  -3.361  12.788  1.00  0.00     0.031 C 
ATOM     43  C   UNL     1      -0.097  -3.065  12.658  1.00  0.00     0.029 A 
ATOM     44  C   UNL     1       0.477  -4.260  13.274  1.00  0.00     0.049 A 
ATOM     45  H   UNL     1       2.494  -4.702  13.535  1.00  0.00     0.167 HD
ATOM     46  C   UNL     1       6.763  -5.492  14.052  1.00  0.00     0.037 A 
ATOM     47  C   UNL     1      -0.220  -5.291  13.791  1.00  0.00     0.037 A 
ATOM     48  C   UNL     1       6.102  -6.598  14.694  1.00  0.00     0.049 A 
ATOM     49  C   UNL     1       0.519  -6.447  14.416  1.00  0.00     0.074 A 
ATOM     50  C   UNL     1       6.666  -7.667  15.369  1.00  0.00     0.029 A 
ATOM     51  N   UNL     1       4.728  -6.781  14.732  1.00  0.00    -0.354 N 
ATOM     52  N   UNL     1       1.809  -6.618  14.574  1.00  0.00    -0.248 NA
ATOM     53  C   UNL     1      -0.299  -7.551  14.937  1.00  0.00     0.031 C 
ATOM     54  C   UNL     1       5.635  -8.522  15.774  1.00  0.00     0.029 A 
ATOM     55  C   UNL     1       4.427  -7.961  15.395  1.00  0.00     0.049 A 
ATOM     56  H   UNL     1       4.065  -6.165  14.346  1.00  0.00     0.167 HD
ATOM     57  C   UNL     1       1.957  -7.832  15.231  1.00  0.00     0.074 A 
ATOM     58  C   UNL     1       0.623  -8.350  15.457  1.00  0.00     0.031 C 
ATOM     59  C   UNL     1       3.095  -8.463  15.613  1.00  0.00     0.037 A 
BRANCH  46  60
ATOM     60  C   UNL     1       8.263  -5.469  14.050  1.00  0.00     0.064 A 
ATOM     61  C   UNL     1       8.986  -4.566  14.843  1.00  0.00     0.173 A 
ATOM     62  C   UNL     1       8.985  -6.385  13.271  1.00  0.00     0.173 A 
ATOM     63  F   UNL     1       8.342  -3.662  15.596  1.00  0.00    -0.203 F 
ATOM     64  C   UNL     1      10.379  -4.567  14.840  1.00  0.00     0.198 A 
ATOM     65  C   UNL     1      10.377  -6.401  13.290  1.00  0.00     0.198 A 
ATOM     66  F   UNL     1       8.340  -7.272  12.499  1.00  0.00    -0.203 F 
ATOM     67  F   UNL     1      11.050  -3.670  15.574  1.00  0.00    -0.200 F 
ATOM     68  C   UNL     1      11.073  -5.488  14.069  1.00  0.00     0.200 A 
ATOM     69  F   UNL     1      11.046  -7.298  12.553  1.00  0.00    -0.200 F 
ATOM     70  F   UNL     1      12.413  -5.493  14.072  1.00  0.00    -0.200 F 
ENDBRANCH  46  60
BRANCH  47  71
ATOM     71  C   UNL     1      -1.704  -5.285  13.734  1.00  0.00     0.064 A 
ATOM     72  C   UNL     1      -2.475  -5.153  14.897  1.00  0.00     0.173 A 
ATOM     73  C   UNL     1      -2.381  -5.430  12.514  1.00  0.00     0.173 A 
ATOM     74  F   UNL     1      -1.872  -5.039  16.090  1.00  0.00    -0.203 F 
ATOM     75  C   UNL     1      -3.867  -5.182  14.844  1.00  0.00     0.198 A 
ATOM     76  C   UNL     1      -3.773  -5.432  12.459  1.00  0.00     0.198 A 
ATOM     77  F   UNL     1      -1.690  -5.563  11.373  1.00  0.00    -0.203 F 
ATOM     78  F   UNL     1      -4.580  -5.098  15.975  1.00  0.00    -0.200 F 
ATOM     79  C   UNL     1      -4.515  -5.315  13.625  1.00  0.00     0.200 A 
ATOM     80  F   UNL     1      -4.395  -5.551  11.278  1.00  0.00    -0.200 F 
ATOM     81  F   UNL     1      -5.854  -5.340  13.574  1.00  0.00    -0.200 F 
ENDBRANCH  47  71
BRANCH  59  82
ATOM     82  C   UNL     1       2.949  -9.771  16.335  1.00  0.00     0.064 A 
ATOM     83  C   UNL     1       2.553 -10.939  15.667  1.00  0.00     0.173 A 
ATOM     84  C   UNL     1       3.245  -9.865  17.704  1.00  0.00     0.173 A 
ATOM     85  F   UNL     1       2.244 -10.898  14.362  1.00  0.00    -0.203 F 
ATOM     86  C   UNL     1       2.436 -12.148  16.348  1.00  0.00     0.198 A 
ATOM     87  C   UNL     1       3.154 -11.081  18.375  1.00  0.00     0.198 A 
ATOM     88  F   UNL     1       3.634  -8.778  18.388  1.00  0.00    -0.203 F 
ATOM     89  F   UNL     1       2.012 -13.241  15.699  1.00  0.00    -0.200 F 
ATOM     90  C   UNL     1       2.743 -12.219  17.699  1.00  0.00     0.200 A 
ATOM     91  F   UNL     1       3.462 -11.151  19.677  1.00  0.00    -0.200 F 
ATOM     92  F   UNL     1       2.634 -13.385  18.351  1.00  0.00    -0.200 F 
ENDBRANCH  59  82
ENDBRANCH  33  34
ENDBRANCH  26  28
ENDBRANCH  25  26
ENDBRANCH  24  25
ENDBRANCH  23  24
ENDBRANCH  22  23
ENDBRANCH  21  22
ENDBRANCH   1  21
TORSDOF 20
