REMARK SMILES CC(C)[C@H](NC(=O)[C@H](C)NC(=O)C[NH3+])C(=O)OCCOCCOC(=O)c1ccc(-c2c3nc(c(-c4c(F)c(F)c(F)c(F)c4F)c4ccc([nH]4)c(-c4c(F)c(F)c(F)c(F)c4F)c4nc(c(-c5c(F)c(F)c(F)c(F)c5F)c5ccc2[nH]5)C=C4)C=C3)cc1
REMARK SMILES IDX 18 1 17 2 15 3 16 4 4 5 2 6 1 7 3 8 5 9 6 10 7 12 8 13 9 14
REMARK SMILES IDX 10 15 11 16 12 18 13 19 14 20 19 24 20 25 21 26 22 27 23 28
REMARK SMILES IDX 24 29 25 30 26 31 27 32 88 33 28 34 87 35 29 36 30 37 31 38
REMARK SMILES IDX 81 39 32 40 86 41 80 42 82 43 33 44 85 45 79 46 78 47 34 49
REMARK SMILES IDX 66 50 46 51 65 52 47 53 50 54 64 55 83 56 48 57 49 58 63 60
REMARK SMILES IDX 84 61 51 62 35 63 36 64 44 65 37 66 38 67 42 68 45 69 39 70
REMARK SMILES IDX 40 71 43 72 41 73 67 74 68 75 76 76 69 77 70 78 74 79 77 80
REMARK SMILES IDX 71 81 72 82 75 83 73 84 52 85 53 86 61 87 54 88 55 89 59 90
REMARK SMILES IDX 62 91 56 92 57 93 60 94 58 95
REMARK H PARENT 5 11 10 17 14 21 14 22 14 23 82 48 50 59
REMARK Flexibility Score: inf
ROOT
ATOM      1  C   UNL     1      -4.915   3.098   2.103  1.00  0.00     0.261 C 
ENDROOT
BRANCH   1   2
ATOM      2  O   UNL     1      -3.476   3.167   2.049  1.00  0.00    -0.462 OA
BRANCH   2   3
ATOM      3  C   UNL     1      -2.700   2.743   3.108  1.00  0.00     0.328 C 
ATOM      4  O   UNL     1      -3.133   2.407   4.201  1.00  0.00    -0.250 OA
BRANCH   3   5
ATOM      5  C   UNL     1      -1.222   2.519   2.632  1.00  0.00     0.194 C 
BRANCH   5   6
ATOM      6  C   UNL     1      -0.114   2.949   3.628  1.00  0.00     0.017 C 
ATOM      7  C   UNL     1       0.365   1.707   4.407  1.00  0.00     0.010 C 
ATOM      8  C   UNL     1       1.124   3.579   2.973  1.00  0.00     0.010 C 
ENDBRANCH   5   6
BRANCH   5   9
ATOM      9  N   UNL     1      -1.089   3.062   1.292  1.00  0.00    -0.341 N 
ATOM     10  C   UNL     1      -1.634   2.549   0.155  1.00  0.00     0.243 C 
ATOM     11  H   UNL     1      -0.552   3.881   1.197  1.00  0.00     0.164 HD
ATOM     12  O   UNL     1      -1.603   3.289  -0.838  1.00  0.00    -0.273 OA
BRANCH  10  13
ATOM     13  C   UNL     1      -2.269   1.116   0.047  1.00  0.00     0.168 C 
ATOM     14  C   UNL     1      -2.597   0.186   1.215  1.00  0.00     0.041 C 
BRANCH  13  15
ATOM     15  N   UNL     1      -1.515   0.360  -0.927  1.00  0.00    -0.340 N 
ATOM     16  C   UNL     1      -1.964  -0.306  -2.030  1.00  0.00     0.275 C 
ATOM     17  H   UNL     1      -0.543   0.321  -0.774  1.00  0.00     0.164 HD
ATOM     18  O   UNL     1      -1.170  -1.065  -2.588  1.00  0.00    -0.268 OA
BRANCH  16  19
ATOM     19  C   UNL     1      -3.368  -0.041  -2.599  1.00  0.00     0.360 C 
BRANCH  19  20
ATOM     20  N   UNL     1      -4.474  -0.546  -1.774  1.00  0.00    -0.350 N 
ATOM     21  H   UNL     1      -4.411  -1.562  -1.707  1.00  0.00     0.344 HD
ATOM     22  H   UNL     1      -5.363  -0.288  -2.203  1.00  0.00     0.344 HD
ATOM     23  H   UNL     1      -4.415  -0.139  -0.841  1.00  0.00     0.344 HD
ENDBRANCH  19  20
ENDBRANCH  16  19
ENDBRANCH  13  15
ENDBRANCH  10  13
ENDBRANCH   5   9
ENDBRANCH   3   5
ENDBRANCH   2   3
ENDBRANCH   1   2
BRANCH   1  24
ATOM     24  C   UNL     1      -5.494   2.235   0.955  1.00  0.00     0.202 C 
BRANCH  24  25
ATOM     25  O   UNL     1      -5.843   2.930  -0.230  1.00  0.00    -0.374 OA
BRANCH  25  26
ATOM     26  C   UNL     1      -4.972   3.155  -1.333  1.00  0.00     0.202 C 
BRANCH  26  27
ATOM     27  C   UNL     1      -4.947   4.634  -1.774  1.00  0.00     0.261 C 
BRANCH  27  28
ATOM     28  O   UNL     1      -5.830   5.432  -0.988  1.00  0.00    -0.460 OA
BRANCH  28  29
ATOM     29  C   UNL     1      -7.120   5.006  -1.058  1.00  0.00     0.338 C 
ATOM     30  O   UNL     1      -7.655   4.428  -1.979  1.00  0.00    -0.246 OA
BRANCH  29  31
ATOM     31  C   UNL     1      -7.669   5.113   0.311  1.00  0.00     0.060 A 
ATOM     32  C   UNL     1      -8.503   4.084   0.775  1.00  0.00     0.016 A 
ATOM     33  C   UNL     1      -7.318   6.185   1.137  1.00  0.00     0.016 A 
ATOM     34  C   UNL     1      -9.092   4.191   2.026  1.00  0.00     0.010 A 
ATOM     35  C   UNL     1      -7.911   6.301   2.384  1.00  0.00     0.010 A 
ATOM     36  C   UNL     1      -8.861   5.347   2.781  1.00  0.00    -0.014 A 
BRANCH  36  37
ATOM     37  C   UNL     1      -9.866   5.747   3.777  1.00  0.00     0.031 A 
ATOM     38  C   UNL     1     -10.977   6.637   3.293  1.00  0.00     0.074 A 
ATOM     39  C   UNL     1      -9.786   5.324   5.045  1.00  0.00     0.049 A 
ATOM     40  N   UNL     1     -11.960   7.179   3.959  1.00  0.00    -0.248 NA
ATOM     41  C   UNL     1     -10.973   6.968   1.855  1.00  0.00     0.031 C 
ATOM     42  C   UNL     1      -8.758   4.432   5.575  1.00  0.00     0.029 A 
ATOM     43  N   UNL     1     -10.586   5.606   6.117  1.00  0.00    -0.354 N 
ATOM     44  C   UNL     1     -12.682   7.910   3.025  1.00  0.00     0.074 A 
ATOM     45  C   UNL     1     -12.010   7.782   1.755  1.00  0.00     0.031 C 
ATOM     46  C   UNL     1      -8.984   4.247   6.887  1.00  0.00     0.029 A 
ATOM     47  C   UNL     1     -10.149   5.036   7.284  1.00  0.00     0.049 A 
ATOM     48  H   UNL     1     -11.396   6.162   6.056  1.00  0.00     0.167 HD
ATOM     49  C   UNL     1     -13.816   8.620   3.216  1.00  0.00     0.037 A 
ATOM     50  C   UNL     1     -10.636   5.171   8.531  1.00  0.00     0.037 A 
ATOM     51  C   UNL     1     -14.455   8.743   4.496  1.00  0.00     0.049 A 
ATOM     52  C   UNL     1     -11.860   6.028   8.732  1.00  0.00     0.074 A 
ATOM     53  C   UNL     1     -15.610   9.425   4.824  1.00  0.00     0.029 A 
ATOM     54  N   UNL     1     -13.973   8.172   5.668  1.00  0.00    -0.354 N 
ATOM     55  N   UNL     1     -12.561   6.695   7.845  1.00  0.00    -0.248 NA
ATOM     56  C   UNL     1     -12.363   6.145  10.105  1.00  0.00     0.031 C 
ATOM     57  C   UNL     1     -15.792   9.320   6.207  1.00  0.00     0.029 A 
ATOM     58  C   UNL     1     -14.792   8.512   6.729  1.00  0.00     0.049 A 
ATOM     59  H   UNL     1     -13.169   7.608   5.732  1.00  0.00     0.167 HD
ATOM     60  C   UNL     1     -13.606   7.284   8.545  1.00  0.00     0.074 A 
ATOM     61  C   UNL     1     -13.451   6.881   9.929  1.00  0.00     0.031 C 
ATOM     62  C   UNL     1     -14.605   8.084   8.093  1.00  0.00     0.037 A 
BRANCH  49  63
ATOM     63  C   UNL     1     -14.397   9.337   2.033  1.00  0.00     0.064 A 
ATOM     64  C   UNL     1     -14.969   8.647   0.952  1.00  0.00     0.173 A 
ATOM     65  C   UNL     1     -14.386  10.739   1.981  1.00  0.00     0.173 A 
ATOM     66  F   UNL     1     -14.982   7.305   0.938  1.00  0.00    -0.203 F 
ATOM     67  C   UNL     1     -15.486   9.332  -0.145  1.00  0.00     0.198 A 
ATOM     68  C   UNL     1     -14.934  11.421   0.898  1.00  0.00     0.198 A 
ATOM     69  F   UNL     1     -13.844  11.448   2.982  1.00  0.00    -0.203 F 
ATOM     70  F   UNL     1     -15.977   8.650  -1.189  1.00  0.00    -0.200 F 
ATOM     71  C   UNL     1     -15.476  10.719  -0.166  1.00  0.00     0.200 A 
ATOM     72  F   UNL     1     -14.932  12.762   0.884  1.00  0.00    -0.200 F 
ATOM     73  F   UNL     1     -15.981  11.378  -1.218  1.00  0.00    -0.200 F 
ENDBRANCH  49  63
BRANCH  50  74
ATOM     74  C   UNL     1      -9.965   4.490   9.668  1.00  0.00     0.064 A 
ATOM     75  C   UNL     1     -10.600   3.458  10.372  1.00  0.00     0.173 A 
ATOM     76  C   UNL     1      -8.675   4.860  10.077  1.00  0.00     0.173 A 
ATOM     77  F   UNL     1     -11.840   3.078  10.029  1.00  0.00    -0.203 F 
ATOM     78  C   UNL     1      -9.981   2.839  11.456  1.00  0.00     0.198 A 
ATOM     79  C   UNL     1      -8.044   4.218  11.140  1.00  0.00     0.198 A 
ATOM     80  F   UNL     1      -8.020   5.838   9.435  1.00  0.00    -0.203 F 
ATOM     81  F   UNL     1     -10.631   1.889  12.142  1.00  0.00    -0.200 F 
ATOM     82  C   UNL     1      -8.701   3.215  11.835  1.00  0.00     0.200 A 
ATOM     83  F   UNL     1      -6.801   4.573  11.492  1.00  0.00    -0.200 F 
ATOM     84  F   UNL     1      -8.105   2.616  12.875  1.00  0.00    -0.200 F 
ENDBRANCH  50  74
BRANCH  62  85
ATOM     85  C   UNL     1     -15.625   8.537   9.096  1.00  0.00     0.064 A 
ATOM     86  C   UNL     1     -15.315   9.467  10.098  1.00  0.00     0.173 A 
ATOM     87  C   UNL     1     -16.945   8.066   9.021  1.00  0.00     0.173 A 
ATOM     88  F   UNL     1     -14.064   9.938  10.218  1.00  0.00    -0.203 F 
ATOM     89  C   UNL     1     -16.280   9.883  11.009  1.00  0.00     0.198 A 
ATOM     90  C   UNL     1     -17.917   8.514   9.909  1.00  0.00     0.198 A 
ATOM     91  F   UNL     1     -17.297   7.185   8.072  1.00  0.00    -0.203 F 
ATOM     92  F   UNL     1     -15.948  10.728  11.995  1.00  0.00    -0.200 F 
ATOM     93  C   UNL     1     -17.582   9.414  10.909  1.00  0.00     0.200 A 
ATOM     94  F   UNL     1     -19.178   8.075   9.796  1.00  0.00    -0.200 F 
ATOM     95  F   UNL     1     -18.512   9.823  11.781  1.00  0.00    -0.200 F 
ENDBRANCH  62  85
ENDBRANCH  36  37
ENDBRANCH  29  31
ENDBRANCH  28  29
ENDBRANCH  27  28
ENDBRANCH  26  27
ENDBRANCH  25  26
ENDBRANCH  24  25
ENDBRANCH   1  24
TORSDOF 20
