REMARK SMILES CC1(C)CCN(S(=O)(=O)c2ccc(O)c(C(=O)OCCOCCOC(=O)c3ccc(-c4c5nc(c(-c6c(F)c(F)c(F)c(F)c6F)c6ccc([nH]6)c(-c6c(F)c(F)c(F)c(F)c6F)c6nc(c(-c7c(F)c(F)c(F)c(F)c7F)c7ccc4[nH]7)C=C6)C=C5)cc3)c2)C1
REMARK SMILES IDX 21 1 20 2 19 3 18 4 16 5 17 6 15 7 10 8 11 9 90 10 12 11
REMARK SMILES IDX 13 12 7 13 8 14 9 15 6 16 1 17 2 18 3 19 4 20 91 21 5 22
REMARK SMILES IDX 14 23 22 25 23 26 24 27 25 28 26 29 27 30 28 31 89 32 29 33
REMARK SMILES IDX 88 34 30 35 31 36 32 37 82 38 33 39 87 40 81 41 83 42 34 43
REMARK SMILES IDX 86 44 80 45 79 46 35 48 67 49 47 50 66 51 48 52 51 53 65 54
REMARK SMILES IDX 84 55 49 56 50 57 64 59 85 60 52 61 36 62 37 63 45 64 38 65
REMARK SMILES IDX 39 66 43 67 46 68 40 69 41 70 44 71 42 72 68 73 69 74 77 75
REMARK SMILES IDX 70 76 71 77 75 78 78 79 72 80 73 81 76 82 74 83 53 84 54 85
REMARK SMILES IDX 62 86 55 87 56 88 60 89 63 90 57 91 58 92 61 93 59 94
REMARK H PARENT 14 24 83 47 51 58
REMARK Flexibility Score: inf
ROOT
ATOM      1  O   UNL     1       7.478   6.463   0.584  1.00  0.00    -0.374 OA
ENDROOT
BRANCH   1   2
ATOM      2  C   UNL     1       7.025   7.674  -0.019  1.00  0.00     0.202 C 
BRANCH   2   3
ATOM      3  C   UNL     1       5.948   7.532  -1.098  1.00  0.00     0.261 C 
BRANCH   3   4
ATOM      4  O   UNL     1       4.730   7.031  -0.527  1.00  0.00    -0.460 OA
BRANCH   4   5
ATOM      5  C   UNL     1       4.243   5.891  -1.074  1.00  0.00     0.342 C 
ATOM      6  O   UNL     1       4.659   5.325  -2.072  1.00  0.00    -0.246 OA
BRANCH   5   7
ATOM      7  C   UNL     1       3.249   5.273  -0.164  1.00  0.00     0.103 A 
ATOM      8  C   UNL     1       2.484   3.242   0.910  1.00  0.00     0.083 A 
ATOM      9  C   UNL     1       1.527   3.973   1.621  1.00  0.00     0.025 A 
ATOM     10  C   UNL     1       3.351   3.885   0.025  1.00  0.00     0.041 A 
ATOM     11  C   UNL     1       1.409   5.348   1.417  1.00  0.00     0.048 A 
ATOM     12  C   UNL     1       2.272   5.998   0.529  1.00  0.00     0.130 A 
BRANCH   8  13
ATOM     13  S   UNL     1       2.665   1.499   1.219  1.00  0.00     0.243 S 
ATOM     14  O   UNL     1       2.232   1.246   2.576  1.00  0.00    -0.207 OA
ATOM     15  O   UNL     1       3.986   1.106   0.776  1.00  0.00    -0.207 OA
BRANCH  13  16
ATOM     16  N   UNL     1       1.527   0.803   0.165  1.00  0.00    -0.197 NA
ATOM     17  C   UNL     1      -0.972  -0.088  -1.548  1.00  0.00     0.012 C 
ATOM     18  C   UNL     1      -0.716  -0.056  -0.034  1.00  0.00    -0.020 C 
ATOM     19  C   UNL     1      -2.054  -0.101   0.709  1.00  0.00     0.012 C 
ATOM     20  C   UNL     1       0.212  -1.188   0.407  1.00  0.00     0.024 C 
ATOM     21  C   UNL     1       0.100   1.179   0.370  1.00  0.00     0.109 C 
ATOM     22  C   UNL     1       1.607  -0.682   0.059  1.00  0.00     0.103 C 
ENDBRANCH  13  16
ENDBRANCH   8  13
BRANCH  12  23
ATOM     23  O   UNL     1       2.136   7.344   0.340  1.00  0.00    -0.507 OA
ATOM     24  H   UNL     1       1.478   7.819   0.809  1.00  0.00     0.293 HD
ENDBRANCH  12  23
ENDBRANCH   5   7
ENDBRANCH   4   5
ENDBRANCH   3   4
ENDBRANCH   2   3
ENDBRANCH   1   2
BRANCH   1  25
ATOM     25  C   UNL     1       6.632   5.862   1.565  1.00  0.00     0.202 C 
BRANCH  25  26
ATOM     26  C   UNL     1       6.668   6.477   2.970  1.00  0.00     0.261 C 
BRANCH  26  27
ATOM     27  O   UNL     1       6.168   7.826   2.998  1.00  0.00    -0.460 OA
BRANCH  27  28
ATOM     28  C   UNL     1       7.117   8.778   3.172  1.00  0.00     0.338 C 
ATOM     29  O   UNL     1       8.309   8.615   3.369  1.00  0.00    -0.246 OA
BRANCH  28  30
ATOM     30  C   UNL     1       6.537  10.112   2.930  1.00  0.00     0.060 A 
ATOM     31  C   UNL     1       7.168  10.934   1.987  1.00  0.00     0.016 A 
ATOM     32  C   UNL     1       5.448  10.582   3.666  1.00  0.00     0.016 A 
ATOM     33  C   UNL     1       6.738  12.247   1.806  1.00  0.00     0.010 A 
ATOM     34  C   UNL     1       5.022  11.903   3.487  1.00  0.00     0.010 A 
ATOM     35  C   UNL     1       5.685  12.751   2.581  1.00  0.00    -0.014 A 
BRANCH  35  36
ATOM     36  C   UNL     1       5.361  14.198   2.535  1.00  0.00     0.031 A 
ATOM     37  C   UNL     1       5.835  15.090   3.648  1.00  0.00     0.074 A 
ATOM     38  C   UNL     1       4.666  14.714   1.506  1.00  0.00     0.049 A 
ATOM     39  N   UNL     1       5.622  16.367   3.840  1.00  0.00    -0.248 NA
ATOM     40  C   UNL     1       6.657  14.454   4.690  1.00  0.00     0.031 C 
ATOM     41  C   UNL     1       4.185  13.959   0.351  1.00  0.00     0.029 A 
ATOM     42  N   UNL     1       4.237  15.997   1.274  1.00  0.00    -0.354 N 
ATOM     43  C   UNL     1       6.274  16.686   5.024  1.00  0.00     0.074 A 
ATOM     44  C   UNL     1       6.862  15.462   5.526  1.00  0.00     0.031 C 
ATOM     45  C   UNL     1       3.516  14.791  -0.465  1.00  0.00     0.029 A 
ATOM     46  C   UNL     1       3.492  16.127   0.129  1.00  0.00     0.049 A 
ATOM     47  H   UNL     1       4.443  16.751   1.872  1.00  0.00     0.167 HD
ATOM     48  C   UNL     1       6.379  17.891   5.633  1.00  0.00     0.037 A 
ATOM     49  C   UNL     1       2.845  17.198  -0.370  1.00  0.00     0.037 A 
ATOM     50  C   UNL     1       5.796  19.107   5.128  1.00  0.00     0.049 A 
ATOM     51  C   UNL     1       2.919  18.514   0.362  1.00  0.00     0.074 A 
ATOM     52  C   UNL     1       5.866  20.384   5.658  1.00  0.00     0.029 A 
ATOM     53  N   UNL     1       5.026  19.195   3.977  1.00  0.00    -0.354 N 
ATOM     54  N   UNL     1       3.558  18.813   1.466  1.00  0.00    -0.248 NA
ATOM     55  C   UNL     1       2.183  19.642  -0.227  1.00  0.00     0.031 C 
ATOM     56  C   UNL     1       5.091  21.232   4.861  1.00  0.00     0.029 A 
ATOM     57  C   UNL     1       4.591  20.499   3.797  1.00  0.00     0.049 A 
ATOM     58  H   UNL     1       4.819  18.442   3.376  1.00  0.00     0.167 HD
ATOM     59  C   UNL     1       3.332  20.166   1.686  1.00  0.00     0.074 A 
ATOM     60  C   UNL     1       2.502  20.632   0.595  1.00  0.00     0.031 C 
ATOM     61  C   UNL     1       3.774  20.952   2.699  1.00  0.00     0.037 A 
BRANCH  48  62
ATOM     62  C   UNL     1       7.132  17.952   6.931  1.00  0.00     0.064 A 
ATOM     63  C   UNL     1       8.524  17.788   6.988  1.00  0.00     0.173 A 
ATOM     64  C   UNL     1       6.454  18.212   8.132  1.00  0.00     0.173 A 
ATOM     65  F   UNL     1       9.220  17.525   5.871  1.00  0.00    -0.203 F 
ATOM     66  C   UNL     1       9.205  17.855   8.201  1.00  0.00     0.198 A 
ATOM     67  C   UNL     1       7.141  18.310   9.338  1.00  0.00     0.198 A 
ATOM     68  F   UNL     1       5.123  18.382   8.134  1.00  0.00    -0.203 F 
ATOM     69  F   UNL     1      10.528  17.647   8.237  1.00  0.00    -0.200 F 
ATOM     70  C   UNL     1       8.515  18.123   9.373  1.00  0.00     0.200 A 
ATOM     71  F   UNL     1       6.474  18.584  10.468  1.00  0.00    -0.200 F 
ATOM     72  F   UNL     1       9.172  18.196  10.539  1.00  0.00    -0.200 F 
ENDBRANCH  48  62
BRANCH  49  73
ATOM     73  C   UNL     1       2.059  17.071  -1.626  1.00  0.00     0.064 A 
ATOM     74  C   UNL     1       2.461  17.723  -2.800  1.00  0.00     0.173 A 
ATOM     75  C   UNL     1       0.884  16.307  -1.674  1.00  0.00     0.173 A 
ATOM     76  F   UNL     1       3.563  18.486  -2.798  1.00  0.00    -0.203 F 
ATOM     77  C   UNL     1       1.707  17.631  -3.969  1.00  0.00     0.198 A 
ATOM     78  C   UNL     1       0.147  16.191  -2.851  1.00  0.00     0.198 A 
ATOM     79  F   UNL     1       0.454  15.664  -0.578  1.00  0.00    -0.203 F 
ATOM     80  F   UNL     1       2.087  18.304  -5.063  1.00  0.00    -0.200 F 
ATOM     81  C   UNL     1       0.555  16.860  -3.995  1.00  0.00     0.200 A 
ATOM     82  F   UNL     1      -0.958  15.434  -2.875  1.00  0.00    -0.200 F 
ATOM     83  F   UNL     1      -0.168  16.769  -5.120  1.00  0.00    -0.200 F 
ENDBRANCH  49  73
BRANCH  61  84
ATOM     84  C   UNL     1       3.412  22.410   2.656  1.00  0.00     0.064 A 
ATOM     85  C   UNL     1       2.103  22.855   2.892  1.00  0.00     0.173 A 
ATOM     86  C   UNL     1       4.402  23.378   2.421  1.00  0.00     0.173 A 
ATOM     87  F   UNL     1       1.117  21.971   3.107  1.00  0.00    -0.203 F 
ATOM     88  C   UNL     1       1.794  24.213   2.870  1.00  0.00     0.198 A 
ATOM     89  C   UNL     1       4.096  24.735   2.433  1.00  0.00     0.198 A 
ATOM     90  F   UNL     1       5.671  23.006   2.198  1.00  0.00    -0.203 F 
ATOM     91  F   UNL     1       0.528  24.613   3.050  1.00  0.00    -0.200 F 
ATOM     92  C   UNL     1       2.791  25.152   2.649  1.00  0.00     0.200 A 
ATOM     93  F   UNL     1       5.064  25.641   2.236  1.00  0.00    -0.200 F 
ATOM     94  F   UNL     1       2.494  26.459   2.639  1.00  0.00    -0.200 F 
ENDBRANCH  61  84
ENDBRANCH  35  36
ENDBRANCH  28  30
ENDBRANCH  27  28
ENDBRANCH  26  27
ENDBRANCH  25  26
ENDBRANCH   1  25
TORSDOF 17
