REMARK SMILES N#CCC[NH+]1CCN(c2ccc(NS(=O)(=O)c3ccccc3Cl)cc2C(=O)OCCOCCOC(=O)c2ccc(-c3c4nc(c(-c5c(F)c(F)c(F)c(F)c5F)c5ccc([nH]5)c(-c5c(F)c(F)c(F)c(F)c5F)c5nc(c(-c6c(F)c(F)c(F)c(F)c6F)c6ccc3[nH]6)C=C5)C=C4)cc2)CC1
REMARK SMILES IDX 30 1 29 2 28 3 26 4 27 5 25 6 9 7 10 8 11 9 24 10 12 11 8 12
REMARK SMILES IDX 5 13 6 14 101 15 7 17 100 18 4 19 3 20 2 21 1 22 13 23 14 25
REMARK SMILES IDX 15 26 16 27 17 28 18 29 22 30 19 31 21 32 23 33 20 34 31 35
REMARK SMILES IDX 32 36 33 37 34 38 35 39 36 40 37 41 38 42 99 43 39 44 98 45
REMARK SMILES IDX 40 46 41 47 42 48 92 49 43 50 97 51 91 52 93 53 44 54 96 55
REMARK SMILES IDX 90 56 89 57 45 59 77 60 57 61 76 62 58 63 61 64 75 65 94 66
REMARK SMILES IDX 59 67 60 68 74 70 95 71 62 72 46 73 47 74 55 75 48 76 49 77
REMARK SMILES IDX 53 78 56 79 50 80 51 81 54 82 52 83 78 84 79 85 87 86 80 87
REMARK SMILES IDX 81 88 85 89 88 90 82 91 83 92 86 93 84 94 63 95 64 96 72 97
REMARK SMILES IDX 65 98 66 99 70 100 73 101 67 102 68 103 71 104 69 105
REMARK H PARENT 5 16 13 24 93 58 61 69
REMARK Flexibility Score: inf
ROOT
ATOM      1  C   UNL     1       0.249   5.269   1.162  1.00  0.00     0.202 C 
ENDROOT
BRANCH   1   2
ATOM      2  C   UNL     1       0.488   5.768  -0.272  1.00  0.00     0.261 C 
BRANCH   2   3
ATOM      3  O   UNL     1       1.900   5.994  -0.442  1.00  0.00    -0.460 OA
BRANCH   3   4
ATOM      4  C   UNL     1       2.315   6.858  -1.387  1.00  0.00     0.340 C 
ATOM      5  O   UNL     1       1.613   7.393  -2.229  1.00  0.00    -0.246 OA
BRANCH   4   6
ATOM      6  C   UNL     1       3.737   7.221  -1.107  1.00  0.00     0.085 A 
ATOM      7  C   UNL     1       4.783   6.320  -0.747  1.00  0.00     0.052 A 
ATOM      8  C   UNL     1       5.957   6.950  -0.272  1.00  0.00     0.029 A 
ATOM      9  C   UNL     1       6.111   8.332  -0.166  1.00  0.00     0.029 A 
ATOM     10  C   UNL     1       3.942   8.629  -1.110  1.00  0.00     0.044 A 
ATOM     11  C   UNL     1       5.133   9.175  -0.649  1.00  0.00     0.050 A 
BRANCH   7  12
ATOM     12  N   UNL     1       4.779   4.935  -0.843  1.00  0.00    -0.360 N 
ATOM     13  N   UNL     1       3.904   2.332   0.207  1.00  0.00    -0.331 N 
ATOM     14  C   UNL     1       4.986   3.111   0.829  1.00  0.00     0.284 C 
ATOM     15  C   UNL     1       3.038   3.211  -0.605  1.00  0.00     0.284 C 
ATOM     16  H   UNL     1       3.356   1.941   0.974  1.00  0.00     0.348 HD
ATOM     17  C   UNL     1       5.739   4.062  -0.122  1.00  0.00     0.178 C 
ATOM     18  C   UNL     1       3.797   4.133  -1.591  1.00  0.00     0.178 C 
BRANCH  13  19
ATOM     19  C   UNL     1       4.362   1.178  -0.554  1.00  0.00     0.277 C 
BRANCH  19  20
ATOM     20  C   UNL     1       3.758  -0.063   0.074  1.00  0.00     0.181 C 
BRANCH  20  21
ATOM     21  C   UNL     1       2.238  -0.063   0.074  1.00  0.00     0.068 C 
ATOM     22  N   UNL     1       0.977  -0.063   0.074  1.00  0.00    -0.198 NA
ENDBRANCH  20  21
ENDBRANCH  19  20
ENDBRANCH  13  19
ENDBRANCH   7  12
BRANCH  11  23
ATOM     23  N   UNL     1       5.401  10.579  -0.667  1.00  0.00    -0.280 N 
ATOM     24  H   UNL     1       5.041  11.165   0.037  1.00  0.00     0.180 HD
BRANCH  23  25
ATOM     25  S   UNL     1       6.359  11.231  -1.936  1.00  0.00     0.263 S 
ATOM     26  O   UNL     1       5.564  11.116  -3.142  1.00  0.00    -0.201 OA
ATOM     27  O   UNL     1       6.757  12.540  -1.471  1.00  0.00    -0.201 OA
BRANCH  25  28
ATOM     28  C   UNL     1       7.775  10.173  -2.146  1.00  0.00     0.106 A 
ATOM     29  C   UNL     1       7.549   8.956  -2.821  1.00  0.00     0.024 A 
ATOM     30  C   UNL     1       9.074  10.490  -1.741  1.00  0.00     0.061 A 
ATOM     31  C   UNL     1       8.570   8.018  -2.981  1.00  0.00     0.002 A 
ATOM     32  C   UNL     1      10.104   9.553  -1.942  1.00  0.00     0.022 A 
ATOM     33  Cl  UNL     1       9.560  11.968  -1.002  1.00  0.00    -0.083 Cl
ATOM     34  C   UNL     1       9.850   8.315  -2.534  1.00  0.00     0.002 A 
ENDBRANCH  25  28
ENDBRANCH  23  25
ENDBRANCH  11  23
ENDBRANCH   4   6
ENDBRANCH   3   4
ENDBRANCH   2   3
ENDBRANCH   1   2
BRANCH   1  35
ATOM     35  O   UNL     1       0.522   6.266   2.152  1.00  0.00    -0.374 OA
BRANCH  35  36
ATOM     36  C   UNL     1       1.901   6.460   2.471  1.00  0.00     0.202 C 
BRANCH  36  37
ATOM     37  C   UNL     1       2.406   5.620   3.647  1.00  0.00     0.261 C 
BRANCH  37  38
ATOM     38  O   UNL     1       2.448   4.207   3.356  1.00  0.00    -0.460 OA
BRANCH  38  39
ATOM     39  C   UNL     1       1.437   3.470   3.886  1.00  0.00     0.338 C 
ATOM     40  O   UNL     1       0.500   3.894   4.542  1.00  0.00    -0.246 OA
BRANCH  39  41
ATOM     41  C   UNL     1       1.581   2.027   3.557  1.00  0.00     0.060 A 
ATOM     42  C   UNL     1       0.423   1.257   3.358  1.00  0.00     0.016 A 
ATOM     43  C   UNL     1       2.821   1.397   3.532  1.00  0.00     0.016 A 
ATOM     44  C   UNL     1       0.494  -0.133   3.131  1.00  0.00     0.010 A 
ATOM     45  C   UNL     1       2.885   0.013   3.308  1.00  0.00     0.010 A 
ATOM     46  C   UNL     1       1.728  -0.785   3.093  1.00  0.00    -0.014 A 
BRANCH  46  47
ATOM     47  C   UNL     1       1.916  -2.265   2.886  1.00  0.00     0.031 A 
ATOM     48  C   UNL     1       2.585  -3.038   3.977  1.00  0.00     0.074 A 
ATOM     49  C   UNL     1       1.611  -2.969   1.768  1.00  0.00     0.049 A 
ATOM     50  N   UNL     1       2.959  -4.289   3.966  1.00  0.00    -0.248 NA
ATOM     51  C   UNL     1       2.781  -2.353   5.264  1.00  0.00     0.031 C 
ATOM     52  C   UNL     1       0.708  -2.593   0.701  1.00  0.00     0.029 A 
ATOM     53  N   UNL     1       2.182  -4.124   1.266  1.00  0.00    -0.354 N 
ATOM     54  C   UNL     1       3.277  -4.578   5.275  1.00  0.00     0.074 A 
ATOM     55  C   UNL     1       3.273  -3.331   6.008  1.00  0.00     0.031 C 
ATOM     56  C   UNL     1       1.033  -3.240  -0.432  1.00  0.00     0.029 A 
ATOM     57  C   UNL     1       2.026  -4.244  -0.103  1.00  0.00     0.049 A 
ATOM     58  H   UNL     1       2.649  -4.788   1.822  1.00  0.00     0.167 HD
ATOM     59  C   UNL     1       3.405  -5.801   5.833  1.00  0.00     0.037 A 
ATOM     60  C   UNL     1       2.578  -5.093  -0.991  1.00  0.00     0.037 A 
ATOM     61  C   UNL     1       3.403  -7.032   5.092  1.00  0.00     0.049 A 
ATOM     62  C   UNL     1       3.088  -6.381  -0.426  1.00  0.00     0.074 A 
ATOM     63  C   UNL     1       3.475  -8.328   5.565  1.00  0.00     0.029 A 
ATOM     64  N   UNL     1       3.348  -7.115   3.706  1.00  0.00    -0.354 N 
ATOM     65  N   UNL     1       3.258  -6.698   0.831  1.00  0.00    -0.248 NA
ATOM     66  C   UNL     1       3.298  -7.487  -1.367  1.00  0.00     0.031 C 
ATOM     67  C   UNL     1       3.536  -9.191   4.464  1.00  0.00     0.029 A 
ATOM     68  C   UNL     1       3.459  -8.436   3.304  1.00  0.00     0.049 A 
ATOM     69  H   UNL     1       3.246  -6.347   3.099  1.00  0.00     0.167 HD
ATOM     70  C   UNL     1       3.432  -8.069   0.851  1.00  0.00     0.074 A 
ATOM     71  C   UNL     1       3.447  -8.508  -0.532  1.00  0.00     0.031 C 
ATOM     72  C   UNL     1       3.486  -8.883   1.932  1.00  0.00     0.037 A 
BRANCH  59  73
ATOM     73  C   UNL     1       3.489  -5.827   7.323  1.00  0.00     0.064 A 
ATOM     74  C   UNL     1       2.371  -5.504   8.114  1.00  0.00     0.173 A 
ATOM     75  C   UNL     1       4.696  -6.112   7.967  1.00  0.00     0.173 A 
ATOM     76  F   UNL     1       1.200  -5.194   7.535  1.00  0.00    -0.203 F 
ATOM     77  C   UNL     1       2.474  -5.428   9.498  1.00  0.00     0.198 A 
ATOM     78  C   UNL     1       4.788  -6.060   9.354  1.00  0.00     0.198 A 
ATOM     79  F   UNL     1       5.789  -6.410   7.250  1.00  0.00    -0.203 F 
ATOM     80  F   UNL     1       1.416  -5.051  10.228  1.00  0.00    -0.200 F 
ATOM     81  C   UNL     1       3.683  -5.708  10.116  1.00  0.00     0.200 A 
ATOM     82  F   UNL     1       5.956  -6.326   9.953  1.00  0.00    -0.200 F 
ATOM     83  F   UNL     1       3.788  -5.619  11.449  1.00  0.00    -0.200 F 
ENDBRANCH  59  73
BRANCH  60  84
ATOM     84  C   UNL     1       2.466  -4.881  -2.458  1.00  0.00     0.064 A 
ATOM     85  C   UNL     1       1.448  -5.472  -3.217  1.00  0.00     0.173 A 
ATOM     86  C   UNL     1       3.413  -4.100  -3.140  1.00  0.00     0.173 A 
ATOM     87  F   UNL     1       0.533  -6.244  -2.615  1.00  0.00    -0.203 F 
ATOM     88  C   UNL     1       1.388  -5.307  -4.601  1.00  0.00     0.198 A 
ATOM     89  C   UNL     1       3.351  -3.933  -4.526  1.00  0.00     0.198 A 
ATOM     90  F   UNL     1       4.414  -3.514  -2.465  1.00  0.00    -0.203 F 
ATOM     91  F   UNL     1       0.421  -5.912  -5.304  1.00  0.00    -0.200 F 
ATOM     92  C   UNL     1       2.340  -4.540  -5.255  1.00  0.00     0.200 A 
ATOM     93  F   UNL     1       4.278  -3.196  -5.154  1.00  0.00    -0.200 F 
ATOM     94  F   UNL     1       2.291  -4.396  -6.587  1.00  0.00    -0.200 F 
ENDBRANCH  60  84
BRANCH  72  95
ATOM     95  C   UNL     1       3.525 -10.356   1.671  1.00  0.00     0.064 A 
ATOM     96  C   UNL     1       4.659 -10.977   1.133  1.00  0.00     0.173 A 
ATOM     97  C   UNL     1       2.421 -11.160   1.994  1.00  0.00     0.173 A 
ATOM     98  F   UNL     1       5.728 -10.244   0.785  1.00  0.00    -0.203 F 
ATOM     99  C   UNL     1       4.681 -12.349   0.908  1.00  0.00     0.198 A 
ATOM    100  C   UNL     1       2.458 -12.537   1.798  1.00  0.00     0.198 A 
ATOM    101  F   UNL     1       1.309 -10.612   2.507  1.00  0.00    -0.203 F 
ATOM    102  F   UNL     1       5.758 -12.915   0.348  1.00  0.00    -0.200 F 
ATOM    103  C   UNL     1       3.586 -13.129   1.250  1.00  0.00     0.200 A 
ATOM    104  F   UNL     1       1.403 -13.290   2.139  1.00  0.00    -0.200 F 
ATOM    105  F   UNL     1       3.615 -14.453   1.044  1.00  0.00    -0.200 F 
ENDBRANCH  72  95
ENDBRANCH  46  47
ENDBRANCH  39  41
ENDBRANCH  38  39
ENDBRANCH  37  38
ENDBRANCH  36  37
ENDBRANCH  35  36
ENDBRANCH   1  35
TORSDOF 21
