REMARK SMILES N#C[C@H]1CN(c2cc(C(=O)OCCOCCOC(=O)c3ccc(-c4c5nc(c(-c6c(F)c(F)c(F)c(F)c6F)c6ccc([nH]6)c(-c6c(F)c(F)c(F)c(F)c6F)c6nc(c(-c7c(F)c(F)c(F)c(F)c7F)c7ccc4[nH]7)C=C6)C=C5)cc3)c(N)cc2F)CCO1
REMARK SMILES IDX 14 1 13 2 12 3 11 4 9 5 10 6 8 7 6 8 7 9 86 10 85 11 87 12
REMARK SMILES IDX 83 13 5 14 3 15 4 16 90 17 89 18 88 19 2 20 1 21 84 22 15 25
REMARK SMILES IDX 16 26 17 27 18 28 19 29 20 30 21 31 82 32 22 33 81 34 23 35
REMARK SMILES IDX 24 36 25 37 75 38 26 39 80 40 74 41 76 42 27 43 79 44 73 45
REMARK SMILES IDX 72 46 28 48 60 49 40 50 59 51 41 52 44 53 58 54 77 55 42 56
REMARK SMILES IDX 43 57 57 59 78 60 45 61 29 62 30 63 38 64 31 65 32 66 36 67
REMARK SMILES IDX 39 68 33 69 34 70 37 71 35 72 61 73 62 74 70 75 63 76 64 77
REMARK SMILES IDX 68 78 71 79 65 80 66 81 69 82 67 83 46 84 47 85 55 86 48 87
REMARK SMILES IDX 49 88 53 89 56 90 50 91 51 92 54 93 52 94
REMARK H PARENT 84 23 84 24 76 47 44 58
REMARK Flexibility Score: inf
ROOT
ATOM      1  O   UNL     1       4.510   7.028  -4.091  1.00  0.00    -0.374 OA
ENDROOT
BRANCH   1   2
ATOM      2  C   UNL     1       4.117   7.361  -5.418  1.00  0.00     0.202 C 
BRANCH   2   3
ATOM      3  C   UNL     1       4.168   6.276  -6.496  1.00  0.00     0.261 C 
BRANCH   3   4
ATOM      4  O   UNL     1       3.358   5.142  -6.154  1.00  0.00    -0.460 OA
BRANCH   4   5
ATOM      5  C   UNL     1       4.066   4.035  -5.809  1.00  0.00     0.340 C 
ATOM      6  O   UNL     1       5.279   3.905  -5.882  1.00  0.00    -0.246 OA
BRANCH   5   7
ATOM      7  C   UNL     1       3.201   3.031  -5.139  1.00  0.00     0.085 A 
ATOM      8  C   UNL     1       3.185   1.243  -3.475  1.00  0.00     0.074 A 
ATOM      9  C   UNL     1       3.830   2.300  -4.109  1.00  0.00     0.047 A 
ATOM     10  C   UNL     1       1.886   0.938  -3.902  1.00  0.00     0.148 A 
ATOM     11  C   UNL     1       1.228   1.694  -4.873  1.00  0.00     0.067 A 
ATOM     12  F   UNL     1       1.240  -0.108  -3.360  1.00  0.00    -0.205 F 
ATOM     13  C   UNL     1       1.857   2.788  -5.476  1.00  0.00     0.049 A 
BRANCH   8  14
ATOM     14  N   UNL     1       3.831   0.487  -2.530  1.00  0.00    -0.363 N 
ATOM     15  C   UNL     1       3.804  -0.043  -0.132  1.00  0.00     0.240 C 
ATOM     16  C   UNL     1       4.219   0.991  -1.209  1.00  0.00     0.164 C 
ATOM     17  O   UNL     1       4.319  -1.361  -0.450  1.00  0.00    -0.360 OA
ATOM     18  C   UNL     1       3.822  -1.811  -1.724  1.00  0.00     0.183 C 
ATOM     19  C   UNL     1       4.255  -0.874  -2.856  1.00  0.00     0.145 C 
BRANCH  15  20
ATOM     20  C   UNL     1       4.292   0.384   1.190  1.00  0.00     0.096 C 
ATOM     21  N   UNL     1       4.661   0.744   2.234  1.00  0.00    -0.195 NA
ENDBRANCH  15  20
ENDBRANCH   8  14
BRANCH  13  22
ATOM     22  N   UNL     1       1.178   3.474  -6.478  1.00  0.00    -0.398 N 
ATOM     23  H   UNL     1       1.600   4.247  -6.918  1.00  0.00     0.156 HD
ATOM     24  H   UNL     1       0.276   3.186  -6.748  1.00  0.00     0.156 HD
ENDBRANCH  13  22
ENDBRANCH   5   7
ENDBRANCH   4   5
ENDBRANCH   3   4
ENDBRANCH   2   3
ENDBRANCH   1   2
BRANCH   1  25
ATOM     25  C   UNL     1       3.638   6.224  -3.300  1.00  0.00     0.202 C 
BRANCH  25  26
ATOM     26  C   UNL     1       2.319   6.825  -2.794  1.00  0.00     0.261 C 
BRANCH  26  27
ATOM     27  O   UNL     1       1.450   7.286  -3.841  1.00  0.00    -0.460 OA
BRANCH  27  28
ATOM     28  C   UNL     1       1.397   8.636  -3.971  1.00  0.00     0.338 C 
ATOM     29  O   UNL     1       1.973   9.473  -3.299  1.00  0.00    -0.246 OA
BRANCH  28  30
ATOM     30  C   UNL     1       0.659   8.978  -5.199  1.00  0.00     0.060 A 
ATOM     31  C   UNL     1       1.335   9.684  -6.203  1.00  0.00     0.016 A 
ATOM     32  C   UNL     1      -0.693   8.665  -5.333  1.00  0.00     0.016 A 
ATOM     33  C   UNL     1       0.653  10.096  -7.345  1.00  0.00     0.010 A 
ATOM     34  C   UNL     1      -1.377   9.089  -6.474  1.00  0.00     0.010 A 
ATOM     35  C   UNL     1      -0.714   9.823  -7.475  1.00  0.00    -0.014 A 
BRANCH  35  36
ATOM     36  C   UNL     1      -1.484  10.377  -8.614  1.00  0.00     0.031 A 
ATOM     37  C   UNL     1      -2.407  11.538  -8.388  1.00  0.00     0.074 A 
ATOM     38  C   UNL     1      -1.368   9.833  -9.838  1.00  0.00     0.049 A 
ATOM     39  N   UNL     1      -3.236  12.117  -9.220  1.00  0.00    -0.248 NA
ATOM     40  C   UNL     1      -2.402  12.117  -7.037  1.00  0.00     0.031 C 
ATOM     41  C   UNL     1      -0.470   8.736 -10.190  1.00  0.00     0.029 A 
ATOM     42  N   UNL     1      -2.022  10.126 -11.007  1.00  0.00    -0.354 N 
ATOM     43  C   UNL     1      -3.859  13.121  -8.491  1.00  0.00     0.074 A 
ATOM     44  C   UNL     1      -3.345  13.041  -7.140  1.00  0.00     0.031 C 
ATOM     45  C   UNL     1      -0.628   8.447 -11.492  1.00  0.00     0.029 A 
ATOM     46  C   UNL     1      -1.672   9.305 -12.049  1.00  0.00     0.049 A 
ATOM     47  H   UNL     1      -2.678  10.855 -11.091  1.00  0.00     0.167 HD
ATOM     48  C   UNL     1      -4.771  14.031  -8.914  1.00  0.00     0.037 A 
ATOM     49  C   UNL     1      -2.158   9.239 -13.303  1.00  0.00     0.037 A 
ATOM     50  C   UNL     1      -5.290  14.087 -10.257  1.00  0.00     0.049 A 
ATOM     51  C   UNL     1      -3.255  10.183 -13.719  1.00  0.00     0.074 A 
ATOM     52  C   UNL     1      -6.203  14.978 -10.795  1.00  0.00     0.029 A 
ATOM     53  N   UNL     1      -4.956  13.200 -11.272  1.00  0.00    -0.354 N 
ATOM     54  N   UNL     1      -3.821  11.150 -13.039  1.00  0.00    -0.248 NA
ATOM     55  C   UNL     1      -3.782  10.021 -15.081  1.00  0.00     0.031 C 
ATOM     56  C   UNL     1      -6.481  14.582 -12.108  1.00  0.00     0.029 A 
ATOM     57  C   UNL     1      -5.680  13.494 -12.418  1.00  0.00     0.049 A 
ATOM     58  H   UNL     1      -4.301  12.470 -11.190  1.00  0.00     0.167 HD
ATOM     59  C   UNL     1      -4.744  11.734 -13.897  1.00  0.00     0.074 A 
ATOM     60  C   UNL     1      -4.653  11.018 -15.153  1.00  0.00     0.031 C 
ATOM     61  C   UNL     1      -5.585  12.773 -13.665  1.00  0.00     0.037 A 
BRANCH  48  62
ATOM     62  C   UNL     1      -5.298  15.002  -7.892  1.00  0.00     0.064 A 
ATOM     63  C   UNL     1      -4.476  15.969  -7.290  1.00  0.00     0.173 A 
ATOM     64  C   UNL     1      -6.645  14.957  -7.498  1.00  0.00     0.173 A 
ATOM     65  F   UNL     1      -3.179  16.055  -7.623  1.00  0.00    -0.203 F 
ATOM     66  C   UNL     1      -4.965  16.807  -6.291  1.00  0.00     0.198 A 
ATOM     67  C   UNL     1      -7.141  15.827  -6.530  1.00  0.00     0.198 A 
ATOM     68  F   UNL     1      -7.483  14.065  -8.047  1.00  0.00    -0.203 F 
ATOM     69  F   UNL     1      -4.139  17.661  -5.671  1.00  0.00    -0.200 F 
ATOM     70  C   UNL     1      -6.298  16.738  -5.914  1.00  0.00     0.200 A 
ATOM     71  F   UNL     1      -8.435  15.772  -6.183  1.00  0.00    -0.200 F 
ATOM     72  F   UNL     1      -6.766  17.540  -4.948  1.00  0.00    -0.200 F 
ENDBRANCH  48  62
BRANCH  49  73
ATOM     73  C   UNL     1      -1.597   8.250 -14.259  1.00  0.00     0.064 A 
ATOM     74  C   UNL     1      -0.852   8.674 -15.368  1.00  0.00     0.173 A 
ATOM     75  C   UNL     1      -1.777   6.870 -14.083  1.00  0.00     0.173 A 
ATOM     76  F   UNL     1      -0.671   9.984 -15.591  1.00  0.00    -0.203 F 
ATOM     77  C   UNL     1      -0.316   7.757 -16.269  1.00  0.00     0.198 A 
ATOM     78  C   UNL     1      -1.215   5.952 -14.968  1.00  0.00     0.198 A 
ATOM     79  F   UNL     1      -2.481   6.412 -13.037  1.00  0.00    -0.203 F 
ATOM     80  F   UNL     1       0.359   8.192 -17.341  1.00  0.00    -0.200 F 
ATOM     81  C   UNL     1      -0.490   6.396 -16.063  1.00  0.00     0.200 A 
ATOM     82  F   UNL     1      -1.371   4.638 -14.755  1.00  0.00    -0.200 F 
ATOM     83  F   UNL     1       0.036   5.514 -16.923  1.00  0.00    -0.200 F 
ENDBRANCH  49  73
BRANCH  61  84
ATOM     84  C   UNL     1      -6.457  13.227 -14.805  1.00  0.00     0.064 A 
ATOM     85  C   UNL     1      -7.517  12.444 -15.287  1.00  0.00     0.173 A 
ATOM     86  C   UNL     1      -6.258  14.488 -15.391  1.00  0.00     0.173 A 
ATOM     87  F   UNL     1      -7.744  11.226 -14.774  1.00  0.00    -0.203 F 
ATOM     88  C   UNL     1      -8.326  12.894 -16.328  1.00  0.00     0.198 A 
ATOM     89  C   UNL     1      -7.092  14.950 -16.405  1.00  0.00     0.198 A 
ATOM     90  F   UNL     1      -5.263  15.282 -14.967  1.00  0.00    -0.203 F 
ATOM     91  F   UNL     1      -9.298  12.106 -16.807  1.00  0.00    -0.200 F 
ATOM     92  C   UNL     1      -8.120  14.150 -16.879  1.00  0.00     0.200 A 
ATOM     93  F   UNL     1      -6.902  16.172 -16.922  1.00  0.00    -0.200 F 
ATOM     94  F   UNL     1      -8.908  14.587 -17.871  1.00  0.00    -0.200 F 
ENDBRANCH  61  84
ENDBRANCH  35  36
ENDBRANCH  28  30
ENDBRANCH  27  28
ENDBRANCH  26  27
ENDBRANCH  25  26
ENDBRANCH   1  25
TORSDOF 17
