REMARK SMILES COc1ccc(NC2=[NH+]C(=O)/C(=C\c3ccccc3C(=O)OCCOCCOC(=O)c3ccc(-c4c5nc(c(-c6c(F)c(F)c(F)c(F)c6F)c6ccc([nH]6)c(-c6c(F)c(F)c(F)c(F)c6F)c6nc(c(-c7c(F)c(F)c(F)c(F)c7F)c7ccc4[nH]7)C=C6)C=C5)cc3)S2)cc1
REMARK SMILES IDX 24 1 23 2 22 3 20 4 21 5 19 6 14 7 15 8 16 9 18 10 17 11
REMARK SMILES IDX 13 12 7 13 8 14 9 16 94 17 10 18 12 20 11 21 6 22 3 23 4 24
REMARK SMILES IDX 96 25 5 26 95 27 2 28 1 29 25 30 26 31 27 32 28 33 29 34
REMARK SMILES IDX 30 35 31 36 32 37 93 38 33 39 92 40 34 41 35 42 36 43 86 44
REMARK SMILES IDX 37 45 91 46 85 47 87 48 38 49 90 50 84 51 83 52 39 54 71 55
REMARK SMILES IDX 51 56 70 57 52 58 55 59 69 60 88 61 53 62 54 63 68 65 89 66
REMARK SMILES IDX 56 67 40 68 41 69 49 70 42 71 43 72 47 73 50 74 44 75 45 76
REMARK SMILES IDX 48 77 46 78 72 79 73 80 81 81 74 82 75 83 79 84 82 85 76 86
REMARK SMILES IDX 77 87 80 88 78 89 57 90 58 91 66 92 59 93 60 94 64 95 67 96
REMARK SMILES IDX 61 97 62 98 65 99 63 100
REMARK H PARENT 7 15 9 19 87 53 55 64
REMARK Flexibility Score: inf
ROOT
ATOM      1  C   UNL     1      -2.250   3.861  -7.170  1.00  0.00     0.202 C 
ENDROOT
BRANCH   1   2
ATOM      2  C   UNL     1      -0.925   4.598  -7.379  1.00  0.00     0.261 C 
BRANCH   2   3
ATOM      3  O   UNL     1      -1.107   6.010  -7.169  1.00  0.00    -0.460 OA
BRANCH   3   4
ATOM      4  C   UNL     1      -0.723   6.820  -8.186  1.00  0.00     0.338 C 
ATOM      5  O   UNL     1      -0.167   6.459  -9.211  1.00  0.00    -0.246 OA
BRANCH   4   6
ATOM      6  C   UNL     1      -1.231   8.208  -7.985  1.00  0.00     0.067 A 
ATOM      7  C   UNL     1      -1.405   8.849  -6.737  1.00  0.00    -0.010 A 
ATOM      8  C   UNL     1      -1.920  10.158  -6.721  1.00  0.00     0.009 A 
ATOM      9  C   UNL     1      -2.263  10.815  -7.907  1.00  0.00     0.001 A 
ATOM     10  C   UNL     1      -1.586   8.881  -9.169  1.00  0.00     0.016 A 
ATOM     11  C   UNL     1      -2.105  10.173  -9.130  1.00  0.00     0.001 A 
BRANCH   7  12
ATOM     12  C   UNL     1      -1.162   8.218  -5.428  1.00  0.00     0.033 C 
ATOM     13  N   UNL     1       2.414   5.223  -3.471  1.00  0.00    -0.235 N 
ATOM     14  C   UNL     1       1.713   6.194  -4.120  1.00  0.00     0.322 C 
ATOM     15  H   UNL     1       3.353   5.443  -3.276  1.00  0.00     0.313 HD
ATOM     16  N   UNL     1       2.208   6.845  -5.124  1.00  0.00    -0.199 N 
ATOM     17  S   UNL     1       0.120   6.704  -3.595  1.00  0.00     0.006 SA
ATOM     18  C   UNL     1       1.329   7.750  -5.670  1.00  0.00     0.346 C 
ATOM     19  H   UNL     1       3.122   6.706  -5.463  1.00  0.00     0.316 HD
ATOM     20  C   UNL     1      -0.003   7.703  -4.996  1.00  0.00     0.110 C 
ATOM     21  O   UNL     1       1.596   8.503  -6.598  1.00  0.00    -0.240 OA
BRANCH  13  22
ATOM     22  C   UNL     1       1.994   3.951  -3.038  1.00  0.00     0.125 A 
ATOM     23  C   UNL     1       1.270   1.394  -2.079  1.00  0.00     0.119 A 
ATOM     24  C   UNL     1       0.420   2.099  -2.927  1.00  0.00     0.051 A 
ATOM     25  C   UNL     1       2.498   1.946  -1.729  1.00  0.00     0.051 A 
ATOM     26  C   UNL     1       0.768   3.374  -3.385  1.00  0.00     0.055 A 
ATOM     27  C   UNL     1       2.850   3.217  -2.201  1.00  0.00     0.055 A 
BRANCH  23  28
ATOM     28  O   UNL     1       0.840   0.156  -1.695  1.00  0.00    -0.497 OA
ATOM     29  C   UNL     1       1.118  -0.167  -0.334  1.00  0.00     0.278 C 
ENDBRANCH  23  28
ENDBRANCH  13  22
ENDBRANCH   7  12
ENDBRANCH   4   6
ENDBRANCH   3   4
ENDBRANCH   2   3
ENDBRANCH   1   2
BRANCH   1  30
ATOM     30  O   UNL     1      -3.232   4.059  -8.189  1.00  0.00    -0.374 OA
BRANCH  30  31
ATOM     31  C   UNL     1      -3.908   5.314  -8.213  1.00  0.00     0.202 C 
BRANCH  31  32
ATOM     32  C   UNL     1      -5.090   5.459  -7.249  1.00  0.00     0.261 C 
BRANCH  32  33
ATOM     33  O   UNL     1      -4.704   5.324  -5.869  1.00  0.00    -0.460 OA
BRANCH  33  34
ATOM     34  C   UNL     1      -5.076   4.151  -5.301  1.00  0.00     0.338 C 
ATOM     35  O   UNL     1      -5.722   3.252  -5.812  1.00  0.00    -0.246 OA
BRANCH  34  36
ATOM     36  C   UNL     1      -4.480   4.014  -3.957  1.00  0.00     0.060 A 
ATOM     37  C   UNL     1      -3.857   2.798  -3.654  1.00  0.00     0.016 A 
ATOM     38  C   UNL     1      -4.621   5.002  -2.978  1.00  0.00     0.016 A 
ATOM     39  C   UNL     1      -3.424   2.543  -2.356  1.00  0.00     0.010 A 
ATOM     40  C   UNL     1      -4.192   4.741  -1.671  1.00  0.00     0.010 A 
ATOM     41  C   UNL     1      -3.624   3.497  -1.348  1.00  0.00    -0.014 A 
BRANCH  41  42
ATOM     42  C   UNL     1      -3.356   3.111   0.058  1.00  0.00     0.031 A 
ATOM     43  C   UNL     1      -4.463   2.519   0.881  1.00  0.00     0.074 A 
ATOM     44  C   UNL     1      -2.120   3.226   0.574  1.00  0.00     0.049 A 
ATOM     45  N   UNL     1      -4.424   2.023   2.092  1.00  0.00    -0.248 NA
ATOM     46  C   UNL     1      -5.795   2.489   0.258  1.00  0.00     0.031 C 
ATOM     47  C   UNL     1      -0.974   3.791  -0.127  1.00  0.00     0.029 A 
ATOM     48  N   UNL     1      -1.621   2.850   1.795  1.00  0.00    -0.354 N 
ATOM     49  C   UNL     1      -5.725   1.633   2.380  1.00  0.00     0.074 A 
ATOM     50  C   UNL     1      -6.532   1.962   1.225  1.00  0.00     0.031 C 
ATOM     51  C   UNL     1       0.112   3.683   0.657  1.00  0.00     0.029 A 
ATOM     52  C   UNL     1      -0.271   3.062   1.922  1.00  0.00     0.049 A 
ATOM     53  H   UNL     1      -2.177   2.466   2.511  1.00  0.00     0.167 HD
ATOM     54  C   UNL     1      -6.202   1.057   3.510  1.00  0.00     0.037 A 
ATOM     55  C   UNL     1       0.562   2.768   2.939  1.00  0.00     0.037 A 
ATOM     56  C   UNL     1      -5.399   0.743   4.663  1.00  0.00     0.049 A 
ATOM     57  C   UNL     1       0.009   2.114   4.178  1.00  0.00     0.074 A 
ATOM     58  C   UNL     1      -5.792   0.172   5.861  1.00  0.00     0.029 A 
ATOM     59  N   UNL     1      -4.036   0.980   4.763  1.00  0.00    -0.354 N 
ATOM     60  N   UNL     1      -1.215   1.718   4.431  1.00  0.00    -0.248 NA
ATOM     61  C   UNL     1       0.956   1.871   5.276  1.00  0.00     0.031 C 
ATOM     62  C   UNL     1      -4.675   0.103   6.701  1.00  0.00     0.029 A 
ATOM     63  C   UNL     1      -3.575   0.582   6.008  1.00  0.00     0.049 A 
ATOM     64  H   UNL     1      -3.478   1.373   4.053  1.00  0.00     0.167 HD
ATOM     65  C   UNL     1      -1.185   1.175   5.709  1.00  0.00     0.074 A 
ATOM     66  C   UNL     1       0.187   1.257   6.165  1.00  0.00     0.031 C 
ATOM     67  C   UNL     1      -2.205   0.668   6.445  1.00  0.00     0.037 A 
BRANCH  54  68
ATOM     68  C   UNL     1      -7.673   0.770   3.565  1.00  0.00     0.064 A 
ATOM     69  C   UNL     1      -8.251  -0.268   2.820  1.00  0.00     0.173 A 
ATOM     70  C   UNL     1      -8.513   1.536   4.388  1.00  0.00     0.173 A 
ATOM     71  F   UNL     1      -7.493  -1.017   2.006  1.00  0.00    -0.203 F 
ATOM     72  C   UNL     1      -9.621  -0.513   2.878  1.00  0.00     0.198 A 
ATOM     73  C   UNL     1      -9.878   1.271   4.463  1.00  0.00     0.198 A 
ATOM     74  F   UNL     1      -8.010   2.540   5.121  1.00  0.00    -0.203 F 
ATOM     75  F   UNL     1     -10.159  -1.480   2.122  1.00  0.00    -0.200 F 
ATOM     76  C   UNL     1     -10.432   0.252   3.703  1.00  0.00     0.200 A 
ATOM     77  F   UNL     1     -10.658   2.006   5.268  1.00  0.00    -0.200 F 
ATOM     78  F   UNL     1     -11.749   0.014   3.759  1.00  0.00    -0.200 F 
ENDBRANCH  54  68
BRANCH  55  79
ATOM     79  C   UNL     1       2.015   3.055   2.820  1.00  0.00     0.064 A 
ATOM     80  C   UNL     1       2.949   2.012   2.746  1.00  0.00     0.173 A 
ATOM     81  C   UNL     1       2.503   4.369   2.791  1.00  0.00     0.173 A 
ATOM     82  F   UNL     1       2.533   0.737   2.778  1.00  0.00    -0.203 F 
ATOM     83  C   UNL     1       4.316   2.272   2.674  1.00  0.00     0.198 A 
ATOM     84  C   UNL     1       3.868   4.628   2.686  1.00  0.00     0.198 A 
ATOM     85  F   UNL     1       1.652   5.404   2.853  1.00  0.00    -0.203 F 
ATOM     86  F   UNL     1       5.188   1.254   2.650  1.00  0.00    -0.200 F 
ATOM     87  C   UNL     1       4.774   3.579   2.638  1.00  0.00     0.200 A 
ATOM     88  F   UNL     1       4.306   5.893   2.632  1.00  0.00    -0.200 F 
ATOM     89  F   UNL     1       6.088   3.829   2.561  1.00  0.00    -0.200 F 
ENDBRANCH  55  79
BRANCH  67  90
ATOM     90  C   UNL     1      -1.872   0.149   7.814  1.00  0.00     0.064 A 
ATOM     91  C   UNL     1      -1.537   1.014   8.867  1.00  0.00     0.173 A 
ATOM     92  C   UNL     1      -1.919  -1.227   8.085  1.00  0.00     0.173 A 
ATOM     93  F   UNL     1      -1.465   2.337   8.656  1.00  0.00    -0.203 F 
ATOM     94  C   UNL     1      -1.230   0.518  10.132  1.00  0.00     0.198 A 
ATOM     95  C   UNL     1      -1.640  -1.717   9.359  1.00  0.00     0.198 A 
ATOM     96  F   UNL     1      -2.240  -2.097   7.116  1.00  0.00    -0.203 F 
ATOM     97  F   UNL     1      -0.862   1.360  11.108  1.00  0.00    -0.200 F 
ATOM     98  C   UNL     1      -1.288  -0.845  10.378  1.00  0.00     0.200 A 
ATOM     99  F   UNL     1      -1.708  -3.034   9.598  1.00  0.00    -0.200 F 
ATOM    100  F   UNL     1      -0.995  -1.320  11.596  1.00  0.00    -0.200 F 
ENDBRANCH  67  90
ENDBRANCH  41  42
ENDBRANCH  34  36
ENDBRANCH  33  34
ENDBRANCH  32  33
ENDBRANCH  31  32
ENDBRANCH  30  31
ENDBRANCH   1  30
TORSDOF 17
