REMARK SMILES [NH3+][C@@]1(C(=O)OCCOCCOC(=O)c2ccc(-c3c4nc(c(-c5c(F)c(F)c(F)c(F)c5F)c5ccc([nH]5)c(-c5c(F)c(F)c(F)c(F)c5F)c5nc(c(-c6c(F)c(F)c(F)c(F)c6F)c6ccc3[nH]6)C=C5)C=C4)cc2)CCC[C@H]1CCOc1ccccc1
REMARK SMILES IDX 7 1 6 2 5 3 3 4 4 5 2 6 77 7 80 8 78 9 79 10 1 11 81 15
REMARK SMILES IDX 82 16 83 17 84 18 85 19 89 20 86 21 88 22 87 23 8 24 9 25
REMARK SMILES IDX 10 26 11 27 12 28 13 29 14 30 15 31 76 32 16 33 75 34 17 35
REMARK SMILES IDX 18 36 19 37 69 38 20 39 74 40 68 41 70 42 21 43 73 44 67 45
REMARK SMILES IDX 66 46 22 48 54 49 34 50 53 51 35 52 38 53 52 54 71 55 36 56
REMARK SMILES IDX 37 57 51 59 72 60 39 61 23 62 24 63 32 64 25 65 26 66 30 67
REMARK SMILES IDX 33 68 27 69 28 70 31 71 29 72 55 73 56 74 64 75 57 76 58 77
REMARK SMILES IDX 62 78 65 79 59 80 60 81 63 82 61 83 40 84 41 85 49 86 42 87
REMARK SMILES IDX 43 88 47 89 50 90 44 91 45 92 48 93 46 94
REMARK H PARENT 1 12 1 13 1 14 70 47 38 58
REMARK Flexibility Score: inf
ROOT
ATOM      1  C   UNL     1      -3.819  -0.803   1.438  1.00  0.00     0.202 C 
ENDROOT
BRANCH   1   2
ATOM      2  C   UNL     1      -2.603  -1.653   1.814  1.00  0.00     0.261 C 
BRANCH   2   3
ATOM      3  O   UNL     1      -1.347  -0.958   1.937  1.00  0.00    -0.459 OA
BRANCH   3   4
ATOM      4  C   UNL     1      -0.397  -1.316   1.024  1.00  0.00     0.368 C 
ATOM      5  O   UNL     1      -0.638  -2.044   0.064  1.00  0.00    -0.245 OA
BRANCH   4   6
ATOM      6  C   UNL     1       1.058  -0.770   1.346  1.00  0.00     0.195 C 
ATOM      7  C   UNL     1       1.728  -1.875   2.196  1.00  0.00     0.081 C 
ATOM      8  C   UNL     1       1.145   0.505   2.250  1.00  0.00     0.066 C 
ATOM      9  C   UNL     1       1.444  -1.467   3.634  1.00  0.00     0.008 C 
ATOM     10  C   UNL     1       1.717   0.020   3.600  1.00  0.00     0.011 C 
BRANCH   6  11
ATOM     11  N   UNL     1       1.760  -0.650   0.060  1.00  0.00    -0.343 N 
ATOM     12  H   UNL     1       1.656  -1.517  -0.467  1.00  0.00     0.345 HD
ATOM     13  H   UNL     1       2.750  -0.471   0.229  1.00  0.00     0.345 HD
ATOM     14  H   UNL     1       1.362   0.123  -0.474  1.00  0.00     0.345 HD
ENDBRANCH   6  11
BRANCH   8  15
ATOM     15  C   UNL     1       1.922   1.783   1.814  1.00  0.00     0.052 C 
BRANCH  15  16
ATOM     16  C   UNL     1       1.226   2.789   0.875  1.00  0.00     0.230 C 
BRANCH  16  17
ATOM     17  O   UNL     1       0.583   3.886   1.573  1.00  0.00    -0.494 OA
BRANCH  17  18
ATOM     18  C   UNL     1      -0.773   3.690   1.714  1.00  0.00     0.119 A 
ATOM     19  C   UNL     1      -1.898   4.309   0.461  1.00  0.00     0.046 A 
ATOM     20  C   UNL     1      -1.293   2.493   2.927  1.00  0.00     0.046 A 
ATOM     21  C   UNL     1      -3.560   3.630   0.343  1.00  0.00     0.004 A 
ATOM     22  C   UNL     1      -2.931   1.755   2.787  1.00  0.00     0.004 A 
ATOM     23  C   UNL     1      -4.097   2.357   1.513  1.00  0.00     0.000 A 
ENDBRANCH  17  18
ENDBRANCH  16  17
ENDBRANCH  15  16
ENDBRANCH   8  15
ENDBRANCH   4   6
ENDBRANCH   3   4
ENDBRANCH   2   3
ENDBRANCH   1   2
BRANCH   1  24
ATOM     24  O   UNL     1      -3.848  -0.002   0.274  1.00  0.00    -0.374 OA
BRANCH  24  25
ATOM     25  C   UNL     1      -2.835   0.918  -0.102  1.00  0.00     0.202 C 
BRANCH  25  26
ATOM     26  C   UNL     1      -2.061   2.039   0.833  1.00  0.00     0.261 C 
BRANCH  26  27
ATOM     27  O   UNL     1      -2.695   3.522   2.055  1.00  0.00    -0.460 OA
BRANCH  27  28
ATOM     28  C   UNL     1      -3.258   4.311   3.101  1.00  0.00     0.338 C 
ATOM     29  O   UNL     1      -3.226   5.541   3.066  1.00  0.00    -0.246 OA
BRANCH  28  30
ATOM     30  C   UNL     1      -3.854   3.686   4.354  1.00  0.00     0.060 A 
ATOM     31  C   UNL     1      -5.085   3.002   4.359  1.00  0.00     0.016 A 
ATOM     32  C   UNL     1      -3.152   3.789   5.562  1.00  0.00     0.016 A 
ATOM     33  C   UNL     1      -5.569   2.371   5.519  1.00  0.00     0.010 A 
ATOM     34  C   UNL     1      -3.659   3.200   6.737  1.00  0.00     0.010 A 
ATOM     35  C   UNL     1      -4.881   2.498   6.732  1.00  0.00    -0.014 A 
BRANCH  35  36
ATOM     36  C   UNL     1      -5.571   2.197   8.024  1.00  0.00     0.031 A 
ATOM     37  C   UNL     1      -6.267   3.346   8.712  1.00  0.00     0.074 A 
ATOM     38  C   UNL     1      -5.611   0.979   8.600  1.00  0.00     0.049 A 
ATOM     39  N   UNL     1      -6.832   3.404   9.892  1.00  0.00    -0.248 NA
ATOM     40  C   UNL     1      -6.322   4.608   7.956  1.00  0.00     0.031 C 
ATOM     41  C   UNL     1      -5.055  -0.250   8.043  1.00  0.00     0.029 A 
ATOM     42  N   UNL     1      -6.141   0.585   9.812  1.00  0.00    -0.354 N 
ATOM     43  C   UNL     1      -7.284   4.711  10.027  1.00  0.00     0.074 A 
ATOM     44  C   UNL     1      -6.913   5.416   8.820  1.00  0.00     0.031 C 
ATOM     45  C   UNL     1      -5.250  -1.255   8.920  1.00  0.00     0.029 A 
ATOM     46  C   UNL     1      -5.911  -0.735  10.120  1.00  0.00     0.049 A 
ATOM     47  H   UNL     1      -6.639   1.195  10.403  1.00  0.00     0.167 HD
ATOM     48  C   UNL     1      -7.949   5.282  11.059  1.00  0.00     0.037 A 
ATOM     49  C   UNL     1      -6.172  -1.435  11.247  1.00  0.00     0.037 A 
ATOM     50  C   UNL     1      -8.332   4.598  12.264  1.00  0.00     0.049 A 
ATOM     51  C   UNL     1      -6.842  -0.758  12.424  1.00  0.00     0.074 A 
ATOM     52  C   UNL     1      -9.024   5.098  13.353  1.00  0.00     0.029 A 
ATOM     53  N   UNL     1      -8.049   3.271  12.544  1.00  0.00    -0.354 N 
ATOM     54  N   UNL     1      -7.272   0.475  12.540  1.00  0.00    -0.248 NA
ATOM     55  C   UNL     1      -7.061  -1.575  13.630  1.00  0.00     0.031 C 
ATOM     56  C   UNL     1      -9.110   4.090  14.318  1.00  0.00     0.029 A 
ATOM     57  C   UNL     1      -8.530   2.943  13.802  1.00  0.00     0.049 A 
ATOM     58  H   UNL     1      -7.578   2.653  11.939  1.00  0.00     0.167 HD
ATOM     59  C   UNL     1      -7.837   0.570  13.809  1.00  0.00     0.074 A 
ATOM     60  C   UNL     1      -7.706  -0.732  14.424  1.00  0.00     0.031 C 
ATOM     61  C   UNL     1      -8.413   1.641  14.408  1.00  0.00     0.037 A 
BRANCH  48  62
ATOM     62  C   UNL     1      -8.271   6.742  10.943  1.00  0.00     0.064 A 
ATOM     63  C   UNL     1      -9.242   7.218  10.050  1.00  0.00     0.173 A 
ATOM     64  C   UNL     1      -7.613   7.676  11.758  1.00  0.00     0.173 A 
ATOM     65  F   UNL     1      -9.886   6.367   9.236  1.00  0.00    -0.203 F 
ATOM     66  C   UNL     1      -9.522   8.579   9.957  1.00  0.00     0.198 A 
ATOM     67  C   UNL     1      -7.919   9.031  11.686  1.00  0.00     0.198 A 
ATOM     68  F   UNL     1      -6.678   7.271  12.631  1.00  0.00    -0.203 F 
ATOM     69  F   UNL     1     -10.416   9.017   9.060  1.00  0.00    -0.200 F 
ATOM     70  C   UNL     1      -8.867   9.482  10.780  1.00  0.00     0.200 A 
ATOM     71  F   UNL     1      -7.296   9.900  12.494  1.00  0.00    -0.200 F 
ATOM     72  F   UNL     1      -9.146  10.790  10.697  1.00  0.00    -0.200 F 
ENDBRANCH  48  62
BRANCH  49  73
ATOM     73  C   UNL     1      -5.771  -2.867  11.354  1.00  0.00     0.064 A 
ATOM     74  C   UNL     1      -6.729  -3.887  11.456  1.00  0.00     0.173 A 
ATOM     75  C   UNL     1      -4.420  -3.241  11.418  1.00  0.00     0.173 A 
ATOM     76  F   UNL     1      -8.035  -3.581  11.444  1.00  0.00    -0.203 F 
ATOM     77  C   UNL     1      -6.354  -5.218  11.632  1.00  0.00     0.198 A 
ATOM     78  C   UNL     1      -4.045  -4.576  11.563  1.00  0.00     0.198 A 
ATOM     79  F   UNL     1      -3.460  -2.307  11.344  1.00  0.00    -0.203 F 
ATOM     80  F   UNL     1      -7.292  -6.163  11.783  1.00  0.00    -0.200 F 
ATOM     81  C   UNL     1      -5.011  -5.563  11.678  1.00  0.00     0.200 A 
ATOM     82  F   UNL     1      -2.746  -4.904  11.600  1.00  0.00    -0.200 F 
ATOM     83  F   UNL     1      -4.650  -6.842  11.846  1.00  0.00    -0.200 F 
ENDBRANCH  49  73
BRANCH  61  84
ATOM     84  C   UNL     1      -8.999   1.455  15.781  1.00  0.00     0.064 A 
ATOM     85  C   UNL     1      -8.193   1.275  16.914  1.00  0.00     0.173 A 
ATOM     86  C   UNL     1     -10.389   1.517  15.972  1.00  0.00     0.173 A 
ATOM     87  F   UNL     1      -6.859   1.198  16.789  1.00  0.00    -0.203 F 
ATOM     88  C   UNL     1      -8.756   1.139  18.182  1.00  0.00     0.198 A 
ATOM     89  C   UNL     1     -10.947   1.413  17.244  1.00  0.00     0.198 A 
ATOM     90  F   UNL     1     -11.208   1.699  14.925  1.00  0.00    -0.203 F 
ATOM     91  F   UNL     1      -7.968   0.923  19.244  1.00  0.00    -0.200 F 
ATOM     92  C   UNL     1     -10.131   1.217  18.347  1.00  0.00     0.200 A 
ATOM     93  F   UNL     1     -12.275   1.507  17.401  1.00  0.00    -0.200 F 
ATOM     94  F   UNL     1     -10.670   1.097  19.568  1.00  0.00    -0.200 F 
ENDBRANCH  61  84
ENDBRANCH  35  36
ENDBRANCH  28  30
ENDBRANCH  27  28
ENDBRANCH  26  27
ENDBRANCH  25  26
ENDBRANCH  24  25
ENDBRANCH   1  24
TORSDOF 19
