REMARK SMILES CCN(CC)C(=O)N[C@@H](C)c1cccc(/C=C/C(=O)OCCOCCOC(=O)c2ccc(-c3c4nc(c(-c5c(F)c(F)c(F)c(F)c5F)c5ccc([nH]5)c(-c5c(F)c(F)c(F)c(F)c5F)c5nc(c(-c6c(F)c(F)c(F)c(F)c6F)c6ccc3[nH]6)C=C5)C=C4)cc2)c1
REMARK SMILES IDX 22 1 21 2 20 3 18 4 19 5 17 6 16 7 15 8 11 9 12 10 92 11
REMARK SMILES IDX 13 12 14 13 9 14 10 15 8 16 3 17 6 18 7 19 2 21 1 22 4 23
REMARK SMILES IDX 5 24 23 25 24 26 25 27 26 28 27 29 28 30 29 31 30 32 91 33
REMARK SMILES IDX 31 34 90 35 32 36 33 37 34 38 84 39 35 40 89 41 83 42 85 43
REMARK SMILES IDX 36 44 88 45 82 46 81 47 37 49 69 50 49 51 68 52 50 53 53 54
REMARK SMILES IDX 67 55 86 56 51 57 52 58 66 60 87 61 54 62 38 63 39 64 47 65
REMARK SMILES IDX 40 66 41 67 45 68 48 69 42 70 43 71 46 72 44 73 70 74 71 75
REMARK SMILES IDX 79 76 72 77 73 78 77 79 80 80 74 81 75 82 78 83 76 84 55 85
REMARK SMILES IDX 56 86 64 87 57 88 58 89 62 90 65 91 59 92 60 93 63 94 61 95
REMARK H PARENT 8 20 85 48 53 59
REMARK Flexibility Score: inf
ROOT
ATOM      1  C   UNL     1       3.727  -8.578   2.493  1.00  0.00     0.202 C 
ENDROOT
BRANCH   1   2
ATOM      2  C   UNL     1       4.960  -8.133   1.705  1.00  0.00     0.261 C 
BRANCH   2   3
ATOM      3  O   UNL     1       4.579  -7.418   0.516  1.00  0.00    -0.460 OA
BRANCH   3   4
ATOM      4  C   UNL     1       4.938  -8.006  -0.649  1.00  0.00     0.330 C 
ATOM      5  O   UNL     1       5.643  -8.996  -0.777  1.00  0.00    -0.247 OA
BRANCH   4   6
ATOM      6  C   UNL     1       4.306  -7.369  -1.823  1.00  0.00     0.094 C 
ATOM      7  C   UNL     1       3.540  -6.266  -1.831  1.00  0.00     0.015 C 
BRANCH   7   8
ATOM      8  C   UNL     1       2.921  -5.758  -3.070  1.00  0.00    -0.025 A 
ATOM      9  C   UNL     1       2.244  -3.854  -4.470  1.00  0.00    -0.025 A 
ATOM     10  C   UNL     1       1.750  -4.767  -5.419  1.00  0.00     0.006 A 
ATOM     11  C   UNL     1       2.810  -4.374  -3.286  1.00  0.00     0.014 A 
ATOM     12  C   UNL     1       1.827  -6.141  -5.204  1.00  0.00     0.001 A 
ATOM     13  C   UNL     1       2.401  -6.632  -4.034  1.00  0.00     0.008 A 
BRANCH   9  14
ATOM     14  C   UNL     1       2.110  -2.358  -4.743  1.00  0.00     0.111 C 
ATOM     15  C   UNL     1       2.755  -1.944  -6.073  1.00  0.00     0.036 C 
BRANCH  14  16
ATOM     16  N   UNL     1       2.692  -1.538  -3.687  1.00  0.00    -0.331 N 
ATOM     17  N   UNL     1       0.969  -0.444  -2.436  1.00  0.00    -0.325 N 
ATOM     18  C   UNL     1       2.280  -0.711  -2.716  1.00  0.00     0.317 C 
ATOM     19  O   UNL     1       3.197  -0.194  -2.067  1.00  0.00    -0.249 OA
ATOM     20  H   UNL     1       3.673  -1.613  -3.688  1.00  0.00     0.165 HD
BRANCH  17  21
ATOM     21  C   UNL     1       0.713   0.518  -1.357  1.00  0.00     0.118 C 
ATOM     22  C   UNL     1       0.857  -0.117   0.020  1.00  0.00     0.027 C 
ENDBRANCH  17  21
BRANCH  17  23
ATOM     23  C   UNL     1      -0.222  -0.993  -3.074  1.00  0.00     0.118 C 
ATOM     24  C   UNL     1      -0.596  -0.209  -4.326  1.00  0.00     0.027 C 
ENDBRANCH  17  23
ENDBRANCH  14  16
ENDBRANCH   9  14
ENDBRANCH   7   8
ENDBRANCH   4   6
ENDBRANCH   3   4
ENDBRANCH   2   3
ENDBRANCH   1   2
BRANCH   1  25
ATOM     25  O   UNL     1       2.891  -9.527   1.832  1.00  0.00    -0.374 OA
BRANCH  25  26
ATOM     26  C   UNL     1       1.943  -9.004   0.899  1.00  0.00     0.202 C 
BRANCH  26  27
ATOM     27  C   UNL     1       0.650  -8.457   1.515  1.00  0.00     0.261 C 
BRANCH  27  28
ATOM     28  O   UNL     1       0.894  -7.266   2.287  1.00  0.00    -0.460 OA
BRANCH  28  29
ATOM     29  C   UNL     1       0.732  -7.410   3.621  1.00  0.00     0.338 C 
ATOM     30  O   UNL     1       0.295  -8.389   4.214  1.00  0.00    -0.246 OA
BRANCH  29  31
ATOM     31  C   UNL     1       1.318  -6.263   4.338  1.00  0.00     0.060 A 
ATOM     32  C   UNL     1       2.177  -6.549   5.406  1.00  0.00     0.016 A 
ATOM     33  C   UNL     1       0.977  -4.941   4.038  1.00  0.00     0.016 A 
ATOM     34  C   UNL     1       2.640  -5.523   6.224  1.00  0.00     0.010 A 
ATOM     35  C   UNL     1       1.442  -3.909   4.864  1.00  0.00     0.010 A 
ATOM     36  C   UNL     1       2.236  -4.202   5.987  1.00  0.00    -0.014 A 
BRANCH  36  37
ATOM     37  C   UNL     1       2.513  -3.176   7.024  1.00  0.00     0.031 A 
ATOM     38  C   UNL     1       1.431  -2.824   8.008  1.00  0.00     0.074 A 
ATOM     39  C   UNL     1       3.733  -2.623   7.138  1.00  0.00     0.049 A 
ATOM     40  N   UNL     1       1.470  -2.010   9.034  1.00  0.00    -0.248 NA
ATOM     41  C   UNL     1       0.129  -3.479   7.812  1.00  0.00     0.031 C 
ATOM     42  C   UNL     1       4.871  -2.901   6.264  1.00  0.00     0.029 A 
ATOM     43  N   UNL     1       4.218  -1.716   8.047  1.00  0.00    -0.354 N 
ATOM     44  C   UNL     1       0.205  -2.059   9.603  1.00  0.00     0.074 A 
ATOM     45  C   UNL     1      -0.593  -2.951   8.789  1.00  0.00     0.031 C 
ATOM     46  C   UNL     1       5.926  -2.181   6.682  1.00  0.00     0.029 A 
ATOM     47  C   UNL     1       5.532  -1.379   7.839  1.00  0.00     0.049 A 
ATOM     48  H   UNL     1       3.675  -1.343   8.778  1.00  0.00     0.167 HD
ATOM     49  C   UNL     1      -0.249  -1.431  10.715  1.00  0.00     0.037 A 
ATOM     50  C   UNL     1       6.324  -0.518   8.508  1.00  0.00     0.037 A 
ATOM     51  C   UNL     1       0.542  -0.545  11.527  1.00  0.00     0.049 A 
ATOM     52  C   UNL     1       5.780   0.205   9.713  1.00  0.00     0.074 A 
ATOM     53  C   UNL     1       0.177   0.126  12.682  1.00  0.00     0.029 A 
ATOM     54  N   UNL     1       1.860  -0.202  11.266  1.00  0.00    -0.354 N 
ATOM     55  N   UNL     1       4.595   0.124  10.265  1.00  0.00    -0.248 NA
ATOM     56  C   UNL     1       6.695   1.133  10.394  1.00  0.00     0.031 C 
ATOM     57  C   UNL     1       1.261   0.910  13.093  1.00  0.00     0.029 A 
ATOM     58  C   UNL     1       2.317   0.689  12.224  1.00  0.00     0.049 A 
ATOM     59  H   UNL     1       2.393  -0.542  10.511  1.00  0.00     0.167 HD
ATOM     60  C   UNL     1       4.628   0.966  11.370  1.00  0.00     0.074 A 
ATOM     61  C   UNL     1       5.959   1.534  11.420  1.00  0.00     0.031 C 
ATOM     62  C   UNL     1       3.645   1.246  12.261  1.00  0.00     0.037 A 
BRANCH  49  63
ATOM     63  C   UNL     1      -1.679  -1.668  11.105  1.00  0.00     0.064 A 
ATOM     64  C   UNL     1      -2.104  -2.895  11.636  1.00  0.00     0.173 A 
ATOM     65  C   UNL     1      -2.630  -0.646  10.971  1.00  0.00     0.173 A 
ATOM     66  F   UNL     1      -1.236  -3.910  11.770  1.00  0.00    -0.203 F 
ATOM     67  C   UNL     1      -3.434  -3.099  11.994  1.00  0.00     0.198 A 
ATOM     68  C   UNL     1      -3.954  -0.844  11.356  1.00  0.00     0.198 A 
ATOM     69  F   UNL     1      -2.275   0.548  10.472  1.00  0.00    -0.203 F 
ATOM     70  F   UNL     1      -3.828  -4.294  12.455  1.00  0.00    -0.200 F 
ATOM     71  C   UNL     1      -4.356  -2.071  11.860  1.00  0.00     0.200 A 
ATOM     72  F   UNL     1      -4.841   0.153  11.235  1.00  0.00    -0.200 F 
ATOM     73  F   UNL     1      -5.635  -2.267  12.209  1.00  0.00    -0.200 F 
ENDBRANCH  49  63
BRANCH  50  74
ATOM     74  C   UNL     1       7.723  -0.295   8.059  1.00  0.00     0.064 A 
ATOM     75  C   UNL     1       8.810  -0.731   8.828  1.00  0.00     0.173 A 
ATOM     76  C   UNL     1       7.999   0.382   6.862  1.00  0.00     0.173 A 
ATOM     77  F   UNL     1       8.596  -1.359   9.994  1.00  0.00    -0.203 F 
ATOM     78  C   UNL     1      10.121  -0.481   8.427  1.00  0.00     0.198 A 
ATOM     79  C   UNL     1       9.310   0.607   6.448  1.00  0.00     0.198 A 
ATOM     80  F   UNL     1       6.993   0.823   6.092  1.00  0.00    -0.203 F 
ATOM     81  F   UNL     1      11.142  -0.866   9.206  1.00  0.00    -0.200 F 
ATOM     82  C   UNL     1      10.370   0.182   7.235  1.00  0.00     0.200 A 
ATOM     83  F   UNL     1       9.547   1.240   5.292  1.00  0.00    -0.200 F 
ATOM     84  F   UNL     1      11.631   0.422   6.851  1.00  0.00    -0.200 F 
ENDBRANCH  50  74
BRANCH  62  85
ATOM     85  C   UNL     1       3.984   2.186  13.383  1.00  0.00     0.064 A 
ATOM     86  C   UNL     1       4.181   3.557  13.161  1.00  0.00     0.173 A 
ATOM     87  C   UNL     1       4.095   1.711  14.699  1.00  0.00     0.173 A 
ATOM     88  F   UNL     1       4.099   4.058  11.919  1.00  0.00    -0.203 F 
ATOM     89  C   UNL     1       4.513   4.411  14.209  1.00  0.00     0.198 A 
ATOM     90  C   UNL     1       4.396   2.574  15.749  1.00  0.00     0.198 A 
ATOM     91  F   UNL     1       3.908   0.410  14.968  1.00  0.00    -0.203 F 
ATOM     92  F   UNL     1       4.753   5.707  13.964  1.00  0.00    -0.200 F 
ATOM     93  C   UNL     1       4.615   3.921  15.502  1.00  0.00     0.200 A 
ATOM     94  F   UNL     1       4.482   2.101  17.000  1.00  0.00    -0.200 F 
ATOM     95  F   UNL     1       4.935   4.745  16.509  1.00  0.00    -0.200 F 
ENDBRANCH  62  85
ENDBRANCH  36  37
ENDBRANCH  29  31
ENDBRANCH  28  29
ENDBRANCH  27  28
ENDBRANCH  26  27
ENDBRANCH  25  26
ENDBRANCH   1  25
TORSDOF 19
