REMARK SMILES O=C(OCCOCCOC(=O)c1ccc(C[N@H+]2CC[N@H+]3CCCC[C@@H]3C2)c(F)c1)c1ccc(-c2c3nc(c(-c4c(F)c(F)c(F)c(F)c4F)c4ccc([nH]4)c(-c4c(F)c(F)c(F)c(F)c4F)c4nc(c(-c5c(F)c(F)c(F)c(F)c5F)c5ccc2[nH]5)C=C4)C=C3)cc1
REMARK SMILES IDX 6 1 5 2 4 3 3 4 2 5 1 6 30 7 31 8 92 9 32 10 91 11 33 12
REMARK SMILES IDX 34 13 35 14 85 15 36 16 90 17 84 18 86 19 37 20 89 21 83 22
REMARK SMILES IDX 82 23 38 25 70 26 50 27 69 28 51 29 54 30 68 31 87 32 52 33
REMARK SMILES IDX 53 34 67 36 88 37 55 38 39 39 40 40 48 41 41 42 42 43 46 44
REMARK SMILES IDX 49 45 43 46 44 47 47 48 45 49 71 50 72 51 80 52 73 53 74 54
REMARK SMILES IDX 78 55 81 56 75 57 76 58 79 59 77 60 56 61 57 62 65 63 58 64
REMARK SMILES IDX 59 65 63 66 66 67 60 68 61 69 64 70 62 71 7 72 8 73 9 74
REMARK SMILES IDX 10 75 11 76 12 77 13 78 29 79 14 80 27 81 15 82 28 83 16 84
REMARK SMILES IDX 17 85 18 86 26 87 19 89 25 90 20 91 24 92 21 93 23 95 22 96
REMARK H PARENT 86 24 54 35 17 88 20 94
REMARK Flexibility Score: inf
ROOT
ATOM      1  O   UNL     1       4.244   1.111  -1.159  1.00  0.00    -0.374 OA
ENDROOT
BRANCH   1   2
ATOM      2  C   UNL     1       4.375  -0.256  -1.545  1.00  0.00     0.202 C 
BRANCH   2   3
ATOM      3  C   UNL     1       3.829  -1.276  -0.545  1.00  0.00     0.261 C 
BRANCH   3   4
ATOM      4  O   UNL     1       2.453  -0.997  -0.240  1.00  0.00    -0.460 OA
BRANCH   4   5
ATOM      5  C   UNL     1       1.949  -0.586   0.948  1.00  0.00     0.338 C 
ATOM      6  O   UNL     1       0.733  -0.603   1.122  1.00  0.00    -0.246 OA
BRANCH   5   7
ATOM      7  C   UNL     1       2.810  -0.102   2.067  1.00  0.00     0.060 A 
ATOM      8  C   UNL     1       4.034   0.540   1.885  1.00  0.00     0.016 A 
ATOM      9  C   UNL     1       2.311  -0.215   3.374  1.00  0.00     0.016 A 
ATOM     10  C   UNL     1       4.790   0.981   2.957  1.00  0.00     0.010 A 
ATOM     11  C   UNL     1       3.036   0.286   4.461  1.00  0.00     0.010 A 
ATOM     12  C   UNL     1       4.289   0.872   4.251  1.00  0.00    -0.014 A 
BRANCH  12  13
ATOM     13  C   UNL     1       5.154   1.326   5.353  1.00  0.00     0.031 A 
ATOM     14  C   UNL     1       5.861   0.299   6.178  1.00  0.00     0.074 A 
ATOM     15  C   UNL     1       5.423   2.639   5.476  1.00  0.00     0.049 A 
ATOM     16  N   UNL     1       6.676   0.464   7.184  1.00  0.00    -0.248 NA
ATOM     17  C   UNL     1       5.637  -1.107   5.805  1.00  0.00     0.031 C 
ATOM     18  C   UNL     1       4.881   3.689   4.611  1.00  0.00     0.029 A 
ATOM     19  N   UNL     1       6.255   3.308   6.332  1.00  0.00    -0.354 N 
ATOM     20  C   UNL     1       7.047  -0.813   7.576  1.00  0.00     0.074 A 
ATOM     21  C   UNL     1       6.364  -1.746   6.708  1.00  0.00     0.031 C 
ATOM     22  C   UNL     1       5.435   4.864   4.947  1.00  0.00     0.029 A 
ATOM     23  C   UNL     1       6.307   4.661   6.098  1.00  0.00     0.049 A 
ATOM     24  H   UNL     1       6.768   2.864   7.045  1.00  0.00     0.167 HD
ATOM     25  C   UNL     1       7.884  -1.164   8.578  1.00  0.00     0.037 A 
ATOM     26  C   UNL     1       6.971   5.625   6.762  1.00  0.00     0.037 A 
ATOM     27  C   UNL     1       8.540  -0.207   9.426  1.00  0.00     0.049 A 
ATOM     28  C   UNL     1       7.806   5.216   7.944  1.00  0.00     0.074 A 
ATOM     29  C   UNL     1       9.326  -0.429  10.540  1.00  0.00     0.029 A 
ATOM     30  N   UNL     1       8.485   1.170   9.238  1.00  0.00    -0.354 N 
ATOM     31  N   UNL     1       8.067   4.010   8.389  1.00  0.00    -0.248 NA
ATOM     32  C   UNL     1       8.417   6.294   8.731  1.00  0.00     0.031 C 
ATOM     33  C   UNL     1       9.714   0.815  11.050  1.00  0.00     0.029 A 
ATOM     34  C   UNL     1       9.213   1.811  10.224  1.00  0.00     0.049 A 
ATOM     35  H   UNL     1       7.998   1.621   8.511  1.00  0.00     0.167 HD
ATOM     36  C   UNL     1       8.874   4.177   9.503  1.00  0.00     0.074 A 
ATOM     37  C   UNL     1       9.078   5.606   9.653  1.00  0.00     0.031 C 
ATOM     38  C   UNL     1       9.393   3.239  10.333  1.00  0.00     0.037 A 
BRANCH  25  39
ATOM     39  C   UNL     1       8.062  -2.630   8.837  1.00  0.00     0.064 A 
ATOM     40  C   UNL     1       7.465  -3.227   9.957  1.00  0.00     0.173 A 
ATOM     41  C   UNL     1       8.790  -3.454   7.965  1.00  0.00     0.173 A 
ATOM     42  F   UNL     1       6.750  -2.486  10.817  1.00  0.00    -0.203 F 
ATOM     43  C   UNL     1       7.586  -4.593  10.193  1.00  0.00     0.198 A 
ATOM     44  C   UNL     1       8.887  -4.825   8.189  1.00  0.00     0.198 A 
ATOM     45  F   UNL     1       9.354  -2.938   6.862  1.00  0.00    -0.203 F 
ATOM     46  F   UNL     1       7.007  -5.139  11.271  1.00  0.00    -0.200 F 
ATOM     47  C   UNL     1       8.288  -5.393   9.304  1.00  0.00     0.200 A 
ATOM     48  F   UNL     1       9.536  -5.602   7.311  1.00  0.00    -0.200 F 
ATOM     49  F   UNL     1       8.375  -6.714   9.514  1.00  0.00    -0.200 F 
ENDBRANCH  25  39
BRANCH  26  50
ATOM     50  C   UNL     1       6.839   7.045   6.339  1.00  0.00     0.064 A 
ATOM     51  C   UNL     1       5.608   7.716   6.420  1.00  0.00     0.173 A 
ATOM     52  C   UNL     1       7.927   7.750   5.807  1.00  0.00     0.173 A 
ATOM     53  F   UNL     1       4.534   7.091   6.925  1.00  0.00    -0.203 F 
ATOM     54  C   UNL     1       5.463   9.022   5.956  1.00  0.00     0.198 A 
ATOM     55  C   UNL     1       7.788   9.067   5.369  1.00  0.00     0.198 A 
ATOM     56  F   UNL     1       9.131   7.165   5.729  1.00  0.00    -0.203 F 
ATOM     57  F   UNL     1       4.265   9.620   6.006  1.00  0.00    -0.200 F 
ATOM     58  C   UNL     1       6.554   9.698   5.433  1.00  0.00     0.200 A 
ATOM     59  F   UNL     1       8.850   9.727   4.888  1.00  0.00    -0.200 F 
ATOM     60  F   UNL     1       6.417  10.957   4.995  1.00  0.00    -0.200 F 
ENDBRANCH  26  50
BRANCH  38  61
ATOM     61  C   UNL     1      10.242   3.725  11.467  1.00  0.00     0.064 A 
ATOM     62  C   UNL     1      11.627   3.505  11.457  1.00  0.00     0.173 A 
ATOM     63  C   UNL     1       9.673   4.324  12.600  1.00  0.00     0.173 A 
ATOM     64  F   UNL     1      12.213   2.928  10.397  1.00  0.00    -0.203 F 
ATOM     65  C   UNL     1      12.411   3.851  12.553  1.00  0.00     0.198 A 
ATOM     66  C   UNL     1      10.465   4.693  13.682  1.00  0.00     0.198 A 
ATOM     67  F   UNL     1       8.354   4.564  12.646  1.00  0.00    -0.203 F 
ATOM     68  F   UNL     1      13.727   3.597  12.539  1.00  0.00    -0.200 F 
ATOM     69  C   UNL     1      11.830   4.446  13.663  1.00  0.00     0.200 A 
ATOM     70  F   UNL     1       9.907   5.287  14.746  1.00  0.00    -0.200 F 
ATOM     71  F   UNL     1      12.588   4.782  14.716  1.00  0.00    -0.200 F 
ENDBRANCH  38  61
ENDBRANCH  12  13
ENDBRANCH   5   7
ENDBRANCH   4   5
ENDBRANCH   3   4
ENDBRANCH   2   3
ENDBRANCH   1   2
BRANCH   1  72
ATOM     72  C   UNL     1       2.993   1.734  -1.470  1.00  0.00     0.202 C 
BRANCH  72  73
ATOM     73  C   UNL     1       3.253   3.107  -2.103  1.00  0.00     0.261 C 
BRANCH  73  74
ATOM     74  O   UNL     1       4.047   2.944  -3.292  1.00  0.00    -0.460 OA
BRANCH  74  75
ATOM     75  C   UNL     1       5.396   2.997  -3.118  1.00  0.00     0.338 C 
ATOM     76  O   UNL     1       6.019   3.382  -2.147  1.00  0.00    -0.246 OA
BRANCH  75  77
ATOM     77  C   UNL     1       5.973   2.255  -4.252  1.00  0.00     0.063 A 
ATOM     78  C   UNL     1       5.807   2.706  -5.560  1.00  0.00     0.016 A 
ATOM     79  C   UNL     1       6.505   0.992  -3.997  1.00  0.00     0.055 A 
ATOM     80  C   UNL     1       6.060   1.829  -6.619  1.00  0.00     0.013 A 
ATOM     81  C   UNL     1       6.668   0.103  -5.051  1.00  0.00     0.132 A 
ATOM     82  C   UNL     1       6.376   0.480  -6.365  1.00  0.00     0.042 A 
ATOM     83  F   UNL     1       7.019  -1.160  -4.775  1.00  0.00    -0.206 F 
BRANCH  82  84
ATOM     84  C   UNL     1       6.300  -0.553  -7.467  1.00  0.00     0.302 C 
BRANCH  84  85
ATOM     85  N   UNL     1       4.980  -1.120  -7.800  1.00  0.00    -0.322 N 
ATOM     86  C   UNL     1       4.465  -2.160  -6.898  1.00  0.00     0.324 C 
ATOM     87  C   UNL     1       3.911  -0.171  -8.140  1.00  0.00     0.328 C 
ATOM     88  H   UNL     1       5.243  -1.583  -8.670  1.00  0.00     0.348 HD
ATOM     89  C   UNL     1       3.578  -1.683  -5.720  1.00  0.00     0.324 C 
ATOM     90  C   UNL     1       3.138   0.379  -6.914  1.00  0.00     0.239 C 
ATOM     91  N   UNL     1       2.545  -0.679  -6.070  1.00  0.00    -0.323 N 
ATOM     92  C   UNL     1       2.074   1.399  -7.333  1.00  0.00     0.071 C 
ATOM     93  C   UNL     1       1.995  -0.081  -4.841  1.00  0.00     0.262 C 
ATOM     94  H   UNL     1       1.796  -1.139  -6.587  1.00  0.00     0.348 HD
ATOM     95  C   UNL     1       1.501   2.073  -6.089  1.00  0.00     0.012 C 
ATOM     96  C   UNL     1       0.973   1.027  -5.112  1.00  0.00     0.062 C 
ENDBRANCH  84  85
ENDBRANCH  82  84
ENDBRANCH  75  77
ENDBRANCH  74  75
ENDBRANCH  73  74
ENDBRANCH  72  73
ENDBRANCH   1  72
TORSDOF 16
