REMARK SMILES Cc1cccc(S(=O)(=O)Nc2cc(C(=O)OCCOCCOC(=O)c3ccc(-c4c5nc(c(-c6c(F)c(F)c(F)c(F)c6F)c6ccc([nH]6)c(-c6c(F)c(F)c(F)c(F)c6F)c6nc(c(-c7c(F)c(F)c(F)c(F)c7F)c7ccc4[nH]7)C=C6)C=C5)cc3)ccc2N2CCC[C@H](C[NH+]3CCCC3)C2)c1
REMARK SMILES IDX 18 1 17 2 16 3 14 4 15 5 13 6 11 7 12 8 90 9 89 10 88 11
REMARK SMILES IDX 10 12 7 14 8 15 9 16 6 17 1 18 2 19 3 20 103 21 4 22 5 23
REMARK SMILES IDX 91 24 92 25 102 26 93 27 95 28 94 29 96 30 97 31 98 32
REMARK SMILES IDX 101 33 99 35 100 36 19 37 20 38 21 39 22 40 23 41 24 42
REMARK SMILES IDX 25 43 26 44 87 45 27 46 86 47 28 48 29 49 30 50 80 51 31 52
REMARK SMILES IDX 85 53 79 54 81 55 32 56 84 57 78 58 77 59 33 61 65 62 45 63
REMARK SMILES IDX 64 64 46 65 49 66 63 67 82 68 47 69 48 70 62 72 83 73 50 74
REMARK SMILES IDX 34 75 35 76 43 77 36 78 37 79 41 80 44 81 38 82 39 83 42 84
REMARK SMILES IDX 40 85 66 86 67 87 75 88 68 89 69 90 73 91 76 92 70 93 71 94
REMARK SMILES IDX 74 95 72 96 51 97 52 98 60 99 53 100 54 101 58 102 61 103
REMARK SMILES IDX 55 104 56 105 59 106 57 107
REMARK H PARENT 10 13 97 34 81 60 49 71
REMARK Flexibility Score: inf
ROOT
ATOM      1  C   UNL     1       2.706   2.251  -4.600  1.00  0.00     0.202 C 
ENDROOT
BRANCH   1   2
ATOM      2  C   UNL     1       1.810   1.649  -3.618  1.00  0.00     0.261 C 
BRANCH   2   3
ATOM      3  O   UNL     1       1.970   2.291  -2.378  1.00  0.00    -0.460 OA
BRANCH   3   4
ATOM      4  C   UNL     1       3.079   2.609  -1.683  1.00  0.00     0.338 C 
ATOM      5  O   UNL     1       4.102   2.003  -1.449  1.00  0.00    -0.246 OA
BRANCH   4   6
ATOM      6  C   UNL     1       2.621   3.816  -1.000  1.00  0.00     0.062 A 
ATOM      7  C   UNL     1       0.523   4.529  -0.179  1.00  0.00     0.073 A 
ATOM      8  C   UNL     1       1.279   4.182  -1.242  1.00  0.00     0.044 A 
ATOM      9  C   UNL     1       1.201   5.070   0.917  1.00  0.00     0.061 A 
ATOM     10  C   UNL     1       2.600   4.907   1.064  1.00  0.00     0.029 A 
ATOM     11  C   UNL     1       3.313   4.187   0.138  1.00  0.00     0.018 A 
BRANCH   7  12
ATOM     12  N   UNL     1      -0.898   4.347  -0.299  1.00  0.00    -0.277 N 
ATOM     13  H   UNL     1      -1.454   5.122  -0.542  1.00  0.00     0.180 HD
BRANCH  12  14
ATOM     14  S   UNL     1      -1.680   2.805  -0.033  1.00  0.00     0.261 S 
ATOM     15  O   UNL     1      -2.814   2.814  -0.938  1.00  0.00    -0.201 OA
ATOM     16  O   UNL     1      -1.917   2.748   1.396  1.00  0.00    -0.201 OA
BRANCH  14  17
ATOM     17  C   UNL     1      -0.675   1.295  -0.442  1.00  0.00     0.088 A 
ATOM     18  C   UNL     1       3.811   0.201   1.099  1.00  0.00     0.044 C 
ATOM     19  C   UNL     1       2.584  -0.134   0.318  1.00  0.00    -0.050 A 
ATOM     20  C   UNL     1       1.543  -1.956  -0.070  1.00  0.00     0.003 A 
ATOM     21  C   UNL     1       1.297   1.439   0.147  1.00  0.00     0.025 A 
ATOM     22  C   UNL     1      -0.372  -2.232  -0.738  1.00  0.00     0.002 A 
ATOM     23  C   UNL     1      -1.626  -0.464  -0.873  1.00  0.00     0.022 A 
ENDBRANCH  14  17
ENDBRANCH  12  14
ENDBRANCH   7  12
BRANCH   9  24
ATOM     24  N   UNL     1       0.526   5.905   1.774  1.00  0.00    -0.369 N 
ATOM     25  C   UNL     1       0.991   7.288   1.779  1.00  0.00     0.116 C 
ATOM     26  C   UNL     1      -0.217   5.310   2.867  1.00  0.00     0.126 C 
ATOM     27  C   UNL     1       1.631   7.610   3.112  1.00  0.00     0.022 C 
ATOM     28  C   UNL     1       0.367   5.706   4.226  1.00  0.00     0.064 C 
ATOM     29  C   UNL     1       0.646   7.221   4.204  1.00  0.00     0.013 C 
BRANCH  28  30
ATOM     30  C   UNL     1       1.565   4.795   4.615  1.00  0.00     0.267 C 
BRANCH  30  31
ATOM     31  N   UNL     1       2.101   4.838   5.984  1.00  0.00    -0.335 N 
ATOM     32  C   UNL     1       1.115   4.540   7.023  1.00  0.00     0.262 C 
ATOM     33  C   UNL     1       2.763   6.082   6.378  1.00  0.00     0.262 C 
ATOM     34  H   UNL     1       2.802   4.099   5.926  1.00  0.00     0.348 HD
ATOM     35  C   UNL     1       0.616   5.894   7.489  1.00  0.00     0.067 C 
ATOM     36  C   UNL     1       1.850   6.774   7.391  1.00  0.00     0.067 C 
ENDBRANCH  30  31
ENDBRANCH  28  30
ENDBRANCH   9  24
ENDBRANCH   4   6
ENDBRANCH   3   4
ENDBRANCH   2   3
ENDBRANCH   1   2
BRANCH   1  37
ATOM     37  O   UNL     1       3.953   2.395  -3.967  1.00  0.00    -0.374 OA
BRANCH  37  38
ATOM     38  C   UNL     1       4.662   3.591  -4.159  1.00  0.00     0.202 C 
BRANCH  38  39
ATOM     39  C   UNL     1       4.801   3.751  -5.658  1.00  0.00     0.261 C 
BRANCH  39  40
ATOM     40  O   UNL     1       5.458   2.522  -6.157  1.00  0.00    -0.460 OA
BRANCH  40  41
ATOM     41  C   UNL     1       4.698   1.455  -6.596  1.00  0.00     0.338 C 
ATOM     42  O   UNL     1       3.820   1.563  -7.444  1.00  0.00    -0.246 OA
BRANCH  41  43
ATOM     43  C   UNL     1       4.807   0.209  -5.677  1.00  0.00     0.060 A 
ATOM     44  C   UNL     1       3.826  -0.804  -5.695  1.00  0.00     0.016 A 
ATOM     45  C   UNL     1       5.490   0.343  -4.483  1.00  0.00     0.016 A 
ATOM     46  C   UNL     1       3.322  -1.364  -4.471  1.00  0.00     0.010 A 
ATOM     47  C   UNL     1       4.835  -0.055  -3.289  1.00  0.00     0.010 A 
ATOM     48  C   UNL     1       3.619  -0.787  -3.232  1.00  0.00    -0.014 A 
BRANCH  48  49
ATOM     49  C   UNL     1       2.959  -1.076  -1.803  1.00  0.00     0.031 A 
ATOM     50  C   UNL     1       4.239  -1.971  -1.063  1.00  0.00     0.074 A 
ATOM     51  C   UNL     1       1.632  -0.484  -1.053  1.00  0.00     0.049 A 
ATOM     52  N   UNL     1       4.397  -2.324   0.180  1.00  0.00    -0.248 NA
ATOM     53  C   UNL     1       5.491  -2.345  -1.791  1.00  0.00     0.031 C 
ATOM     54  C   UNL     1       1.123  -0.539   1.060  1.00  0.00     0.029 A 
ATOM     55  N   UNL     1       0.754   0.338  -1.272  1.00  0.00    -0.354 N 
ATOM     56  C   UNL     1       5.762  -2.576   0.458  1.00  0.00     0.074 A 
ATOM     57  C   UNL     1       6.392  -2.582  -0.827  1.00  0.00     0.031 C 
ATOM     58  C   UNL     1       0.313   0.291   1.731  1.00  0.00     0.029 A 
ATOM     59  C   UNL     1       0.159  -0.081   0.425  1.00  0.00     0.049 A 
ATOM     60  H   UNL     1       0.489   0.938  -2.006  1.00  0.00     0.167 HD
ATOM     61  C   UNL     1       6.204  -2.679   1.761  1.00  0.00     0.037 A 
ATOM     62  C   UNL     1      -0.611  -0.998   0.277  1.00  0.00     0.037 A 
ATOM     63  C   UNL     1       5.030  -2.697   2.648  1.00  0.00     0.049 A 
ATOM     64  C   UNL     1      -0.766  -2.222   1.559  1.00  0.00     0.074 A 
ATOM     65  C   UNL     1       4.528  -1.866   3.628  1.00  0.00     0.029 A 
ATOM     66  N   UNL     1       4.017  -3.608   2.381  1.00  0.00    -0.354 N 
ATOM     67  N   UNL     1       0.187  -2.403   2.466  1.00  0.00    -0.248 NA
ATOM     68  C   UNL     1      -1.587  -3.417   1.417  1.00  0.00     0.031 C 
ATOM     69  C   UNL     1       3.155  -2.228   3.848  1.00  0.00     0.029 A 
ATOM     70  C   UNL     1       2.850  -3.353   3.094  1.00  0.00     0.049 A 
ATOM     71  H   UNL     1       4.114  -4.359   1.751  1.00  0.00     0.167 HD
ATOM     72  C   UNL     1       0.483  -3.747   2.503  1.00  0.00     0.074 A 
ATOM     73  C   UNL     1      -0.684  -4.319   1.836  1.00  0.00     0.031 C 
ATOM     74  C   UNL     1       1.704  -4.275   2.895  1.00  0.00     0.037 A 
BRANCH  61  75
ATOM     75  C   UNL     1       7.653  -2.681   2.367  1.00  0.00     0.064 A 
ATOM     76  C   UNL     1       7.816  -2.675   3.785  1.00  0.00     0.173 A 
ATOM     77  C   UNL     1       8.894  -2.638   1.685  1.00  0.00     0.173 A 
ATOM     78  F   UNL     1       6.768  -2.791   4.608  1.00  0.00    -0.203 F 
ATOM     79  C   UNL     1       9.052  -2.568   4.446  1.00  0.00     0.198 A 
ATOM     80  C   UNL     1      10.147  -2.567   2.355  1.00  0.00     0.198 A 
ATOM     81  F   UNL     1       8.963  -2.671   0.350  1.00  0.00    -0.203 F 
ATOM     82  F   UNL     1       9.088  -2.519   5.786  1.00  0.00    -0.200 F 
ATOM     83  C   UNL     1      10.223  -2.514   3.732  1.00  0.00     0.200 A 
ATOM     84  F   UNL     1      11.289  -2.545   1.648  1.00  0.00    -0.200 F 
ATOM     85  F   UNL     1      11.403  -2.424   4.364  1.00  0.00    -0.200 F 
ENDBRANCH  61  75
BRANCH  62  86
ATOM     86  C   UNL     1      -0.391  -1.013  -1.966  1.00  0.00     0.064 A 
ATOM     87  C   UNL     1      -1.036   0.060  -2.998  1.00  0.00     0.173 A 
ATOM     88  C   UNL     1       0.174  -2.060  -2.932  1.00  0.00     0.173 A 
ATOM     89  F   UNL     1      -1.831   1.068  -2.580  1.00  0.00    -0.203 F 
ATOM     90  C   UNL     1      -0.881   0.132  -4.386  1.00  0.00     0.198 A 
ATOM     91  C   UNL     1       0.223  -1.953  -4.346  1.00  0.00     0.198 A 
ATOM     92  F   UNL     1       0.725  -3.215  -2.495  1.00  0.00    -0.203 F 
ATOM     93  F   UNL     1      -1.311   1.219  -5.047  1.00  0.00    -0.200 F 
ATOM     94  C   UNL     1      -0.182  -0.834  -5.040  1.00  0.00     0.200 A 
ATOM     95  F   UNL     1       0.762  -2.964  -5.045  1.00  0.00    -0.200 F 
ATOM     96  F   UNL     1       0.154  -0.666  -6.326  1.00  0.00    -0.200 F 
ENDBRANCH  62  86
BRANCH  74  97
ATOM     97  C   UNL     1       1.958  -5.768   3.208  1.00  0.00     0.064 A 
ATOM     98  C   UNL     1       0.983  -6.775   3.152  1.00  0.00     0.173 A 
ATOM     99  C   UNL     1       3.182  -6.212   3.789  1.00  0.00     0.173 A 
ATOM    100  F   UNL     1      -0.186  -6.638   2.541  1.00  0.00    -0.203 F 
ATOM    101  C   UNL     1       1.135  -8.024   3.745  1.00  0.00     0.198 A 
ATOM    102  C   UNL     1       3.349  -7.481   4.347  1.00  0.00     0.198 A 
ATOM    103  F   UNL     1       4.275  -5.443   3.879  1.00  0.00    -0.203 F 
ATOM    104  F   UNL     1       0.104  -8.878   3.716  1.00  0.00    -0.200 F 
ATOM    105  C   UNL     1       2.305  -8.370   4.370  1.00  0.00     0.200 A 
ATOM    106  F   UNL     1       4.528  -7.817   4.889  1.00  0.00    -0.200 F 
ATOM    107  F   UNL     1       2.420  -9.551   4.986  1.00  0.00    -0.200 F 
ENDBRANCH  74  97
ENDBRANCH  48  49
ENDBRANCH  41  43
ENDBRANCH  40  41
ENDBRANCH  39  40
ENDBRANCH  38  39
ENDBRANCH  37  38
ENDBRANCH   1  37
TORSDOF 20
