REMARK SMILES Cc1nc(C[N@@H+]2CCC[C@H]2C(=O)OCCOCCOC(=O)c2ccc(-c3c4nc(c(-c5c(F)c(F)c(F)c(F)c5F)c5ccc([nH]5)c(-c5c(F)c(F)c(F)c(F)c5F)c5nc(c(-c6c(F)c(F)c(F)c(F)c6F)c6ccc3[nH]6)C=C5)C=C4)cc2)cs1
REMARK SMILES IDX 16 1 15 2 14 3 13 4 11 5 12 6 10 7 6 8 7 9 8 11 9 12 5 13
REMARK SMILES IDX 4 14 1 15 2 16 3 17 86 18 85 19 17 20 18 21 19 22 20 23
REMARK SMILES IDX 21 24 22 25 23 26 84 27 24 28 83 29 25 30 26 31 27 32 77 33
REMARK SMILES IDX 28 34 82 35 76 36 78 37 29 38 81 39 75 40 74 41 30 43 62 44
REMARK SMILES IDX 42 45 61 46 43 47 46 48 60 49 79 50 44 51 45 52 59 54 80 55
REMARK SMILES IDX 47 56 31 57 32 58 40 59 33 60 34 61 38 62 41 63 35 64 36 65
REMARK SMILES IDX 39 66 37 67 63 68 64 69 72 70 65 71 66 72 70 73 73 74 67 75
REMARK SMILES IDX 68 76 71 77 69 78 48 79 49 80 57 81 50 82 51 83 55 84 58 85
REMARK SMILES IDX 52 86 53 87 56 88 54 89
REMARK H PARENT 6 10 78 42 46 53
REMARK Flexibility Score: inf
ROOT
ATOM      1  O   UNL     1       1.580  -5.318  -5.472  1.00  0.00    -0.374 OA
ENDROOT
BRANCH   1   2
ATOM      2  C   UNL     1       2.922  -5.633  -5.092  1.00  0.00     0.202 C 
BRANCH   2   3
ATOM      3  C   UNL     1       3.840  -4.452  -4.765  1.00  0.00     0.261 C 
BRANCH   3   4
ATOM      4  O   UNL     1       3.369  -3.761  -3.598  1.00  0.00    -0.459 OA
BRANCH   4   5
ATOM      5  C   UNL     1       3.301  -2.401  -3.709  1.00  0.00     0.365 C 
ATOM      6  O   UNL     1       3.809  -1.754  -4.618  1.00  0.00    -0.245 OA
BRANCH   5   7
ATOM      7  C   UNL     1       2.433  -1.808  -2.579  1.00  0.00     0.295 C 
ATOM      8  N   UNL     1       3.145  -1.918  -1.292  1.00  0.00    -0.318 N 
ATOM      9  C   UNL     1       3.979  -0.724  -1.184  1.00  0.00     0.263 C 
ATOM     10  H   UNL     1       3.739  -2.747  -1.274  1.00  0.00     0.349 HD
ATOM     11  C   UNL     1       3.315   0.368  -2.014  1.00  0.00     0.068 C 
ATOM     12  C   UNL     1       2.207  -0.316  -2.801  1.00  0.00     0.083 C 
BRANCH   8  13
ATOM     13  C   UNL     1       2.274  -2.199  -0.140  1.00  0.00     0.321 C 
BRANCH  13  14
ATOM     14  C   UNL     1       1.246  -1.148   0.180  1.00  0.00     0.106 A 
ATOM     15  C   UNL     1      -2.270  -0.179  -0.146  1.00  0.00     0.079 C 
ATOM     16  C   UNL     1      -0.814  -0.313   0.138  1.00  0.00     0.090 A 
ATOM     17  N   UNL     1      -0.058  -1.307  -0.281  1.00  0.00    -0.241 NA
ATOM     18  S   UNL     1      -0.008   0.886   1.066  1.00  0.00    -0.127 S 
ATOM     19  C   UNL     1       1.440  -0.015   0.951  1.00  0.00     0.096 A 
ENDBRANCH  13  14
ENDBRANCH   8  13
ENDBRANCH   5   7
ENDBRANCH   4   5
ENDBRANCH   3   4
ENDBRANCH   2   3
ENDBRANCH   1   2
BRANCH   1  20
ATOM     20  C   UNL     1       0.706  -4.814  -4.464  1.00  0.00     0.202 C 
BRANCH  20  21
ATOM     21  C   UNL     1       0.122  -5.821  -3.463  1.00  0.00     0.261 C 
BRANCH  21  22
ATOM     22  O   UNL     1       1.119  -6.638  -2.828  1.00  0.00    -0.460 OA
BRANCH  22  23
ATOM     23  C   UNL     1       1.141  -7.920  -3.259  1.00  0.00     0.338 C 
ATOM     24  O   UNL     1       0.357  -8.458  -4.034  1.00  0.00    -0.246 OA
BRANCH  23  25
ATOM     25  C   UNL     1       2.361  -8.602  -2.798  1.00  0.00     0.060 A 
ATOM     26  C   UNL     1       3.149  -9.226  -3.773  1.00  0.00     0.016 A 
ATOM     27  C   UNL     1       2.689  -8.713  -1.444  1.00  0.00     0.016 A 
ATOM     28  C   UNL     1       4.234 -10.010  -3.396  1.00  0.00     0.010 A 
ATOM     29  C   UNL     1       3.779  -9.509  -1.065  1.00  0.00     0.010 A 
ATOM     30  C   UNL     1       4.531 -10.192  -2.038  1.00  0.00    -0.014 A 
BRANCH  30  31
ATOM     31  C   UNL     1       5.541 -11.213  -1.666  1.00  0.00     0.031 A 
ATOM     32  C   UNL     1       5.080 -12.592  -1.277  1.00  0.00     0.074 A 
ATOM     33  C   UNL     1       6.855 -10.945  -1.771  1.00  0.00     0.049 A 
ATOM     34  N   UNL     1       5.788 -13.660  -1.007  1.00  0.00    -0.248 NA
ATOM     35  C   UNL     1       3.625 -12.798  -1.188  1.00  0.00     0.031 C 
ATOM     36  C   UNL     1       7.424  -9.659  -2.170  1.00  0.00     0.029 A 
ATOM     37  N   UNL     1       7.948 -11.749  -1.565  1.00  0.00    -0.354 N 
ATOM     38  C   UNL     1       4.868 -14.665  -0.738  1.00  0.00     0.074 A 
ATOM     39  C   UNL     1       3.552 -14.072  -0.830  1.00  0.00     0.031 C 
ATOM     40  C   UNL     1       8.764  -9.763  -2.189  1.00  0.00     0.029 A 
ATOM     41  C   UNL     1       9.146 -11.116  -1.788  1.00  0.00     0.049 A 
ATOM     42  H   UNL     1       7.880 -12.690  -1.285  1.00  0.00     0.167 HD
ATOM     43  C   UNL     1       5.099 -15.970  -0.459  1.00  0.00     0.037 A 
ATOM     44  C   UNL     1      10.406 -11.579  -1.679  1.00  0.00     0.037 A 
ATOM     45  C   UNL     1       6.407 -16.562  -0.356  1.00  0.00     0.049 A 
ATOM     46  C   UNL     1      10.633 -13.020  -1.299  1.00  0.00     0.074 A 
ATOM     47  C   UNL     1       6.743 -17.872  -0.061  1.00  0.00     0.029 A 
ATOM     48  N   UNL     1       7.598 -15.877  -0.546  1.00  0.00    -0.354 N 
ATOM     49  N   UNL     1       9.756 -13.967  -1.072  1.00  0.00    -0.248 NA
ATOM     50  C   UNL     1      12.031 -13.457  -1.171  1.00  0.00     0.031 C 
ATOM     51  C   UNL     1       8.139 -17.972  -0.036  1.00  0.00     0.029 A 
ATOM     52  C   UNL     1       8.671 -16.735  -0.359  1.00  0.00     0.049 A 
ATOM     53  H   UNL     1       7.671 -14.923  -0.778  1.00  0.00     0.167 HD
ATOM     54  C   UNL     1      10.492 -15.114  -0.805  1.00  0.00     0.074 A 
ATOM     55  C   UNL     1      11.888 -14.750  -0.920  1.00  0.00     0.031 C 
ATOM     56  C   UNL     1      10.054 -16.358  -0.489  1.00  0.00     0.037 A 
BRANCH  43  57
ATOM     57  C   UNL     1       3.907 -16.855  -0.243  1.00  0.00     0.064 A 
ATOM     58  C   UNL     1       3.100 -17.266  -1.314  1.00  0.00     0.173 A 
ATOM     59  C   UNL     1       3.601 -17.341   1.036  1.00  0.00     0.173 A 
ATOM     60  F   UNL     1       3.345 -16.817  -2.554  1.00  0.00    -0.203 F 
ATOM     61  C   UNL     1       2.022 -18.123  -1.110  1.00  0.00     0.198 A 
ATOM     62  C   UNL     1       2.536 -18.217   1.233  1.00  0.00     0.198 A 
ATOM     63  F   UNL     1       4.344 -16.980   2.093  1.00  0.00    -0.203 F 
ATOM     64  F   UNL     1       1.246 -18.479  -2.143  1.00  0.00    -0.200 F 
ATOM     65  C   UNL     1       1.746 -18.604   0.161  1.00  0.00     0.200 A 
ATOM     66  F   UNL     1       2.277 -18.690   2.460  1.00  0.00    -0.200 F 
ATOM     67  F   UNL     1       0.716 -19.439   0.353  1.00  0.00    -0.200 F 
ENDBRANCH  43  57
BRANCH  44  68
ATOM     68  C   UNL     1      11.562 -10.679  -1.933  1.00  0.00     0.064 A 
ATOM     69  C   UNL     1      12.416 -10.885  -3.026  1.00  0.00     0.173 A 
ATOM     70  C   UNL     1      11.867  -9.629  -1.055  1.00  0.00     0.173 A 
ATOM     71  F   UNL     1      12.182 -11.893  -3.878  1.00  0.00    -0.203 F 
ATOM     72  C   UNL     1      13.548 -10.094  -3.213  1.00  0.00     0.198 A 
ATOM     73  C   UNL     1      12.983  -8.821  -1.260  1.00  0.00     0.198 A 
ATOM     74  F   UNL     1      11.085  -9.393   0.008  1.00  0.00    -0.203 F 
ATOM     75  F   UNL     1      14.382 -10.352  -4.230  1.00  0.00    -0.200 F 
ATOM     76  C   UNL     1      13.829  -9.061  -2.332  1.00  0.00     0.200 A 
ATOM     77  F   UNL     1      13.246  -7.818  -0.410  1.00  0.00    -0.200 F 
ATOM     78  F   UNL     1      14.923  -8.307  -2.507  1.00  0.00    -0.200 F 
ENDBRANCH  44  68
BRANCH  56  79
ATOM     79  C   UNL     1      11.096 -17.419  -0.281  1.00  0.00     0.064 A 
ATOM     80  C   UNL     1      11.927 -17.422   0.849  1.00  0.00     0.173 A 
ATOM     81  C   UNL     1      11.255 -18.452  -1.217  1.00  0.00     0.173 A 
ATOM     82  F   UNL     1      11.823 -16.448   1.766  1.00  0.00    -0.203 F 
ATOM     83  C   UNL     1      12.904 -18.400   1.016  1.00  0.00     0.198 A 
ATOM     84  C   UNL     1      12.213 -19.445  -1.032  1.00  0.00     0.198 A 
ATOM     85  F   UNL     1      10.480 -18.500  -2.311  1.00  0.00    -0.203 F 
ATOM     86  F   UNL     1      13.725 -18.349   2.074  1.00  0.00    -0.200 F 
ATOM     87  C   UNL     1      13.043 -19.412   0.079  1.00  0.00     0.200 A 
ATOM     88  F   UNL     1      12.338 -20.430  -1.932  1.00  0.00    -0.200 F 
ATOM     89  F   UNL     1      13.986 -20.351   0.240  1.00  0.00    -0.200 F 
ENDBRANCH  56  79
ENDBRANCH  30  31
ENDBRANCH  23  25
ENDBRANCH  22  23
ENDBRANCH  21  22
ENDBRANCH  20  21
ENDBRANCH   1  20
TORSDOF 16
