REMARK SMILES COc1ccccc1-c1nnc(S[C@@H](C)C(=O)OCCOCCOC(=O)c2ccc(-c3c4nc(c(-c5c(F)c(F)c(F)c(F)c5F)c5ccc([nH]5)c(-c5c(F)c(F)c(F)c(F)c5F)c5nc(c(-c6c(F)c(F)c(F)c(F)c6F)c6ccc3[nH]6)C=C5)C=C4)cc2)n1-c1ccccc1
REMARK SMILES IDX 20 1 19 2 18 3 16 4 17 5 14 6 15 7 13 8 12 9 9 10 10 11
REMARK SMILES IDX 90 12 11 13 8 14 3 15 4 16 5 17 7 18 6 19 2 20 1 21 91 22
REMARK SMILES IDX 92 23 96 24 93 25 95 26 94 27 21 28 22 29 23 30 24 31 25 32
REMARK SMILES IDX 26 33 27 34 28 35 89 36 29 37 88 38 30 39 31 40 32 41 82 42
REMARK SMILES IDX 33 43 87 44 81 45 83 46 34 47 86 48 80 49 79 50 35 52 67 53
REMARK SMILES IDX 47 54 66 55 48 56 51 57 65 58 84 59 49 60 50 61 64 63 85 64
REMARK SMILES IDX 52 65 36 66 37 67 45 68 38 69 39 70 43 71 46 72 40 73 41 74
REMARK SMILES IDX 44 75 42 76 68 77 69 78 77 79 70 80 71 81 75 82 78 83 72 84
REMARK SMILES IDX 73 85 76 86 74 87 53 88 54 89 62 90 55 91 56 92 60 93 63 94
REMARK SMILES IDX 57 95 58 96 61 97 59 98
REMARK H PARENT 83 51 51 62
REMARK Flexibility Score: inf
ROOT
ATOM      1  C   UNL     1       6.438  -1.167  -5.476  1.00  0.00     0.202 C 
ENDROOT
BRANCH   1   2
ATOM      2  C   UNL     1       4.981  -1.453  -5.123  1.00  0.00     0.261 C 
BRANCH   2   3
ATOM      3  O   UNL     1       4.809  -1.828  -3.740  1.00  0.00    -0.462 OA
BRANCH   3   4
ATOM      4  C   UNL     1       4.029  -2.925  -3.518  1.00  0.00     0.319 C 
ATOM      5  O   UNL     1       3.462  -3.550  -4.409  1.00  0.00    -0.251 OA
BRANCH   4   6
ATOM      6  C   UNL     1       4.067  -3.428  -2.084  1.00  0.00     0.161 C 
ATOM      7  C   UNL     1       2.871  -4.276  -1.653  1.00  0.00     0.032 C 
BRANCH   6   8
ATOM      8  S   UNL     1       4.607  -2.337  -0.775  1.00  0.00    -0.071 SA
BRANCH   8   9
ATOM      9  C   UNL     1       3.792  -0.818  -0.651  1.00  0.00     0.196 A 
ATOM     10  C   UNL     1       2.861   1.148  -0.962  1.00  0.00     0.173 A 
ATOM     11  N   UNL     1       3.639   1.235   0.095  1.00  0.00    -0.129 NA
ATOM     12  N   UNL     1       2.924  -0.142  -1.491  1.00  0.00    -0.270 N 
ATOM     13  N   UNL     1       4.181   0.002   0.310  1.00  0.00    -0.122 NA
BRANCH  10  14
ATOM     14  C   UNL     1       1.953   2.187  -1.432  1.00  0.00     0.062 A 
ATOM     15  C   UNL     1       0.559   1.998  -1.442  1.00  0.00     0.129 A 
ATOM     16  C   UNL     1      -0.249   2.875  -2.166  1.00  0.00     0.047 A 
ATOM     17  C   UNL     1       0.312   3.973  -2.821  1.00  0.00     0.004 A 
ATOM     18  C   UNL     1       2.502   3.327  -2.038  1.00  0.00     0.016 A 
ATOM     19  C   UNL     1       1.683   4.213  -2.739  1.00  0.00     0.001 A 
BRANCH  15  20
ATOM     20  O   UNL     1      -0.078   0.896  -0.925  1.00  0.00    -0.496 OA
ATOM     21  C   UNL     1       0.110   0.707   0.477  1.00  0.00     0.278 C 
ENDBRANCH  15  20
ENDBRANCH  10  14
BRANCH  12  22
ATOM     22  C   UNL     1       2.185  -0.575  -2.613  1.00  0.00     0.050 A 
ATOM     23  C   UNL     1       1.289  -1.635  -2.497  1.00  0.00     0.027 A 
ATOM     24  C   UNL     1       2.287   0.130  -3.820  1.00  0.00     0.027 A 
ATOM     25  C   UNL     1       0.600  -2.080  -3.626  1.00  0.00     0.002 A 
ATOM     26  C   UNL     1       1.594  -0.317  -4.944  1.00  0.00     0.002 A 
ATOM     27  C   UNL     1       0.776  -1.440  -4.853  1.00  0.00     0.000 A 
ENDBRANCH  12  22
ENDBRANCH   8   9
ENDBRANCH   6   8
ENDBRANCH   4   6
ENDBRANCH   3   4
ENDBRANCH   2   3
ENDBRANCH   1   2
BRANCH   1  28
ATOM     28  O   UNL     1       7.356  -2.254  -5.403  1.00  0.00    -0.374 OA
BRANCH  28  29
ATOM     29  C   UNL     1       7.479  -2.975  -4.184  1.00  0.00     0.202 C 
BRANCH  29  30
ATOM     30  C   UNL     1       8.108  -2.254  -2.998  1.00  0.00     0.261 C 
BRANCH  30  31
ATOM     31  O   UNL     1       7.432  -1.061  -2.635  1.00  0.00    -0.460 OA
BRANCH  31  32
ATOM     32  C   UNL     1       8.079   0.066  -3.013  1.00  0.00     0.338 C 
ATOM     33  O   UNL     1       8.901   0.179  -3.906  1.00  0.00    -0.246 OA
BRANCH  32  34
ATOM     34  C   UNL     1       7.806   1.129  -2.041  1.00  0.00     0.060 A 
ATOM     35  C   UNL     1       8.438   2.351  -2.272  1.00  0.00     0.016 A 
ATOM     36  C   UNL     1       7.262   0.798  -0.796  1.00  0.00     0.016 A 
ATOM     37  C   UNL     1       8.737   3.140  -1.187  1.00  0.00     0.010 A 
ATOM     38  C   UNL     1       7.553   1.588   0.288  1.00  0.00     0.010 A 
ATOM     39  C   UNL     1       8.375   2.690   0.088  1.00  0.00    -0.014 A 
BRANCH  39  40
ATOM     40  C   UNL     1       8.863   3.435   1.227  1.00  0.00     0.031 A 
ATOM     41  C   UNL     1       8.153   4.710   1.417  1.00  0.00     0.074 A 
ATOM     42  C   UNL     1       9.805   2.941   2.052  1.00  0.00     0.049 A 
ATOM     43  N   UNL     1       8.639   5.901   1.320  1.00  0.00    -0.248 NA
ATOM     44  C   UNL     1       6.692   4.662   1.583  1.00  0.00     0.031 C 
ATOM     45  C   UNL     1      10.313   1.565   2.079  1.00  0.00     0.029 A 
ATOM     46  N   UNL     1      10.430   3.524   3.116  1.00  0.00    -0.354 N 
ATOM     47  C   UNL     1       7.587   6.749   1.643  1.00  0.00     0.074 A 
ATOM     48  C   UNL     1       6.388   5.959   1.586  1.00  0.00     0.031 C 
ATOM     49  C   UNL     1      10.983   1.362   3.233  1.00  0.00     0.029 A 
ATOM     50  C   UNL     1      11.066   2.621   3.955  1.00  0.00     0.049 A 
ATOM     51  H   UNL     1      10.429   4.496   3.274  1.00  0.00     0.167 HD
ATOM     52  C   UNL     1       7.845   7.933   2.258  1.00  0.00     0.037 A 
ATOM     53  C   UNL     1      11.571   2.874   5.185  1.00  0.00     0.037 A 
ATOM     54  C   UNL     1       9.232   8.298   2.114  1.00  0.00     0.049 A 
ATOM     55  C   UNL     1      11.785   4.334   5.310  1.00  0.00     0.074 A 
ATOM     56  C   UNL     1      10.027   8.872   1.148  1.00  0.00     0.029 A 
ATOM     57  N   UNL     1      10.061   7.711   3.030  1.00  0.00    -0.354 N 
ATOM     58  N   UNL     1      12.694   4.990   4.643  1.00  0.00    -0.248 NA
ATOM     59  C   UNL     1      10.764   5.160   5.949  1.00  0.00     0.031 C 
ATOM     60  C   UNL     1      11.373   8.528   1.475  1.00  0.00     0.029 A 
ATOM     61  C   UNL     1      11.369   7.758   2.634  1.00  0.00     0.049 A 
ATOM     62  H   UNL     1       9.753   7.304   3.872  1.00  0.00     0.167 HD
ATOM     63  C   UNL     1      12.124   6.228   4.424  1.00  0.00     0.074 A 
ATOM     64  C   UNL     1      11.046   6.341   5.393  1.00  0.00     0.031 C 
ATOM     65  C   UNL     1      12.345   6.896   3.257  1.00  0.00     0.037 A 
BRANCH  52  66
ATOM     66  C   UNL     1       7.029   8.483   3.412  1.00  0.00     0.064 A 
ATOM     67  C   UNL     1       7.396   9.736   3.946  1.00  0.00     0.173 A 
ATOM     68  C   UNL     1       6.160   7.714   4.218  1.00  0.00     0.173 A 
ATOM     69  F   UNL     1       8.214  10.555   3.268  1.00  0.00    -0.203 F 
ATOM     70  C   UNL     1       7.007  10.137   5.227  1.00  0.00     0.198 A 
ATOM     71  C   UNL     1       5.735   8.140   5.475  1.00  0.00     0.198 A 
ATOM     72  F   UNL     1       5.772   6.479   3.888  1.00  0.00    -0.203 F 
ATOM     73  F   UNL     1       7.489  11.276   5.742  1.00  0.00    -0.200 F 
ATOM     74  C   UNL     1       6.187   9.333   5.995  1.00  0.00     0.200 A 
ATOM     75  F   UNL     1       4.950   7.339   6.210  1.00  0.00    -0.200 F 
ATOM     76  F   UNL     1       5.868   9.681   7.248  1.00  0.00    -0.200 F 
ENDBRANCH  52  66
BRANCH  53  77
ATOM     77  C   UNL     1      11.686   1.957   6.340  1.00  0.00     0.064 A 
ATOM     78  C   UNL     1      12.576   2.221   7.393  1.00  0.00     0.173 A 
ATOM     79  C   UNL     1      10.736   0.941   6.560  1.00  0.00     0.173 A 
ATOM     80  F   UNL     1      13.486   3.199   7.277  1.00  0.00    -0.203 F 
ATOM     81  C   UNL     1      12.501   1.529   8.605  1.00  0.00     0.198 A 
ATOM     82  C   UNL     1      10.668   0.244   7.766  1.00  0.00     0.198 A 
ATOM     83  F   UNL     1       9.796   0.669   5.643  1.00  0.00    -0.203 F 
ATOM     84  F   UNL     1      13.327   1.852   9.610  1.00  0.00    -0.200 F 
ATOM     85  C   UNL     1      11.541   0.549   8.794  1.00  0.00     0.200 A 
ATOM     86  F   UNL     1       9.714  -0.680   7.948  1.00  0.00    -0.200 F 
ATOM     87  F   UNL     1      11.430  -0.072   9.976  1.00  0.00    -0.200 F 
ENDBRANCH  53  77
BRANCH  65  88
ATOM     88  C   UNL     1      13.595   6.566   2.511  1.00  0.00     0.064 A 
ATOM     89  C   UNL     1      13.838   5.332   1.888  1.00  0.00     0.173 A 
ATOM     90  C   UNL     1      14.569   7.564   2.384  1.00  0.00     0.173 A 
ATOM     91  F   UNL     1      12.917   4.359   1.906  1.00  0.00    -0.203 F 
ATOM     92  C   UNL     1      15.031   5.096   1.206  1.00  0.00     0.198 A 
ATOM     93  C   UNL     1      15.742   7.339   1.673  1.00  0.00     0.198 A 
ATOM     94  F   UNL     1      14.367   8.774   2.929  1.00  0.00    -0.203 F 
ATOM     95  F   UNL     1      15.257   3.902   0.640  1.00  0.00    -0.200 F 
ATOM     96  C   UNL     1      15.979   6.102   1.095  1.00  0.00     0.200 A 
ATOM     97  F   UNL     1      16.637   8.327   1.535  1.00  0.00    -0.200 F 
ATOM     98  F   UNL     1      17.114   5.885   0.416  1.00  0.00    -0.200 F 
ENDBRANCH  65  88
ENDBRANCH  39  40
ENDBRANCH  32  34
ENDBRANCH  31  32
ENDBRANCH  30  31
ENDBRANCH  29  30
ENDBRANCH  28  29
ENDBRANCH   1  28
TORSDOF 19
