REMARK SMILES Cc1cc(C(=O)OCCOCCOC(=O)c2ccc(-c3c4nc(c(-c5c(F)c(F)c(F)c(F)c5F)c5ccc([nH]5)c(-c5c(F)c(F)c(F)c(F)c5F)c5nc(c(-c6c(F)c(F)c(F)c(F)c6F)c6ccc3[nH]6)C=C5)C=C4)cc2)nc(N2CCN(c3ccccc3Cl)CC2)n1
REMARK SMILES IDX 10 1 9 2 8 3 7 4 5 5 6 6 4 7 1 8 2 9 3 10 94 11 80 12 79 13
REMARK SMILES IDX 81 14 82 15 93 16 83 17 92 18 84 19 85 20 86 21 90 22 87 23
REMARK SMILES IDX 89 24 91 25 88 26 11 27 12 28 13 29 14 30 15 31 16 32 17 33
REMARK SMILES IDX 78 34 18 35 77 36 19 37 20 38 21 39 71 40 22 41 76 42 70 43
REMARK SMILES IDX 72 44 23 45 75 46 69 47 68 48 24 50 56 51 36 52 55 53 37 54
REMARK SMILES IDX 40 55 54 56 73 57 38 58 39 59 53 61 74 62 41 63 25 64 26 65
REMARK SMILES IDX 34 66 27 67 28 68 32 69 35 70 29 71 30 72 33 73 31 74 57 75
REMARK SMILES IDX 58 76 66 77 59 78 60 79 64 80 67 81 61 82 62 83 65 84 63 85
REMARK SMILES IDX 42 86 43 87 51 88 44 89 45 90 49 91 52 92 46 93 47 94 50 95
REMARK SMILES IDX 48 96
REMARK H PARENT 72 49 40 60
REMARK Flexibility Score: inf
ROOT
ATOM      1  O   UNL     1       3.895  -3.600  -1.123  1.00  0.00    -0.374 OA
ENDROOT
BRANCH   1   2
ATOM      2  C   UNL     1       3.155  -4.642  -0.487  1.00  0.00     0.202 C 
BRANCH   2   3
ATOM      3  C   UNL     1       2.569  -4.301   0.885  1.00  0.00     0.261 C 
BRANCH   3   4
ATOM      4  O   UNL     1       1.566  -3.278   0.768  1.00  0.00    -0.459 OA
BRANCH   4   5
ATOM      5  C   UNL     1       1.856  -2.130   1.433  1.00  0.00     0.357 C 
ATOM      6  O   UNL     1       2.735  -1.978   2.267  1.00  0.00    -0.244 OA
BRANCH   5   7
ATOM      7  C   UNL     1       1.033  -1.020   0.890  1.00  0.00     0.154 A 
ATOM      8  C   UNL     1      -2.425   0.036   0.006  1.00  0.00     0.067 C 
ATOM      9  C   UNL     1      -0.945   0.007   0.246  1.00  0.00     0.044 A 
ATOM     10  C   UNL     1      -0.321  -1.140   0.686  1.00  0.00     0.059 A 
ATOM     11  N   UNL     1      -0.276   1.168   0.061  1.00  0.00    -0.218 NA
ATOM     12  C   UNL     1       1.052   1.167   0.242  1.00  0.00     0.226 A 
ATOM     13  N   UNL     1       1.735   0.096   0.630  1.00  0.00    -0.206 NA
BRANCH  12  14
ATOM     14  N   UNL     1       1.788   2.299   0.058  1.00  0.00    -0.337 N 
ATOM     15  C   UNL     1       1.321   3.567   0.604  1.00  0.00     0.141 C 
ATOM     16  C   UNL     1       2.599   2.363  -1.158  1.00  0.00     0.141 C 
ATOM     17  C   UNL     1       2.544   4.487   0.854  1.00  0.00     0.138 C 
ATOM     18  C   UNL     1       3.795   3.320  -0.958  1.00  0.00     0.138 C 
ATOM     19  N   UNL     1       3.336   4.593  -0.379  1.00  0.00    -0.367 N 
BRANCH  19  20
ATOM     20  C   UNL     1       3.931   5.781  -0.752  1.00  0.00     0.056 A 
ATOM     21  C   UNL     1       4.738   6.487   0.154  1.00  0.00     0.027 A 
ATOM     22  C   UNL     1       3.738   6.348  -2.030  1.00  0.00     0.064 A 
ATOM     23  C   UNL     1       5.325   7.708  -0.193  1.00  0.00     0.002 A 
ATOM     24  C   UNL     1       4.317   7.573  -2.375  1.00  0.00     0.023 A 
ATOM     25  Cl  UNL     1       2.708   5.601  -3.210  1.00  0.00    -0.082 Cl
ATOM     26  C   UNL     1       5.111   8.254  -1.456  1.00  0.00     0.002 A 
ENDBRANCH  19  20
ENDBRANCH  12  14
ENDBRANCH   5   7
ENDBRANCH   4   5
ENDBRANCH   3   4
ENDBRANCH   2   3
ENDBRANCH   1   2
BRANCH   1  27
ATOM     27  C   UNL     1       3.146  -2.598  -1.815  1.00  0.00     0.202 C 
BRANCH  27  28
ATOM     28  C   UNL     1       2.661  -2.982  -3.218  1.00  0.00     0.261 C 
BRANCH  28  29
ATOM     29  O   UNL     1       1.664  -4.022  -3.173  1.00  0.00    -0.460 OA
BRANCH  29  30
ATOM     30  C   UNL     1       2.067  -5.221  -3.652  1.00  0.00     0.338 C 
ATOM     31  O   UNL     1       3.131  -5.486  -4.197  1.00  0.00    -0.246 OA
BRANCH  30  32
ATOM     32  C   UNL     1       1.099  -6.267  -3.273  1.00  0.00     0.060 A 
ATOM     33  C   UNL     1       1.597  -7.409  -2.633  1.00  0.00     0.016 A 
ATOM     34  C   UNL     1      -0.257  -6.168  -3.593  1.00  0.00     0.016 A 
ATOM     35  C   UNL     1       0.750  -8.479  -2.352  1.00  0.00     0.010 A 
ATOM     36  C   UNL     1      -1.105  -7.247  -3.318  1.00  0.00     0.010 A 
ATOM     37  C   UNL     1      -0.599  -8.420  -2.727  1.00  0.00    -0.014 A 
BRANCH  37  38
ATOM     38  C   UNL     1      -1.442  -9.636  -2.625  1.00  0.00     0.031 A 
ATOM     39  C   UNL     1      -1.676 -10.468  -3.856  1.00  0.00     0.074 A 
ATOM     40  C   UNL     1      -1.970 -10.012  -1.446  1.00  0.00     0.049 A 
ATOM     41  N   UNL     1      -2.404 -11.546  -4.005  1.00  0.00    -0.248 NA
ATOM     42  C   UNL     1      -0.997 -10.025  -5.084  1.00  0.00     0.031 C 
ATOM     43  C   UNL     1      -1.784  -9.313  -0.177  1.00  0.00     0.029 A 
ATOM     44  N   UNL     1      -2.777 -11.077  -1.131  1.00  0.00    -0.354 N 
ATOM     45  C   UNL     1      -2.273 -11.907  -5.340  1.00  0.00     0.074 A 
ATOM     46  C   UNL     1      -1.422 -10.918  -5.966  1.00  0.00     0.031 C 
ATOM     47  C   UNL     1      -2.469  -9.961   0.781  1.00  0.00     0.029 A 
ATOM     48  C   UNL     1      -3.165 -11.101   0.186  1.00  0.00     0.049 A 
ATOM     49  H   UNL     1      -3.053 -11.758  -1.786  1.00  0.00     0.167 HD
ATOM     50  C   UNL     1      -2.807 -12.973  -5.982  1.00  0.00     0.037 A 
ATOM     51  C   UNL     1      -4.003 -11.936   0.830  1.00  0.00     0.037 A 
ATOM     52  C   UNL     1      -3.651 -13.959  -5.360  1.00  0.00     0.049 A 
ATOM     53  C   UNL     1      -4.640 -13.074   0.074  1.00  0.00     0.074 A 
ATOM     54  C   UNL     1      -4.226 -15.083  -5.925  1.00  0.00     0.029 A 
ATOM     55  N   UNL     1      -4.044 -13.933  -4.030  1.00  0.00    -0.354 N 
ATOM     56  N   UNL     1      -4.492 -13.422  -1.181  1.00  0.00    -0.248 NA
ATOM     57  C   UNL     1      -5.560 -13.939   0.829  1.00  0.00     0.031 C 
ATOM     58  C   UNL     1      -5.006 -15.713  -4.949  1.00  0.00     0.029 A 
ATOM     59  C   UNL     1      -4.874 -15.010  -3.763  1.00  0.00     0.049 A 
ATOM     60  H   UNL     1      -3.773 -13.252  -3.374  1.00  0.00     0.167 HD
ATOM     61  C   UNL     1      -5.272 -14.557  -1.359  1.00  0.00     0.074 A 
ATOM     62  C   UNL     1      -5.883 -14.849  -0.079  1.00  0.00     0.031 C 
ATOM     63  C   UNL     1      -5.466 -15.293  -2.481  1.00  0.00     0.037 A 
BRANCH  50  64
ATOM     64  C   UNL     1      -2.508 -13.123  -7.445  1.00  0.00     0.064 A 
ATOM     65  C   UNL     1      -1.241 -13.518  -7.900  1.00  0.00     0.173 A 
ATOM     66  C   UNL     1      -3.514 -12.917  -8.400  1.00  0.00     0.173 A 
ATOM     67  F   UNL     1      -0.241 -13.714  -7.027  1.00  0.00    -0.203 F 
ATOM     68  C   UNL     1      -0.988 -13.682  -9.259  1.00  0.00     0.198 A 
ATOM     69  C   UNL     1      -3.265 -13.108  -9.756  1.00  0.00     0.198 A 
ATOM     70  F   UNL     1      -4.744 -12.543  -8.016  1.00  0.00    -0.203 F 
ATOM     71  F   UNL     1       0.240 -14.023  -9.674  1.00  0.00    -0.200 F 
ATOM     72  C   UNL     1      -2.002 -13.486 -10.185  1.00  0.00     0.200 A 
ATOM     73  F   UNL     1      -4.249 -12.929 -10.649  1.00  0.00    -0.200 F 
ATOM     74  F   UNL     1      -1.759 -13.655 -11.492  1.00  0.00    -0.200 F 
ENDBRANCH  50  64
BRANCH  51  75
ATOM     75  C   UNL     1      -4.307 -11.723   2.270  1.00  0.00     0.064 A 
ATOM     76  C   UNL     1      -3.878 -12.635   3.244  1.00  0.00     0.173 A 
ATOM     77  C   UNL     1      -5.061 -10.620   2.696  1.00  0.00     0.173 A 
ATOM     78  F   UNL     1      -3.178 -13.720   2.882  1.00  0.00    -0.203 F 
ATOM     79  C   UNL     1      -4.212 -12.464   4.586  1.00  0.00     0.198 A 
ATOM     80  C   UNL     1      -5.369 -10.434   4.042  1.00  0.00     0.198 A 
ATOM     81  F   UNL     1      -5.498  -9.719   1.803  1.00  0.00    -0.203 F 
ATOM     82  F   UNL     1      -3.834 -13.379   5.489  1.00  0.00    -0.200 F 
ATOM     83  C   UNL     1      -4.952 -11.361   4.984  1.00  0.00     0.200 A 
ATOM     84  F   UNL     1      -6.076  -9.362   4.423  1.00  0.00    -0.200 F 
ATOM     85  F   UNL     1      -5.274 -11.198   6.275  1.00  0.00    -0.200 F 
ENDBRANCH  51  75
BRANCH  63  86
ATOM     86  C   UNL     1      -6.344 -16.506  -2.369  1.00  0.00     0.064 A 
ATOM     87  C   UNL     1      -7.735 -16.397  -2.227  1.00  0.00     0.173 A 
ATOM     88  C   UNL     1      -5.790 -17.793  -2.449  1.00  0.00     0.173 A 
ATOM     89  F   UNL     1      -8.312 -15.190  -2.132  1.00  0.00    -0.203 F 
ATOM     90  C   UNL     1      -8.536 -17.533  -2.144  1.00  0.00     0.198 A 
ATOM     91  C   UNL     1      -6.596 -18.925  -2.394  1.00  0.00     0.198 A 
ATOM     92  F   UNL     1      -4.465 -17.951  -2.592  1.00  0.00    -0.203 F 
ATOM     93  F   UNL     1      -9.858 -17.407  -1.962  1.00  0.00    -0.200 F 
ATOM     94  C   UNL     1      -7.968 -18.795  -2.235  1.00  0.00     0.200 A 
ATOM     95  F   UNL     1      -6.047 -20.143  -2.496  1.00  0.00    -0.200 F 
ATOM     96  F   UNL     1      -8.741 -19.887  -2.162  1.00  0.00    -0.200 F 
ENDBRANCH  63  86
ENDBRANCH  37  38
ENDBRANCH  30  32
ENDBRANCH  29  30
ENDBRANCH  28  29
ENDBRANCH  27  28
ENDBRANCH   1  27
TORSDOF 16
