REMARK SMILES Cc1cc(C(=O)N2CCO[C@H](C)C2)sc1/C=C/C(=O)OCCOCCOC(=O)c1ccc(-c2c3nc(c(-c4c(F)c(F)c(F)c(F)c4F)c4ccc([nH]4)c(-c4c(F)c(F)c(F)c(F)c4F)c4nc(c(-c5c(F)c(F)c(F)c(F)c5F)c5ccc2[nH]5)C=C4)C=C3)cc1
REMARK SMILES IDX 22 1 21 2 20 3 18 4 19 5 17 6 16 7 15 8 1 9 2 10 3 11 4 12
REMARK SMILES IDX 14 13 5 14 6 15 7 16 8 17 13 18 9 19 11 20 10 21 12 22 23 23
REMARK SMILES IDX 24 24 25 25 26 26 27 27 28 28 29 29 30 30 91 31 31 32 90 33
REMARK SMILES IDX 32 34 33 35 34 36 84 37 35 38 89 39 83 40 85 41 36 42 88 43
REMARK SMILES IDX 82 44 81 45 37 47 69 48 49 49 68 50 50 51 53 52 67 53 86 54
REMARK SMILES IDX 51 55 52 56 66 58 87 59 54 60 38 61 39 62 47 63 40 64 41 65
REMARK SMILES IDX 45 66 48 67 42 68 43 69 46 70 44 71 70 72 71 73 79 74 72 75
REMARK SMILES IDX 73 76 77 77 80 78 74 79 75 80 78 81 76 82 55 83 56 84 64 85
REMARK SMILES IDX 57 86 58 87 62 88 65 89 59 90 60 91 63 92 61 93
REMARK H PARENT 85 46 53 57
REMARK Flexibility Score: inf
ROOT
ATOM      1  C   UNL     1       0.542  -7.312   0.464  1.00  0.00     0.202 C 
ENDROOT
BRANCH   1   2
ATOM      2  C   UNL     1       0.695  -6.680  -0.921  1.00  0.00     0.261 C 
BRANCH   2   3
ATOM      3  O   UNL     1       0.682  -5.245  -0.833  1.00  0.00    -0.460 OA
BRANCH   3   4
ATOM      4  C   UNL     1      -0.370  -4.646  -1.436  1.00  0.00     0.330 C 
ATOM      5  O   UNL     1      -1.225  -5.190  -2.119  1.00  0.00    -0.247 OA
BRANCH   4   6
ATOM      6  C   UNL     1      -0.452  -3.207  -1.125  1.00  0.00     0.095 C 
ATOM      7  C   UNL     1       0.450  -2.476  -0.448  1.00  0.00     0.027 C 
BRANCH   7   8
ATOM      8  C   UNL     1       0.260  -1.075  -0.196  1.00  0.00     0.031 A 
ATOM      9  C   UNL     1       2.692  -0.262   0.104  1.00  0.00     0.046 C 
ATOM     10  C   UNL     1       1.207  -0.083   0.054  1.00  0.00    -0.032 A 
ATOM     11  C   UNL     1       0.596   1.217   0.172  1.00  0.00     0.029 A 
ATOM     12  C   UNL     1      -0.774   1.202   0.009  1.00  0.00     0.093 A 
ATOM     13  S   UNL     1      -1.325  -0.395  -0.165  1.00  0.00    -0.130 S 
BRANCH  12  14
ATOM     14  C   UNL     1      -1.643   2.359  -0.200  1.00  0.00     0.264 C 
ATOM     15  O   UNL     1      -1.182   3.434  -0.588  1.00  0.00    -0.268 OA
BRANCH  14  16
ATOM     16  N   UNL     1      -3.019   2.202  -0.088  1.00  0.00    -0.333 N 
ATOM     17  C   UNL     1      -3.898   2.917  -1.006  1.00  0.00     0.148 C 
ATOM     18  C   UNL     1      -3.720   1.528   1.007  1.00  0.00     0.151 C 
ATOM     19  C   UNL     1      -4.973   1.951  -1.518  1.00  0.00     0.182 C 
ATOM     20  C   UNL     1      -4.854   0.638   0.462  1.00  0.00     0.134 C 
ATOM     21  O   UNL     1      -5.714   1.385  -0.423  1.00  0.00    -0.375 OA
ATOM     22  C   UNL     1      -5.721   0.101   1.593  1.00  0.00     0.040 C 
ENDBRANCH  14  16
ENDBRANCH  12  14
ENDBRANCH   7   8
ENDBRANCH   4   6
ENDBRANCH   3   4
ENDBRANCH   2   3
ENDBRANCH   1   2
BRANCH   1  23
ATOM     23  O   UNL     1      -0.714  -7.088   1.102  1.00  0.00    -0.374 OA
BRANCH  23  24
ATOM     24  C   UNL     1      -0.869  -5.852   1.803  1.00  0.00     0.202 C 
BRANCH  24  25
ATOM     25  C   UNL     1      -0.257  -5.811   3.209  1.00  0.00     0.261 C 
BRANCH  25  26
ATOM     26  O   UNL     1       1.183  -5.836   3.162  1.00  0.00    -0.460 OA
BRANCH  26  27
ATOM     27  C   UNL     1       1.752  -6.974   3.621  1.00  0.00     0.338 C 
ATOM     28  O   UNL     1       1.190  -7.926   4.147  1.00  0.00    -0.246 OA
BRANCH  27  29
ATOM     29  C   UNL     1       3.178  -7.012   3.247  1.00  0.00     0.060 A 
ATOM     30  C   UNL     1       3.650  -8.168   2.613  1.00  0.00     0.016 A 
ATOM     31  C   UNL     1       4.052  -5.970   3.563  1.00  0.00     0.016 A 
ATOM     32  C   UNL     1       5.009  -8.308   2.336  1.00  0.00     0.010 A 
ATOM     33  C   UNL     1       5.417  -6.115   3.291  1.00  0.00     0.010 A 
ATOM     34  C   UNL     1       5.906  -7.298   2.708  1.00  0.00    -0.014 A 
BRANCH  34  35
ATOM     35  C   UNL     1       7.366  -7.542   2.611  1.00  0.00     0.031 A 
ATOM     36  C   UNL     1       8.123  -7.949   3.845  1.00  0.00     0.074 A 
ATOM     37  C   UNL     1       8.006  -7.428   1.434  1.00  0.00     0.049 A 
ATOM     38  N   UNL     1       9.402  -8.180   3.998  1.00  0.00    -0.248 NA
ATOM     39  C   UNL     1       7.329  -8.115   5.073  1.00  0.00     0.031 C 
ATOM     40  C   UNL     1       7.378  -7.077   0.163  1.00  0.00     0.029 A 
ATOM     41  N   UNL     1       9.333  -7.591   1.122  1.00  0.00    -0.354 N 
ATOM     42  C   UNL     1       9.567  -8.515   5.335  1.00  0.00     0.074 A 
ATOM     43  C   UNL     1       8.264  -8.427   5.959  1.00  0.00     0.031 C 
ATOM     44  C   UNL     1       8.322  -7.039  -0.793  1.00  0.00     0.029 A 
ATOM     45  C   UNL     1       9.623  -7.335  -0.195  1.00  0.00     0.049 A 
ATOM     46  H   UNL     1      10.012  -7.866   1.780  1.00  0.00     0.167 HD
ATOM     47  C   UNL     1      10.701  -8.875   5.982  1.00  0.00     0.037 A 
ATOM     48  C   UNL     1      10.807  -7.321  -0.837  1.00  0.00     0.037 A 
ATOM     49  C   UNL     1      11.996  -8.965   5.362  1.00  0.00     0.049 A 
ATOM     50  C   UNL     1      12.065  -7.659  -0.079  1.00  0.00     0.074 A 
ATOM     51  C   UNL     1      13.202  -9.338   5.930  1.00  0.00     0.029 A 
ATOM     52  N   UNL     1      12.255  -8.670   4.032  1.00  0.00    -0.354 N 
ATOM     53  N   UNL     1      12.209  -8.000   1.179  1.00  0.00    -0.248 NA
ATOM     54  C   UNL     1      13.326  -7.613  -0.833  1.00  0.00     0.031 C 
ATOM     55  C   UNL     1      14.199  -9.224   4.955  1.00  0.00     0.029 A 
ATOM     56  C   UNL     1      13.606  -8.829   3.767  1.00  0.00     0.049 A 
ATOM     57  H   UNL     1      11.580  -8.389   3.373  1.00  0.00     0.167 HD
ATOM     58  C   UNL     1      13.566  -8.236   1.359  1.00  0.00     0.074 A 
ATOM     59  C   UNL     1      14.202  -8.010   0.079  1.00  0.00     0.031 C 
ATOM     60  C   UNL     1      14.225  -8.607   2.484  1.00  0.00     0.037 A 
BRANCH  47  61
ATOM     61  C   UNL     1      10.595  -9.178   7.448  1.00  0.00     0.064 A 
ATOM     62  C   UNL     1       9.974 -10.346   7.916  1.00  0.00     0.173 A 
ATOM     63  C   UNL     1      11.150  -8.305   8.396  1.00  0.00     0.173 A 
ATOM     64  F   UNL     1       9.416 -11.206   7.051  1.00  0.00    -0.203 F 
ATOM     65  C   UNL     1       9.893 -10.617   9.279  1.00  0.00     0.198 A 
ATOM     66  C   UNL     1      11.090  -8.592   9.757  1.00  0.00     0.198 A 
ATOM     67  F   UNL     1      11.757  -7.175   8.001  1.00  0.00    -0.203 F 
ATOM     68  F   UNL     1       9.257 -11.717   9.706  1.00  0.00    -0.200 F 
ATOM     69  C   UNL     1      10.456  -9.743  10.198  1.00  0.00     0.200 A 
ATOM     70  F   UNL     1      11.645  -7.752  10.642  1.00  0.00    -0.200 F 
ATOM     71  F   UNL     1      10.382 -10.008  11.509  1.00  0.00    -0.200 F 
ENDBRANCH  47  61
BRANCH  48  72
ATOM     72  C   UNL     1      10.864  -6.963  -2.277  1.00  0.00     0.064 A 
ATOM     73  C   UNL     1      11.195  -7.918  -3.248  1.00  0.00     0.173 A 
ATOM     74  C   UNL     1      10.606  -5.654  -2.710  1.00  0.00     0.173 A 
ATOM     75  F   UNL     1      11.476  -9.176  -2.881  1.00  0.00    -0.203 F 
ATOM     76  C   UNL     1      11.281  -7.573  -4.596  1.00  0.00     0.198 A 
ATOM     77  C   UNL     1      10.666  -5.317  -4.061  1.00  0.00     0.198 A 
ATOM     78  F   UNL     1      10.288  -4.702  -1.820  1.00  0.00    -0.203 F 
ATOM     79  F   UNL     1      11.643  -8.495  -5.499  1.00  0.00    -0.200 F 
ATOM     80  C   UNL     1      11.010  -6.275  -5.002  1.00  0.00     0.200 A 
ATOM     81  F   UNL     1      10.393  -4.064  -4.449  1.00  0.00    -0.200 F 
ATOM     82  F   UNL     1      11.091  -5.945  -6.298  1.00  0.00    -0.200 F 
ENDBRANCH  48  72
BRANCH  60  83
ATOM     83  C   UNL     1      15.706  -8.829   2.376  1.00  0.00     0.064 A 
ATOM     84  C   UNL     1      16.602  -7.760   2.235  1.00  0.00     0.173 A 
ATOM     85  C   UNL     1      16.237 -10.126   2.459  1.00  0.00     0.173 A 
ATOM     86  F   UNL     1      16.143  -6.503   2.136  1.00  0.00    -0.203 F 
ATOM     87  C   UNL     1      17.975  -7.983   2.157  1.00  0.00     0.198 A 
ATOM     88  C   UNL     1      17.611 -10.342   2.409  1.00  0.00     0.198 A 
ATOM     89  F   UNL     1      15.423 -11.182   2.602  1.00  0.00    -0.203 F 
ATOM     90  F   UNL     1      18.810  -6.950   1.977  1.00  0.00    -0.200 F 
ATOM     91  C   UNL     1      18.478  -9.272   2.252  1.00  0.00     0.200 A 
ATOM     92  F   UNL     1      18.096 -11.587   2.514  1.00  0.00    -0.200 F 
ATOM     93  F   UNL     1      19.800  -9.483   2.184  1.00  0.00    -0.200 F 
ENDBRANCH  60  83
ENDBRANCH  34  35
ENDBRANCH  27  29
ENDBRANCH  26  27
ENDBRANCH  25  26
ENDBRANCH  24  25
ENDBRANCH  23  24
ENDBRANCH   1  23
TORSDOF 17
