REMARK SMILES O=C1OC(c2ccc(Cl)cc2)=N/C1=C/Nc1ccc(O)c(C(=O)OCCOCCOC(=O)c2ccc(-c3c4nc(c(-c5c(F)c(F)c(F)c(F)c5F)c5ccc([nH]5)c(-c5c(F)c(F)c(F)c(F)c5F)c5nc(c(-c6c(F)c(F)c(F)c(F)c6F)c6ccc3[nH]6)C=C5)C=C4)cc2)c1
REMARK SMILES IDX 26 1 25 2 24 3 22 4 23 5 21 6 16 7 17 8 96 9 18 10 19 11
REMARK SMILES IDX 15 12 14 14 1 15 2 16 3 17 13 18 4 19 12 20 5 21 6 22 11 23
REMARK SMILES IDX 7 24 10 25 8 26 9 27 20 28 27 30 28 31 29 32 30 33 31 34
REMARK SMILES IDX 32 35 33 36 34 37 95 38 35 39 94 40 36 41 37 42 38 43 88 44
REMARK SMILES IDX 39 45 93 46 87 47 89 48 40 49 92 50 86 51 85 52 41 54 73 55
REMARK SMILES IDX 53 56 72 57 54 58 57 59 71 60 90 61 55 62 56 63 70 65 91 66
REMARK SMILES IDX 58 67 42 68 43 69 51 70 44 71 45 72 49 73 52 74 46 75 47 76
REMARK SMILES IDX 50 77 48 78 74 79 75 80 83 81 76 82 77 83 81 84 84 85 78 86
REMARK SMILES IDX 79 87 82 88 80 89 59 90 60 91 68 92 61 93 62 94 66 95 69 96
REMARK SMILES IDX 63 97 64 98 67 99 65 100
REMARK H PARENT 15 13 20 29 89 53 57 64
REMARK Flexibility Score: inf
ROOT
ATOM      1  C   UNL     1      -4.799  -8.564  -2.808  1.00  0.00     0.202 C 
ENDROOT
BRANCH   1   2
ATOM      2  C   UNL     1      -3.314  -8.630  -3.169  1.00  0.00     0.261 C 
BRANCH   2   3
ATOM      3  O   UNL     1      -2.494  -8.153  -2.095  1.00  0.00    -0.460 OA
BRANCH   3   4
ATOM      4  C   UNL     1      -1.793  -7.026  -2.366  1.00  0.00     0.342 C 
ATOM      5  O   UNL     1      -1.730  -6.455  -3.445  1.00  0.00    -0.246 OA
BRANCH   4   6
ATOM      6  C   UNL     1      -1.252  -6.419  -1.130  1.00  0.00     0.103 A 
ATOM      7  C   UNL     1      -0.771  -4.323   0.018  1.00  0.00     0.039 A 
ATOM      8  C   UNL     1      -0.118  -5.051   1.018  1.00  0.00     0.030 A 
ATOM      9  C   UNL     1      -1.333  -5.018  -1.053  1.00  0.00     0.045 A 
ATOM     10  C   UNL     1      -0.086  -6.450   0.984  1.00  0.00     0.049 A 
ATOM     11  C   UNL     1      -0.657  -7.135  -0.089  1.00  0.00     0.130 A 
BRANCH   7  12
ATOM     12  N   UNL     1      -0.779  -2.924   0.012  1.00  0.00    -0.360 N 
ATOM     13  H   UNL     1      -1.653  -2.472  -0.033  1.00  0.00     0.166 HD
BRANCH  12  14
ATOM     14  C   UNL     1       0.343  -2.135   0.064  1.00  0.00     0.119 C 
ATOM     15  O   UNL     1      -1.901  -0.118   0.018  1.00  0.00    -0.244 OA
ATOM     16  C   UNL     1      -0.714   0.129   0.038  1.00  0.00     0.365 C 
ATOM     17  O   UNL     1      -0.115   1.355   0.076  1.00  0.00    -0.402 OA
ATOM     18  C   UNL     1       0.446  -0.803   0.033  1.00  0.00     0.168 C 
ATOM     19  C   UNL     1       1.216   1.119   0.040  1.00  0.00     0.231 C 
ATOM     20  N   UNL     1       1.625  -0.106   0.007  1.00  0.00    -0.204 NA
BRANCH  19  21
ATOM     21  C   UNL     1       2.051   2.314  -0.006  1.00  0.00     0.037 A 
ATOM     22  C   UNL     1       1.949   3.281   0.997  1.00  0.00     0.015 A 
ATOM     23  C   UNL     1       2.980   2.449  -1.042  1.00  0.00     0.015 A 
ATOM     24  C   UNL     1       2.794   4.393   0.963  1.00  0.00     0.021 A 
ATOM     25  C   UNL     1       3.808   3.571  -1.082  1.00  0.00     0.021 A 
ATOM     26  C   UNL     1       3.716   4.535  -0.077  1.00  0.00     0.041 A 
ATOM     27  Cl  UNL     1       4.754   5.906  -0.114  1.00  0.00    -0.084 Cl
ENDBRANCH  19  21
ENDBRANCH  12  14
ENDBRANCH   7  12
BRANCH  11  28
ATOM     28  O   UNL     1      -0.597  -8.498  -0.117  1.00  0.00    -0.507 OA
ATOM     29  H   UNL     1      -0.195  -8.963   0.590  1.00  0.00     0.293 HD
ENDBRANCH  11  28
ENDBRANCH   4   6
ENDBRANCH   3   4
ENDBRANCH   2   3
ENDBRANCH   1   2
BRANCH   1  30
ATOM     30  O   UNL     1      -5.357  -7.283  -2.520  1.00  0.00    -0.374 OA
BRANCH  30  31
ATOM     31  C   UNL     1      -5.033  -6.676  -1.271  1.00  0.00     0.202 C 
BRANCH  31  32
ATOM     32  C   UNL     1      -5.702  -7.231  -0.006  1.00  0.00     0.261 C 
BRANCH  32  33
ATOM     33  O   UNL     1      -5.380  -8.607   0.254  1.00  0.00    -0.460 OA
BRANCH  33  34
ATOM     34  C   UNL     1      -6.386  -9.478  -0.009  1.00  0.00     0.338 C 
ATOM     35  O   UNL     1      -7.516  -9.218  -0.385  1.00  0.00    -0.246 OA
BRANCH  34  36
ATOM     36  C   UNL     1      -5.880 -10.860   0.061  1.00  0.00     0.060 A 
ATOM     37  C   UNL     1      -6.043 -11.674  -1.068  1.00  0.00     0.016 A 
ATOM     38  C   UNL     1      -5.342 -11.377   1.240  1.00  0.00     0.016 A 
ATOM     39  C   UNL     1      -5.713 -13.025  -1.008  1.00  0.00     0.010 A 
ATOM     40  C   UNL     1      -5.018 -12.736   1.301  1.00  0.00     0.010 A 
ATOM     41  C   UNL     1      -5.236 -13.573   0.190  1.00  0.00    -0.014 A 
BRANCH  41  42
ATOM     42  C   UNL     1      -5.107 -15.043   0.331  1.00  0.00     0.031 A 
ATOM     43  C   UNL     1      -6.156 -15.795   1.103  1.00  0.00     0.074 A 
ATOM     44  C   UNL     1      -4.078 -15.702  -0.230  1.00  0.00     0.049 A 
ATOM     45  N   UNL     1      -6.206 -17.063   1.423  1.00  0.00    -0.248 NA
ATOM     46  C   UNL     1      -7.301 -15.007   1.586  1.00  0.00     0.031 C 
ATOM     47  C   UNL     1      -3.026 -15.091  -1.039  1.00  0.00     0.029 A 
ATOM     48  N   UNL     1      -3.745 -17.033  -0.191  1.00  0.00    -0.354 N 
ATOM     49  C   UNL     1      -7.376 -17.222   2.155  1.00  0.00     0.074 A 
ATOM     50  C   UNL     1      -7.990 -15.916   2.260  1.00  0.00     0.031 C 
ATOM     51  C   UNL     1      -2.155 -16.044  -1.410  1.00  0.00     0.029 A 
ATOM     52  C   UNL     1      -2.565 -17.321  -0.830  1.00  0.00     0.049 A 
ATOM     53  H   UNL     1      -4.299 -17.715   0.253  1.00  0.00     0.167 HD
ATOM     54  C   UNL     1      -7.894 -18.356   2.682  1.00  0.00     0.037 A 
ATOM     55  C   UNL     1      -1.882 -18.479  -0.911  1.00  0.00     0.037 A 
ATOM     56  C   UNL     1      -7.279 -19.654   2.570  1.00  0.00     0.049 A 
ATOM     57  C   UNL     1      -2.440 -19.713  -0.247  1.00  0.00     0.074 A 
ATOM     58  C   UNL     1      -7.734 -20.868   3.053  1.00  0.00     0.029 A 
ATOM     59  N   UNL     1      -6.070 -19.902   1.937  1.00  0.00    -0.354 N 
ATOM     60  N   UNL     1      -3.556 -19.862   0.426  1.00  0.00    -0.248 NA
ATOM     61  C   UNL     1      -1.642 -20.943  -0.358  1.00  0.00     0.031 C 
ATOM     62  C   UNL     1      -6.769 -21.840   2.769  1.00  0.00     0.029 A 
ATOM     63  C   UNL     1      -5.748 -21.246   2.044  1.00  0.00     0.049 A 
ATOM     64  H   UNL     1      -5.521 -19.225   1.480  1.00  0.00     0.167 HD
ATOM     65  C   UNL     1      -3.613 -21.203   0.783  1.00  0.00     0.074 A 
ATOM     66  C   UNL     1      -2.423 -21.828   0.245  1.00  0.00     0.031 C 
ATOM     67  C   UNL     1      -4.566 -21.859   1.491  1.00  0.00     0.037 A 
BRANCH  54  68
ATOM     68  C   UNL     1      -9.176 -18.242   3.459  1.00  0.00     0.064 A 
ATOM     69  C   UNL     1     -10.397 -17.945   2.836  1.00  0.00     0.173 A 
ATOM     70  C   UNL     1      -9.186 -18.470   4.844  1.00  0.00     0.173 A 
ATOM     71  F   UNL     1     -10.442 -17.706   1.516  1.00  0.00    -0.203 F 
ATOM     72  C   UNL     1     -11.575 -17.850   3.574  1.00  0.00     0.198 A 
ATOM     73  C   UNL     1     -10.371 -18.410   5.573  1.00  0.00     0.198 A 
ATOM     74  F   UNL     1      -8.048 -18.763   5.490  1.00  0.00    -0.203 F 
ATOM     75  F   UNL     1     -12.720 -17.513   2.966  1.00  0.00    -0.200 F 
ATOM     76  C   UNL     1     -11.562 -18.091   4.940  1.00  0.00     0.200 A 
ATOM     77  F   UNL     1     -10.358 -18.659   6.890  1.00  0.00    -0.200 F 
ATOM     78  F   UNL     1     -12.697 -18.010   5.647  1.00  0.00    -0.200 F 
ENDBRANCH  54  68
BRANCH  55  79
ATOM     79  C   UNL     1      -0.583 -18.528  -1.634  1.00  0.00     0.064 A 
ATOM     80  C   UNL     1      -0.439 -19.273  -2.813  1.00  0.00     0.173 A 
ATOM     81  C   UNL     1       0.546 -17.852  -1.150  1.00  0.00     0.173 A 
ATOM     82  F   UNL     1      -1.482 -19.958  -3.304  1.00  0.00    -0.203 F 
ATOM     83  C   UNL     1       0.789 -19.359  -3.466  1.00  0.00     0.198 A 
ATOM     84  C   UNL     1       1.765 -17.910  -1.821  1.00  0.00     0.198 A 
ATOM     85  F   UNL     1       0.464 -17.126  -0.025  1.00  0.00    -0.203 F 
ATOM     86  F   UNL     1       0.912 -20.123  -4.559  1.00  0.00    -0.200 F 
ATOM     87  C   UNL     1       1.889 -18.672  -2.973  1.00  0.00     0.200 A 
ATOM     88  F   UNL     1       2.821 -17.234  -1.348  1.00  0.00    -0.200 F 
ATOM     89  F   UNL     1       3.069 -18.754  -3.601  1.00  0.00    -0.200 F 
ENDBRANCH  55  79
BRANCH  67  90
ATOM     90  C   UNL     1      -4.397 -23.341   1.679  1.00  0.00     0.064 A 
ATOM     91  C   UNL     1      -3.400 -23.877   2.507  1.00  0.00     0.173 A 
ATOM     92  C   UNL     1      -5.278 -24.237   1.052  1.00  0.00     0.173 A 
ATOM     93  F   UNL     1      -2.523 -23.067   3.119  1.00  0.00    -0.203 F 
ATOM     94  C   UNL     1      -3.274 -25.254   2.678  1.00  0.00     0.198 A 
ATOM     95  C   UNL     1      -5.173 -25.610   1.255  1.00  0.00     0.198 A 
ATOM     96  F   UNL     1      -6.256 -23.779   0.256  1.00  0.00    -0.203 F 
ATOM     97  F   UNL     1      -2.280 -25.745   3.432  1.00  0.00    -0.200 F 
ATOM     98  C   UNL     1      -4.165 -26.118   2.060  1.00  0.00     0.200 A 
ATOM     99  F   UNL     1      -6.047 -26.442   0.671  1.00  0.00    -0.200 F 
ATOM    100  F   UNL     1      -4.049 -27.442   2.235  1.00  0.00    -0.200 F 
ENDBRANCH  67  90
ENDBRANCH  41  42
ENDBRANCH  34  36
ENDBRANCH  33  34
ENDBRANCH  32  33
ENDBRANCH  31  32
ENDBRANCH  30  31
ENDBRANCH   1  30
TORSDOF 18
