REMARK SMILES CCOc1cccc(C(=O)Nc2ccc(Cl)c(C(=O)OCCOCCOC(=O)c3ccc(-c4c5nc(c(-c6c(F)c(F)c(F)c(F)c6F)c6ccc([nH]6)c(-c6c(F)c(F)c(F)c(F)c6F)c6nc(c(-c7c(F)c(F)c(F)c(F)c7F)c7ccc4[nH]7)C=C6)C=C5)cc3)c2)c1
REMARK SMILES IDX 22 1 21 2 20 3 18 4 19 5 17 6 12 7 13 8 92 9 14 10 15 11
REMARK SMILES IDX 16 12 11 13 9 14 10 15 8 17 4 18 5 19 93 20 6 21 7 22 3 23
REMARK SMILES IDX 2 24 1 25 23 26 24 27 25 28 26 29 27 30 28 31 29 32 30 33
REMARK SMILES IDX 91 34 31 35 90 36 32 37 33 38 34 39 84 40 35 41 89 42 83 43
REMARK SMILES IDX 85 44 36 45 88 46 82 47 81 48 37 50 69 51 49 52 68 53 50 54
REMARK SMILES IDX 53 55 67 56 86 57 51 58 52 59 66 61 87 62 54 63 38 64 39 65
REMARK SMILES IDX 47 66 40 67 41 68 45 69 48 70 42 71 43 72 46 73 44 74 70 75
REMARK SMILES IDX 71 76 79 77 72 78 73 79 77 80 80 81 74 82 75 83 78 84 76 85
REMARK SMILES IDX 55 86 56 87 64 88 57 89 58 90 62 91 65 92 59 93 60 94 63 95
REMARK SMILES IDX 61 96
REMARK H PARENT 11 16 85 49 53 60
REMARK Flexibility Score: inf
ROOT
ATOM      1  C   UNL     1      -1.794   3.331   3.072  1.00  0.00     0.202 C 
ENDROOT
BRANCH   1   2
ATOM      2  C   UNL     1      -0.886   2.104   2.942  1.00  0.00     0.261 C 
BRANCH   2   3
ATOM      3  O   UNL     1       0.151   2.268   1.960  1.00  0.00    -0.460 OA
BRANCH   3   4
ATOM      4  C   UNL     1       0.020   1.464   0.875  1.00  0.00     0.339 C 
ATOM      5  O   UNL     1      -0.887   0.666   0.682  1.00  0.00    -0.246 OA
BRANCH   4   6
ATOM      6  C   UNL     1       1.094   1.725  -0.109  1.00  0.00     0.080 A 
ATOM      7  C   UNL     1       3.481   1.722  -0.548  1.00  0.00     0.042 A 
ATOM      8  C   UNL     1       3.221   1.747  -1.920  1.00  0.00     0.028 A 
ATOM      9  C   UNL     1       2.417   1.831   0.350  1.00  0.00     0.043 A 
ATOM     10  C   UNL     1       1.905   1.736  -2.386  1.00  0.00     0.023 A 
ATOM     11  C   UNL     1       0.839   1.689  -1.485  1.00  0.00     0.055 A 
ATOM     12  Cl  UNL     1      -0.748   1.616  -2.162  1.00  0.00    -0.083 Cl
BRANCH   7  13
ATOM     13  N   UNL     1       4.813   1.491  -0.157  1.00  0.00    -0.322 N 
ATOM     14  C   UNL     1       5.362   0.880   0.957  1.00  0.00     0.255 C 
ATOM     15  O   UNL     1       6.578   0.959   1.132  1.00  0.00    -0.269 OA
ATOM     16  H   UNL     1       5.481   1.828  -0.797  1.00  0.00     0.170 HD
BRANCH  14  17
ATOM     17  C   UNL     1       4.555   0.082   1.923  1.00  0.00     0.043 A 
ATOM     18  C   UNL     1       2.533  -1.104   2.501  1.00  0.00     0.120 A 
ATOM     19  C   UNL     1       2.878  -1.041   3.849  1.00  0.00     0.046 A 
ATOM     20  C   UNL     1       3.415  -0.631   1.535  1.00  0.00     0.060 A 
ATOM     21  C   UNL     1       4.106  -0.497   4.230  1.00  0.00     0.005 A 
ATOM     22  C   UNL     1       4.933   0.090   3.271  1.00  0.00     0.014 A 
BRANCH  18  23
ATOM     23  O   UNL     1       1.229  -1.380   2.194  1.00  0.00    -0.494 OA
BRANCH  23  24
ATOM     24  C   UNL     1       1.014  -2.531   1.376  1.00  0.00     0.226 C 
ATOM     25  C   UNL     1       0.802  -2.179  -0.088  1.00  0.00     0.049 C 
ENDBRANCH  23  24
ENDBRANCH  18  23
ENDBRANCH  14  17
ENDBRANCH   7  13
ENDBRANCH   4   6
ENDBRANCH   3   4
ENDBRANCH   2   3
ENDBRANCH   1   2
BRANCH   1  26
ATOM     26  O   UNL     1      -2.556   3.771   1.953  1.00  0.00    -0.374 OA
BRANCH  26  27
ATOM     27  C   UNL     1      -1.889   4.128   0.750  1.00  0.00     0.202 C 
BRANCH  27  28
ATOM     28  C   UNL     1      -0.971   5.361   0.731  1.00  0.00     0.261 C 
BRANCH  28  29
ATOM     29  O   UNL     1      -0.077   5.462   1.848  1.00  0.00    -0.460 OA
BRANCH  29  30
ATOM     30  C   UNL     1      -0.432   6.409   2.749  1.00  0.00     0.338 C 
ATOM     31  O   UNL     1      -1.372   7.188   2.680  1.00  0.00    -0.246 OA
BRANCH  30  32
ATOM     32  C   UNL     1       0.393   6.302   3.964  1.00  0.00     0.060 A 
ATOM     33  C   UNL     1      -0.276   6.116   5.180  1.00  0.00     0.016 A 
ATOM     34  C   UNL     1       1.774   6.507   3.933  1.00  0.00     0.016 A 
ATOM     35  C   UNL     1       0.424   6.191   6.379  1.00  0.00     0.010 A 
ATOM     36  C   UNL     1       2.475   6.599   5.141  1.00  0.00     0.010 A 
ATOM     37  C   UNL     1       1.794   6.487   6.366  1.00  0.00    -0.014 A 
BRANCH  37  38
ATOM     38  C   UNL     1       2.446   6.870   7.640  1.00  0.00     0.031 A 
ATOM     39  C   UNL     1       2.561   8.331   7.980  1.00  0.00     0.074 A 
ATOM     40  C   UNL     1       2.855   5.934   8.514  1.00  0.00     0.049 A 
ATOM     41  N   UNL     1       3.058   8.901   9.048  1.00  0.00    -0.248 NA
ATOM     42  C   UNL     1       2.040   9.278   6.980  1.00  0.00     0.031 C 
ATOM     43  C   UNL     1       2.754   4.491   8.313  1.00  0.00     0.029 A 
ATOM     44  N   UNL     1       3.434   6.065   9.750  1.00  0.00    -0.354 N 
ATOM     45  C   UNL     1       2.900  10.267   8.854  1.00  0.00     0.074 A 
ATOM     46  C   UNL     1       2.299  10.445   7.550  1.00  0.00     0.031 C 
ATOM     47  C   UNL     1       3.261   3.866   9.390  1.00  0.00     0.029 A 
ATOM     48  C   UNL     1       3.741   4.866  10.342  1.00  0.00     0.049 A 
ATOM     49  H   UNL     1       3.613   6.936  10.173  1.00  0.00     0.167 HD
ATOM     50  C   UNL     1       3.212  11.282   9.694  1.00  0.00     0.037 A 
ATOM     51  C   UNL     1       4.350   4.611  11.516  1.00  0.00     0.037 A 
ATOM     52  C   UNL     1       3.820  11.105  10.986  1.00  0.00     0.049 A 
ATOM     53  C   UNL     1       4.750   5.762  12.404  1.00  0.00     0.074 A 
ATOM     54  C   UNL     1       4.197  12.068  11.905  1.00  0.00     0.029 A 
ATOM     55  N   UNL     1       4.141   9.875  11.540  1.00  0.00    -0.354 N 
ATOM     56  N   UNL     1       4.585   7.049  12.218  1.00  0.00    -0.248 NA
ATOM     57  C   UNL     1       5.410   5.420  13.672  1.00  0.00     0.031 C 
ATOM     58  C   UNL     1       4.781  11.422  13.000  1.00  0.00     0.029 A 
ATOM     59  C   UNL     1       4.723  10.055  12.784  1.00  0.00     0.049 A 
ATOM     60  H   UNL     1       3.979   9.003  11.113  1.00  0.00     0.167 HD
ATOM     61  C   UNL     1       5.090   7.668  13.354  1.00  0.00     0.074 A 
ATOM     62  C   UNL     1       5.555   6.613  14.231  1.00  0.00     0.031 C 
ATOM     63  C   UNL     1       5.165   8.990  13.648  1.00  0.00     0.037 A 
BRANCH  50  64
ATOM     64  C   UNL     1       2.916  12.678   9.229  1.00  0.00     0.064 A 
ATOM     65  C   UNL     1       1.601  13.162   9.153  1.00  0.00     0.173 A 
ATOM     66  C   UNL     1       3.957  13.549   8.878  1.00  0.00     0.173 A 
ATOM     67  F   UNL     1       0.569  12.362   9.462  1.00  0.00    -0.203 F 
ATOM     68  C   UNL     1       1.339  14.459   8.722  1.00  0.00     0.198 A 
ATOM     69  C   UNL     1       3.693  14.855   8.472  1.00  0.00     0.198 A 
ATOM     70  F   UNL     1       5.232  13.136   8.934  1.00  0.00    -0.203 F 
ATOM     71  F   UNL     1       0.073  14.886   8.615  1.00  0.00    -0.200 F 
ATOM     72  C   UNL     1       2.385  15.306   8.388  1.00  0.00     0.200 A 
ATOM     73  F   UNL     1       4.706  15.675   8.159  1.00  0.00    -0.200 F 
ATOM     74  F   UNL     1       2.132  16.557   7.978  1.00  0.00    -0.200 F 
ENDBRANCH  50  64
BRANCH  51  75
ATOM     75  C   UNL     1       4.626   3.208  11.923  1.00  0.00     0.064 A 
ATOM     76  C   UNL     1       3.968   2.624  13.014  1.00  0.00     0.173 A 
ATOM     77  C   UNL     1       5.579   2.434  11.245  1.00  0.00     0.173 A 
ATOM     78  F   UNL     1       3.066   3.332  13.709  1.00  0.00    -0.203 F 
ATOM     79  C   UNL     1       4.271   1.328  13.427  1.00  0.00     0.198 A 
ATOM     80  C   UNL     1       5.860   1.128  11.641  1.00  0.00     0.198 A 
ATOM     81  F   UNL     1       6.237   2.946  10.194  1.00  0.00    -0.203 F 
ATOM     82  F   UNL     1       3.665   0.812  14.505  1.00  0.00    -0.200 F 
ATOM     83  C   UNL     1       5.213   0.580  12.738  1.00  0.00     0.200 A 
ATOM     84  F   UNL     1       6.762   0.405  10.964  1.00  0.00    -0.200 F 
ATOM     85  F   UNL     1       5.505  -0.666  13.136  1.00  0.00    -0.200 F 
ENDBRANCH  51  75
BRANCH  63  86
ATOM     86  C   UNL     1       5.726   9.365  14.988  1.00  0.00     0.064 A 
ATOM     87  C   UNL     1       7.092   9.237  15.279  1.00  0.00     0.173 A 
ATOM     88  C   UNL     1       4.887   9.886  15.986  1.00  0.00     0.173 A 
ATOM     89  F   UNL     1       7.932   8.731  14.363  1.00  0.00    -0.203 F 
ATOM     90  C   UNL     1       7.593   9.586  16.530  1.00  0.00     0.198 A 
ATOM     91  C   UNL     1       5.396  10.262  17.226  1.00  0.00     0.198 A 
ATOM     92  F   UNL     1       3.574  10.037  15.755  1.00  0.00    -0.203 F 
ATOM     93  F   UNL     1       8.892   9.405  16.804  1.00  0.00    -0.200 F 
ATOM     94  C   UNL     1       6.746  10.103  17.500  1.00  0.00     0.200 A 
ATOM     95  F   UNL     1       4.579  10.773  18.157  1.00  0.00    -0.200 F 
ATOM     96  F   UNL     1       7.231  10.440  18.703  1.00  0.00    -0.200 F 
ENDBRANCH  63  86
ENDBRANCH  37  38
ENDBRANCH  30  32
ENDBRANCH  29  30
ENDBRANCH  28  29
ENDBRANCH  27  28
ENDBRANCH  26  27
ENDBRANCH   1  26
TORSDOF 18
