REMARK SMILES Cc1cccc(CS(=O)(=O)c2ccc(C(=O)OCCOCCOC(=O)c3ccc(-c4c5nc(c(-c6c(F)c(F)c(F)c(F)c6F)c6ccc([nH]6)c(-c6c(F)c(F)c(F)c(F)c6F)c6nc(c(-c7c(F)c(F)c(F)c(F)c7F)c7ccc4[nH]7)C=C6)C=C5)cc3)cc2F)n1
REMARK SMILES IDX 19 1 18 2 17 3 15 4 16 5 14 6 11 7 12 8 90 9 13 10 89 11
REMARK SMILES IDX 91 12 8 13 9 14 10 15 7 16 6 17 1 18 2 19 3 20 92 21 4 22
REMARK SMILES IDX 5 23 20 24 21 25 22 26 23 27 24 28 25 29 26 30 27 31 88 32
REMARK SMILES IDX 28 33 87 34 29 35 30 36 31 37 81 38 32 39 86 40 80 41 82 42
REMARK SMILES IDX 33 43 85 44 79 45 78 46 34 48 66 49 46 50 65 51 47 52 50 53
REMARK SMILES IDX 64 54 83 55 48 56 49 57 63 59 84 60 51 61 35 62 36 63 44 64
REMARK SMILES IDX 37 65 38 66 42 67 45 68 39 69 40 70 43 71 41 72 67 73 68 74
REMARK SMILES IDX 76 75 69 76 70 77 74 78 77 79 71 80 72 81 75 82 73 83 52 84
REMARK SMILES IDX 53 85 61 86 54 87 55 88 59 89 62 90 56 91 57 92 60 93 58 94
REMARK H PARENT 82 47 50 58
REMARK Flexibility Score: inf
ROOT
ATOM      1  C   UNL     1      -3.297  -0.769   8.757  1.00  0.00     0.202 C 
ENDROOT
BRANCH   1   2
ATOM      2  C   UNL     1      -1.992   0.032   8.773  1.00  0.00     0.261 C 
BRANCH   2   3
ATOM      3  O   UNL     1      -1.921   0.924   7.647  1.00  0.00    -0.460 OA
BRANCH   3   4
ATOM      4  C   UNL     1      -0.930   0.644   6.772  1.00  0.00     0.338 C 
ATOM      5  O   UNL     1      -0.028  -0.171   6.926  1.00  0.00    -0.246 OA
BRANCH   4   6
ATOM      6  C   UNL     1      -1.135   1.350   5.488  1.00  0.00     0.063 A 
ATOM      7  C   UNL     1      -1.290   2.619   2.982  1.00  0.00     0.103 A 
ATOM      8  C   UNL     1      -0.681   1.370   3.108  1.00  0.00     0.024 A 
ATOM      9  C   UNL     1      -1.832   3.218   4.122  1.00  0.00     0.142 A 
ATOM     10  C   UNL     1      -0.625   0.729   4.345  1.00  0.00     0.017 A 
ATOM     11  C   UNL     1      -1.762   2.591   5.374  1.00  0.00     0.056 A 
ATOM     12  F   UNL     1      -2.388   4.435   4.083  1.00  0.00    -0.206 F 
BRANCH   7  13
ATOM     13  S   UNL     1      -1.179   3.530   1.456  1.00  0.00     0.186 S 
ATOM     14  O   UNL     1       0.224   3.865   1.299  1.00  0.00    -0.223 OA
ATOM     15  O   UNL     1      -2.153   4.609   1.544  1.00  0.00    -0.223 OA
BRANCH  13  16
ATOM     16  C   UNL     1      -1.744   2.555   0.085  1.00  0.00     0.198 C 
BRANCH  16  17
ATOM     17  C   UNL     1      -1.094   1.211  -0.031  1.00  0.00     0.056 A 
ATOM     18  C   UNL     1       2.361  -0.067  -0.128  1.00  0.00     0.067 C 
ATOM     19  C   UNL     1       0.863  -0.061  -0.162  1.00  0.00     0.038 A 
ATOM     20  C   UNL     1       0.141  -1.245  -0.216  1.00  0.00     0.023 A 
ATOM     21  N   UNL     1       0.257   1.152  -0.091  1.00  0.00    -0.257 NA
ATOM     22  C   UNL     1      -1.247  -1.179  -0.203  1.00  0.00     0.004 A 
ATOM     23  C   UNL     1      -1.875   0.060  -0.113  1.00  0.00     0.025 A 
ENDBRANCH  16  17
ENDBRANCH  13  16
ENDBRANCH   7  13
ENDBRANCH   4   6
ENDBRANCH   3   4
ENDBRANCH   2   3
ENDBRANCH   1   2
BRANCH   1  24
ATOM     24  O   UNL     1      -3.469  -1.653   7.648  1.00  0.00    -0.374 OA
BRANCH  24  25
ATOM     25  C   UNL     1      -3.930  -1.076   6.425  1.00  0.00     0.202 C 
BRANCH  25  26
ATOM     26  C   UNL     1      -5.438  -0.813   6.334  1.00  0.00     0.261 C 
BRANCH  26  27
ATOM     27  O   UNL     1      -5.860   0.193   7.274  1.00  0.00    -0.460 OA
BRANCH  27  28
ATOM     28  C   UNL     1      -6.649  -0.265   8.271  1.00  0.00     0.338 C 
ATOM     29  O   UNL     1      -7.123  -1.389   8.384  1.00  0.00    -0.246 OA
BRANCH  28  30
ATOM     30  C   UNL     1      -6.749   0.733   9.352  1.00  0.00     0.060 A 
ATOM     31  C   UNL     1      -6.516   0.282  10.657  1.00  0.00     0.016 A 
ATOM     32  C   UNL     1      -7.131   2.057   9.118  1.00  0.00     0.016 A 
ATOM     33  C   UNL     1      -6.729   1.132  11.737  1.00  0.00     0.010 A 
ATOM     34  C   UNL     1      -7.349   2.911  10.208  1.00  0.00     0.010 A 
ATOM     35  C   UNL     1      -7.189   2.439  11.523  1.00  0.00    -0.014 A 
BRANCH  35  36
ATOM     36  C   UNL     1      -7.623   3.237  12.695  1.00  0.00     0.031 A 
ATOM     37  C   UNL     1      -9.084   3.289  13.050  1.00  0.00     0.074 A 
ATOM     38  C   UNL     1      -6.715   3.829  13.490  1.00  0.00     0.049 A 
ATOM     39  N   UNL     1      -9.666   3.835  14.088  1.00  0.00    -0.248 NA
ATOM     40  C   UNL     1     -10.012   2.634  12.116  1.00  0.00     0.031 C 
ATOM     41  C   UNL     1      -5.272   3.826  13.266  1.00  0.00     0.029 A 
ATOM     42  N   UNL     1      -6.875   4.531  14.659  1.00  0.00    -0.354 N 
ATOM     43  C   UNL     1     -11.022   3.579  13.939  1.00  0.00     0.074 A 
ATOM     44  C   UNL     1     -11.184   2.865  12.691  1.00  0.00     0.031 C 
ATOM     45  C   UNL     1      -4.673   4.481  14.275  1.00  0.00     0.029 A 
ATOM     46  C   UNL     1      -5.692   4.962  15.207  1.00  0.00     0.049 A 
ATOM     47  H   UNL     1      -7.754   4.708  15.066  1.00  0.00     0.167 HD
ATOM     48  C   UNL     1     -12.038   3.894  14.776  1.00  0.00     0.037 A 
ATOM     49  C   UNL     1      -5.459   5.661  16.335  1.00  0.00     0.037 A 
ATOM     50  C   UNL     1     -11.880   4.602  16.019  1.00  0.00     0.049 A 
ATOM     51  C   UNL     1      -6.612   6.042  17.224  1.00  0.00     0.074 A 
ATOM     52  C   UNL     1     -12.850   4.953  16.941  1.00  0.00     0.029 A 
ATOM     53  N   UNL     1     -10.671   5.071  16.512  1.00  0.00    -0.354 N 
ATOM     54  N   UNL     1      -7.887   5.771  17.087  1.00  0.00    -0.248 NA
ATOM     55  C   UNL     1      -6.291   6.820  18.430  1.00  0.00     0.031 C 
ATOM     56  C   UNL     1     -12.236   5.674  17.970  1.00  0.00     0.029 A 
ATOM     57  C   UNL     1     -10.875   5.729  17.714  1.00  0.00     0.049 A 
ATOM     58  H   UNL     1      -9.798   4.954  16.073  1.00  0.00     0.167 HD
ATOM     59  C   UNL     1      -8.518   6.328  18.192  1.00  0.00     0.074 A 
ATOM     60  C   UNL     1      -7.482   6.936  19.002  1.00  0.00     0.031 C 
ATOM     61  C   UNL     1      -9.837   6.337  18.506  1.00  0.00     0.037 A 
BRANCH  48  62
ATOM     62  C   UNL     1     -13.424   3.479  14.378  1.00  0.00     0.064 A 
ATOM     63  C   UNL     1     -14.367   4.438  13.982  1.00  0.00     0.173 A 
ATOM     64  C   UNL     1     -13.836   2.140  14.451  1.00  0.00     0.173 A 
ATOM     65  F   UNL     1     -14.023   5.732  13.899  1.00  0.00    -0.203 F 
ATOM     66  C   UNL     1     -15.678   4.073  13.686  1.00  0.00     0.198 A 
ATOM     67  C   UNL     1     -15.142   1.776  14.131  1.00  0.00     0.198 A 
ATOM     68  F   UNL     1     -12.966   1.185  14.811  1.00  0.00    -0.203 F 
ATOM     69  F   UNL     1     -16.570   5.010  13.337  1.00  0.00    -0.200 F 
ATOM     70  C   UNL     1     -16.063   2.743  13.758  1.00  0.00     0.200 A 
ATOM     71  F   UNL     1     -15.507   0.487  14.180  1.00  0.00    -0.200 F 
ATOM     72  F   UNL     1     -17.323   2.392  13.466  1.00  0.00    -0.200 F 
ENDBRANCH  48  62
BRANCH  49  73
ATOM     73  C   UNL     1      -4.065   6.024  16.696  1.00  0.00     0.064 A 
ATOM     74  C   UNL     1      -3.351   6.979  15.959  1.00  0.00     0.173 A 
ATOM     75  C   UNL     1      -3.416   5.413  17.777  1.00  0.00     0.173 A 
ATOM     76  F   UNL     1      -3.930   7.593  14.916  1.00  0.00    -0.203 F 
ATOM     77  C   UNL     1      -2.033   7.296  16.278  1.00  0.00     0.198 A 
ATOM     78  C   UNL     1      -2.105   5.749  18.111  1.00  0.00     0.198 A 
ATOM     79  F   UNL     1      -4.067   4.512  18.527  1.00  0.00    -0.203 F 
ATOM     80  F   UNL     1      -1.363   8.191  15.539  1.00  0.00    -0.200 F 
ATOM     81  C   UNL     1      -1.412   6.683  17.356  1.00  0.00     0.200 A 
ATOM     82  F   UNL     1      -1.517   5.173  19.168  1.00  0.00    -0.200 F 
ATOM     83  F   UNL     1      -0.148   6.996  17.670  1.00  0.00    -0.200 F 
ENDBRANCH  49  73
BRANCH  61  84
ATOM     84  C   UNL     1     -10.241   7.020  19.780  1.00  0.00     0.064 A 
ATOM     85  C   UNL     1     -10.702   6.273  20.875  1.00  0.00     0.173 A 
ATOM     86  C   UNL     1     -10.224   8.417  19.898  1.00  0.00     0.173 A 
ATOM     87  F   UNL     1     -10.747   4.934  20.810  1.00  0.00    -0.203 F 
ATOM     88  C   UNL     1     -11.136   6.902  22.039  1.00  0.00     0.198 A 
ATOM     89  C   UNL     1     -10.633   9.041  21.074  1.00  0.00     0.198 A 
ATOM     90  F   UNL     1      -9.782   9.175  18.883  1.00  0.00    -0.203 F 
ATOM     91  F   UNL     1     -11.596   6.169  23.063  1.00  0.00    -0.200 F 
ATOM     92  C   UNL     1     -11.095   8.284  22.140  1.00  0.00     0.200 A 
ATOM     93  F   UNL     1     -10.569  10.376  21.179  1.00  0.00    -0.200 F 
ATOM     94  F   UNL     1     -11.496   8.887  23.268  1.00  0.00    -0.200 F 
ENDBRANCH  61  84
ENDBRANCH  35  36
ENDBRANCH  28  30
ENDBRANCH  27  28
ENDBRANCH  26  27
ENDBRANCH  25  26
ENDBRANCH  24  25
ENDBRANCH   1  24
TORSDOF 17
