REMARK SMILES Cc1nn([C@H]2CCS(=O)(=O)C2)c(C)c1/C=C(\CC(=O)OCCOCCOC(=O)c1ccc(-c2c3nc(c(-c4c(F)c(F)c(F)c(F)c4F)c4ccc([nH]4)c(-c4c(F)c(F)c(F)c(F)c4F)c4nc(c(-c5c(F)c(F)c(F)c(F)c5F)c5ccc2[nH]5)C=C4)C=C3)cc1)c1nc2ccccc2s1
REMARK SMILES IDX 22 1 21 2 20 3 18 4 19 5 17 6 16 7 15 8 14 9 1 10 2 11 3 12
REMARK SMILES IDX 4 13 12 14 13 15 5 16 6 17 11 18 7 19 8 20 9 21 10 22 92 23
REMARK SMILES IDX 93 24 100 25 94 26 99 27 95 28 98 29 96 30 97 31 23 32 24 33
REMARK SMILES IDX 25 34 26 35 27 36 28 37 29 38 30 39 91 40 31 41 90 42 32 43
REMARK SMILES IDX 33 44 34 45 84 46 35 47 89 48 83 49 85 50 36 51 88 52 82 53
REMARK SMILES IDX 81 54 37 56 69 57 49 58 68 59 50 60 53 61 67 62 86 63 51 64
REMARK SMILES IDX 52 65 66 67 87 68 54 69 38 70 39 71 47 72 40 73 41 74 45 75
REMARK SMILES IDX 48 76 42 77 43 78 46 79 44 80 70 81 71 82 79 83 72 84 73 85
REMARK SMILES IDX 77 86 80 87 74 88 75 89 78 90 76 91 55 92 56 93 64 94 57 95
REMARK SMILES IDX 58 96 62 97 65 98 59 99 60 100 63 101 61 102
REMARK H PARENT 85 55 53 66
REMARK Flexibility Score: inf
ROOT
ATOM      1  C   UNL     1      -1.565   4.527 -11.042  1.00  0.00     0.202 C 
ENDROOT
BRANCH   1   2
ATOM      2  C   UNL     1      -1.224   3.599  -9.865  1.00  0.00     0.261 C 
BRANCH   2   3
ATOM      3  O   UNL     1      -1.962   2.348  -9.831  1.00  0.00    -0.463 OA
BRANCH   3   4
ATOM      4  C   UNL     1      -2.921   2.316  -8.890  1.00  0.00     0.310 C 
ATOM      5  O   UNL     1      -3.109   3.237  -8.088  1.00  0.00    -0.252 OA
BRANCH   4   6
ATOM      6  C   UNL     1      -3.725   1.054  -8.669  1.00  0.00     0.161 C 
BRANCH   6   7
ATOM      7  C   UNL     1      -3.919  -0.346  -9.232  1.00  0.00    -0.000 C 
ATOM      8  C   UNL     1      -3.479  -1.445  -8.548  1.00  0.00     0.019 C 
BRANCH   8   9
ATOM      9  C   UNL     1      -2.631  -1.409  -7.382  1.00  0.00     0.019 A 
ATOM     10  C   UNL     1      -1.061  -3.467  -7.719  1.00  0.00     0.069 C 
ATOM     11  C   UNL     1      -1.477  -2.182  -7.108  1.00  0.00     0.067 A 
ATOM     12  N   UNL     1      -0.727  -1.588  -6.165  1.00  0.00    -0.177 NA
ATOM     13  N   UNL     1      -1.450  -0.498  -5.816  1.00  0.00    -0.265 N 
ATOM     14  C   UNL     1      -2.760  -0.636  -6.230  1.00  0.00     0.043 A 
ATOM     15  C   UNL     1      -3.940   0.038  -5.610  1.00  0.00     0.067 C 
BRANCH  13  16
ATOM     16  C   UNL     1      -0.736   0.679  -5.309  1.00  0.00     0.123 C 
ATOM     17  C   UNL     1       0.316   1.192  -6.326  1.00  0.00     0.044 C 
ATOM     18  C   UNL     1      -1.594   1.903  -4.998  1.00  0.00     0.164 C 
ATOM     19  C   UNL     1       0.833   2.547  -5.854  1.00  0.00     0.139 C 
ATOM     20  S   UNL     1      -0.460   3.258  -4.865  1.00  0.00     0.152 S 
ATOM     21  O   UNL     1      -0.006   3.335  -3.496  1.00  0.00    -0.229 OA
ATOM     22  O   UNL     1      -1.008   4.405  -5.563  1.00  0.00    -0.229 OA
ENDBRANCH  13  16
ENDBRANCH   8   9
BRANCH   7  23
ATOM     23  C   UNL     1      -4.806  -0.545 -10.356  1.00  0.00     0.121 A 
ATOM     24  N   UNL     1      -4.593  -0.080 -11.565  1.00  0.00    -0.236 NA
ATOM     25  S   UNL     1      -6.397  -1.215 -10.167  1.00  0.00    -0.114 S 
ATOM     26  C   UNL     1      -5.767   0.047 -12.280  1.00  0.00     0.082 A 
ATOM     27  C   UNL     1      -6.892  -0.478 -11.652  1.00  0.00     0.055 A 
ATOM     28  C   UNL     1      -5.916   0.742 -13.498  1.00  0.00     0.030 A 
ATOM     29  C   UNL     1      -8.174  -0.323 -12.206  1.00  0.00     0.021 A 
ATOM     30  C   UNL     1      -7.194   1.012 -13.986  1.00  0.00     0.002 A 
ATOM     31  C   UNL     1      -8.309   0.481 -13.347  1.00  0.00     0.002 A 
ENDBRANCH   7  23
ENDBRANCH   6   7
ENDBRANCH   4   6
ENDBRANCH   3   4
ENDBRANCH   2   3
ENDBRANCH   1   2
BRANCH   1  32
ATOM     32  O   UNL     1      -2.831   5.174 -11.118  1.00  0.00    -0.374 OA
BRANCH  32  33
ATOM     33  C   UNL     1      -4.033   4.457 -10.915  1.00  0.00     0.202 C 
BRANCH  33  34
ATOM     34  C   UNL     1      -4.358   3.261 -11.804  1.00  0.00     0.261 C 
BRANCH  34  35
ATOM     35  O   UNL     1      -3.269   2.381 -12.063  1.00  0.00    -0.460 OA
BRANCH  35  36
ATOM     36  C   UNL     1      -2.663   2.560 -13.257  1.00  0.00     0.338 C 
ATOM     37  O   UNL     1      -2.799   3.522 -13.994  1.00  0.00    -0.246 OA
BRANCH  36  38
ATOM     38  C   UNL     1      -1.945   1.335 -13.663  1.00  0.00     0.060 A 
ATOM     39  C   UNL     1      -1.453   1.335 -14.966  1.00  0.00     0.016 A 
ATOM     40  C   UNL     1      -2.047   0.143 -12.938  1.00  0.00     0.016 A 
ATOM     41  C   UNL     1      -1.338   0.130 -15.624  1.00  0.00     0.010 A 
ATOM     42  C   UNL     1      -1.974  -1.067 -13.605  1.00  0.00     0.010 A 
ATOM     43  C   UNL     1      -1.708  -1.052 -14.967  1.00  0.00    -0.014 A 
BRANCH  43  44
ATOM     44  C   UNL     1      -1.685  -2.273 -15.750  1.00  0.00     0.031 A 
ATOM     45  C   UNL     1      -0.317  -2.643 -16.176  1.00  0.00     0.074 A 
ATOM     46  C   UNL     1      -2.778  -2.994 -16.064  1.00  0.00     0.049 A 
ATOM     47  N   UNL     1       0.170  -2.600 -17.371  1.00  0.00    -0.248 NA
ATOM     48  C   UNL     1       0.674  -2.915 -15.124  1.00  0.00     0.031 C 
ATOM     49  C   UNL     1      -4.143  -2.880 -15.549  1.00  0.00     0.029 A 
ATOM     50  N   UNL     1      -2.862  -4.052 -16.919  1.00  0.00    -0.354 N 
ATOM     51  C   UNL     1       1.497  -2.992 -17.251  1.00  0.00     0.074 A 
ATOM     52  C   UNL     1       1.792  -3.029 -15.842  1.00  0.00     0.031 C 
ATOM     53  C   UNL     1      -4.862  -3.960 -15.940  1.00  0.00     0.029 A 
ATOM     54  C   UNL     1      -4.052  -4.761 -16.843  1.00  0.00     0.049 A 
ATOM     55  H   UNL     1      -2.138  -4.294 -17.540  1.00  0.00     0.167 HD
ATOM     56  C   UNL     1       2.187  -3.470 -18.320  1.00  0.00     0.037 A 
ATOM     57  C   UNL     1      -4.313  -5.952 -17.441  1.00  0.00     0.037 A 
ATOM     58  C   UNL     1       1.560  -3.099 -19.561  1.00  0.00     0.049 A 
ATOM     59  C   UNL     1      -3.370  -6.092 -18.580  1.00  0.00     0.074 A 
ATOM     60  C   UNL     1       1.341  -1.909 -20.224  1.00  0.00     0.029 A 
ATOM     61  N   UNL     1       0.718  -4.013 -20.143  1.00  0.00    -0.354 N 
ATOM     62  N   UNL     1      -3.410  -5.337 -19.642  1.00  0.00    -0.248 NA
ATOM     63  C   UNL     1      -2.096  -6.750 -18.332  1.00  0.00     0.031 C 
ATOM     64  C   UNL     1       0.065  -2.057 -20.845  1.00  0.00     0.029 A 
ATOM     65  C   UNL     1      -0.399  -3.344 -20.570  1.00  0.00     0.049 A 
ATOM     66  H   UNL     1       0.887  -4.978 -20.238  1.00  0.00     0.167 HD
ATOM     67  C   UNL     1      -2.081  -5.077 -19.943  1.00  0.00     0.074 A 
ATOM     68  C   UNL     1      -1.318  -6.041 -19.154  1.00  0.00     0.031 C 
ATOM     69  C   UNL     1      -1.721  -3.926 -20.583  1.00  0.00     0.037 A 
BRANCH  56  70
ATOM     70  C   UNL     1       3.189  -4.588 -18.224  1.00  0.00     0.064 A 
ATOM     71  C   UNL     1       3.969  -4.912 -19.351  1.00  0.00     0.173 A 
ATOM     72  C   UNL     1       3.186  -5.543 -17.184  1.00  0.00     0.173 A 
ATOM     73  F   UNL     1       4.025  -4.083 -20.404  1.00  0.00    -0.203 F 
ATOM     74  C   UNL     1       4.629  -6.139 -19.457  1.00  0.00     0.198 A 
ATOM     75  C   UNL     1       3.889  -6.742 -17.273  1.00  0.00     0.198 A 
ATOM     76  F   UNL     1       2.415  -5.414 -16.099  1.00  0.00    -0.203 F 
ATOM     77  F   UNL     1       5.254  -6.460 -20.597  1.00  0.00    -0.200 F 
ATOM     78  C   UNL     1       4.582  -7.055 -18.421  1.00  0.00     0.200 A 
ATOM     79  F   UNL     1       3.811  -7.624 -16.267  1.00  0.00    -0.200 F 
ATOM     80  F   UNL     1       5.157  -8.257 -18.548  1.00  0.00    -0.200 F 
ENDBRANCH  56  70
BRANCH  57  81
ATOM     81  C   UNL     1      -5.028  -7.109 -16.848  1.00  0.00     0.064 A 
ATOM     82  C   UNL     1      -5.521  -8.161 -17.637  1.00  0.00     0.173 A 
ATOM     83  C   UNL     1      -4.996  -7.334 -15.457  1.00  0.00     0.173 A 
ATOM     84  F   UNL     1      -5.527  -8.054 -18.974  1.00  0.00    -0.203 F 
ATOM     85  C   UNL     1      -5.954  -9.365 -17.067  1.00  0.00     0.198 A 
ATOM     86  C   UNL     1      -5.430  -8.533 -14.890  1.00  0.00     0.198 A 
ATOM     87  F   UNL     1      -4.453  -6.431 -14.628  1.00  0.00    -0.203 F 
ATOM     88  F   UNL     1      -6.374 -10.367 -17.854  1.00  0.00    -0.200 F 
ATOM     89  C   UNL     1      -5.902  -9.552 -15.695  1.00  0.00     0.200 A 
ATOM     90  F   UNL     1      -5.331  -8.716 -13.566  1.00  0.00    -0.200 F 
ATOM     91  F   UNL     1      -6.266 -10.723 -15.153  1.00  0.00    -0.200 F 
ENDBRANCH  57  81
BRANCH  69  92
ATOM     92  C   UNL     1      -2.829  -3.085 -21.155  1.00  0.00     0.064 A 
ATOM     93  C   UNL     1      -3.798  -2.429 -20.374  1.00  0.00     0.173 A 
ATOM     94  C   UNL     1      -2.833  -2.829 -22.532  1.00  0.00     0.173 A 
ATOM     95  F   UNL     1      -3.799  -2.544 -19.041  1.00  0.00    -0.203 F 
ATOM     96  C   UNL     1      -4.753  -1.595 -20.953  1.00  0.00     0.198 A 
ATOM     97  C   UNL     1      -3.765  -1.967 -23.104  1.00  0.00     0.198 A 
ATOM     98  F   UNL     1      -1.896  -3.380 -23.319  1.00  0.00    -0.203 F 
ATOM     99  F   UNL     1      -5.675  -0.993 -20.187  1.00  0.00    -0.200 F 
ATOM    100  C   UNL     1      -4.731  -1.360 -22.317  1.00  0.00     0.200 A 
ATOM    101  F   UNL     1      -3.709  -1.704 -24.416  1.00  0.00    -0.200 F 
ATOM    102  F   UNL     1      -5.625  -0.528 -22.872  1.00  0.00    -0.200 F 
ENDBRANCH  69  92
ENDBRANCH  43  44
ENDBRANCH  36  38
ENDBRANCH  35  36
ENDBRANCH  34  35
ENDBRANCH  33  34
ENDBRANCH  32  33
ENDBRANCH   1  32
TORSDOF 18
