REMARK SMILES O=C(OCCOCCOC(=O)[C@]12CCC[NH2+][C@@H]1CCN(C(=O)Cc1c(F)cccc1Cl)C2)c1ccc(-c2c3nc(c(-c4c(F)c(F)c(F)c(F)c4F)c4ccc([nH]4)c(-c4c(F)c(F)c(F)c(F)c4F)c4nc(c(-c5c(F)c(F)c(F)c(F)c5F)c5ccc2[nH]5)C=C4)C=C3)cc1
REMARK SMILES IDX 7 1 6 2 5 3 4 4 3 5 2 6 1 7 33 8 34 9 95 10 35 11 94 12
REMARK SMILES IDX 36 13 37 14 38 15 88 16 39 17 93 18 87 19 89 20 40 21 92 22
REMARK SMILES IDX 86 23 85 24 41 26 73 27 53 28 72 29 54 30 57 31 71 32 90 33
REMARK SMILES IDX 55 34 56 35 70 37 91 38 58 39 42 40 43 41 51 42 44 43 45 44
REMARK SMILES IDX 49 45 52 46 46 47 47 48 50 49 48 50 74 51 75 52 83 53 76 54
REMARK SMILES IDX 77 55 81 56 84 57 78 58 79 59 82 60 80 61 59 62 60 63 68 64
REMARK SMILES IDX 61 65 62 66 66 67 69 68 63 69 64 70 67 71 65 72 8 73 9 74
REMARK SMILES IDX 10 75 11 76 12 77 13 78 17 79 32 80 14 81 16 82 18 83 20 84
REMARK SMILES IDX 15 85 19 88 21 89 22 90 23 91 24 92 25 93 30 94 26 95 27 96
REMARK SMILES IDX 29 97 31 98 28 99
REMARK H PARENT 89 25 57 36 16 86 16 87
REMARK Flexibility Score: inf
ROOT
ATOM      1  C   UNL     1       3.202  -2.500   0.273  1.00  0.00     0.202 C 
ENDROOT
BRANCH   1   2
ATOM      2  O   UNL     1       4.387  -1.878  -0.233  1.00  0.00    -0.374 OA
BRANCH   2   3
ATOM      3  C   UNL     1       4.692  -0.581   0.274  1.00  0.00     0.202 C 
BRANCH   3   4
ATOM      4  C   UNL     1       3.799   0.627  -0.100  1.00  0.00     0.261 C 
BRANCH   4   5
ATOM      5  O   UNL     1       2.367   0.426  -0.234  1.00  0.00    -0.460 OA
BRANCH   5   6
ATOM      6  C   UNL     1       1.712   0.794  -1.390  1.00  0.00     0.338 C 
ATOM      7  O   UNL     1       0.621   1.338  -1.391  1.00  0.00    -0.246 OA
BRANCH   6   8
ATOM      8  C   UNL     1       2.370   0.354  -2.645  1.00  0.00     0.060 A 
ATOM      9  C   UNL     1       3.185  -0.738  -2.505  1.00  0.00     0.016 A 
ATOM     10  C   UNL     1       2.239   0.890  -3.913  1.00  0.00     0.016 A 
ATOM     11  C   UNL     1       4.166  -1.066  -3.380  1.00  0.00     0.010 A 
ATOM     12  C   UNL     1       3.007   0.330  -4.954  1.00  0.00     0.010 A 
ATOM     13  C   UNL     1       3.990  -0.644  -4.671  1.00  0.00    -0.014 A 
BRANCH  13  14
ATOM     14  C   UNL     1       4.896  -1.270  -5.642  1.00  0.00     0.031 A 
ATOM     15  C   UNL     1       5.849  -0.383  -6.352  1.00  0.00     0.074 A 
ATOM     16  C   UNL     1       4.972  -2.618  -5.721  1.00  0.00     0.049 A 
ATOM     17  N   UNL     1       6.562  -0.626  -7.410  1.00  0.00    -0.248 NA
ATOM     18  C   UNL     1       6.018   0.973  -5.799  1.00  0.00     0.031 C 
ATOM     19  C   UNL     1       4.237  -3.573  -4.871  1.00  0.00     0.029 A 
ATOM     20  N   UNL     1       5.736  -3.431  -6.512  1.00  0.00    -0.354 N 
ATOM     21  C   UNL     1       7.178   0.575  -7.717  1.00  0.00     0.074 A 
ATOM     22  C   UNL     1       6.804   1.534  -6.704  1.00  0.00     0.031 C 
ATOM     23  C   UNL     1       4.627  -4.822  -5.153  1.00  0.00     0.029 A 
ATOM     24  C   UNL     1       5.495  -4.771  -6.313  1.00  0.00     0.049 A 
ATOM     25  H   UNL     1       6.394  -3.090  -7.161  1.00  0.00     0.167 HD
ATOM     26  C   UNL     1       7.943   0.829  -8.799  1.00  0.00     0.037 A 
ATOM     27  C   UNL     1       5.857  -5.828  -7.061  1.00  0.00     0.037 A 
ATOM     28  C   UNL     1       8.292  -0.202  -9.738  1.00  0.00     0.049 A 
ATOM     29  C   UNL     1       6.631  -5.513  -8.310  1.00  0.00     0.074 A 
ATOM     30  C   UNL     1       8.985  -0.103 -10.926  1.00  0.00     0.029 A 
ATOM     31  N   UNL     1       7.969  -1.546  -9.565  1.00  0.00    -0.354 N 
ATOM     32  N   UNL     1       7.082  -4.350  -8.725  1.00  0.00    -0.248 NA
ATOM     33  C   UNL     1       6.903  -6.627  -9.220  1.00  0.00     0.031 C 
ATOM     34  C   UNL     1       9.037  -1.382 -11.494  1.00  0.00     0.029 A 
ATOM     35  C   UNL     1       8.429  -2.288 -10.634  1.00  0.00     0.049 A 
ATOM     36  H   UNL     1       7.482  -1.914  -8.792  1.00  0.00     0.167 HD
ATOM     37  C   UNL     1       7.697  -4.588  -9.940  1.00  0.00     0.074 A 
ATOM     38  C   UNL     1       7.582  -6.016 -10.181  1.00  0.00     0.031 C 
ATOM     39  C   UNL     1       8.289  -3.716 -10.793  1.00  0.00     0.037 A 
BRANCH  26  40
ATOM     40  C   UNL     1       8.290   2.261  -9.061  1.00  0.00     0.064 A 
ATOM     41  C   UNL     1       9.185   2.984  -8.259  1.00  0.00     0.173 A 
ATOM     42  C   UNL     1       7.633   2.950 -10.093  1.00  0.00     0.173 A 
ATOM     43  F   UNL     1       9.803   2.386  -7.229  1.00  0.00    -0.203 F 
ATOM     44  C   UNL     1       9.383   4.349  -8.459  1.00  0.00     0.198 A 
ATOM     45  C   UNL     1       7.856   4.307 -10.309  1.00  0.00     0.198 A 
ATOM     46  F   UNL     1       6.747   2.314 -10.874  1.00  0.00    -0.203 F 
ATOM     47  F   UNL     1      10.182   5.037  -7.631  1.00  0.00    -0.200 F 
ATOM     48  C   UNL     1       8.722   5.008  -9.485  1.00  0.00     0.200 A 
ATOM     49  F   UNL     1       7.210   4.941 -11.297  1.00  0.00    -0.200 F 
ATOM     50  F   UNL     1       8.900   6.324  -9.665  1.00  0.00    -0.200 F 
ENDBRANCH  26  40
BRANCH  27  51
ATOM     51  C   UNL     1       5.385  -7.205  -6.736  1.00  0.00     0.064 A 
ATOM     52  C   UNL     1       6.288  -8.243  -6.473  1.00  0.00     0.173 A 
ATOM     53  C   UNL     1       4.015  -7.525  -6.698  1.00  0.00     0.173 A 
ATOM     54  F   UNL     1       7.608  -8.007  -6.512  1.00  0.00    -0.203 F 
ATOM     55  C   UNL     1       5.846  -9.541  -6.206  1.00  0.00     0.198 A 
ATOM     56  C   UNL     1       3.573  -8.812  -6.394  1.00  0.00     0.198 A 
ATOM     57  F   UNL     1       3.094  -6.581  -6.946  1.00  0.00    -0.203 F 
ATOM     58  F   UNL     1       6.737 -10.523  -6.012  1.00  0.00    -0.200 F 
ATOM     59  C   UNL     1       4.489  -9.822  -6.161  1.00  0.00     0.200 A 
ATOM     60  F   UNL     1       2.259  -9.070  -6.333  1.00  0.00    -0.200 F 
ATOM     61  F   UNL     1       4.066 -11.068  -5.904  1.00  0.00    -0.200 F 
ENDBRANCH  27  51
BRANCH  39  62
ATOM     62  C   UNL     1       8.884  -4.305 -12.031  1.00  0.00     0.064 A 
ATOM     63  C   UNL     1       8.082  -4.729 -13.097  1.00  0.00     0.173 A 
ATOM     64  C   UNL     1      10.277  -4.372 -12.171  1.00  0.00     0.173 A 
ATOM     65  F   UNL     1       6.745  -4.700 -12.991  1.00  0.00    -0.203 F 
ATOM     66  C   UNL     1       8.658  -5.213 -14.265  1.00  0.00     0.198 A 
ATOM     67  C   UNL     1      10.849  -4.824 -13.352  1.00  0.00     0.198 A 
ATOM     68  F   UNL     1      11.078  -3.970 -11.172  1.00  0.00    -0.203 F 
ATOM     69  F   UNL     1       7.878  -5.649 -15.263  1.00  0.00    -0.200 F 
ATOM     70  C   UNL     1      10.040  -5.247 -14.396  1.00  0.00     0.200 A 
ATOM     71  F   UNL     1      12.182  -4.840 -13.484  1.00  0.00    -0.200 F 
ATOM     72  F   UNL     1      10.593  -5.692 -15.532  1.00  0.00    -0.200 F 
ENDBRANCH  39  62
ENDBRANCH  13  14
ENDBRANCH   6   8
ENDBRANCH   5   6
ENDBRANCH   4   5
ENDBRANCH   3   4
ENDBRANCH   2   3
ENDBRANCH   1   2
BRANCH   1  73
ATOM     73  C   UNL     1       3.576  -3.671   1.140  1.00  0.00     0.261 C 
BRANCH  73  74
ATOM     74  O   UNL     1       3.800  -3.135   2.436  1.00  0.00    -0.463 OA
BRANCH  74  75
ATOM     75  C   UNL     1       4.993  -2.576   2.748  1.00  0.00     0.320 C 
ATOM     76  O   UNL     1       6.003  -2.644   2.056  1.00  0.00    -0.251 OA
BRANCH  75  77
ATOM     77  C   UNL     1       4.924  -1.930   4.132  1.00  0.00     0.137 C 
ATOM     78  C   UNL     1       5.929  -2.727   4.981  1.00  0.00     0.033 C 
ATOM     79  C   UNL     1       3.559  -2.062   4.826  1.00  0.00     0.203 C 
ATOM     80  C   UNL     1       5.343  -0.442   4.078  1.00  0.00     0.144 C 
ATOM     81  C   UNL     1       5.572  -4.211   5.021  1.00  0.00     0.063 C 
ATOM     82  N   UNL     1       3.085  -3.446   5.040  1.00  0.00    -0.343 N 
ATOM     83  C   UNL     1       2.512  -1.167   4.131  1.00  0.00     0.088 C 
ATOM     84  N   UNL     1       4.314   0.598   3.841  1.00  0.00    -0.341 N 
ATOM     85  C   UNL     1       4.073  -4.530   4.907  1.00  0.00     0.260 C 
ATOM     86  H   UNL     1       2.702  -3.495   5.984  1.00  0.00     0.346 HD
ATOM     87  H   UNL     1       2.415  -3.611   4.289  1.00  0.00     0.346 HD
ATOM     88  C   UNL     1       2.915   0.308   4.157  1.00  0.00     0.125 C 
BRANCH  84  89
ATOM     89  C   UNL     1       4.815   1.924   3.837  1.00  0.00     0.227 C 
ATOM     90  O   UNL     1       6.018   2.131   4.038  1.00  0.00    -0.275 OA
BRANCH  89  91
ATOM     91  C   UNL     1       3.886   3.126   3.659  1.00  0.00     0.140 C 
BRANCH  91  92
ATOM     92  C   UNL     1       3.862   3.888   2.340  1.00  0.00     0.016 A 
ATOM     93  C   UNL     1       2.896   4.912   2.249  1.00  0.00     0.128 A 
ATOM     94  C   UNL     1       4.634   3.678   1.192  1.00  0.00     0.047 A 
ATOM     95  F   UNL     1       2.235   5.292   3.353  1.00  0.00    -0.207 F 
ATOM     96  C   UNL     1       2.583   5.556   1.051  1.00  0.00     0.039 A 
ATOM     97  C   UNL     1       4.262   4.252  -0.039  1.00  0.00     0.021 A 
ATOM     98  Cl  UNL     1       6.100   2.766   1.152  1.00  0.00    -0.084 Cl
ATOM     99  C   UNL     1       3.219   5.168  -0.118  1.00  0.00     0.005 A 
ENDBRANCH  91  92
ENDBRANCH  89  91
ENDBRANCH  84  89
ENDBRANCH  75  77
ENDBRANCH  74  75
ENDBRANCH  73  74
ENDBRANCH   1  73
TORSDOF 17
