REMARK SMILES CC(C)C[C@@H](CNC(=O)[C@@H]1CCOC1)C(=O)OCCOCCOC(=O)c1ccc(-c2c3nc(c(-c4c(F)c(F)c(F)c(F)c4F)c4ccc([nH]4)c(-c4c(F)c(F)c(F)c(F)c4F)c4nc(c(-c5c(F)c(F)c(F)c(F)c5F)c5ccc2[nH]5)C=C4)C=C3)cc1
REMARK SMILES IDX 19 1 18 2 17 3 15 4 16 5 5 6 4 7 2 8 1 9 3 10 6 11 7 12 8 13
REMARK SMILES IDX 9 15 10 16 11 17 14 18 12 19 13 20 20 21 21 22 22 23 23 24
REMARK SMILES IDX 24 25 25 26 26 27 27 28 88 29 28 30 87 31 29 32 30 33 31 34
REMARK SMILES IDX 81 35 32 36 86 37 80 38 82 39 33 40 85 41 79 42 78 43 34 45
REMARK SMILES IDX 66 46 46 47 65 48 47 49 50 50 64 51 83 52 48 53 49 54 63 56
REMARK SMILES IDX 84 57 51 58 35 59 36 60 44 61 37 62 38 63 42 64 45 65 39 66
REMARK SMILES IDX 40 67 43 68 41 69 67 70 68 71 76 72 69 73 70 74 74 75 77 76
REMARK SMILES IDX 71 77 72 78 75 79 73 80 52 81 53 82 61 83 54 84 55 85 59 86
REMARK SMILES IDX 62 87 56 88 57 89 60 90 58 91
REMARK H PARENT 7 14 82 44 50 55
REMARK Flexibility Score: inf
ROOT
ATOM      1  C   UNL     1      -5.824  -0.693   0.416  1.00  0.00     0.202 C 
ENDROOT
BRANCH   1   2
ATOM      2  C   UNL     1      -5.035  -1.975   0.147  1.00  0.00     0.261 C 
BRANCH   2   3
ATOM      3  O   UNL     1      -3.641  -1.863   0.493  1.00  0.00    -0.463 OA
BRANCH   3   4
ATOM      4  C   UNL     1      -2.762  -2.166  -0.499  1.00  0.00     0.310 C 
ATOM      5  O   UNL     1      -3.078  -2.559  -1.617  1.00  0.00    -0.252 OA
BRANCH   4   6
ATOM      6  C   UNL     1      -1.304  -2.040  -0.086  1.00  0.00     0.118 C 
BRANCH   6   7
ATOM      7  C   UNL     1      -1.026  -1.129   1.129  1.00  0.00     0.020 C 
BRANCH   7   8
ATOM      8  C   UNL     1       0.468  -0.795   1.361  1.00  0.00    -0.017 C 
ATOM      9  C   UNL     1       1.090  -0.037   0.184  1.00  0.00     0.007 C 
ATOM     10  C   UNL     1       0.632   0.036   2.636  1.00  0.00     0.007 C 
ENDBRANCH   7   8
ENDBRANCH   6   7
BRANCH   6  11
ATOM     11  C   UNL     1      -0.722  -3.453   0.053  1.00  0.00     0.131 C 
BRANCH  11  12
ATOM     12  N   UNL     1      -1.314  -4.202   1.153  1.00  0.00    -0.355 N 
ATOM     13  C   UNL     1      -2.315  -5.128   1.154  1.00  0.00     0.225 C 
ATOM     14  H   UNL     1      -0.929  -4.008   2.038  1.00  0.00     0.163 HD
ATOM     15  O   UNL     1      -2.756  -5.487   2.246  1.00  0.00    -0.275 OA
BRANCH  13  16
ATOM     16  C   UNL     1      -2.842  -5.695  -0.157  1.00  0.00     0.106 C 
ATOM     17  C   UNL     1      -4.353  -5.635  -0.228  1.00  0.00     0.044 C 
ATOM     18  C   UNL     1      -2.545  -7.185  -0.235  1.00  0.00     0.173 C 
ATOM     19  C   UNL     1      -4.785  -6.970   0.329  1.00  0.00     0.161 C 
ATOM     20  O   UNL     1      -3.780  -7.902  -0.070  1.00  0.00    -0.381 OA
ENDBRANCH  13  16
ENDBRANCH  11  12
ENDBRANCH   6  11
ENDBRANCH   4   6
ENDBRANCH   3   4
ENDBRANCH   2   3
ENDBRANCH   1   2
BRANCH   1  21
ATOM     21  O   UNL     1      -5.415   0.470  -0.296  1.00  0.00    -0.374 OA
BRANCH  21  22
ATOM     22  C   UNL     1      -4.189   1.083   0.095  1.00  0.00     0.202 C 
BRANCH  22  23
ATOM     23  C   UNL     1      -4.184   1.823   1.439  1.00  0.00     0.261 C 
BRANCH  23  24
ATOM     24  O   UNL     1      -4.420   0.955   2.565  1.00  0.00    -0.460 OA
BRANCH  24  25
ATOM     25  C   UNL     1      -5.544   1.241   3.265  1.00  0.00     0.338 C 
ATOM     26  O   UNL     1      -6.309   2.178   3.081  1.00  0.00    -0.246 OA
BRANCH  25  27
ATOM     27  C   UNL     1      -5.860   0.182   4.241  1.00  0.00     0.060 A 
ATOM     28  C   UNL     1      -7.147  -0.370   4.191  1.00  0.00     0.016 A 
ATOM     29  C   UNL     1      -4.990  -0.147   5.283  1.00  0.00     0.016 A 
ATOM     30  C   UNL     1      -7.599  -1.186   5.225  1.00  0.00     0.010 A 
ATOM     31  C   UNL     1      -5.449  -0.965   6.326  1.00  0.00     0.010 A 
ATOM     32  C   UNL     1      -6.773  -1.440   6.328  1.00  0.00    -0.014 A 
BRANCH  32  33
ATOM     33  C   UNL     1      -7.382  -2.022   7.552  1.00  0.00     0.031 A 
ATOM     34  C   UNL     1      -7.830  -1.095   8.651  1.00  0.00     0.074 A 
ATOM     35  C   UNL     1      -7.611  -3.343   7.655  1.00  0.00     0.049 A 
ATOM     36  N   UNL     1      -8.450  -1.369   9.772  1.00  0.00    -0.248 NA
ATOM     37  C   UNL     1      -7.544   0.336   8.459  1.00  0.00     0.031 C 
ATOM     38  C   UNL     1      -7.259  -4.342   6.650  1.00  0.00     0.029 A 
ATOM     39  N   UNL     1      -8.209  -4.066   8.657  1.00  0.00    -0.354 N 
ATOM     40  C   UNL     1      -8.624  -0.150  10.416  1.00  0.00     0.074 A 
ATOM     41  C   UNL     1      -8.019   0.862   9.578  1.00  0.00     0.031 C 
ATOM     42  C   UNL     1      -7.655  -5.551   7.082  1.00  0.00     0.029 A 
ATOM     43  C   UNL     1      -8.273  -5.412   8.400  1.00  0.00     0.049 A 
ATOM     44  H   UNL     1      -8.559  -3.657   9.482  1.00  0.00     0.167 HD
ATOM     45  C   UNL     1      -9.245   0.107  11.592  1.00  0.00     0.037 A 
ATOM     46  C   UNL     1      -8.774  -6.416   9.146  1.00  0.00     0.037 A 
ATOM     47  C   UNL     1      -9.861  -0.892  12.424  1.00  0.00     0.049 A 
ATOM     48  C   UNL     1      -9.415  -6.110  10.475  1.00  0.00     0.074 A 
ATOM     49  C   UNL     1     -10.539  -0.724  13.618  1.00  0.00     0.029 A 
ATOM     50  N   UNL     1      -9.867  -2.251  12.148  1.00  0.00    -0.354 N 
ATOM     51  N   UNL     1      -9.610  -4.951  11.055  1.00  0.00    -0.248 NA
ATOM     52  C   UNL     1      -9.912  -7.257  11.250  1.00  0.00     0.031 C 
ATOM     53  C   UNL     1     -10.920  -1.986  14.087  1.00  0.00     0.029 A 
ATOM     54  C   UNL     1     -10.517  -2.936  13.162  1.00  0.00     0.049 A 
ATOM     55  H   UNL     1      -9.469  -2.667  11.350  1.00  0.00     0.167 HD
ATOM     56  C   UNL     1     -10.278  -5.224  12.242  1.00  0.00     0.074 A 
ATOM     57  C   UNL     1     -10.463  -6.659  12.297  1.00  0.00     0.031 C 
ATOM     58  C   UNL     1     -10.704  -4.363  13.198  1.00  0.00     0.037 A 
BRANCH  45  59
ATOM     59  C   UNL     1      -9.267   1.532  12.062  1.00  0.00     0.064 A 
ATOM     60  C   UNL     1     -10.089   2.494  11.457  1.00  0.00     0.173 A 
ATOM     61  C   UNL     1      -8.474   1.932  13.147  1.00  0.00     0.173 A 
ATOM     62  F   UNL     1     -10.856   2.164  10.407  1.00  0.00    -0.203 F 
ATOM     63  C   UNL     1     -10.097   3.812  11.907  1.00  0.00     0.198 A 
ATOM     64  C   UNL     1      -8.503   3.244  13.610  1.00  0.00     0.198 A 
ATOM     65  F   UNL     1      -7.673   1.048  13.762  1.00  0.00    -0.203 F 
ATOM     66  F   UNL     1     -10.857   4.726  11.287  1.00  0.00    -0.200 F 
ATOM     67  C   UNL     1      -9.308   4.185  12.986  1.00  0.00     0.200 A 
ATOM     68  F   UNL     1      -7.747   3.601  14.658  1.00  0.00    -0.200 F 
ATOM     69  F   UNL     1      -9.319   5.453  13.418  1.00  0.00    -0.200 F 
ENDBRANCH  45  59
BRANCH  46  70
ATOM     70  C   UNL     1      -8.708  -7.814   8.648  1.00  0.00     0.064 A 
ATOM     71  C   UNL     1      -9.867  -8.495   8.251  1.00  0.00     0.173 A 
ATOM     72  C   UNL     1      -7.489  -8.504   8.582  1.00  0.00     0.173 A 
ATOM     73  F   UNL     1     -11.059  -7.885   8.326  1.00  0.00    -0.203 F 
ATOM     74  C   UNL     1      -9.811  -9.819   7.821  1.00  0.00     0.198 A 
ATOM     75  C   UNL     1      -7.431  -9.820   8.129  1.00  0.00     0.198 A 
ATOM     76  F   UNL     1      -6.354  -7.898   8.959  1.00  0.00    -0.203 F 
ATOM     77  F   UNL     1     -10.940 -10.461   7.490  1.00  0.00    -0.200 F 
ATOM     78  C   UNL     1      -8.593 -10.478   7.755  1.00  0.00     0.200 A 
ATOM     79  F   UNL     1      -6.252 -10.453   8.064  1.00  0.00    -0.200 F 
ATOM     80  F   UNL     1      -8.541 -11.753   7.344  1.00  0.00    -0.200 F 
ENDBRANCH  46  70
BRANCH  58  81
ATOM     81  C   UNL     1     -11.446  -4.942  14.367  1.00  0.00     0.064 A 
ATOM     82  C   UNL     1     -10.789  -5.674  15.367  1.00  0.00     0.173 A 
ATOM     83  C   UNL     1     -12.826  -4.731  14.506  1.00  0.00     0.173 A 
ATOM     84  F   UNL     1      -9.472  -5.914  15.273  1.00  0.00    -0.203 F 
ATOM     85  C   UNL     1     -11.492  -6.197  16.450  1.00  0.00     0.198 A 
ATOM     86  C   UNL     1     -13.521  -5.233  15.603  1.00  0.00     0.198 A 
ATOM     87  F   UNL     1     -13.500  -4.031  13.581  1.00  0.00    -0.203 F 
ATOM     88  F   UNL     1     -10.852  -6.931  17.370  1.00  0.00    -0.200 F 
ATOM     89  C   UNL     1     -12.855  -5.971  16.570  1.00  0.00     0.200 A 
ATOM     90  F   UNL     1     -14.836  -5.003  15.724  1.00  0.00    -0.200 F 
ATOM     91  F   UNL     1     -13.529  -6.471  17.615  1.00  0.00    -0.200 F 
ENDBRANCH  58  81
ENDBRANCH  32  33
ENDBRANCH  25  27
ENDBRANCH  24  25
ENDBRANCH  23  24
ENDBRANCH  22  23
ENDBRANCH  21  22
ENDBRANCH   1  21
TORSDOF 19
