REMARK SMILES CC1(NC(=O)c2csc(/C=C/C(=O)OCCOCCOC(=O)c3ccc(-c4c5nc(c(-c6c(F)c(F)c(F)c(F)c6F)c6ccc([nH]6)c(-c6c(F)c(F)c(F)c(F)c6F)c6nc(c(-c7c(F)c(F)c(F)c(F)c7F)c7ccc4[nH]7)C=C6)C=C5)cc3)c2)CCCCC1
REMARK SMILES IDX 16 1 15 2 14 3 12 4 13 5 11 6 10 7 9 8 6 9 7 10 86 11 8 12
REMARK SMILES IDX 4 13 3 14 5 16 2 17 1 18 87 19 91 20 88 21 90 22 89 23 17 24
REMARK SMILES IDX 18 25 19 26 20 27 21 28 22 29 23 30 24 31 85 32 25 33 84 34
REMARK SMILES IDX 26 35 27 36 28 37 78 38 29 39 83 40 77 41 79 42 30 43 82 44
REMARK SMILES IDX 76 45 75 46 31 48 63 49 43 50 62 51 44 52 47 53 61 54 80 55
REMARK SMILES IDX 45 56 46 57 60 59 81 60 48 61 32 62 33 63 41 64 34 65 35 66
REMARK SMILES IDX 39 67 42 68 36 69 37 70 40 71 38 72 64 73 65 74 73 75 66 76
REMARK SMILES IDX 67 77 71 78 74 79 68 80 69 81 72 82 70 83 49 84 50 85 58 86
REMARK SMILES IDX 51 87 52 88 56 89 59 90 53 91 54 92 57 93 55 94
REMARK H PARENT 3 15 79 47 47 58
REMARK Flexibility Score: inf
ROOT
ATOM      1  C   UNL     1      -7.121  -7.337   1.838  1.00  0.00     0.202 C 
ENDROOT
BRANCH   1   2
ATOM      2  C   UNL     1      -5.993  -7.711   2.803  1.00  0.00     0.261 C 
BRANCH   2   3
ATOM      3  O   UNL     1      -4.851  -6.846   2.666  1.00  0.00    -0.460 OA
BRANCH   3   4
ATOM      4  C   UNL     1      -3.771  -7.424   2.088  1.00  0.00     0.330 C 
ATOM      5  O   UNL     1      -3.680  -8.588   1.726  1.00  0.00    -0.247 OA
BRANCH   4   6
ATOM      6  C   UNL     1      -2.656  -6.481   1.871  1.00  0.00     0.095 C 
ATOM      7  C   UNL     1      -2.563  -5.226   2.337  1.00  0.00     0.026 C 
BRANCH   7   8
ATOM      8  C   UNL     1      -1.417  -4.391   2.116  1.00  0.00     0.028 A 
ATOM      9  C   UNL     1       0.048  -2.521   2.206  1.00  0.00     0.051 A 
ATOM     10  C   UNL     1       0.795  -3.422   1.481  1.00  0.00     0.079 A 
ATOM     11  C   UNL     1      -1.200  -3.115   2.613  1.00  0.00     0.033 A 
ATOM     12  S   UNL     1      -0.051  -4.869   1.171  1.00  0.00    -0.144 S 
BRANCH   9  13
ATOM     13  C   UNL     1       0.499  -1.210   2.627  1.00  0.00     0.252 C 
ATOM     14  N   UNL     1       0.773  -0.215   1.734  1.00  0.00    -0.347 N 
ATOM     15  H   UNL     1       0.986   0.623   2.204  1.00  0.00     0.164 HD
ATOM     16  O   UNL     1       0.578  -0.933   3.824  1.00  0.00    -0.269 OA
BRANCH  14  17
ATOM     17  C   UNL     1       0.847  -0.023   0.265  1.00  0.00     0.038 C 
ATOM     18  C   UNL     1       2.330  -0.112  -0.139  1.00  0.00     0.034 C 
ATOM     19  C   UNL     1       0.024  -0.980  -0.623  1.00  0.00     0.028 C 
ATOM     20  C   UNL     1       0.340   1.419  -0.027  1.00  0.00     0.028 C 
ATOM     21  C   UNL     1      -1.484  -0.863  -0.420  1.00  0.00     0.002 C 
ATOM     22  C   UNL     1      -1.169   1.561   0.200  1.00  0.00     0.002 C 
ATOM     23  C   UNL     1      -1.964   0.566  -0.639  1.00  0.00     0.000 C 
ENDBRANCH  14  17
ENDBRANCH   9  13
ENDBRANCH   7   8
ENDBRANCH   4   6
ENDBRANCH   3   4
ENDBRANCH   2   3
ENDBRANCH   1   2
BRANCH   1  24
ATOM     24  O   UNL     1      -6.808  -7.432   0.451  1.00  0.00    -0.374 OA
BRANCH  24  25
ATOM     25  C   UNL     1      -6.140  -6.311  -0.133  1.00  0.00     0.202 C 
BRANCH  25  26
ATOM     26  C   UNL     1      -7.043  -5.130  -0.509  1.00  0.00     0.261 C 
BRANCH  26  27
ATOM     27  O   UNL     1      -7.584  -4.481   0.658  1.00  0.00    -0.460 OA
BRANCH  27  28
ATOM     28  C   UNL     1      -8.920  -4.620   0.820  1.00  0.00     0.338 C 
ATOM     29  O   UNL     1      -9.713  -5.131   0.039  1.00  0.00    -0.246 OA
BRANCH  28  30
ATOM     30  C   UNL     1      -9.316  -4.215   2.181  1.00  0.00     0.060 A 
ATOM     31  C   UNL     1     -10.104  -5.111   2.914  1.00  0.00     0.016 A 
ATOM     32  C   UNL     1      -8.994  -2.962   2.709  1.00  0.00     0.016 A 
ATOM     33  C   UNL     1     -10.621  -4.736   4.152  1.00  0.00     0.010 A 
ATOM     34  C   UNL     1      -9.518  -2.585   3.953  1.00  0.00     0.010 A 
ATOM     35  C   UNL     1     -10.366  -3.456   4.662  1.00  0.00    -0.014 A 
BRANCH  35  36
ATOM     36  C   UNL     1     -11.107  -2.998   5.864  1.00  0.00     0.031 A 
ATOM     37  C   UNL     1     -12.324  -2.129   5.688  1.00  0.00     0.074 A 
ATOM     38  C   UNL     1     -10.744  -3.407   7.092  1.00  0.00     0.049 A 
ATOM     39  N   UNL     1     -13.142  -1.651   6.592  1.00  0.00    -0.248 NA
ATOM     40  C   UNL     1     -12.668  -1.752   4.308  1.00  0.00     0.031 C 
ATOM     41  C   UNL     1      -9.608  -4.277   7.389  1.00  0.00     0.029 A 
ATOM     42  N   UNL     1     -11.302  -3.150   8.320  1.00  0.00    -0.354 N 
ATOM     43  C   UNL     1     -14.099  -0.928   5.892  1.00  0.00     0.074 A 
ATOM     44  C   UNL     1     -13.739  -0.994   4.492  1.00  0.00     0.031 C 
ATOM     45  C   UNL     1      -9.554  -4.486   8.717  1.00  0.00     0.029 A 
ATOM     46  C   UNL     1     -10.636  -3.745   9.363  1.00  0.00     0.049 A 
ATOM     47  H   UNL     1     -12.103  -2.591   8.441  1.00  0.00     0.167 HD
ATOM     48  C   UNL     1     -15.190  -0.283   6.370  1.00  0.00     0.037 A 
ATOM     49  C   UNL     1     -10.872  -3.691  10.688  1.00  0.00     0.037 A 
ATOM     50  C   UNL     1     -15.549  -0.212   7.762  1.00  0.00     0.049 A 
ATOM     51  C   UNL     1     -12.052  -2.903  11.198  1.00  0.00     0.074 A 
ATOM     52  C   UNL     1     -16.634   0.420   8.344  1.00  0.00     0.029 A 
ATOM     53  N   UNL     1     -14.826  -0.794   8.793  1.00  0.00    -0.354 N 
ATOM     54  N   UNL     1     -12.965  -2.245  10.525  1.00  0.00    -0.248 NA
ATOM     55  C   UNL     1     -12.236  -2.858  12.656  1.00  0.00     0.031 C 
ATOM     56  C   UNL     1     -16.545   0.257   9.730  1.00  0.00     0.029 A 
ATOM     57  C   UNL     1     -15.432  -0.520  10.008  1.00  0.00     0.049 A 
ATOM     58  H   UNL     1     -14.005  -1.324   8.678  1.00  0.00     0.167 HD
ATOM     59  C   UNL     1     -13.847  -1.739  11.472  1.00  0.00     0.074 A 
ATOM     60  C   UNL     1     -13.369  -2.179  12.765  1.00  0.00     0.031 C 
ATOM     61  C   UNL     1     -14.953  -0.976  11.287  1.00  0.00     0.037 A 
BRANCH  48  62
ATOM     62  C   UNL     1     -16.076   0.410   5.377  1.00  0.00     0.064 A 
ATOM     63  C   UNL     1     -16.910  -0.312   4.510  1.00  0.00     0.173 A 
ATOM     64  C   UNL     1     -16.131   1.811   5.325  1.00  0.00     0.173 A 
ATOM     65  F   UNL     1     -16.885  -1.654   4.511  1.00  0.00    -0.203 F 
ATOM     66  C   UNL     1     -17.752   0.343   3.615  1.00  0.00     0.198 A 
ATOM     67  C   UNL     1     -16.993   2.462   4.448  1.00  0.00     0.198 A 
ATOM     68  F   UNL     1     -15.357   2.548   6.136  1.00  0.00    -0.203 F 
ATOM     69  F   UNL     1     -18.512  -0.367   2.770  1.00  0.00    -0.200 F 
ATOM     70  C   UNL     1     -17.799   1.729   3.590  1.00  0.00     0.200 A 
ATOM     71  F   UNL     1     -17.046   3.802   4.433  1.00  0.00    -0.200 F 
ATOM     72  F   UNL     1     -18.618   2.358   2.736  1.00  0.00    -0.200 F 
ENDBRANCH  48  62
BRANCH  49  73
ATOM     73  C   UNL     1      -9.976  -4.401  11.639  1.00  0.00     0.064 A 
ATOM     74  C   UNL     1     -10.436  -5.491  12.390  1.00  0.00     0.173 A 
ATOM     75  C   UNL     1      -8.656  -3.975  11.848  1.00  0.00     0.173 A 
ATOM     76  F   UNL     1     -11.699  -5.919  12.246  1.00  0.00    -0.203 F 
ATOM     77  C   UNL     1      -9.619  -6.111  13.334  1.00  0.00     0.198 A 
ATOM     78  C   UNL     1      -7.831  -4.614  12.770  1.00  0.00     0.198 A 
ATOM     79  F   UNL     1      -8.168  -2.935  11.156  1.00  0.00    -0.203 F 
ATOM     80  F   UNL     1     -10.103  -7.113  14.081  1.00  0.00    -0.200 F 
ATOM     81  C   UNL     1      -8.316  -5.675  13.521  1.00  0.00     0.200 A 
ATOM     82  F   UNL     1      -6.570  -4.196  12.940  1.00  0.00    -0.200 F 
ATOM     83  F   UNL     1      -7.533  -6.267  14.432  1.00  0.00    -0.200 F 
ENDBRANCH  49  73
BRANCH  61  84
ATOM     84  C   UNL     1     -15.745  -0.606  12.508  1.00  0.00     0.064 A 
ATOM     85  C   UNL     1     -15.266   0.320  13.446  1.00  0.00     0.173 A 
ATOM     86  C   UNL     1     -17.012  -1.169  12.729  1.00  0.00     0.173 A 
ATOM     87  F   UNL     1     -14.055   0.875  13.288  1.00  0.00    -0.203 F 
ATOM     88  C   UNL     1     -16.011   0.644  14.577  1.00  0.00     0.198 A 
ATOM     89  C   UNL     1     -17.767  -0.818  13.845  1.00  0.00     0.198 A 
ATOM     90  F   UNL     1     -17.521  -2.053  11.858  1.00  0.00    -0.203 F 
ATOM     91  F   UNL     1     -15.508   1.490  15.487  1.00  0.00    -0.200 F 
ATOM     92  C   UNL     1     -17.262   0.080  14.772  1.00  0.00     0.200 A 
ATOM     93  F   UNL     1     -18.982  -1.354  14.025  1.00  0.00    -0.200 F 
ATOM     94  F   UNL     1     -17.978   0.395  15.861  1.00  0.00    -0.200 F 
ENDBRANCH  61  84
ENDBRANCH  35  36
ENDBRANCH  28  30
ENDBRANCH  27  28
ENDBRANCH  26  27
ENDBRANCH  25  26
ENDBRANCH  24  25
ENDBRANCH   1  24
TORSDOF 17
