REMARK SMILES CC1(C)C(NC(=O)c2cc(F)c(F)cc2C(=O)OCCOCCOC(=O)c2ccc(-c3c4nc(c(-c5c(F)c(F)c(F)c(F)c5F)c5ccc([nH]5)c(-c5c(F)c(F)c(F)c(F)c5F)c5nc(c(-c6c(F)c(F)c(F)c(F)c6F)c6ccc3[nH]6)C=C5)C=C4)cc2)C1(C)C
REMARK SMILES IDX 21 1 20 2 19 3 18 4 16 5 17 6 15 7 8 8 9 9 10 10 14 11 11 12
REMARK SMILES IDX 12 13 13 14 6 15 5 16 7 18 4 19 1 20 2 21 3 22 90 23 91 24
REMARK SMILES IDX 92 25 22 26 23 27 24 28 25 29 26 30 27 31 28 32 89 33 29 34
REMARK SMILES IDX 88 35 30 36 31 37 32 38 82 39 33 40 87 41 81 42 83 43 34 44
REMARK SMILES IDX 86 45 80 46 79 47 35 49 67 50 47 51 66 52 48 53 51 54 65 55
REMARK SMILES IDX 84 56 49 57 50 58 64 60 85 61 52 62 36 63 37 64 45 65 38 66
REMARK SMILES IDX 39 67 43 68 46 69 40 70 41 71 44 72 42 73 68 74 69 75 77 76
REMARK SMILES IDX 70 77 71 78 75 79 78 80 72 81 73 82 76 83 74 84 53 85 54 86
REMARK SMILES IDX 62 87 55 88 56 89 60 90 63 91 57 92 58 93 61 94 59 95
REMARK H PARENT 5 17 83 48 51 59
REMARK Flexibility Score: inf
ROOT
ATOM      1  O   UNL     1       7.191   4.638   0.681  1.00  0.00    -0.374 OA
ENDROOT
BRANCH   1   2
ATOM      2  C   UNL     1       6.541   5.377   1.715  1.00  0.00     0.202 C 
BRANCH   2   3
ATOM      3  C   UNL     1       5.473   6.371   1.262  1.00  0.00     0.261 C 
BRANCH   3   4
ATOM      4  O   UNL     1       4.409   5.707   0.559  1.00  0.00    -0.460 OA
BRANCH   4   5
ATOM      5  C   UNL     1       4.010   6.343  -0.564  1.00  0.00     0.339 C 
ATOM      6  O   UNL     1       4.412   7.420  -0.980  1.00  0.00    -0.246 OA
BRANCH   5   7
ATOM      7  C   UNL     1       3.158   5.488  -1.411  1.00  0.00     0.075 A 
ATOM      8  C   UNL     1       1.930   4.936  -1.014  1.00  0.00     0.057 A 
ATOM      9  C   UNL     1       1.078   4.412  -2.000  1.00  0.00     0.057 A 
ATOM     10  C   UNL     1       1.526   4.265  -3.308  1.00  0.00     0.159 A 
ATOM     11  C   UNL     1       3.601   5.334  -2.738  1.00  0.00     0.059 A 
ATOM     12  F   UNL     1       0.728   3.682  -4.211  1.00  0.00    -0.204 F 
ATOM     13  C   UNL     1       2.796   4.690  -3.666  1.00  0.00     0.159 A 
ATOM     14  F   UNL     1       3.245   4.504  -4.914  1.00  0.00    -0.204 F 
BRANCH   8  15
ATOM     15  C   UNL     1       1.524   4.879   0.412  1.00  0.00     0.252 C 
ATOM     16  N   UNL     1       1.064   3.685   0.950  1.00  0.00    -0.348 N 
ATOM     17  H   UNL     1       0.952   3.676   1.928  1.00  0.00     0.164 HD
ATOM     18  O   UNL     1       1.627   5.880   1.113  1.00  0.00    -0.269 OA
BRANCH  16  19
ATOM     19  C   UNL     1       0.729   2.461   0.279  1.00  0.00     0.094 C 
ATOM     20  C   UNL     1       0.920  -0.110   0.039  1.00  0.00     0.014 C 
ATOM     21  C   UNL     1       0.528   1.089   0.887  1.00  0.00    -0.007 C 
ATOM     22  C   UNL     1       0.850   0.865   2.343  1.00  0.00     0.014 C 
ATOM     23  C   UNL     1      -0.690   1.918   0.450  1.00  0.00    -0.007 C 
ATOM     24  C   UNL     1      -1.448   1.601  -0.821  1.00  0.00     0.014 C 
ATOM     25  C   UNL     1      -1.609   2.478   1.519  1.00  0.00     0.014 C 
ENDBRANCH  16  19
ENDBRANCH   8  15
ENDBRANCH   5   7
ENDBRANCH   4   5
ENDBRANCH   3   4
ENDBRANCH   2   3
ENDBRANCH   1   2
BRANCH   1  26
ATOM     26  C   UNL     1       6.443   3.616   0.023  1.00  0.00     0.202 C 
BRANCH  26  27
ATOM     27  C   UNL     1       6.183   2.330   0.819  1.00  0.00     0.261 C 
BRANCH  27  28
ATOM     28  O   UNL     1       5.359   2.541   1.980  1.00  0.00    -0.460 OA
BRANCH  28  29
ATOM     29  C   UNL     1       5.981   2.331   3.164  1.00  0.00     0.338 C 
ATOM     30  O   UNL     1       7.125   1.930   3.342  1.00  0.00    -0.246 OA
BRANCH  29  31
ATOM     31  C   UNL     1       5.142   2.799   4.280  1.00  0.00     0.060 A 
ATOM     32  C   UNL     1       5.687   3.740   5.161  1.00  0.00     0.016 A 
ATOM     33  C   UNL     1       3.884   2.245   4.526  1.00  0.00     0.016 A 
ATOM     34  C   UNL     1       4.994   4.101   6.315  1.00  0.00     0.010 A 
ATOM     35  C   UNL     1       3.192   2.601   5.688  1.00  0.00     0.010 A 
ATOM     36  C   UNL     1       3.759   3.505   6.604  1.00  0.00    -0.014 A 
BRANCH  36  37
ATOM     37  C   UNL     1       3.127   3.732   7.927  1.00  0.00     0.031 A 
ATOM     38  C   UNL     1       3.300   2.703   9.009  1.00  0.00     0.074 A 
ATOM     39  C   UNL     1       2.430   4.856   8.169  1.00  0.00     0.049 A 
ATOM     40  N   UNL     1       2.808   2.683  10.221  1.00  0.00    -0.248 NA
ATOM     41  C   UNL     1       4.140   1.538   8.682  1.00  0.00     0.031 C 
ATOM     42  C   UNL     1       2.224   5.941   7.213  1.00  0.00     0.029 A 
ATOM     43  N   UNL     1       1.763   5.266   9.297  1.00  0.00    -0.354 N 
ATOM     44  C   UNL     1       3.272   1.508  10.798  1.00  0.00     0.074 A 
ATOM     45  C   UNL     1       4.065   0.827   9.799  1.00  0.00     0.031 C 
ATOM     46  C   UNL     1       1.472   6.892   7.792  1.00  0.00     0.029 A 
ATOM     47  C   UNL     1       1.120   6.470   9.147  1.00  0.00     0.049 A 
ATOM     48  H   UNL     1       1.748   4.747  10.133  1.00  0.00     0.167 HD
ATOM     49  C   UNL     1       3.061   1.047  12.053  1.00  0.00     0.037 A 
ATOM     50  C   UNL     1       0.322   7.143   9.999  1.00  0.00     0.037 A 
ATOM     51  C   UNL     1       2.287   1.734  13.053  1.00  0.00     0.049 A 
ATOM     52  C   UNL     1       0.060   6.581  11.372  1.00  0.00     0.074 A 
ATOM     53  C   UNL     1       2.047   1.358  14.363  1.00  0.00     0.029 A 
ATOM     54  N   UNL     1       1.626   2.936  12.852  1.00  0.00    -0.354 N 
ATOM     55  N   UNL     1       0.519   5.481  11.916  1.00  0.00    -0.248 NA
ATOM     56  C   UNL     1      -0.831   7.354  12.251  1.00  0.00     0.031 C 
ATOM     57  C   UNL     1       1.203   2.309  14.942  1.00  0.00     0.029 A 
ATOM     58  C   UNL     1       0.956   3.302  14.008  1.00  0.00     0.049 A 
ATOM     59  H   UNL     1       1.633   3.452  12.014  1.00  0.00     0.167 HD
ATOM     60  C   UNL     1      -0.008   5.437  13.199  1.00  0.00     0.074 A 
ATOM     61  C   UNL     1      -0.814   6.629  13.361  1.00  0.00     0.031 C 
ATOM     62  C   UNL     1       0.160   4.493  14.156  1.00  0.00     0.037 A 
BRANCH  49  63
ATOM     63  C   UNL     1       3.665  -0.272  12.428  1.00  0.00     0.064 A 
ATOM     64  C   UNL     1       2.848  -1.397  12.614  1.00  0.00     0.173 A 
ATOM     65  C   UNL     1       5.036  -0.402  12.691  1.00  0.00     0.173 A 
ATOM     66  F   UNL     1       1.529  -1.321  12.379  1.00  0.00    -0.203 F 
ATOM     67  C   UNL     1       3.380  -2.601  13.067  1.00  0.00     0.198 A 
ATOM     68  C   UNL     1       5.568  -1.614  13.123  1.00  0.00     0.198 A 
ATOM     69  F   UNL     1       5.859   0.643  12.518  1.00  0.00    -0.203 F 
ATOM     70  F   UNL     1       2.575  -3.654  13.269  1.00  0.00    -0.200 F 
ATOM     71  C   UNL     1       4.739  -2.709  13.321  1.00  0.00     0.200 A 
ATOM     72  F   UNL     1       6.885  -1.724  13.350  1.00  0.00    -0.200 F 
ATOM     73  F   UNL     1       5.250  -3.869  13.756  1.00  0.00    -0.200 F 
ENDBRANCH  49  63
BRANCH  50  74
ATOM     74  C   UNL     1      -0.296   8.423   9.568  1.00  0.00     0.064 A 
ATOM     75  C   UNL     1      -1.301   8.449   8.589  1.00  0.00     0.173 A 
ATOM     76  C   UNL     1       0.112   9.645  10.117  1.00  0.00     0.173 A 
ATOM     77  F   UNL     1      -1.730   7.304   8.037  1.00  0.00    -0.203 F 
ATOM     78  C   UNL     1      -1.860   9.651   8.163  1.00  0.00     0.198 A 
ATOM     79  C   UNL     1      -0.466  10.846   9.708  1.00  0.00     0.198 A 
ATOM     80  F   UNL     1       1.050   9.669  11.076  1.00  0.00    -0.203 F 
ATOM     81  F   UNL     1      -2.799   9.649   7.207  1.00  0.00    -0.200 F 
ATOM     82  C   UNL     1      -1.445  10.848   8.726  1.00  0.00     0.200 A 
ATOM     83  F   UNL     1      -0.082  11.998  10.274  1.00  0.00    -0.200 F 
ATOM     84  F   UNL     1      -1.994  12.004   8.327  1.00  0.00    -0.200 F 
ENDBRANCH  50  74
BRANCH  62  85
ATOM     85  C   UNL     1      -0.524   4.702  15.475  1.00  0.00     0.064 A 
ATOM     86  C   UNL     1       0.223   5.006  16.624  1.00  0.00     0.173 A 
ATOM     87  C   UNL     1      -1.905   4.507  15.620  1.00  0.00     0.173 A 
ATOM     88  F   UNL     1       1.549   5.191  16.539  1.00  0.00    -0.203 F 
ATOM     89  C   UNL     1      -0.387   5.089  17.872  1.00  0.00     0.198 A 
ATOM     90  C   UNL     1      -2.515   4.615  16.867  1.00  0.00     0.198 A 
ATOM     91  F   UNL     1      -2.662   4.224  14.549  1.00  0.00    -0.203 F 
ATOM     92  F   UNL     1       0.352   5.343  18.962  1.00  0.00    -0.200 F 
ATOM     93  C   UNL     1      -1.754   4.896  17.993  1.00  0.00     0.200 A 
ATOM     94  F   UNL     1      -3.840   4.448  16.979  1.00  0.00    -0.200 F 
ATOM     95  F   UNL     1      -2.341   4.979  19.195  1.00  0.00    -0.200 F 
ENDBRANCH  62  85
ENDBRANCH  36  37
ENDBRANCH  29  31
ENDBRANCH  28  29
ENDBRANCH  27  28
ENDBRANCH  26  27
ENDBRANCH   1  26
TORSDOF 16
