REMARK SMILES CC[C@@H](C)N(CC)c1nc(C(C)C)c(C(=O)OCCOCCOC(=O)c2ccc(-c3c4nc(c(-c5c(F)c(F)c(F)c(F)c5F)c5ccc([nH]5)c(-c5c(F)c(F)c(F)c(F)c5F)c5nc(c(-c6c(F)c(F)c(F)c(F)c6F)c6ccc3[nH]6)C=C5)C=C4)cc2)s1
REMARK SMILES IDX 19 1 18 2 17 3 15 4 16 5 14 6 8 7 9 8 89 9 10 10 5 11 3 12
REMARK SMILES IDX 4 13 2 14 1 15 6 16 7 17 11 18 12 19 13 20 20 21 21 22 22 23
REMARK SMILES IDX 23 24 24 25 25 26 26 27 27 28 88 29 28 30 87 31 29 32 30 33
REMARK SMILES IDX 31 34 81 35 32 36 86 37 80 38 82 39 33 40 85 41 79 42 78 43
REMARK SMILES IDX 34 45 66 46 46 47 65 48 47 49 50 50 64 51 83 52 48 53 49 54
REMARK SMILES IDX 63 56 84 57 51 58 35 59 36 60 44 61 37 62 38 63 42 64 45 65
REMARK SMILES IDX 39 66 40 67 43 68 41 69 67 70 68 71 76 72 69 73 70 74 74 75
REMARK SMILES IDX 77 76 71 77 72 78 75 79 73 80 52 81 53 82 61 83 54 84 55 85
REMARK SMILES IDX 59 86 62 87 56 88 57 89 60 90 58 91
REMARK H PARENT 82 44 50 55
REMARK Flexibility Score: inf
ROOT
ATOM      1  C   UNL     1      -6.880   4.119  -5.511  1.00  0.00     0.202 C 
ENDROOT
BRANCH   1   2
ATOM      2  C   UNL     1      -6.672   2.608  -5.412  1.00  0.00     0.261 C 
BRANCH   2   3
ATOM      3  O   UNL     1      -5.622   2.352  -4.464  1.00  0.00    -0.459 OA
BRANCH   3   4
ATOM      4  C   UNL     1      -4.552   1.659  -4.931  1.00  0.00     0.350 C 
ATOM      5  O   UNL     1      -4.543   1.048  -5.993  1.00  0.00    -0.245 OA
BRANCH   4   6
ATOM      6  C   UNL     1      -3.418   1.851  -4.059  1.00  0.00     0.137 A 
ATOM      7  C   UNL     1      -1.106   2.045  -3.286  1.00  0.00     0.186 A 
ATOM      8  N   UNL     1      -1.945   2.245  -2.299  1.00  0.00    -0.224 NA
ATOM      9  S   UNL     1      -1.867   1.776  -4.798  1.00  0.00    -0.089 S 
ATOM     10  C   UNL     1      -3.273   2.128  -2.705  1.00  0.00     0.071 A 
BRANCH   7  11
ATOM     11  N   UNL     1       0.242   1.946  -3.139  1.00  0.00    -0.346 N 
BRANCH  11  12
ATOM     12  C   UNL     1       0.812   0.872  -2.308  1.00  0.00     0.081 C 
ATOM     13  C   UNL     1       0.412  -0.495  -2.874  1.00  0.00     0.031 C 
BRANCH  12  14
ATOM     14  C   UNL     1       0.443   1.040  -0.821  1.00  0.00     0.021 C 
ATOM     15  C   UNL     1       1.124   0.030   0.092  1.00  0.00     0.006 C 
ENDBRANCH  12  14
ENDBRANCH  11  12
BRANCH  11  16
ATOM     16  C   UNL     1       1.108   3.028  -3.594  1.00  0.00     0.116 C 
ATOM     17  C   UNL     1       1.415   2.921  -5.082  1.00  0.00     0.027 C 
ENDBRANCH  11  16
ENDBRANCH   7  11
BRANCH  10  18
ATOM     18  C   UNL     1      -4.286   2.270  -1.593  1.00  0.00     0.034 C 
ATOM     19  C   UNL     1      -4.961   3.640  -1.567  1.00  0.00     0.014 C 
ATOM     20  C   UNL     1      -5.298   1.128  -1.527  1.00  0.00     0.014 C 
ENDBRANCH  10  18
ENDBRANCH   4   6
ENDBRANCH   3   4
ENDBRANCH   2   3
ENDBRANCH   1   2
BRANCH   1  21
ATOM     21  O   UNL     1      -5.824   4.794  -6.199  1.00  0.00    -0.374 OA
BRANCH  21  22
ATOM     22  C   UNL     1      -4.701   5.189  -5.407  1.00  0.00     0.202 C 
BRANCH  22  23
ATOM     23  C   UNL     1      -4.858   6.553  -4.728  1.00  0.00     0.261 C 
BRANCH  23  24
ATOM     24  O   UNL     1      -5.799   6.479  -3.639  1.00  0.00    -0.460 OA
BRANCH  24  25
ATOM     25  C   UNL     1      -7.005   7.042  -3.882  1.00  0.00     0.338 C 
ATOM     26  O   UNL     1      -7.339   7.681  -4.865  1.00  0.00    -0.246 OA
BRANCH  25  27
ATOM     27  C   UNL     1      -7.968   6.629  -2.840  1.00  0.00     0.060 A 
ATOM     28  C   UNL     1      -9.245   6.239  -3.264  1.00  0.00     0.016 A 
ATOM     29  C   UNL     1      -7.657   6.665  -1.478  1.00  0.00     0.016 A 
ATOM     30  C   UNL     1     -10.230   5.934  -2.328  1.00  0.00     0.010 A 
ATOM     31  C   UNL     1      -8.650   6.365  -0.538  1.00  0.00     0.010 A 
ATOM     32  C   UNL     1      -9.950   6.032  -0.958  1.00  0.00    -0.014 A 
BRANCH  32  33
ATOM     33  C   UNL     1     -11.058   5.925   0.021  1.00  0.00     0.031 A 
ATOM     34  C   UNL     1     -11.680   7.183   0.560  1.00  0.00     0.074 A 
ATOM     35  C   UNL     1     -11.534   4.725   0.395  1.00  0.00     0.049 A 
ATOM     36  N   UNL     1     -12.647   7.324   1.431  1.00  0.00    -0.248 NA
ATOM     37  C   UNL     1     -11.141   8.453   0.049  1.00  0.00     0.031 C 
ATOM     38  C   UNL     1     -11.039   3.436  -0.080  1.00  0.00     0.029 A 
ATOM     39  N   UNL     1     -12.541   4.400   1.269  1.00  0.00    -0.354 N 
ATOM     40  C   UNL     1     -12.831   8.693   1.571  1.00  0.00     0.074 A 
ATOM     41  C   UNL     1     -11.858   9.342   0.719  1.00  0.00     0.031 C 
ATOM     42  C   UNL     1     -11.737   2.455   0.517  1.00  0.00     0.029 A 
ATOM     43  C   UNL     1     -12.710   3.048   1.434  1.00  0.00     0.049 A 
ATOM     44  H   UNL     1     -13.091   5.072   1.733  1.00  0.00     0.167 HD
ATOM     45  C   UNL     1     -13.738   9.350   2.333  1.00  0.00     0.037 A 
ATOM     46  C   UNL     1     -13.544   2.368   2.245  1.00  0.00     0.037 A 
ATOM     47  C   UNL     1     -14.708   8.708   3.179  1.00  0.00     0.049 A 
ATOM     48  C   UNL     1     -14.510   3.122   3.121  1.00  0.00     0.074 A 
ATOM     49  C   UNL     1     -15.673   9.292   3.982  1.00  0.00     0.029 A 
ATOM     50  N   UNL     1     -14.835   7.336   3.335  1.00  0.00    -0.354 N 
ATOM     51  N   UNL     1     -14.686   4.416   3.236  1.00  0.00    -0.248 NA
ATOM     52  C   UNL     1     -15.397   2.319   3.976  1.00  0.00     0.031 C 
ATOM     53  C   UNL     1     -16.358   8.274   4.654  1.00  0.00     0.029 A 
ATOM     54  C   UNL     1     -15.851   7.055   4.234  1.00  0.00     0.049 A 
ATOM     55  H   UNL     1     -14.285   6.662   2.875  1.00  0.00     0.167 HD
ATOM     56  C   UNL     1     -15.713   4.582   4.156  1.00  0.00     0.074 A 
ATOM     57  C   UNL     1     -16.132   3.256   4.559  1.00  0.00     0.031 C 
ATOM     58  C   UNL     1     -16.260   5.731   4.624  1.00  0.00     0.037 A 
BRANCH  45  59
ATOM     59  C   UNL     1     -13.716  10.848   2.299  1.00  0.00     0.064 A 
ATOM     60  C   UNL     1     -14.199  11.563   1.193  1.00  0.00     0.173 A 
ATOM     61  C   UNL     1     -13.254  11.577   3.405  1.00  0.00     0.173 A 
ATOM     62  F   UNL     1     -14.637  10.910   0.106  1.00  0.00    -0.203 F 
ATOM     63  C   UNL     1     -14.207  12.955   1.191  1.00  0.00     0.198 A 
ATOM     64  C   UNL     1     -13.287  12.969   3.408  1.00  0.00     0.198 A 
ATOM     65  F   UNL     1     -12.784  10.939   4.487  1.00  0.00    -0.203 F 
ATOM     66  F   UNL     1     -14.643  13.619   0.111  1.00  0.00    -0.200 F 
ATOM     67  C   UNL     1     -13.759  13.656   2.300  1.00  0.00     0.200 A 
ATOM     68  F   UNL     1     -12.863  13.645   4.485  1.00  0.00    -0.200 F 
ATOM     69  F   UNL     1     -13.779  14.997   2.301  1.00  0.00    -0.200 F 
ENDBRANCH  45  59
BRANCH  46  70
ATOM     70  C   UNL     1     -13.493   0.884   2.275  1.00  0.00     0.064 A 
ATOM     71  C   UNL     1     -14.534   0.111   1.744  1.00  0.00     0.173 A 
ATOM     72  C   UNL     1     -12.400   0.211   2.840  1.00  0.00     0.173 A 
ATOM     73  F   UNL     1     -15.611   0.712   1.216  1.00  0.00    -0.203 F 
ATOM     74  C   UNL     1     -14.490  -1.281   1.788  1.00  0.00     0.198 A 
ATOM     75  C   UNL     1     -12.346  -1.181   2.862  1.00  0.00     0.198 A 
ATOM     76  F   UNL     1     -11.380   0.906   3.363  1.00  0.00    -0.203 F 
ATOM     77  F   UNL     1     -15.516  -1.997   1.309  1.00  0.00    -0.200 F 
ATOM     78  C   UNL     1     -13.393  -1.925   2.341  1.00  0.00     0.200 A 
ATOM     79  F   UNL     1     -11.280  -1.799   3.388  1.00  0.00    -0.200 F 
ATOM     80  F   UNL     1     -13.349  -3.264   2.378  1.00  0.00    -0.200 F 
ENDBRANCH  46  70
BRANCH  58  81
ATOM     81  C   UNL     1     -17.388   5.612   5.606  1.00  0.00     0.064 A 
ATOM     82  C   UNL     1     -17.167   5.226   6.936  1.00  0.00     0.173 A 
ATOM     83  C   UNL     1     -18.698   5.942   5.226  1.00  0.00     0.173 A 
ATOM     84  F   UNL     1     -15.934   4.889   7.344  1.00  0.00    -0.203 F 
ATOM     85  C   UNL     1     -18.220   5.156   7.845  1.00  0.00     0.198 A 
ATOM     86  C   UNL     1     -19.744   5.895   6.144  1.00  0.00     0.198 A 
ATOM     87  F   UNL     1     -18.961   6.324   3.967  1.00  0.00    -0.203 F 
ATOM     88  F   UNL     1     -17.991   4.748   9.101  1.00  0.00    -0.200 F 
ATOM     89  C   UNL     1     -19.505   5.497   7.450  1.00  0.00     0.200 A 
ATOM     90  F   UNL     1     -20.983   6.237   5.764  1.00  0.00    -0.200 F 
ATOM     91  F   UNL     1     -20.515   5.437   8.329  1.00  0.00    -0.200 F 
ENDBRANCH  58  81
ENDBRANCH  32  33
ENDBRANCH  25  27
ENDBRANCH  24  25
ENDBRANCH  23  24
ENDBRANCH  22  23
ENDBRANCH  21  22
ENDBRANCH   1  21
TORSDOF 19
