REMARK SMILES C[C@@H](C(=O)OCCOCCOC(=O)c1ccc(-c2c3nc(c(-c4c(F)c(F)c(F)c(F)c4F)c4ccc([nH]4)c(-c4c(F)c(F)c(F)c(F)c4F)c4nc(c(-c5c(F)c(F)c(F)c(F)c5F)c5ccc2[nH]5)C=C4)C=C3)cc1)[C@H](C)[S@@](=O)c1ccc(F)c(F)c1
REMARK SMILES IDX 7 1 6 2 5 3 3 4 4 5 2 6 1 7 77 8 78 9 79 10 80 11 81 12
REMARK SMILES IDX 82 13 88 14 83 15 86 16 84 17 87 18 85 19 8 20 9 21 10 22
REMARK SMILES IDX 11 23 12 24 13 25 14 26 15 27 76 28 16 29 75 30 17 31 18 32
REMARK SMILES IDX 19 33 69 34 20 35 74 36 68 37 70 38 21 39 73 40 67 41 66 42
REMARK SMILES IDX 22 44 54 45 34 46 53 47 35 48 38 49 52 50 71 51 36 52 37 53
REMARK SMILES IDX 51 55 72 56 39 57 23 58 24 59 32 60 25 61 26 62 30 63 33 64
REMARK SMILES IDX 27 65 28 66 31 67 29 68 55 69 56 70 64 71 57 72 58 73 62 74
REMARK SMILES IDX 65 75 59 76 60 77 63 78 61 79 40 80 41 81 49 82 42 83 43 84
REMARK SMILES IDX 47 85 50 86 44 87 45 88 48 89 46 90
REMARK H PARENT 70 43 38 54
REMARK Flexibility Score: inf
ROOT
ATOM      1  C   UNL     1      -4.589  -2.165   0.497  1.00  0.00     0.202 C 
ENDROOT
BRANCH   1   2
ATOM      2  C   UNL     1      -3.089  -2.417   0.670  1.00  0.00     0.261 C 
BRANCH   2   3
ATOM      3  O   UNL     1      -2.518  -1.331   1.420  1.00  0.00    -0.463 OA
BRANCH   3   4
ATOM      4  C   UNL     1      -1.359  -0.809   0.953  1.00  0.00     0.309 C 
ATOM      5  O   UNL     1      -0.654  -1.347   0.107  1.00  0.00    -0.252 OA
BRANCH   4   6
ATOM      6  C   UNL     1      -1.031   0.560   1.568  1.00  0.00     0.112 C 
ATOM      7  C   UNL     1      -2.126   1.044   2.531  1.00  0.00     0.021 C 
BRANCH   6   8
ATOM      8  C   UNL     1      -0.630   1.487   0.386  1.00  0.00     0.095 C 
ATOM      9  C   UNL     1       0.873   1.438   0.084  1.00  0.00     0.023 C 
BRANCH   8  10
ATOM     10  S   UNL     1      -1.223   3.195   0.301  1.00  0.00     0.057 S 
ATOM     11  O   UNL     1      -2.722   3.194   0.293  1.00  0.00    -0.254 OA
BRANCH  10  12
ATOM     12  C   UNL     1      -0.737   4.072   1.790  1.00  0.00     0.042 A 
ATOM     13  C   UNL     1       0.089   3.567   2.799  1.00  0.00     0.021 A 
ATOM     14  C   UNL     1      -1.248   5.374   1.933  1.00  0.00     0.060 A 
ATOM     15  C   UNL     1       0.331   4.310   3.962  1.00  0.00     0.043 A 
ATOM     16  C   UNL     1      -0.979   6.121   3.075  1.00  0.00     0.160 A 
ATOM     17  C   UNL     1      -0.209   5.583   4.094  1.00  0.00     0.158 A 
ATOM     18  F   UNL     1      -1.478   7.359   3.185  1.00  0.00    -0.204 F 
ATOM     19  F   UNL     1       0.020   6.283   5.213  1.00  0.00    -0.204 F 
ENDBRANCH  10  12
ENDBRANCH   8  10
ENDBRANCH   6   8
ENDBRANCH   4   6
ENDBRANCH   3   4
ENDBRANCH   2   3
ENDBRANCH   1   2
BRANCH   1  20
ATOM     20  O   UNL     1      -4.934  -1.145  -0.444  1.00  0.00    -0.374 OA
BRANCH  20  21
ATOM     21  C   UNL     1      -4.698   0.212  -0.063  1.00  0.00     0.202 C 
BRANCH  21  22
ATOM     22  C   UNL     1      -5.735   0.836   0.881  1.00  0.00     0.261 C 
BRANCH  22  23
ATOM     23  O   UNL     1      -5.777   0.185   2.167  1.00  0.00    -0.460 OA
BRANCH  23  24
ATOM     24  C   UNL     1      -6.912  -0.506   2.416  1.00  0.00     0.338 C 
ATOM     25  O   UNL     1      -7.912  -0.577   1.711  1.00  0.00    -0.246 OA
BRANCH  24  26
ATOM     26  C   UNL     1      -6.755  -1.345   3.618  1.00  0.00     0.060 A 
ATOM     27  C   UNL     1      -7.031  -2.713   3.486  1.00  0.00     0.016 A 
ATOM     28  C   UNL     1      -6.442  -0.804   4.866  1.00  0.00     0.016 A 
ATOM     29  C   UNL     1      -7.044  -3.535   4.611  1.00  0.00     0.010 A 
ATOM     30  C   UNL     1      -6.463  -1.631   5.997  1.00  0.00     0.010 A 
ATOM     31  C   UNL     1      -6.800  -2.993   5.879  1.00  0.00    -0.014 A 
BRANCH  31  32
ATOM     32  C   UNL     1      -7.046  -3.826   7.083  1.00  0.00     0.031 A 
ATOM     33  C   UNL     1      -8.345  -3.674   7.827  1.00  0.00     0.074 A 
ATOM     34  C   UNL     1      -6.150  -4.747   7.479  1.00  0.00     0.049 A 
ATOM     35  N   UNL     1      -8.768  -4.297   8.898  1.00  0.00    -0.248 NA
ATOM     36  C   UNL     1      -9.295  -2.688   7.288  1.00  0.00     0.031 C 
ATOM     37  C   UNL     1      -4.875  -5.021   6.821  1.00  0.00     0.029 A 
ATOM     38  N   UNL     1      -6.180  -5.623   8.537  1.00  0.00    -0.354 N 
ATOM     39  C   UNL     1     -10.031  -3.780   9.160  1.00  0.00     0.074 A 
ATOM     40  C   UNL     1     -10.292  -2.770   8.158  1.00  0.00     0.031 C 
ATOM     41  C   UNL     1      -4.237  -5.993   7.495  1.00  0.00     0.029 A 
ATOM     42  C   UNL     1      -5.047  -6.391   8.646  1.00  0.00     0.049 A 
ATOM     43  H   UNL     1      -6.941  -5.694   9.157  1.00  0.00     0.167 HD
ATOM     44  C   UNL     1     -10.900  -4.126  10.140  1.00  0.00     0.037 A 
ATOM     45  C   UNL     1      -4.697  -7.296   9.581  1.00  0.00     0.037 A 
ATOM     46  C   UNL     1     -10.643  -5.131  11.138  1.00  0.00     0.049 A 
ATOM     47  C   UNL     1      -5.652  -7.614  10.702  1.00  0.00     0.074 A 
ATOM     48  C   UNL     1     -11.467  -5.559  12.165  1.00  0.00     0.029 A 
ATOM     49  N   UNL     1      -9.469  -5.863  11.237  1.00  0.00    -0.354 N 
ATOM     50  N   UNL     1      -6.851  -7.137  10.929  1.00  0.00    -0.248 NA
ATOM     51  C   UNL     1      -5.204  -8.602  11.695  1.00  0.00     0.031 C 
ATOM     52  C   UNL     1     -10.773  -6.516  12.913  1.00  0.00     0.029 A 
ATOM     53  C   UNL     1      -9.537  -6.721  12.322  1.00  0.00     0.049 A 
ATOM     54  H   UNL     1      -8.701  -5.784  10.626  1.00  0.00     0.167 HD
ATOM     55  C   UNL     1      -7.311  -7.781  12.071  1.00  0.00     0.074 A 
ATOM     56  C   UNL     1      -6.266  -8.695  12.483  1.00  0.00     0.031 C 
ATOM     57  C   UNL     1      -8.492  -7.630  12.718  1.00  0.00     0.037 A 
BRANCH  44  58
ATOM     58  C   UNL     1     -12.208  -3.394  10.193  1.00  0.00     0.064 A 
ATOM     59  C   UNL     1     -13.217  -3.620   9.245  1.00  0.00     0.173 A 
ATOM     60  C   UNL     1     -12.470  -2.482  11.226  1.00  0.00     0.173 A 
ATOM     61  F   UNL     1     -13.010  -4.473   8.230  1.00  0.00    -0.203 F 
ATOM     62  C   UNL     1     -14.431  -2.942   9.316  1.00  0.00     0.198 A 
ATOM     63  C   UNL     1     -13.696  -1.826  11.310  1.00  0.00     0.198 A 
ATOM     64  F   UNL     1     -11.541  -2.234  12.161  1.00  0.00    -0.203 F 
ATOM     65  F   UNL     1     -15.365  -3.142   8.375  1.00  0.00    -0.200 F 
ATOM     66  C   UNL     1     -14.672  -2.051  10.351  1.00  0.00     0.200 A 
ATOM     67  F   UNL     1     -13.931  -0.975  12.318  1.00  0.00    -0.200 F 
ATOM     68  F   UNL     1     -15.844  -1.405  10.422  1.00  0.00    -0.200 F 
ENDBRANCH  44  58
BRANCH  45  69
ATOM     69  C   UNL     1      -3.370  -7.961   9.506  1.00  0.00     0.064 A 
ATOM     70  C   UNL     1      -3.257  -9.328   9.218  1.00  0.00     0.173 A 
ATOM     71  C   UNL     1      -2.188  -7.243   9.740  1.00  0.00     0.173 A 
ATOM     72  F   UNL     1      -4.360 -10.062   9.014  1.00  0.00    -0.203 F 
ATOM     73  C   UNL     1      -2.013  -9.955   9.184  1.00  0.00     0.198 A 
ATOM     74  C   UNL     1      -0.943  -7.865   9.678  1.00  0.00     0.198 A 
ATOM     75  F   UNL     1      -2.242  -5.933  10.022  1.00  0.00    -0.203 F 
ATOM     76  F   UNL     1      -1.935 -11.273   8.952  1.00  0.00    -0.200 F 
ATOM     77  C   UNL     1      -0.857  -9.223   9.408  1.00  0.00     0.200 A 
ATOM     78  F   UNL     1       0.172  -7.151   9.884  1.00  0.00    -0.200 F 
ATOM     79  F   UNL     1       0.339  -9.825   9.372  1.00  0.00    -0.200 F 
ENDBRANCH  45  69
BRANCH  57  80
ATOM     80  C   UNL     1      -8.736  -8.493  13.923  1.00  0.00     0.064 A 
ATOM     81  C   UNL     1      -8.070  -8.267  15.137  1.00  0.00     0.173 A 
ATOM     82  C   UNL     1      -9.679  -9.531  13.874  1.00  0.00     0.173 A 
ATOM     83  F   UNL     1      -7.149  -7.297  15.231  1.00  0.00    -0.203 F 
ATOM     84  C   UNL     1      -8.323  -9.064  16.251  1.00  0.00     0.198 A 
ATOM     85  C   UNL     1      -9.950 -10.307  14.998  1.00  0.00     0.198 A 
ATOM     86  F   UNL     1     -10.348  -9.784  12.739  1.00  0.00    -0.203 F 
ATOM     87  F   UNL     1      -7.644  -8.858  17.387  1.00  0.00    -0.200 F 
ATOM     88  C   UNL     1      -9.268 -10.078  16.183  1.00  0.00     0.200 A 
ATOM     89  F   UNL     1     -10.872 -11.278  14.934  1.00  0.00    -0.200 F 
ATOM     90  F   UNL     1      -9.514 -10.839  17.258  1.00  0.00    -0.200 F 
ENDBRANCH  57  80
ENDBRANCH  31  32
ENDBRANCH  24  26
ENDBRANCH  23  24
ENDBRANCH  22  23
ENDBRANCH  21  22
ENDBRANCH  20  21
ENDBRANCH   1  20
TORSDOF 17
