REMARK SMILES COc1ccc(CC(=O)N[C@H](C)C(=O)OCCOCCOC(=O)c2ccc(-c3c4nc(c(-c5c(F)c(F)c(F)c(F)c5F)c5ccc([nH]5)c(-c5c(F)c(F)c(F)c(F)c5F)c5nc(c(-c6c(F)c(F)c(F)c(F)c6F)c6ccc3[nH]6)C=C5)C=C4)cc2)cc1F
REMARK SMILES IDX 17 1 16 2 15 3 13 4 14 5 11 6 12 7 10 8 8 9 9 10 7 12 6 13
REMARK SMILES IDX 3 14 4 15 88 16 5 17 87 18 89 19 2 20 1 21 18 22 19 23 20 24
REMARK SMILES IDX 21 25 22 26 23 27 24 28 25 29 86 30 26 31 85 32 27 33 28 34
REMARK SMILES IDX 29 35 79 36 30 37 84 38 78 39 80 40 31 41 83 42 77 43 76 44
REMARK SMILES IDX 32 46 64 47 44 48 63 49 45 50 48 51 62 52 81 53 46 54 47 55
REMARK SMILES IDX 61 57 82 58 49 59 33 60 34 61 42 62 35 63 36 64 40 65 43 66
REMARK SMILES IDX 37 67 38 68 41 69 39 70 65 71 66 72 74 73 67 74 68 75 72 76
REMARK SMILES IDX 75 77 69 78 70 79 73 80 71 81 50 82 51 83 59 84 52 85 53 86
REMARK SMILES IDX 57 87 60 88 54 89 55 90 58 91 56 92
REMARK H PARENT 10 11 80 45 48 56
REMARK Flexibility Score: inf
ROOT
ATOM      1  C   UNL     1       6.759   5.130   7.443  1.00  0.00     0.202 C 
ENDROOT
BRANCH   1   2
ATOM      2  C   UNL     1       5.776   5.980   6.607  1.00  0.00     0.261 C 
BRANCH   2   3
ATOM      3  O   UNL     1       4.466   5.437   6.379  1.00  0.00    -0.462 OA
BRANCH   3   4
ATOM      4  C   UNL     1       4.495   4.516   5.383  1.00  0.00     0.328 C 
ATOM      5  O   UNL     1       5.548   4.134   4.900  1.00  0.00    -0.250 OA
BRANCH   4   6
ATOM      6  C   UNL     1       3.149   4.026   4.857  1.00  0.00     0.189 C 
ATOM      7  C   UNL     1       1.968   4.345   5.768  1.00  0.00     0.043 C 
BRANCH   6   8
ATOM      8  N   UNL     1       2.967   4.575   3.510  1.00  0.00    -0.343 N 
ATOM      9  C   UNL     1       3.508   4.178   2.318  1.00  0.00     0.225 C 
ATOM     10  O   UNL     1       3.307   4.909   1.343  1.00  0.00    -0.275 OA
ATOM     11  H   UNL     1       2.362   5.349   3.455  1.00  0.00     0.164 HD
BRANCH   9  12
ATOM     12  C   UNL     1       4.308   2.882   2.171  1.00  0.00     0.135 C 
BRANCH  12  13
ATOM     13  C   UNL     1       5.785   2.988   2.491  1.00  0.00    -0.036 A 
ATOM     14  C   UNL     1       8.374   3.359   3.579  1.00  0.00     0.154 A 
ATOM     15  C   UNL     1       7.812   4.318   2.729  1.00  0.00     0.050 A 
ATOM     16  C   UNL     1       7.681   2.164   3.779  1.00  0.00     0.165 A 
ATOM     17  C   UNL     1       6.535   4.133   2.177  1.00  0.00     0.008 A 
ATOM     18  C   UNL     1       6.410   1.967   3.229  1.00  0.00     0.047 A 
ATOM     19  F   UNL     1       8.185   1.182   4.542  1.00  0.00    -0.203 F 
BRANCH  14  20
ATOM     20  O   UNL     1       9.568   3.724   4.145  1.00  0.00    -0.494 OA
ATOM     21  C   UNL     1       9.978   2.977   5.288  1.00  0.00     0.278 C 
ENDBRANCH  14  20
ENDBRANCH  12  13
ENDBRANCH   9  12
ENDBRANCH   6   8
ENDBRANCH   4   6
ENDBRANCH   3   4
ENDBRANCH   2   3
ENDBRANCH   1   2
BRANCH   1  22
ATOM     22  O   UNL     1       6.672   3.712   7.468  1.00  0.00    -0.374 OA
BRANCH  22  23
ATOM     23  C   UNL     1       5.519   3.071   8.002  1.00  0.00     0.202 C 
BRANCH  23  24
ATOM     24  C   UNL     1       5.107   3.394   9.437  1.00  0.00     0.261 C 
BRANCH  24  25
ATOM     25  O   UNL     1       4.740   4.776   9.585  1.00  0.00    -0.460 OA
BRANCH  25  26
ATOM     26  C   UNL     1       5.456   5.442  10.520  1.00  0.00     0.338 C 
ATOM     27  O   UNL     1       6.279   4.981  11.295  1.00  0.00    -0.246 OA
BRANCH  26  28
ATOM     28  C   UNL     1       5.266   6.892  10.357  1.00  0.00     0.060 A 
ATOM     29  C   UNL     1       6.417   7.679  10.220  1.00  0.00     0.016 A 
ATOM     30  C   UNL     1       4.001   7.478  10.429  1.00  0.00     0.016 A 
ATOM     31  C   UNL     1       6.314   9.064  10.224  1.00  0.00     0.010 A 
ATOM     32  C   UNL     1       3.900   8.871  10.451  1.00  0.00     0.010 A 
ATOM     33  C   UNL     1       5.060   9.664  10.397  1.00  0.00    -0.014 A 
BRANCH  33  34
ATOM     34  C   UNL     1       5.005  11.106  10.719  1.00  0.00     0.031 A 
ATOM     35  C   UNL     1       4.973  11.517  12.164  1.00  0.00     0.074 A 
ATOM     36  C   UNL     1       5.059  12.029   9.746  1.00  0.00     0.049 A 
ATOM     37  N   UNL     1       4.957  12.716  12.686  1.00  0.00    -0.248 NA
ATOM     38  C   UNL     1       4.964  10.428  13.156  1.00  0.00     0.031 C 
ATOM     39  C   UNL     1       5.146  11.741   8.316  1.00  0.00     0.029 A 
ATOM     40  N   UNL     1       5.058  13.399   9.818  1.00  0.00    -0.354 N 
ATOM     41  C   UNL     1       4.942  12.526  14.061  1.00  0.00     0.074 A 
ATOM     42  C   UNL     1       4.918  11.100  14.297  1.00  0.00     0.031 C 
ATOM     43  C   UNL     1       5.194  12.903   7.642  1.00  0.00     0.029 A 
ATOM     44  C   UNL     1       5.117  14.012   8.593  1.00  0.00     0.049 A 
ATOM     45  H   UNL     1       5.020  13.894  10.668  1.00  0.00     0.167 HD
ATOM     46  C   UNL     1       4.962  13.461  15.039  1.00  0.00     0.037 A 
ATOM     47  C   UNL     1       5.102  15.322   8.279  1.00  0.00     0.037 A 
ATOM     48  C   UNL     1       4.989  14.878  14.798  1.00  0.00     0.049 A 
ATOM     49  C   UNL     1       5.047  16.343   9.383  1.00  0.00     0.074 A 
ATOM     50  C   UNL     1       5.018  15.909  15.721  1.00  0.00     0.029 A 
ATOM     51  N   UNL     1       4.984  15.463  13.541  1.00  0.00    -0.354 N 
ATOM     52  N   UNL     1       5.042  16.158  10.681  1.00  0.00    -0.248 NA
ATOM     53  C   UNL     1       4.995  17.756   8.980  1.00  0.00     0.031 C 
ATOM     54  C   UNL     1       4.986  17.119  15.022  1.00  0.00     0.029 A 
ATOM     55  C   UNL     1       4.985  16.843  13.663  1.00  0.00     0.049 A 
ATOM     56  H   UNL     1       4.981  14.971  12.688  1.00  0.00     0.167 HD
ATOM     57  C   UNL     1       5.006  17.424  11.249  1.00  0.00     0.074 A 
ATOM     58  C   UNL     1       5.001  18.372  10.155  1.00  0.00     0.031 C 
ATOM     59  C   UNL     1       4.980  17.769  12.560  1.00  0.00     0.037 A 
BRANCH  46  60
ATOM     60  C   UNL     1       4.940  12.984  16.459  1.00  0.00     0.064 A 
ATOM     61  C   UNL     1       3.794  13.156  17.248  1.00  0.00     0.173 A 
ATOM     62  C   UNL     1       6.069  12.403  17.055  1.00  0.00     0.173 A 
ATOM     63  F   UNL     1       2.688  13.707  16.724  1.00  0.00    -0.203 F 
ATOM     64  C   UNL     1       3.783  12.776  18.587  1.00  0.00     0.198 A 
ATOM     65  C   UNL     1       6.047  12.002  18.388  1.00  0.00     0.198 A 
ATOM     66  F   UNL     1       7.184  12.202  16.337  1.00  0.00    -0.203 F 
ATOM     67  F   UNL     1       2.684  12.972  19.329  1.00  0.00    -0.200 F 
ATOM     68  C   UNL     1       4.907  12.196  19.155  1.00  0.00     0.200 A 
ATOM     69  F   UNL     1       7.126  11.420  18.930  1.00  0.00    -0.200 F 
ATOM     70  F   UNL     1       4.891  11.820  20.441  1.00  0.00    -0.200 F 
ENDBRANCH  46  60
BRANCH  47  71
ATOM     71  C   UNL     1       5.150  15.732   6.853  1.00  0.00     0.064 A 
ATOM     72  C   UNL     1       4.061  15.509   5.997  1.00  0.00     0.173 A 
ATOM     73  C   UNL     1       6.295  16.331   6.312  1.00  0.00     0.173 A 
ATOM     74  F   UNL     1       2.942  14.941   6.469  1.00  0.00    -0.203 F 
ATOM     75  C   UNL     1       4.124  15.851   4.648  1.00  0.00     0.198 A 
ATOM     76  C   UNL     1       6.349  16.692   4.967  1.00  0.00     0.198 A 
ATOM     77  F   UNL     1       7.352  16.584   7.097  1.00  0.00    -0.203 F 
ATOM     78  F   UNL     1       3.081  15.599   3.846  1.00  0.00    -0.200 F 
ATOM     79  C   UNL     1       5.267  16.445   4.135  1.00  0.00     0.200 A 
ATOM     80  F   UNL     1       7.446  17.286   4.479  1.00  0.00    -0.200 F 
ATOM     81  F   UNL     1       5.325  16.781   2.839  1.00  0.00    -0.200 F 
ENDBRANCH  47  71
BRANCH  59  82
ATOM     82  C   UNL     1       4.954  19.231  12.894  1.00  0.00     0.064 A 
ATOM     83  C   UNL     1       6.078  19.850  13.463  1.00  0.00     0.173 A 
ATOM     84  C   UNL     1       3.791  19.996  12.734  1.00  0.00     0.173 A 
ATOM     85  F   UNL     1       7.212  19.156  13.645  1.00  0.00    -0.203 F 
ATOM     86  C   UNL     1       6.032  21.178  13.874  1.00  0.00     0.198 A 
ATOM     87  C   UNL     1       3.756  21.332  13.123  1.00  0.00     0.198 A 
ATOM     88  F   UNL     1       2.695  19.451  12.186  1.00  0.00    -0.203 F 
ATOM     89  F   UNL     1       7.106  21.739  14.447  1.00  0.00    -0.200 F 
ATOM     90  C   UNL     1       4.872  21.919  13.701  1.00  0.00     0.200 A 
ATOM     91  F   UNL     1       2.642  22.053  12.937  1.00  0.00    -0.200 F 
ATOM     92  F   UNL     1       4.831  23.200  14.092  1.00  0.00    -0.200 F 
ENDBRANCH  59  82
ENDBRANCH  33  34
ENDBRANCH  26  28
ENDBRANCH  25  26
ENDBRANCH  24  25
ENDBRANCH  23  24
ENDBRANCH  22  23
ENDBRANCH   1  22
TORSDOF 18
