REMARK SMILES O=C(OCCOCCOC(=O)[C@H]1CC[C@H]2CCCC[C@@H]2[N@H+]1[C@@H]1CCCSC1)c1ccc(-c2c3nc(c(-c4c(F)c(F)c(F)c(F)c4F)c4ccc([nH]4)c(-c4c(F)c(F)c(F)c(F)c4F)c4nc(c(-c5c(F)c(F)c(F)c(F)c5F)c5ccc2[nH]5)C=C4)C=C3)cc1
REMARK SMILES IDX 5 1 4 2 3 3 2 4 1 5 28 6 29 7 90 8 30 9 89 10 31 11 32 12
REMARK SMILES IDX 33 13 83 14 34 15 88 16 82 17 84 18 35 19 87 20 81 21 80 22
REMARK SMILES IDX 36 24 68 25 48 26 67 27 49 28 52 29 66 30 85 31 50 32 51 33
REMARK SMILES IDX 65 35 86 36 53 37 37 38 38 39 46 40 39 41 40 42 44 43 47 44
REMARK SMILES IDX 41 45 42 46 45 47 43 48 69 49 70 50 78 51 71 52 72 53 76 54
REMARK SMILES IDX 79 55 73 56 74 57 77 58 75 59 54 60 55 61 63 62 56 63 57 64
REMARK SMILES IDX 61 65 64 66 58 67 59 68 62 69 60 70 6 71 7 72 8 73 9 74
REMARK SMILES IDX 10 75 11 76 12 77 13 78 21 79 14 80 20 81 15 83 19 84 16 85
REMARK SMILES IDX 18 86 17 87 22 88 23 89 27 90 24 91 26 92 25 93
REMARK H PARENT 84 23 52 34 21 82
REMARK Flexibility Score: inf
ROOT
ATOM      1  C   UNL     1       4.439  -1.232  -0.251  1.00  0.00     0.202 C 
ENDROOT
BRANCH   1   2
ATOM      2  C   UNL     1       4.214  -0.344   0.977  1.00  0.00     0.261 C 
BRANCH   2   3
ATOM      3  O   UNL     1       2.817  -0.073   1.146  1.00  0.00    -0.460 OA
BRANCH   3   4
ATOM      4  C   UNL     1       2.103   0.918   0.565  1.00  0.00     0.338 C 
ATOM      5  O   UNL     1       0.883   0.914   0.653  1.00  0.00    -0.246 OA
BRANCH   4   6
ATOM      6  C   UNL     1       2.762   2.061  -0.126  1.00  0.00     0.060 A 
ATOM      7  C   UNL     1       3.961   1.972  -0.829  1.00  0.00     0.016 A 
ATOM      8  C   UNL     1       2.097   3.293  -0.111  1.00  0.00     0.016 A 
ATOM      9  C   UNL     1       4.503   3.027  -1.506  1.00  0.00     0.010 A 
ATOM     10  C   UNL     1       2.640   4.390  -0.781  1.00  0.00     0.010 A 
ATOM     11  C   UNL     1       3.843   4.238  -1.476  1.00  0.00    -0.014 A 
BRANCH  11  12
ATOM     12  C   UNL     1       4.599   5.345  -2.042  1.00  0.00     0.031 A 
ATOM     13  C   UNL     1       5.373   6.186  -1.091  1.00  0.00     0.074 A 
ATOM     14  C   UNL     1       4.755   5.394  -3.373  1.00  0.00     0.049 A 
ATOM     15  N   UNL     1       6.043   7.277  -1.314  1.00  0.00    -0.248 NA
ATOM     16  C   UNL     1       5.412   5.723   0.310  1.00  0.00     0.031 C 
ATOM     17  C   UNL     1       4.208   4.419  -4.325  1.00  0.00     0.029 A 
ATOM     18  N   UNL     1       5.448   6.271  -4.151  1.00  0.00    -0.354 N 
ATOM     19  C   UNL     1       6.526   7.669  -0.076  1.00  0.00     0.074 A 
ATOM     20  C   UNL     1       6.105   6.686   0.893  1.00  0.00     0.031 C 
ATOM     21  C   UNL     1       4.583   4.765  -5.566  1.00  0.00     0.029 A 
ATOM     22  C   UNL     1       5.302   6.028  -5.492  1.00  0.00     0.049 A 
ATOM     23  H   UNL     1       5.997   7.003  -3.787  1.00  0.00     0.167 HD
ATOM     24  C   UNL     1       7.231   8.787   0.199  1.00  0.00     0.037 A 
ATOM     25  C   UNL     1       5.654   6.805  -6.529  1.00  0.00     0.037 A 
ATOM     26  C   UNL     1       7.607   9.716  -0.831  1.00  0.00     0.049 A 
ATOM     27  C   UNL     1       6.327   8.108  -6.195  1.00  0.00     0.074 A 
ATOM     28  C   UNL     1       8.236  10.938  -0.717  1.00  0.00     0.029 A 
ATOM     29  N   UNL     1       7.373   9.502  -2.188  1.00  0.00    -0.354 N 
ATOM     30  N   UNL     1       6.670   8.578  -5.016  1.00  0.00    -0.248 NA
ATOM     31  C   UNL     1       6.640   8.996  -7.314  1.00  0.00     0.031 C 
ATOM     32  C   UNL     1       8.331  11.487  -2.001  1.00  0.00     0.029 A 
ATOM     33  C   UNL     1       7.828  10.578  -2.924  1.00  0.00     0.049 A 
ATOM     34  H   UNL     1       6.946   8.700  -2.567  1.00  0.00     0.167 HD
ATOM     35  C   UNL     1       7.262   9.807  -5.248  1.00  0.00     0.074 A 
ATOM     36  C   UNL     1       7.235  10.003  -6.688  1.00  0.00     0.031 C 
ATOM     37  C   UNL     1       7.782  10.697  -4.364  1.00  0.00     0.037 A 
BRANCH  24  38
ATOM     38  C   UNL     1       7.487   9.088   1.645  1.00  0.00     0.064 A 
ATOM     39  C   UNL     1       8.345   8.310   2.439  1.00  0.00     0.173 A 
ATOM     40  C   UNL     1       6.780  10.125   2.273  1.00  0.00     0.173 A 
ATOM     41  F   UNL     1       9.014   7.279   1.901  1.00  0.00    -0.203 F 
ATOM     42  C   UNL     1       8.450   8.532   3.811  1.00  0.00     0.198 A 
ATOM     43  C   UNL     1       6.913  10.365   3.638  1.00  0.00     0.198 A 
ATOM     44  F   UNL     1       5.931  10.888   1.569  1.00  0.00    -0.203 F 
ATOM     45  F   UNL     1       9.210   7.722   4.563  1.00  0.00    -0.200 F 
ATOM     46  C   UNL     1       7.737   9.560   4.409  1.00  0.00     0.200 A 
ATOM     47  F   UNL     1       6.220  11.358   4.212  1.00  0.00    -0.200 F 
ATOM     48  F   UNL     1       7.825   9.760   5.731  1.00  0.00    -0.200 F 
ENDBRANCH  24  38
BRANCH  25  49
ATOM     49  C   UNL     1       5.297   6.405  -7.913  1.00  0.00     0.064 A 
ATOM     50  C   UNL     1       6.281   6.103  -8.861  1.00  0.00     0.173 A 
ATOM     51  C   UNL     1       3.954   6.280  -8.309  1.00  0.00     0.173 A 
ATOM     52  F   UNL     1       7.577   6.218  -8.540  1.00  0.00    -0.203 F 
ATOM     53  C   UNL     1       5.938   5.699 -10.152  1.00  0.00     0.198 A 
ATOM     54  C   UNL     1       3.612   5.846  -9.588  1.00  0.00     0.198 A 
ATOM     55  F   UNL     1       2.967   6.552  -7.442  1.00  0.00    -0.203 F 
ATOM     56  F   UNL     1       6.900   5.447 -11.050  1.00  0.00    -0.200 F 
ATOM     57  C   UNL     1       4.605   5.562 -10.511  1.00  0.00     0.200 A 
ATOM     58  F   UNL     1       2.322   5.697  -9.921  1.00  0.00    -0.200 F 
ATOM     59  F   UNL     1       4.278   5.162 -11.748  1.00  0.00    -0.200 F 
ENDBRANCH  25  49
BRANCH  37  60
ATOM     60  C   UNL     1       8.416  11.921  -4.945  1.00  0.00     0.064 A 
ATOM     61  C   UNL     1       7.651  12.964  -5.482  1.00  0.00     0.173 A 
ATOM     62  C   UNL     1       9.809  12.075  -4.889  1.00  0.00     0.173 A 
ATOM     63  F   UNL     1       6.317  12.849  -5.569  1.00  0.00    -0.203 F 
ATOM     64  C   UNL     1       8.263  14.117  -5.959  1.00  0.00     0.198 A 
ATOM     65  C   UNL     1      10.413  13.243  -5.334  1.00  0.00     0.198 A 
ATOM     66  F   UNL     1      10.577  11.102  -4.374  1.00  0.00    -0.203 F 
ATOM     67  F   UNL     1       7.520  15.088  -6.507  1.00  0.00    -0.200 F 
ATOM     68  C   UNL     1       9.641  14.261  -5.873  1.00  0.00     0.200 A 
ATOM     69  F   UNL     1      11.741  13.388  -5.232  1.00  0.00    -0.200 F 
ATOM     70  F   UNL     1      10.226  15.382  -6.314  1.00  0.00    -0.200 F 
ENDBRANCH  37  60
ENDBRANCH  11  12
ENDBRANCH   4   6
ENDBRANCH   3   4
ENDBRANCH   2   3
ENDBRANCH   1   2
BRANCH   1  71
ATOM     71  O   UNL     1       4.055  -0.720  -1.524  1.00  0.00    -0.374 OA
BRANCH  71  72
ATOM     72  C   UNL     1       2.771  -1.077  -2.033  1.00  0.00     0.202 C 
BRANCH  72  73
ATOM     73  C   UNL     1       2.913  -2.087  -3.177  1.00  0.00     0.261 C 
BRANCH  73  74
ATOM     74  O   UNL     1       3.291  -3.368  -2.656  1.00  0.00    -0.459 OA
BRANCH  74  75
ATOM     75  C   UNL     1       4.587  -3.511  -2.269  1.00  0.00     0.365 C 
ATOM     76  O   UNL     1       5.521  -2.840  -2.695  1.00  0.00    -0.245 OA
BRANCH  75  77
ATOM     77  C   UNL     1       4.761  -4.622  -1.224  1.00  0.00     0.295 C 
ATOM     78  C   UNL     1       5.745  -4.308  -0.070  1.00  0.00     0.078 C 
ATOM     79  N   UNL     1       3.508  -5.247  -0.733  1.00  0.00    -0.317 N 
ATOM     80  C   UNL     1       5.779  -5.411   1.004  1.00  0.00     0.016 C 
ATOM     81  C   UNL     1       3.791  -6.536  -0.100  1.00  0.00     0.188 C 
ATOM     82  H   UNL     1       2.982  -5.396  -1.594  1.00  0.00     0.349 HD
ATOM     83  C   UNL     1       5.256  -6.696   0.387  1.00  0.00     0.048 C 
ATOM     84  C   UNL     1       3.541  -7.663  -1.111  1.00  0.00     0.065 C 
ATOM     85  C   UNL     1       5.321  -7.935   1.266  1.00  0.00     0.010 C 
ATOM     86  C   UNL     1       3.722  -9.023  -0.434  1.00  0.00     0.006 C 
ATOM     87  C   UNL     1       5.016  -9.153   0.385  1.00  0.00     0.001 C 
BRANCH  79  88
ATOM     88  C   UNL     1       2.455  -4.422  -0.077  1.00  0.00     0.195 C 
ATOM     89  C   UNL     1       2.618  -4.120   1.431  1.00  0.00     0.067 C 
ATOM     90  C   UNL     1       1.070  -5.037  -0.395  1.00  0.00     0.134 C 
ATOM     91  C   UNL     1       1.521  -3.211   1.999  1.00  0.00     0.017 C 
ATOM     92  S   UNL     1      -0.337  -4.014   0.148  1.00  0.00    -0.156 SA
ATOM     93  C   UNL     1       0.127  -3.803   1.885  1.00  0.00     0.070 C 
ENDBRANCH  79  88
ENDBRANCH  75  77
ENDBRANCH  74  75
ENDBRANCH  73  74
ENDBRANCH  72  73
ENDBRANCH  71  72
ENDBRANCH   1  71
TORSDOF 15
