REMARK SMILES Cc1cc(=O)oc2cc(O[C@@H](C)C(=O)N[C@H](CC(C)C)C(=O)OCCOCCOC(=O)c3ccc(-c4c5nc(c(-c6c(F)c(F)c(F)c(F)c6F)c6ccc([nH]6)c(-c6c(F)c(F)c(F)c(F)c6F)c6nc(c(-c7c(F)c(F)c(F)c(F)c7F)c7ccc4[nH]7)C=C6)C=C5)cc3)ccc12
REMARK SMILES IDX 25 1 24 2 23 3 21 4 22 5 16 6 15 7 13 8 14 9 11 11 12 12
REMARK SMILES IDX 10 13 9 14 1 15 2 16 3 17 97 18 4 19 7 20 96 21 5 22 6 23
REMARK SMILES IDX 8 24 95 25 17 26 18 27 19 28 20 29 26 30 27 31 28 32 29 33
REMARK SMILES IDX 30 34 31 35 32 36 33 37 94 38 34 39 93 40 35 41 36 42 37 43
REMARK SMILES IDX 87 44 38 45 92 46 86 47 88 48 39 49 91 50 85 51 84 52 40 54
REMARK SMILES IDX 72 55 52 56 71 57 53 58 56 59 70 60 89 61 54 62 55 63 69 65
REMARK SMILES IDX 90 66 57 67 41 68 42 69 50 70 43 71 44 72 48 73 51 74 45 75
REMARK SMILES IDX 46 76 49 77 47 78 73 79 74 80 82 81 75 82 76 83 80 84 83 85
REMARK SMILES IDX 77 86 78 87 81 88 79 89 58 90 59 91 67 92 60 93 61 94 65 95
REMARK SMILES IDX 68 96 62 97 63 98 66 99 64 100
REMARK H PARENT 15 10 88 53 56 64
REMARK Flexibility Score: inf
ROOT
ATOM      1  C   UNL     1      -3.254   4.064  -0.367  1.00  0.00     0.202 C 
ENDROOT
BRANCH   1   2
ATOM      2  C   UNL     1      -2.793   2.690   0.348  1.00  0.00     0.261 C 
BRANCH   2   3
ATOM      3  O   UNL     1      -1.730   2.698   1.452  1.00  0.00    -0.462 OA
BRANCH   3   4
ATOM      4  C   UNL     1      -0.364   2.528   1.488  1.00  0.00     0.328 C 
ATOM      5  O   UNL     1       0.430   3.465   1.609  1.00  0.00    -0.250 OA
BRANCH   4   6
ATOM      6  C   UNL     1       0.263   1.261   1.984  1.00  0.00     0.192 C 
BRANCH   6   7
ATOM      7  N   UNL     1      -0.558   0.172   1.563  1.00  0.00    -0.339 N 
ATOM      8  C   UNL     1      -0.600  -0.177   0.223  1.00  0.00     0.261 C 
ATOM      9  O   UNL     1      -0.888  -1.363   0.002  1.00  0.00    -0.271 OA
ATOM     10  H   UNL     1      -1.093  -0.327   2.222  1.00  0.00     0.164 HD
BRANCH   8  11
ATOM     11  C   UNL     1      -0.389   0.886  -1.083  1.00  0.00     0.258 C 
ATOM     12  C   UNL     1       0.379   0.169  -2.195  1.00  0.00     0.064 C 
BRANCH  11  13
ATOM     13  O   UNL     1      -0.439   2.286  -1.415  1.00  0.00    -0.481 OA
BRANCH  13  14
ATOM     14  C   UNL     1       0.403   3.325  -1.170  1.00  0.00     0.124 A 
ATOM     15  C   UNL     1       1.758   7.750   1.357  1.00  0.00     0.045 C 
ATOM     16  C   UNL     1       2.506   6.634   0.664  1.00  0.00    -0.033 A 
ATOM     17  C   UNL     1       3.829   6.466   0.711  1.00  0.00     0.098 A 
ATOM     18  C   UNL     1       1.783   5.609  -0.073  1.00  0.00     0.021 A 
ATOM     19  C   UNL     1       4.510   5.345   0.029  1.00  0.00     0.336 A 
ATOM     20  C   UNL     1       2.404   4.623  -0.859  1.00  0.00     0.142 A 
ATOM     21  C   UNL     1       0.449   5.490   0.093  1.00  0.00     0.016 A 
ATOM     22  O   UNL     1       5.681   5.093   0.286  1.00  0.00    -0.246 OA
ATOM     23  O   UNL     1       3.807   4.637  -0.939  1.00  0.00    -0.423 OA
ATOM     24  C   UNL     1       1.730   3.505  -1.452  1.00  0.00     0.094 A 
ATOM     25  C   UNL     1      -0.181   4.406  -0.504  1.00  0.00     0.047 A 
ENDBRANCH  13  14
ENDBRANCH  11  13
ENDBRANCH   8  11
ENDBRANCH   6   7
BRANCH   6  26
ATOM     26  C   UNL     1       0.595   1.684   3.480  1.00  0.00     0.040 C 
BRANCH  26  27
ATOM     27  C   UNL     1       2.107   1.815   3.929  1.00  0.00    -0.015 C 
ATOM     28  C   UNL     1       3.191   1.445   2.913  1.00  0.00     0.007 C 
ATOM     29  C   UNL     1       2.472   3.230   4.454  1.00  0.00     0.007 C 
ENDBRANCH  26  27
ENDBRANCH   6  26
ENDBRANCH   4   6
ENDBRANCH   3   4
ENDBRANCH   2   3
ENDBRANCH   1   2
BRANCH   1  30
ATOM     30  O   UNL     1      -2.728   4.255  -1.695  1.00  0.00    -0.374 OA
BRANCH  30  31
ATOM     31  C   UNL     1      -2.194   5.476  -2.267  1.00  0.00     0.202 C 
BRANCH  31  32
ATOM     32  C   UNL     1      -1.802   6.804  -1.556  1.00  0.00     0.261 C 
BRANCH  32  33
ATOM     33  O   UNL     1      -2.122   6.879  -0.172  1.00  0.00    -0.460 OA
BRANCH  33  34
ATOM     34  C   UNL     1      -3.230   7.598   0.098  1.00  0.00     0.338 C 
ATOM     35  O   UNL     1      -3.875   8.272  -0.663  1.00  0.00    -0.246 OA
BRANCH  34  36
ATOM     36  C   UNL     1      -3.697   7.221   1.444  1.00  0.00     0.060 A 
ATOM     37  C   UNL     1      -5.013   6.766   1.491  1.00  0.00     0.016 A 
ATOM     38  C   UNL     1      -2.929   7.343   2.607  1.00  0.00     0.016 A 
ATOM     39  C   UNL     1      -5.621   6.565   2.716  1.00  0.00     0.010 A 
ATOM     40  C   UNL     1      -3.542   7.121   3.846  1.00  0.00     0.010 A 
ATOM     41  C   UNL     1      -4.912   6.807   3.901  1.00  0.00    -0.014 A 
BRANCH  41  42
ATOM     42  C   UNL     1      -5.715   6.925   5.143  1.00  0.00     0.031 A 
ATOM     43  C   UNL     1      -6.021   8.297   5.684  1.00  0.00     0.074 A 
ATOM     44  C   UNL     1      -6.332   5.843   5.651  1.00  0.00     0.049 A 
ATOM     45  N   UNL     1      -6.849   8.649   6.636  1.00  0.00    -0.248 NA
ATOM     46  C   UNL     1      -5.314   9.427   5.060  1.00  0.00     0.031 C 
ATOM     47  C   UNL     1      -6.164   4.474   5.164  1.00  0.00     0.029 A 
ATOM     48  N   UNL     1      -7.260   5.734   6.654  1.00  0.00    -0.354 N 
ATOM     49  C   UNL     1      -6.765  10.033   6.717  1.00  0.00     0.074 A 
ATOM     50  C   UNL     1      -5.772  10.456   5.756  1.00  0.00     0.031 C 
ATOM     51  C   UNL     1      -6.992   3.666   5.846  1.00  0.00     0.029 A 
ATOM     52  C   UNL     1      -7.718   4.453   6.840  1.00  0.00     0.049 A 
ATOM     53  H   UNL     1      -7.569   6.500   7.189  1.00  0.00     0.167 HD
ATOM     54  C   UNL     1      -7.470  10.879   7.506  1.00  0.00     0.037 A 
ATOM     55  C   UNL     1      -8.620   3.971   7.717  1.00  0.00     0.037 A 
ATOM     56  C   UNL     1      -8.463  10.457   8.457  1.00  0.00     0.049 A 
ATOM     57  C   UNL     1      -9.321   4.925   8.648  1.00  0.00     0.074 A 
ATOM     58  C   UNL     1      -9.227  11.235   9.309  1.00  0.00     0.029 A 
ATOM     59  N   UNL     1      -8.827   9.138   8.687  1.00  0.00    -0.354 N 
ATOM     60  N   UNL     1      -9.241   6.232   8.711  1.00  0.00    -0.248 NA
ATOM     61  C   UNL     1     -10.245   4.334   9.626  1.00  0.00     0.031 C 
ATOM     62  C   UNL     1     -10.007  10.383  10.097  1.00  0.00     0.029 A 
ATOM     63  C   UNL     1      -9.782   9.078   9.689  1.00  0.00     0.049 A 
ATOM     64  H   UNL     1      -8.461   8.359   8.208  1.00  0.00     0.167 HD
ATOM     65  C   UNL     1     -10.122   6.622   9.713  1.00  0.00     0.074 A 
ATOM     66  C   UNL     1     -10.740   5.413  10.215  1.00  0.00     0.031 C 
ATOM     67  C   UNL     1     -10.394   7.867  10.176  1.00  0.00     0.037 A 
BRANCH  54  68
ATOM     68  C   UNL     1      -7.168  12.347   7.395  1.00  0.00     0.064 A 
ATOM     69  C   UNL     1      -7.518  13.093   6.259  1.00  0.00     0.173 A 
ATOM     70  C   UNL     1      -6.548  13.023   8.457  1.00  0.00     0.173 A 
ATOM     71  F   UNL     1      -8.097  12.492   5.208  1.00  0.00    -0.203 F 
ATOM     72  C   UNL     1      -7.234  14.454   6.180  1.00  0.00     0.198 A 
ATOM     73  C   UNL     1      -6.298  14.391   8.388  1.00  0.00     0.198 A 
ATOM     74  F   UNL     1      -6.195  12.359   9.568  1.00  0.00    -0.203 F 
ATOM     75  F   UNL     1      -7.530  15.135   5.064  1.00  0.00    -0.200 F 
ATOM     76  C   UNL     1      -6.633  15.104   7.247  1.00  0.00     0.200 A 
ATOM     77  F   UNL     1      -5.729  15.019   9.427  1.00  0.00    -0.200 F 
ATOM     78  F   UNL     1      -6.369  16.415   7.173  1.00  0.00    -0.200 F 
ENDBRANCH  54  68
BRANCH  55  79
ATOM     79  C   UNL     1      -8.901   2.512   7.765  1.00  0.00     0.064 A 
ATOM     80  C   UNL     1     -10.161   1.998   7.428  1.00  0.00     0.173 A 
ATOM     81  C   UNL     1      -7.915   1.601   8.174  1.00  0.00     0.173 A 
ATOM     82  F   UNL     1     -11.145   2.828   7.053  1.00  0.00    -0.203 F 
ATOM     83  C   UNL     1     -10.429   0.633   7.520  1.00  0.00     0.198 A 
ATOM     84  C   UNL     1      -8.173   0.234   8.232  1.00  0.00     0.198 A 
ATOM     85  F   UNL     1      -6.692   2.040   8.509  1.00  0.00    -0.203 F 
ATOM     86  F   UNL     1     -11.657   0.174   7.242  1.00  0.00    -0.200 F 
ATOM     87  C   UNL     1      -9.433  -0.248   7.915  1.00  0.00     0.200 A 
ATOM     88  F   UNL     1      -7.203  -0.613   8.599  1.00  0.00    -0.200 F 
ATOM     89  F   UNL     1      -9.690  -1.560   7.999  1.00  0.00    -0.200 F 
ENDBRANCH  55  79
BRANCH  67  90
ATOM     90  C   UNL     1     -11.432   7.993  11.255  1.00  0.00     0.064 A 
ATOM     91  C   UNL     1     -11.203   7.532  12.560  1.00  0.00     0.173 A 
ATOM     92  C   UNL     1     -12.660   8.619  10.988  1.00  0.00     0.173 A 
ATOM     93  F   UNL     1     -10.051   6.916  12.866  1.00  0.00    -0.203 F 
ATOM     94  C   UNL     1     -12.177   7.662  13.547  1.00  0.00     0.198 A 
ATOM     95  C   UNL     1     -13.616   8.780  11.987  1.00  0.00     0.198 A 
ATOM     96  F   UNL     1     -12.928   9.088   9.760  1.00  0.00    -0.203 F 
ATOM     97  F   UNL     1     -11.958   7.161  14.771  1.00  0.00    -0.200 F 
ATOM     98  C   UNL     1     -13.379   8.293  13.262  1.00  0.00     0.200 A 
ATOM     99  F   UNL     1     -14.769   9.407  11.714  1.00  0.00    -0.200 F 
ATOM    100  F   UNL     1     -14.311   8.423  14.216  1.00  0.00    -0.200 F 
ENDBRANCH  67  90
ENDBRANCH  41  42
ENDBRANCH  34  36
ENDBRANCH  33  34
ENDBRANCH  32  33
ENDBRANCH  31  32
ENDBRANCH  30  31
ENDBRANCH   1  30
TORSDOF 20
