REMARK SMILES COc1ccc(OC)c(-c2cc(C(=O)OCCOCCOC(=O)c3ccc(-c4c5nc(c(-c6c(F)c(F)c(F)c(F)c6F)c6ccc([nH]6)c(-c6c(F)c(F)c(F)c(F)c6F)c6nc(c(-c7c(F)c(F)c(F)c(F)c7F)c7ccc4[nH]7)C=C6)C=C5)cc3)ccn2)c1
REMARK SMILES IDX 18 1 17 2 16 3 15 4 13 5 14 6 12 7 10 8 11 9 89 10 88 11
REMARK SMILES IDX 87 12 9 13 3 14 4 15 90 16 5 17 6 18 2 19 1 20 7 21 8 22
REMARK SMILES IDX 19 23 20 24 21 25 22 26 23 27 24 28 25 29 86 30 26 31 85 32
REMARK SMILES IDX 27 33 28 34 29 35 79 36 30 37 84 38 78 39 80 40 31 41 83 42
REMARK SMILES IDX 77 43 76 44 32 46 64 47 44 48 63 49 45 50 48 51 62 52 81 53
REMARK SMILES IDX 46 54 47 55 61 57 82 58 49 59 33 60 34 61 42 62 35 63 36 64
REMARK SMILES IDX 40 65 43 66 37 67 38 68 41 69 39 70 65 71 66 72 74 73 67 74
REMARK SMILES IDX 68 75 72 76 75 77 69 78 70 79 73 80 71 81 50 82 51 83 59 84
REMARK SMILES IDX 52 85 53 86 57 87 60 88 54 89 55 90 58 91 56 92
REMARK H PARENT 80 45 48 56
REMARK Flexibility Score: inf
ROOT
ATOM      1  O   UNL     1       9.253  -1.339  -5.380  1.00  0.00    -0.374 OA
ENDROOT
BRANCH   1   2
ATOM      2  C   UNL     1       8.754  -2.449  -4.634  1.00  0.00     0.202 C 
BRANCH   2   3
ATOM      3  C   UNL     1       8.270  -2.131  -3.216  1.00  0.00     0.261 C 
BRANCH   3   4
ATOM      4  O   UNL     1       7.155  -1.225  -3.246  1.00  0.00    -0.460 OA
BRANCH   4   5
ATOM      5  C   UNL     1       7.423   0.022  -2.792  1.00  0.00     0.338 C 
ATOM      6  O   UNL     1       8.442   0.390  -2.226  1.00  0.00    -0.246 OA
BRANCH   5   7
ATOM      7  C   UNL     1       6.351   0.964  -3.183  1.00  0.00     0.063 A 
ATOM      8  C   UNL     1       4.081   1.552  -3.682  1.00  0.00     0.075 A 
ATOM      9  C   UNL     1       5.027   0.570  -3.389  1.00  0.00     0.044 A 
ATOM     10  N   UNL     1       4.422   2.860  -3.784  1.00  0.00    -0.256 NA
ATOM     11  C   UNL     1       5.718   3.205  -3.637  1.00  0.00     0.112 A 
ATOM     12  C   UNL     1       6.710   2.303  -3.329  1.00  0.00     0.036 A 
BRANCH   8  13
ATOM     13  C   UNL     1       2.635   1.261  -3.707  1.00  0.00     0.046 A 
ATOM     14  C   UNL     1       0.738   0.369  -2.402  1.00  0.00     0.119 A 
ATOM     15  C   UNL     1      -0.099   0.559  -3.491  1.00  0.00     0.050 A 
ATOM     16  C   UNL     1       2.083   0.723  -2.512  1.00  0.00     0.060 A 
ATOM     17  C   UNL     1       0.408   1.097  -4.673  1.00  0.00     0.051 A 
ATOM     18  C   UNL     1       1.764   1.446  -4.800  1.00  0.00     0.128 A 
BRANCH  14  19
ATOM     19  O   UNL     1       0.155  -0.212  -1.311  1.00  0.00    -0.497 OA
ATOM     20  C   UNL     1       0.787   0.023  -0.058  1.00  0.00     0.278 C 
ENDBRANCH  14  19
BRANCH  18  21
ATOM     21  O   UNL     1       2.068   1.810  -6.086  1.00  0.00    -0.496 OA
ATOM     22  C   UNL     1       2.996   2.864  -6.285  1.00  0.00     0.278 C 
ENDBRANCH  18  21
ENDBRANCH   8  13
ENDBRANCH   5   7
ENDBRANCH   4   5
ENDBRANCH   3   4
ENDBRANCH   2   3
ENDBRANCH   1   2
BRANCH   1  23
ATOM     23  C   UNL     1       8.289  -0.529  -6.056  1.00  0.00     0.202 C 
BRANCH  23  24
ATOM     24  C   UNL     1       7.772  -1.078  -7.390  1.00  0.00     0.261 C 
BRANCH  24  25
ATOM     25  O   UNL     1       6.939  -2.236  -7.196  1.00  0.00    -0.460 OA
BRANCH  25  26
ATOM     26  C   UNL     1       7.471  -3.402  -7.630  1.00  0.00     0.338 C 
ATOM     27  O   UNL     1       8.518  -3.559  -8.240  1.00  0.00    -0.246 OA
BRANCH  26  28
ATOM     28  C   UNL     1       6.691  -4.537  -7.102  1.00  0.00     0.060 A 
ATOM     29  C   UNL     1       7.397  -5.558  -6.453  1.00  0.00     0.016 A 
ATOM     30  C   UNL     1       5.311  -4.641  -7.294  1.00  0.00     0.016 A 
ATOM     31  C   UNL     1       6.736  -6.712  -6.039  1.00  0.00     0.010 A 
ATOM     32  C   UNL     1       4.650  -5.804  -6.886  1.00  0.00     0.010 A 
ATOM     33  C   UNL     1       5.365  -6.859  -6.290  1.00  0.00    -0.014 A 
BRANCH  33  34
ATOM     34  C   UNL     1       4.719  -8.175  -6.065  1.00  0.00     0.031 A 
ATOM     35  C   UNL     1       4.513  -9.095  -7.237  1.00  0.00     0.074 A 
ATOM     36  C   UNL     1       4.352  -8.561  -4.830  1.00  0.00     0.049 A 
ATOM     37  N   UNL     1       3.942 -10.271  -7.281  1.00  0.00    -0.248 NA
ATOM     38  C   UNL     1       5.020  -8.623  -8.536  1.00  0.00     0.031 C 
ATOM     39  C   UNL     1       4.536  -7.776  -3.612  1.00  0.00     0.029 A 
ATOM     40  N   UNL     1       3.739  -9.712  -4.402  1.00  0.00    -0.354 N 
ATOM     41  C   UNL     1       4.018 -10.678  -8.607  1.00  0.00     0.074 A 
ATOM     42  C   UNL     1       4.662  -9.612  -9.342  1.00  0.00     0.031 C 
ATOM     43  C   UNL     1       4.033  -8.464  -2.572  1.00  0.00     0.029 A 
ATOM     44  C   UNL     1       3.466  -9.721  -3.057  1.00  0.00     0.049 A 
ATOM     45  H   UNL     1       3.517 -10.460  -5.003  1.00  0.00     0.167 HD
ATOM     46  C   UNL     1       3.597 -11.841  -9.158  1.00  0.00     0.037 A 
ATOM     47  C   UNL     1       2.812 -10.632  -2.310  1.00  0.00     0.037 A 
ATOM     48  C   UNL     1       2.957 -12.902  -8.426  1.00  0.00     0.049 A 
ATOM     49  C   UNL     1       2.291 -11.887  -2.963  1.00  0.00     0.074 A 
ATOM     50  C   UNL     1       2.505 -14.124  -8.894  1.00  0.00     0.029 A 
ATOM     51  N   UNL     1       2.675 -12.864  -7.069  1.00  0.00    -0.354 N 
ATOM     52  N   UNL     1       2.388 -12.274  -4.211  1.00  0.00    -0.248 NA
ATOM     53  C   UNL     1       1.571 -12.834  -2.098  1.00  0.00     0.031 C 
ATOM     54  C   UNL     1       1.908 -14.806  -7.829  1.00  0.00     0.029 A 
ATOM     55  C   UNL     1       2.034 -14.031  -6.687  1.00  0.00     0.049 A 
ATOM     56  H   UNL     1       2.896 -12.117  -6.466  1.00  0.00     0.167 HD
ATOM     57  C   UNL     1       1.771 -13.517  -4.276  1.00  0.00     0.074 A 
ATOM     58  C   UNL     1       1.315 -13.827  -2.938  1.00  0.00     0.031 C 
ATOM     59  C   UNL     1       1.598 -14.330  -5.347  1.00  0.00     0.037 A 
BRANCH  46  60
ATOM     60  C   UNL     1       3.800 -12.024 -10.633  1.00  0.00     0.064 A 
ATOM     61  C   UNL     1       5.072 -12.255 -11.178  1.00  0.00     0.173 A 
ATOM     62  C   UNL     1       2.702 -12.015 -11.507  1.00  0.00     0.173 A 
ATOM     63  F   UNL     1       6.154 -12.259 -10.385  1.00  0.00    -0.203 F 
ATOM     64  C   UNL     1       5.239 -12.453 -12.546  1.00  0.00     0.198 A 
ATOM     65  C   UNL     1       2.870 -12.240 -12.871  1.00  0.00     0.198 A 
ATOM     66  F   UNL     1       1.464 -11.802 -11.037  1.00  0.00    -0.203 F 
ATOM     67  F   UNL     1       6.468 -12.635 -13.049  1.00  0.00    -0.200 F 
ATOM     68  C   UNL     1       4.139 -12.453 -13.390  1.00  0.00     0.200 A 
ATOM     69  F   UNL     1       1.804 -12.251 -13.683  1.00  0.00    -0.200 F 
ATOM     70  F   UNL     1       4.301 -12.655 -14.705  1.00  0.00    -0.200 F 
ENDBRANCH  46  60
BRANCH  47  71
ATOM     71  C   UNL     1       2.592 -10.388  -0.860  1.00  0.00     0.064 A 
ATOM     72  C   UNL     1       3.221 -11.180   0.112  1.00  0.00     0.173 A 
ATOM     73  C   UNL     1       1.723  -9.380  -0.418  1.00  0.00     0.173 A 
ATOM     74  F   UNL     1       4.040 -12.173  -0.262  1.00  0.00    -0.203 F 
ATOM     75  C   UNL     1       2.970 -10.987   1.469  1.00  0.00     0.198 A 
ATOM     76  C   UNL     1       1.495  -9.170   0.940  1.00  0.00     0.198 A 
ATOM     77  F   UNL     1       1.095  -8.597  -1.307  1.00  0.00    -0.203 F 
ATOM     78  F   UNL     1       3.542 -11.792   2.374  1.00  0.00    -0.200 F 
ATOM     79  C   UNL     1       2.111  -9.980   1.882  1.00  0.00     0.200 A 
ATOM     80  F   UNL     1       0.674  -8.188   1.336  1.00  0.00    -0.200 F 
ATOM     81  F   UNL     1       1.869  -9.796   3.187  1.00  0.00    -0.200 F 
ENDBRANCH  47  71
BRANCH  59  82
ATOM     82  C   UNL     1       0.923 -15.650  -5.112  1.00  0.00     0.064 A 
ATOM     83  C   UNL     1      -0.452 -15.738  -4.850  1.00  0.00     0.173 A 
ATOM     84  C   UNL     1       1.655 -16.845  -5.193  1.00  0.00     0.173 A 
ATOM     85  F   UNL     1      -1.193 -14.624  -4.749  1.00  0.00    -0.203 F 
ATOM     86  C   UNL     1      -1.065 -16.973  -4.653  1.00  0.00     0.198 A 
ATOM     87  C   UNL     1       1.033 -18.079  -5.025  1.00  0.00     0.198 A 
ATOM     88  F   UNL     1       2.971 -16.816  -5.449  1.00  0.00    -0.203 F 
ATOM     89  F   UNL     1      -2.371 -17.031  -4.359  1.00  0.00    -0.200 F 
ATOM     90  C   UNL     1      -0.324 -18.142  -4.748  1.00  0.00     0.200 A 
ATOM     91  F   UNL     1       1.748 -19.208  -5.131  1.00  0.00    -0.200 F 
ATOM     92  F   UNL     1      -0.918 -19.330  -4.566  1.00  0.00    -0.200 F 
ENDBRANCH  59  82
ENDBRANCH  33  34
ENDBRANCH  26  28
ENDBRANCH  25  26
ENDBRANCH  24  25
ENDBRANCH  23  24
ENDBRANCH   1  23
TORSDOF 17
