REMARK SMILES O=C(CSc1nnc(-c2ccncc2)s1)Nc1cccc(C(=O)OCCOCCOC(=O)c2ccc(-c3c4nc(c(-c5c(F)c(F)c(F)c(F)c5F)c5ccc([nH]5)c(-c5c(F)c(F)c(F)c(F)c5F)c5nc(c(-c6c(F)c(F)c(F)c(F)c6F)c6ccc3[nH]6)C=C5)C=C4)cc2)c1
REMARK SMILES IDX 25 1 24 2 22 3 23 4 21 5 17 6 18 7 96 8 19 9 20 10 16 11
REMARK SMILES IDX 1 12 2 13 3 15 4 16 5 17 6 18 15 19 7 20 8 21 9 22 10 23
REMARK SMILES IDX 14 24 11 25 13 26 12 27 26 28 27 29 28 30 29 31 30 32 31 33
REMARK SMILES IDX 32 34 33 35 34 36 95 37 35 38 94 39 36 40 37 41 38 42 88 43
REMARK SMILES IDX 39 44 93 45 87 46 89 47 40 48 92 49 86 50 85 51 41 53 73 54
REMARK SMILES IDX 53 55 72 56 54 57 57 58 71 59 90 60 55 61 56 62 70 64 91 65
REMARK SMILES IDX 58 66 42 67 43 68 51 69 44 70 45 71 49 72 52 73 46 74 47 75
REMARK SMILES IDX 50 76 48 77 74 78 75 79 83 80 76 81 77 82 81 83 84 84 78 85
REMARK SMILES IDX 79 86 82 87 80 88 59 89 60 90 68 91 61 92 62 93 66 94 69 95
REMARK SMILES IDX 63 96 64 97 67 98 65 99
REMARK H PARENT 16 14 89 52 57 63
REMARK Flexibility Score: inf
ROOT
ATOM      1  C   UNL     1      -2.523  -3.761   2.715  1.00  0.00     0.261 C 
ENDROOT
BRANCH   1   2
ATOM      2  O   UNL     1      -1.419  -2.853   2.565  1.00  0.00    -0.460 OA
BRANCH   2   3
ATOM      3  C   UNL     1      -1.237  -1.977   3.582  1.00  0.00     0.338 C 
ATOM      4  O   UNL     1      -1.980  -1.794   4.535  1.00  0.00    -0.246 OA
BRANCH   3   5
ATOM      5  C   UNL     1       0.119  -1.389   3.493  1.00  0.00     0.062 A 
ATOM      6  C   UNL     1       2.005  -0.533   2.235  1.00  0.00     0.042 A 
ATOM      7  C   UNL     1       2.703  -0.364   3.440  1.00  0.00     0.026 A 
ATOM      8  C   UNL     1       0.716  -1.071   2.266  1.00  0.00     0.041 A 
ATOM      9  C   UNL     1       2.112  -0.687   4.663  1.00  0.00     0.003 A 
ATOM     10  C   UNL     1       0.814  -1.187   4.691  1.00  0.00     0.016 A 
BRANCH   6  11
ATOM     11  N   UNL     1       2.657  -0.109   1.058  1.00  0.00    -0.325 N 
ATOM     12  O   UNL     1       1.018  -0.436  -0.558  1.00  0.00    -0.274 OA
ATOM     13  C   UNL     1       2.127  -0.028  -0.217  1.00  0.00     0.234 C 
ATOM     14  H   UNL     1       3.599   0.162   1.156  1.00  0.00     0.169 HD
BRANCH  13  15
ATOM     15  C   UNL     1       3.080   0.511  -1.274  1.00  0.00     0.177 C 
BRANCH  15  16
ATOM     16  S   UNL     1       4.228   1.791  -0.697  1.00  0.00    -0.084 SA
BRANCH  16  17
ATOM     17  C   UNL     1       3.137   3.127  -0.415  1.00  0.00     0.175 A 
ATOM     18  N   UNL     1       1.981   2.974   0.187  1.00  0.00    -0.131 NA
ATOM     19  S   UNL     1       3.521   4.748  -0.814  1.00  0.00    -0.086 S 
ATOM     20  N   UNL     1       1.347   4.182   0.404  1.00  0.00    -0.137 NA
ATOM     21  C   UNL     1       2.034   5.202  -0.073  1.00  0.00     0.148 A 
BRANCH  21  22
ATOM     22  C   UNL     1       1.664   6.608   0.076  1.00  0.00     0.015 A 
ATOM     23  C   UNL     1       1.634   7.486  -1.010  1.00  0.00     0.031 A 
ATOM     24  C   UNL     1       1.317   7.094   1.341  1.00  0.00     0.031 A 
ATOM     25  C   UNL     1       1.280   8.805  -0.782  1.00  0.00     0.111 A 
ATOM     26  C   UNL     1       0.988   8.432   1.468  1.00  0.00     0.111 A 
ATOM     27  N   UNL     1       0.967   9.298   0.434  1.00  0.00    -0.265 NA
ENDBRANCH  21  22
ENDBRANCH  16  17
ENDBRANCH  15  16
ENDBRANCH  13  15
ENDBRANCH   6  11
ENDBRANCH   3   5
ENDBRANCH   2   3
ENDBRANCH   1   2
BRANCH   1  28
ATOM     28  C   UNL     1      -2.022  -5.198   2.893  1.00  0.00     0.202 C 
BRANCH  28  29
ATOM     29  O   UNL     1      -1.336  -5.467   4.116  1.00  0.00    -0.374 OA
BRANCH  29  30
ATOM     30  C   UNL     1       0.047  -5.112   4.167  1.00  0.00     0.202 C 
BRANCH  30  31
ATOM     31  C   UNL     1       1.018  -6.133   3.564  1.00  0.00     0.261 C 
BRANCH  31  32
ATOM     32  O   UNL     1       0.878  -6.221   2.134  1.00  0.00    -0.460 OA
BRANCH  32  33
ATOM     33  C   UNL     1       0.295  -7.354   1.684  1.00  0.00     0.338 C 
ATOM     34  O   UNL     1      -0.038  -8.332   2.339  1.00  0.00    -0.246 OA
BRANCH  33  35
ATOM     35  C   UNL     1      -0.054  -7.203   0.260  1.00  0.00     0.060 A 
ATOM     36  C   UNL     1      -1.372  -7.486  -0.121  1.00  0.00     0.016 A 
ATOM     37  C   UNL     1       0.902  -6.852  -0.696  1.00  0.00     0.016 A 
ATOM     38  C   UNL     1      -1.731  -7.459  -1.467  1.00  0.00     0.010 A 
ATOM     39  C   UNL     1       0.542  -6.834  -2.047  1.00  0.00     0.010 A 
ATOM     40  C   UNL     1      -0.767  -7.167  -2.441  1.00  0.00    -0.014 A 
BRANCH  40  41
ATOM     41  C   UNL     1      -1.091  -7.334  -3.878  1.00  0.00     0.031 A 
ATOM     42  C   UNL     1      -0.633  -8.577  -4.589  1.00  0.00     0.074 A 
ATOM     43  C   UNL     1      -1.784  -6.393  -4.540  1.00  0.00     0.049 A 
ATOM     44  N   UNL     1      -0.733  -8.896  -5.854  1.00  0.00    -0.248 NA
ATOM     45  C   UNL     1       0.033  -9.595  -3.761  1.00  0.00     0.031 C 
ATOM     46  C   UNL     1      -2.312  -5.164  -3.952  1.00  0.00     0.029 A 
ATOM     47  N   UNL     1      -2.150  -6.319  -5.862  1.00  0.00    -0.354 N 
ATOM     48  C   UNL     1      -0.134 -10.143  -5.976  1.00  0.00     0.074 A 
ATOM     49  C   UNL     1       0.350 -10.512  -4.663  1.00  0.00     0.031 C 
ATOM     50  C   UNL     1      -2.921  -4.448  -4.913  1.00  0.00     0.029 A 
ATOM     51  C   UNL     1      -2.793  -5.152  -6.188  1.00  0.00     0.049 A 
ATOM     52  H   UNL     1      -1.968  -7.036  -6.512  1.00  0.00     0.167 HD
ATOM     53  C   UNL     1      -0.007 -10.912  -7.084  1.00  0.00     0.037 A 
ATOM     54  C   UNL     1      -3.204  -4.692  -7.386  1.00  0.00     0.037 A 
ATOM     55  C   UNL     1      -0.495 -10.544  -8.387  1.00  0.00     0.049 A 
ATOM     56  C   UNL     1      -2.989  -5.537  -8.616  1.00  0.00     0.074 A 
ATOM     57  C   UNL     1      -0.439 -11.267  -9.566  1.00  0.00     0.029 A 
ATOM     58  N   UNL     1      -1.124  -9.343  -8.683  1.00  0.00    -0.354 N 
ATOM     59  N   UNL     1      -2.445  -6.725  -8.721  1.00  0.00    -0.248 NA
ATOM     60  C   UNL     1      -3.447  -4.974  -9.895  1.00  0.00     0.031 C 
ATOM     61  C   UNL     1      -0.986 -10.482 -10.586  1.00  0.00     0.029 A 
ATOM     62  C   UNL     1      -1.434  -9.293 -10.033  1.00  0.00     0.049 A 
ATOM     63  H   UNL     1      -1.320  -8.632  -8.031  1.00  0.00     0.167 HD
ATOM     64  C   UNL     1      -2.522  -7.064 -10.065  1.00  0.00     0.074 A 
ATOM     65  C   UNL     1      -3.173  -5.960 -10.738  1.00  0.00     0.031 C 
ATOM     66  C   UNL     1      -2.092  -8.191 -10.686  1.00  0.00     0.037 A 
BRANCH  53  67
ATOM     67  C   UNL     1       0.715 -12.220  -6.942  1.00  0.00     0.064 A 
ATOM     68  C   UNL     1       0.146 -13.309  -6.264  1.00  0.00     0.173 A 
ATOM     69  C   UNL     1       1.978 -12.399  -7.528  1.00  0.00     0.173 A 
ATOM     70  F   UNL     1      -1.053 -13.185  -5.675  1.00  0.00    -0.203 F 
ATOM     71  C   UNL     1       0.826 -14.520  -6.156  1.00  0.00     0.198 A 
ATOM     72  C   UNL     1       2.641 -13.620  -7.443  1.00  0.00     0.198 A 
ATOM     73  F   UNL     1       2.564 -11.392  -8.191  1.00  0.00    -0.203 F 
ATOM     74  F   UNL     1       0.282 -15.532  -5.466  1.00  0.00    -0.200 F 
ATOM     75  C   UNL     1       2.068 -14.677  -6.752  1.00  0.00     0.200 A 
ATOM     76  F   UNL     1       3.836 -13.774  -8.030  1.00  0.00    -0.200 F 
ATOM     77  F   UNL     1       2.717 -15.846  -6.655  1.00  0.00    -0.200 F 
ENDBRANCH  53  67
BRANCH  54  78
ATOM     78  C   UNL     1      -3.844  -3.355  -7.486  1.00  0.00     0.064 A 
ATOM     79  C   UNL     1      -5.200  -3.224  -7.815  1.00  0.00     0.173 A 
ATOM     80  C   UNL     1      -3.108  -2.179  -7.272  1.00  0.00     0.173 A 
ATOM     81  F   UNL     1      -5.938  -4.318  -8.058  1.00  0.00    -0.203 F 
ATOM     82  C   UNL     1      -5.792  -1.969  -7.941  1.00  0.00     0.198 A 
ATOM     83  C   UNL     1      -3.708  -0.926  -7.371  1.00  0.00     0.198 A 
ATOM     84  F   UNL     1      -1.806  -2.249  -6.962  1.00  0.00    -0.203 F 
ATOM     85  F   UNL     1      -7.078  -1.872  -8.305  1.00  0.00    -0.200 F 
ATOM     86  C   UNL     1      -5.048  -0.822  -7.713  1.00  0.00     0.200 A 
ATOM     87  F   UNL     1      -2.987   0.180  -7.143  1.00  0.00    -0.200 F 
ATOM     88  F   UNL     1      -5.618   0.385  -7.835  1.00  0.00    -0.200 F 
ENDBRANCH  54  78
BRANCH  66  89
ATOM     89  C   UNL     1      -2.346  -8.309 -12.162  1.00  0.00     0.064 A 
ATOM     90  C   UNL     1      -1.625  -7.553 -13.097  1.00  0.00     0.173 A 
ATOM     91  C   UNL     1      -3.284  -9.233 -12.647  1.00  0.00     0.173 A 
ATOM     92  F   UNL     1      -0.727  -6.646 -12.684  1.00  0.00    -0.203 F 
ATOM     93  C   UNL     1      -1.849  -7.703 -14.463  1.00  0.00     0.198 A 
ATOM     94  C   UNL     1      -3.484  -9.402 -14.014  1.00  0.00     0.198 A 
ATOM     95  F   UNL     1      -3.994  -9.987 -11.794  1.00  0.00    -0.203 F 
ATOM     96  F   UNL     1      -1.178  -6.941 -15.338  1.00  0.00    -0.200 F 
ATOM     97  C   UNL     1      -2.771  -8.633 -14.921  1.00  0.00     0.200 A 
ATOM     98  F   UNL     1      -4.364 -10.312 -14.454  1.00  0.00    -0.200 F 
ATOM     99  F   UNL     1      -2.976  -8.785 -16.236  1.00  0.00    -0.200 F 
ENDBRANCH  66  89
ENDBRANCH  40  41
ENDBRANCH  33  35
ENDBRANCH  32  33
ENDBRANCH  31  32
ENDBRANCH  30  31
ENDBRANCH  29  30
ENDBRANCH  28  29
ENDBRANCH   1  28
TORSDOF 19
