REMARK SMILES O=C(OCCOCCOC(=O)[C@@]1([NH2+]C2CC2)CC[C@@H]([N@@H+]2CC[N@@H+]3CCC[C@@H]3C2)C1)c1ccc(-c2c3nc(c(-c4c(F)c(F)c(F)c(F)c4F)c4ccc([nH]4)c(-c4c(F)c(F)c(F)c(F)c4F)c4nc(c(-c5c(F)c(F)c(F)c(F)c5F)c5ccc2[nH]5)C=C4)C=C3)cc1
REMARK SMILES IDX 6 1 5 2 4 3 3 4 2 5 1 6 30 7 31 8 92 9 32 10 91 11 33 12
REMARK SMILES IDX 34 13 35 14 85 15 36 16 90 17 84 18 86 19 37 20 89 21 83 22
REMARK SMILES IDX 82 23 38 25 70 26 50 27 69 28 51 29 54 30 68 31 87 32 52 33
REMARK SMILES IDX 53 34 67 36 88 37 55 38 39 39 40 40 48 41 41 42 42 43 46 44
REMARK SMILES IDX 49 45 43 46 44 47 47 48 45 49 71 50 72 51 80 52 73 53 74 54
REMARK SMILES IDX 78 55 81 56 75 57 76 58 79 59 77 60 56 61 57 62 65 63 58 64
REMARK SMILES IDX 59 65 63 66 66 67 60 68 61 69 64 70 62 71 7 72 8 73 9 74
REMARK SMILES IDX 10 75 11 76 12 77 17 78 29 79 18 80 19 81 13 82 14 85 15 86
REMARK SMILES IDX 16 87 20 88 21 89 28 90 22 92 27 93 23 94 26 95 24 96 25 98
REMARK H PARENT 86 24 54 35 13 83 13 84 20 91 23 97
REMARK Flexibility Score: inf
ROOT
ATOM      1  O   UNL     1       4.274  -1.314  -0.925  1.00  0.00    -0.374 OA
ENDROOT
BRANCH   1   2
ATOM      2  C   UNL     1       4.636  -1.268   0.459  1.00  0.00     0.202 C 
BRANCH   2   3
ATOM      3  C   UNL     1       4.266   0.005   1.232  1.00  0.00     0.261 C 
BRANCH   3   4
ATOM      4  O   UNL     1       2.851   0.253   1.184  1.00  0.00    -0.460 OA
BRANCH   4   5
ATOM      5  C   UNL     1       2.176   1.121   0.399  1.00  0.00     0.338 C 
ATOM      6  O   UNL     1       0.968   1.270   0.595  1.00  0.00    -0.246 OA
BRANCH   5   7
ATOM      7  C   UNL     1       2.798   1.889  -0.725  1.00  0.00     0.060 A 
ATOM      8  C   UNL     1       4.015   1.579  -1.336  1.00  0.00     0.016 A 
ATOM      9  C   UNL     1       2.051   2.951  -1.262  1.00  0.00     0.016 A 
ATOM     10  C   UNL     1       4.492   2.278  -2.427  1.00  0.00     0.010 A 
ATOM     11  C   UNL     1       2.526   3.680  -2.354  1.00  0.00     0.010 A 
ATOM     12  C   UNL     1       3.756   3.341  -2.923  1.00  0.00    -0.014 A 
BRANCH  12  13
ATOM     13  C   UNL     1       4.408   4.176  -3.931  1.00  0.00     0.031 A 
ATOM     14  C   UNL     1       5.166   5.367  -3.450  1.00  0.00     0.074 A 
ATOM     15  C   UNL     1       4.435   3.770  -5.208  1.00  0.00     0.049 A 
ATOM     16  N   UNL     1       5.759   6.303  -4.136  1.00  0.00    -0.248 NA
ATOM     17  C   UNL     1       5.291   5.511  -1.988  1.00  0.00     0.031 C 
ATOM     18  C   UNL     1       3.863   2.517  -5.704  1.00  0.00     0.029 A 
ATOM     19  N   UNL     1       4.977   4.358  -6.315  1.00  0.00    -0.354 N 
ATOM     20  C   UNL     1       6.292   7.167  -3.192  1.00  0.00     0.074 A 
ATOM     21  C   UNL     1       5.980   6.635  -1.886  1.00  0.00     0.031 C 
ATOM     22  C   UNL     1       4.069   2.441  -7.029  1.00  0.00     0.029 A 
ATOM     23  C   UNL     1       4.724   3.667  -7.471  1.00  0.00     0.049 A 
ATOM     24  H   UNL     1       5.496   5.194  -6.285  1.00  0.00     0.167 HD
ATOM     25  C   UNL     1       6.956   8.322  -3.418  1.00  0.00     0.037 A 
ATOM     26  C   UNL     1       4.952   4.032  -8.746  1.00  0.00     0.037 A 
ATOM     27  C   UNL     1       7.218   8.819  -4.739  1.00  0.00     0.049 A 
ATOM     28  C   UNL     1       5.603   5.367  -8.982  1.00  0.00     0.074 A 
ATOM     29  C   UNL     1       7.794  10.013  -5.122  1.00  0.00     0.029 A 
ATOM     30  N   UNL     1       6.903   8.125  -5.904  1.00  0.00    -0.354 N 
ATOM     31  N   UNL     1       6.025   6.245  -8.100  1.00  0.00    -0.248 NA
ATOM     32  C   UNL     1       5.794   5.778 -10.377  1.00  0.00     0.031 C 
ATOM     33  C   UNL     1       7.789  10.059  -6.522  1.00  0.00     0.029 A 
ATOM     34  C   UNL     1       7.255   8.873  -7.010  1.00  0.00     0.049 A 
ATOM     35  H   UNL     1       6.490   7.232  -5.934  1.00  0.00     0.167 HD
ATOM     36  C   UNL     1       6.540   7.306  -8.826  1.00  0.00     0.074 A 
ATOM     37  C   UNL     1       6.386   6.956 -10.227  1.00  0.00     0.031 C 
ATOM     38  C   UNL     1       7.087   8.466  -8.384  1.00  0.00     0.037 A 
BRANCH  25  39
ATOM     39  C   UNL     1       7.312   9.137  -2.213  1.00  0.00     0.064 A 
ATOM     40  C   UNL     1       8.320   8.747  -1.319  1.00  0.00     0.173 A 
ATOM     41  C   UNL     1       6.563  10.280  -1.899  1.00  0.00     0.173 A 
ATOM     42  F   UNL     1       9.038   7.637  -1.552  1.00  0.00    -0.203 F 
ATOM     43  C   UNL     1       8.538   9.450  -0.135  1.00  0.00     0.198 A 
ATOM     44  C   UNL     1       6.800  10.995  -0.728  1.00  0.00     0.198 A 
ATOM     45  F   UNL     1       5.576  10.686  -2.712  1.00  0.00    -0.203 F 
ATOM     46  F   UNL     1       9.455   9.017   0.741  1.00  0.00    -0.200 F 
ATOM     47  C   UNL     1       7.778  10.573   0.158  1.00  0.00     0.200 A 
ATOM     48  F   UNL     1       6.060  12.076  -0.444  1.00  0.00    -0.200 F 
ATOM     49  F   UNL     1       7.973  11.234   1.308  1.00  0.00    -0.200 F 
ENDBRANCH  25  39
BRANCH  26  50
ATOM     50  C   UNL     1       4.497   3.153  -9.852  1.00  0.00     0.064 A 
ATOM     51  C   UNL     1       5.408   2.479 -10.673  1.00  0.00     0.173 A 
ATOM     52  C   UNL     1       3.128   2.924 -10.073  1.00  0.00     0.173 A 
ATOM     53  F   UNL     1       6.725   2.677 -10.515  1.00  0.00    -0.203 F 
ATOM     54  C   UNL     1       4.970   1.607 -11.670  1.00  0.00     0.198 A 
ATOM     55  C   UNL     1       2.692   2.032 -11.051  1.00  0.00     0.198 A 
ATOM     56  F   UNL     1       2.212   3.543  -9.314  1.00  0.00    -0.203 F 
ATOM     57  F   UNL     1       5.862   0.988 -12.455  1.00  0.00    -0.200 F 
ATOM     58  C   UNL     1       3.614   1.376 -11.851  1.00  0.00     0.200 A 
ATOM     59  F   UNL     1       1.382   1.801 -11.208  1.00  0.00    -0.200 F 
ATOM     60  F   UNL     1       3.196   0.522 -12.795  1.00  0.00    -0.200 F 
ENDBRANCH  26  50
BRANCH  38  61
ATOM     61  C   UNL     1       7.582   9.420  -9.424  1.00  0.00     0.064 A 
ATOM     62  C   UNL     1       6.701  10.242 -10.137  1.00  0.00     0.173 A 
ATOM     63  C   UNL     1       8.960   9.579  -9.630  1.00  0.00     0.173 A 
ATOM     64  F   UNL     1       5.376  10.113  -9.976  1.00  0.00    -0.203 F 
ATOM     65  C   UNL     1       7.185  11.194 -11.028  1.00  0.00     0.198 A 
ATOM     66  C   UNL     1       9.440  10.547 -10.505  1.00  0.00     0.198 A 
ATOM     67  F   UNL     1       9.836   8.816  -8.959  1.00  0.00    -0.203 F 
ATOM     68  F   UNL     1       6.329  11.961 -11.717  1.00  0.00    -0.200 F 
ATOM     69  C   UNL     1       8.553  11.353 -11.203  1.00  0.00     0.200 A 
ATOM     70  F   UNL     1      10.761  10.708 -10.662  1.00  0.00    -0.200 F 
ATOM     71  F   UNL     1       9.017  12.285 -12.045  1.00  0.00    -0.200 F 
ENDBRANCH  38  61
ENDBRANCH  12  13
ENDBRANCH   5   7
ENDBRANCH   4   5
ENDBRANCH   3   4
ENDBRANCH   2   3
ENDBRANCH   1   2
BRANCH   1  72
ATOM     72  C   UNL     1       2.904  -1.614  -1.221  1.00  0.00     0.202 C 
BRANCH  72  73
ATOM     73  C   UNL     1       2.802  -2.875  -2.076  1.00  0.00     0.261 C 
BRANCH  73  74
ATOM     74  O   UNL     1       3.034  -3.996  -1.218  1.00  0.00    -0.459 OA
BRANCH  74  75
ATOM     75  C   UNL     1       4.336  -4.273  -0.984  1.00  0.00     0.368 C 
ATOM     76  O   UNL     1       5.221  -4.064  -1.815  1.00  0.00    -0.245 OA
BRANCH  75  77
ATOM     77  C   UNL     1       4.577  -4.928   0.390  1.00  0.00     0.200 C 
ATOM     78  C   UNL     1       4.493  -6.449   0.254  1.00  0.00     0.087 C 
ATOM     79  C   UNL     1       6.057  -4.647   0.798  1.00  0.00     0.146 C 
ATOM     80  C   UNL     1       5.524  -6.987   1.232  1.00  0.00     0.072 C 
ATOM     81  C   UNL     1       6.685  -5.984   1.218  1.00  0.00     0.191 C 
BRANCH  77  82
ATOM     82  N   UNL     1       3.787  -4.441   1.552  1.00  0.00    -0.329 N 
ATOM     83  H   UNL     1       4.283  -3.617   1.891  1.00  0.00     0.347 HD
ATOM     84  H   UNL     1       3.725  -5.296   2.104  1.00  0.00     0.347 HD
BRANCH  82  85
ATOM     85  C   UNL     1       2.383  -4.057   1.505  1.00  0.00     0.183 C 
ATOM     86  C   UNL     1       1.279  -4.758   0.774  1.00  0.00     0.071 C 
ATOM     87  C   UNL     1       1.411  -4.938   2.250  1.00  0.00     0.071 C 
ENDBRANCH  82  85
ENDBRANCH  77  82
BRANCH  81  88
ATOM     88  N   UNL     1       7.833  -6.414   0.413  1.00  0.00    -0.323 N 
ATOM     89  C   UNL     1       9.066  -5.657   0.725  1.00  0.00     0.324 C 
ATOM     90  C   UNL     1       7.627  -6.533  -1.035  1.00  0.00     0.328 C 
ATOM     91  H   UNL     1       7.953  -7.381   0.716  1.00  0.00     0.348 HD
ATOM     92  C   UNL     1      10.035  -5.401  -0.461  1.00  0.00     0.324 C 
ATOM     93  C   UNL     1       8.869  -7.149  -1.718  1.00  0.00     0.240 C 
ATOM     94  N   UNL     1      10.172  -6.532  -1.383  1.00  0.00    -0.323 N 
ATOM     95  C   UNL     1       8.769  -7.120  -3.241  1.00  0.00     0.077 C 
ATOM     96  C   UNL     1      10.843  -6.164  -2.634  1.00  0.00     0.263 C 
ATOM     97  H   UNL     1      10.747  -7.209  -0.881  1.00  0.00     0.348 HD
ATOM     98  C   UNL     1      10.220  -7.073  -3.678  1.00  0.00     0.068 C 
ENDBRANCH  81  88
ENDBRANCH  75  77
ENDBRANCH  74  75
ENDBRANCH  73  74
ENDBRANCH  72  73
ENDBRANCH   1  72
TORSDOF 17
