REMARK SMILES C[NH2+][C@@]1(C(=O)OCCOCCOC(=O)c2ccc(-c3c4nc(c(-c5c(F)c(F)c(F)c(F)c5F)c5ccc([nH]5)c(-c5c(F)c(F)c(F)c(F)c5F)c5nc(c(-c6c(F)c(F)c(F)c(F)c6F)c6ccc3[nH]6)C=C5)C=C4)cc2)CC[C@H](Sc2ccc(C)c(C)c2)C1
REMARK SMILES IDX 9 1 8 2 7 3 6 4 4 5 5 6 3 7 78 8 90 9 79 10 80 11 2 12 1 13
REMARK SMILES IDX 81 16 82 17 83 18 89 19 84 20 87 21 85 22 88 23 86 24 10 25
REMARK SMILES IDX 11 26 12 27 13 28 14 29 15 30 16 31 77 32 17 33 76 34 18 35
REMARK SMILES IDX 19 36 20 37 70 38 21 39 75 40 69 41 71 42 22 43 74 44 68 45
REMARK SMILES IDX 67 46 23 48 55 49 35 50 54 51 36 52 39 53 53 54 72 55 37 56
REMARK SMILES IDX 38 57 52 59 73 60 40 61 24 62 25 63 33 64 26 65 27 66 31 67
REMARK SMILES IDX 34 68 28 69 29 70 32 71 30 72 56 73 57 74 65 75 58 76 59 77
REMARK SMILES IDX 63 78 66 79 60 80 61 81 64 82 62 83 41 84 42 85 50 86 43 87
REMARK SMILES IDX 44 88 48 89 51 90 45 91 46 92 49 93 47 94
REMARK H PARENT 2 14 2 15 71 47 39 58
REMARK Flexibility Score: inf
ROOT
ATOM      1  O   UNL     1      -0.843  -2.671   4.367  1.00  0.00    -0.374 OA
ENDROOT
BRANCH   1   2
ATOM      2  C   UNL     1      -2.108  -2.007   4.364  1.00  0.00     0.202 C 
BRANCH   2   3
ATOM      3  C   UNL     1      -2.189  -0.737   3.520  1.00  0.00     0.261 C 
BRANCH   3   4
ATOM      4  O   UNL     1      -2.020  -1.055   2.130  1.00  0.00    -0.459 OA
BRANCH   4   5
ATOM      5  C   UNL     1      -1.145  -0.271   1.449  1.00  0.00     0.368 C 
ATOM      6  O   UNL     1      -0.657   0.757   1.909  1.00  0.00    -0.245 OA
BRANCH   5   7
ATOM      7  C   UNL     1      -0.878  -0.785  -0.007  1.00  0.00     0.195 C 
ATOM      8  C   UNL     1      -1.513   0.232  -0.959  1.00  0.00     0.082 C 
ATOM      9  C   UNL     1      -1.622  -2.083  -0.412  1.00  0.00     0.096 C 
ATOM     10  C   UNL     1      -2.997  -0.132  -0.908  1.00  0.00     0.022 C 
ATOM     11  C   UNL     1      -3.019  -1.664  -0.929  1.00  0.00     0.059 C 
BRANCH   7  12
ATOM     12  N   UNL     1       0.579  -1.024  -0.177  1.00  0.00    -0.335 N 
ATOM     13  C   UNL     1       1.397   0.179  -0.283  1.00  0.00     0.331 C 
ATOM     14  H   UNL     1       0.907  -1.559   0.627  1.00  0.00     0.347 HD
ATOM     15  H   UNL     1       0.684  -1.517  -1.064  1.00  0.00     0.347 HD
ENDBRANCH   7  12
BRANCH  11  16
ATOM     16  S   UNL     1      -4.287  -2.483   0.106  1.00  0.00    -0.122 SA
BRANCH  16  17
ATOM     17  C   UNL     1      -5.878  -2.024  -0.552  1.00  0.00     0.008 A 
ATOM     18  C   UNL     1      -6.120  -1.129  -1.585  1.00  0.00     0.015 A 
ATOM     19  C   UNL     1      -6.985  -2.608   0.080  1.00  0.00     0.018 A 
ATOM     20  C   UNL     1      -7.429  -0.747  -1.899  1.00  0.00     0.005 A 
ATOM     21  C   UNL     1      -8.309  -2.276  -0.251  1.00  0.00    -0.047 A 
ATOM     22  C   UNL     1      -8.532  -1.291  -1.222  1.00  0.00    -0.048 A 
ATOM     23  C   UNL     1      -9.440  -2.981   0.445  1.00  0.00     0.044 C 
ATOM     24  C   UNL     1      -9.902  -0.773  -1.561  1.00  0.00     0.044 C 
ENDBRANCH  16  17
ENDBRANCH  11  16
ENDBRANCH   5   7
ENDBRANCH   4   5
ENDBRANCH   3   4
ENDBRANCH   2   3
ENDBRANCH   1   2
BRANCH   1  25
ATOM     25  C   UNL     1      -0.502  -3.423   3.201  1.00  0.00     0.202 C 
BRANCH  25  26
ATOM     26  C   UNL     1      -1.167  -4.801   3.070  1.00  0.00     0.261 C 
BRANCH  26  27
ATOM     27  O   UNL     1      -2.602  -4.723   2.975  1.00  0.00    -0.460 OA
BRANCH  27  28
ATOM     28  C   UNL     1      -3.273  -5.191   4.053  1.00  0.00     0.338 C 
ATOM     29  O   UNL     1      -2.804  -5.748   5.037  1.00  0.00    -0.246 OA
BRANCH  28  30
ATOM     30  C   UNL     1      -4.693  -4.802   3.984  1.00  0.00     0.060 A 
ATOM     31  C   UNL     1      -5.229  -4.079   5.059  1.00  0.00     0.016 A 
ATOM     32  C   UNL     1      -5.512  -5.213   2.934  1.00  0.00     0.016 A 
ATOM     33  C   UNL     1      -6.593  -3.788   5.103  1.00  0.00     0.010 A 
ATOM     34  C   UNL     1      -6.883  -4.936   2.992  1.00  0.00     0.010 A 
ATOM     35  C   UNL     1      -7.439  -4.239   4.082  1.00  0.00    -0.014 A 
BRANCH  35  36
ATOM     36  C   UNL     1      -8.915  -4.116   4.221  1.00  0.00     0.031 A 
ATOM     37  C   UNL     1      -9.723  -5.354   4.508  1.00  0.00     0.074 A 
ATOM     38  C   UNL     1      -9.541  -2.932   4.088  1.00  0.00     0.049 A 
ATOM     39  N   UNL     1     -11.022  -5.503   4.588  1.00  0.00    -0.248 NA
ATOM     40  C   UNL     1      -8.962  -6.595   4.718  1.00  0.00     0.031 C 
ATOM     41  C   UNL     1      -8.890  -1.653   3.809  1.00  0.00     0.029 A 
ATOM     42  N   UNL     1     -10.881  -2.622   4.136  1.00  0.00    -0.354 N 
ATOM     43  C   UNL     1     -11.230  -6.850   4.853  1.00  0.00     0.074 A 
ATOM     44  C   UNL     1      -9.931  -7.486   4.865  1.00  0.00     0.031 C 
ATOM     45  C   UNL     1      -9.832  -0.701   3.686  1.00  0.00     0.029 A 
ATOM     46  C   UNL     1     -11.153  -1.305   3.856  1.00  0.00     0.049 A 
ATOM     47  H   UNL     1     -11.579  -3.283   4.351  1.00  0.00     0.167 HD
ATOM     48  C   UNL     1     -12.395  -7.499   5.092  1.00  0.00     0.037 A 
ATOM     49  C   UNL     1     -12.333  -0.667   3.725  1.00  0.00     0.037 A 
ATOM     50  C   UNL     1     -13.689  -6.873   5.108  1.00  0.00     0.049 A 
ATOM     51  C   UNL     1     -13.621  -1.420   3.940  1.00  0.00     0.074 A 
ATOM     52  C   UNL     1     -14.919  -7.441   5.393  1.00  0.00     0.029 A 
ATOM     53  N   UNL     1     -13.921  -5.537   4.825  1.00  0.00    -0.354 N 
ATOM     54  N   UNL     1     -13.804  -2.683   4.235  1.00  0.00    -0.248 NA
ATOM     55  C   UNL     1     -14.870  -0.651   3.811  1.00  0.00     0.031 C 
ATOM     56  C   UNL     1     -15.901  -6.456   5.243  1.00  0.00     0.029 A 
ATOM     57  C   UNL     1     -15.278  -5.266   4.908  1.00  0.00     0.049 A 
ATOM     58  H   UNL     1     -13.226  -4.878   4.598  1.00  0.00     0.167 HD
ATOM     59  C   UNL     1     -15.177  -2.852   4.366  1.00  0.00     0.074 A 
ATOM     60  C   UNL     1     -15.783  -1.562   4.116  1.00  0.00     0.031 C 
ATOM     61  C   UNL     1     -15.871  -3.975   4.674  1.00  0.00     0.037 A 
BRANCH  48  62
ATOM     62  C   UNL     1     -12.317  -8.972   5.362  1.00  0.00     0.064 A 
ATOM     63  C   UNL     1     -11.788  -9.471   6.562  1.00  0.00     0.173 A 
ATOM     64  C   UNL     1     -12.798  -9.895   4.421  1.00  0.00     0.173 A 
ATOM     65  F   UNL     1     -11.303  -8.628   7.487  1.00  0.00    -0.203 F 
ATOM     66  C   UNL     1     -11.716 -10.841   6.798  1.00  0.00     0.198 A 
ATOM     67  C   UNL     1     -12.751 -11.263   4.673  1.00  0.00     0.198 A 
ATOM     68  F   UNL     1     -13.318  -9.469   3.260  1.00  0.00    -0.203 F 
ATOM     69  F   UNL     1     -11.162 -11.295   7.930  1.00  0.00    -0.200 F 
ATOM     70  C   UNL     1     -12.203 -11.735   5.856  1.00  0.00     0.200 A 
ATOM     71  F   UNL     1     -13.232 -12.126   3.768  1.00  0.00    -0.200 F 
ATOM     72  F   UNL     1     -12.137 -13.054   6.087  1.00  0.00    -0.200 F 
ENDBRANCH  48  62
BRANCH  49  73
ATOM     73  C   UNL     1     -12.361   0.773   3.361  1.00  0.00     0.064 A 
ATOM     74  C   UNL     1     -12.750   1.747   4.292  1.00  0.00     0.173 A 
ATOM     75  C   UNL     1     -12.036   1.200   2.066  1.00  0.00     0.173 A 
ATOM     76  F   UNL     1     -13.102   1.382   5.534  1.00  0.00    -0.203 F 
ATOM     77  C   UNL     1     -12.832   3.091   3.935  1.00  0.00     0.198 A 
ATOM     78  C   UNL     1     -12.094   2.547   1.716  1.00  0.00     0.198 A 
ATOM     79  F   UNL     1     -11.668   0.305   1.137  1.00  0.00    -0.203 F 
ATOM     80  F   UNL     1     -13.255   3.995   4.829  1.00  0.00    -0.200 F 
ATOM     81  C   UNL     1     -12.499   3.491   2.649  1.00  0.00     0.200 A 
ATOM     82  F   UNL     1     -11.771   2.929   0.474  1.00  0.00    -0.200 F 
ATOM     83  F   UNL     1     -12.583   4.783   2.304  1.00  0.00    -0.200 F 
ENDBRANCH  49  73
BRANCH  61  84
ATOM     84  C   UNL     1     -17.361  -3.856   4.811  1.00  0.00     0.064 A 
ATOM     85  C   UNL     1     -18.196  -3.707   3.695  1.00  0.00     0.173 A 
ATOM     86  C   UNL     1     -17.964  -3.946   6.076  1.00  0.00     0.173 A 
ATOM     87  F   UNL     1     -17.667  -3.602   2.466  1.00  0.00    -0.203 F 
ATOM     88  C   UNL     1     -19.579  -3.631   3.841  1.00  0.00     0.198 A 
ATOM     89  C   UNL     1     -19.348  -3.896   6.216  1.00  0.00     0.198 A 
ATOM     90  F   UNL     1     -17.210  -4.096   7.175  1.00  0.00    -0.203 F 
ATOM     91  F   UNL     1     -20.355  -3.449   2.764  1.00  0.00    -0.200 F 
ATOM     92  C   UNL     1     -20.154  -3.734   5.099  1.00  0.00     0.200 A 
ATOM     93  F   UNL     1     -19.902  -4.008   7.431  1.00  0.00    -0.200 F 
ATOM     94  F   UNL     1     -21.485  -3.670   5.237  1.00  0.00    -0.200 F 
ENDBRANCH  61  84
ENDBRANCH  35  36
ENDBRANCH  28  30
ENDBRANCH  27  28
ENDBRANCH  26  27
ENDBRANCH  25  26
ENDBRANCH   1  25
TORSDOF 17
