REMARK SMILES CCOC(=O)c1ccc(NC(=O)[C@H]2CC=CC[C@@]2(C)C(=O)OCCOCCOC(=O)c2ccc(-c3c4nc(c(-c5c(F)c(F)c(F)c(F)c5F)c5ccc([nH]5)c(-c5c(F)c(F)c(F)c(F)c5F)c5nc(c(-c6c(F)c(F)c(F)c(F)c6F)c6ccc3[nH]6)C=C5)C=C4)cc2)cc1
REMARK SMILES IDX 23 1 22 2 20 3 21 4 18 5 13 6 14 7 15 8 17 9 19 10 16 11
REMARK SMILES IDX 11 12 10 13 12 15 9 16 6 17 7 18 95 19 8 20 94 21 4 22 5 23
REMARK SMILES IDX 3 24 2 25 1 26 24 27 25 28 26 29 27 30 28 31 29 32 30 33
REMARK SMILES IDX 31 34 32 35 93 36 33 37 92 38 34 39 35 40 36 41 86 42 37 43
REMARK SMILES IDX 91 44 85 45 87 46 38 47 90 48 84 49 83 50 39 52 71 53 51 54
REMARK SMILES IDX 70 55 52 56 55 57 69 58 88 59 53 60 54 61 68 63 89 64 56 65
REMARK SMILES IDX 40 66 41 67 49 68 42 69 43 70 47 71 50 72 44 73 45 74 48 75
REMARK SMILES IDX 46 76 72 77 73 78 81 79 74 80 75 81 79 82 82 83 76 84 77 85
REMARK SMILES IDX 80 86 78 87 57 88 58 89 66 90 59 91 60 92 64 93 67 94 61 95
REMARK SMILES IDX 62 96 65 97 63 98
REMARK H PARENT 10 14 87 51 55 62
REMARK Flexibility Score: inf
ROOT
ATOM      1  C   UNL     1       2.755  -7.336   0.586  1.00  0.00     0.261 C 
ENDROOT
BRANCH   1   2
ATOM      2  O   UNL     1       3.924  -7.132   1.400  1.00  0.00    -0.463 OA
BRANCH   2   3
ATOM      3  C   UNL     1       4.711  -6.110   0.995  1.00  0.00     0.313 C 
ATOM      4  O   UNL     1       4.322  -5.206   0.284  1.00  0.00    -0.252 OA
BRANCH   3   5
ATOM      5  C   UNL     1       6.155  -6.234   1.373  1.00  0.00     0.080 C 
ATOM      6  C   UNL     1       6.739  -7.374   0.499  1.00  0.00     0.100 C 
ATOM      7  C   UNL     1       8.270  -7.402   0.485  1.00  0.00     0.041 C 
ATOM      8  C   UNL     1       8.870  -6.064   0.228  1.00  0.00    -0.030 C 
ATOM      9  C   UNL     1       6.887  -4.864   1.178  1.00  0.00     0.046 C 
ATOM     10  C   UNL     1       6.211  -6.550   2.889  1.00  0.00     0.025 C 
ATOM     11  C   UNL     1       8.245  -4.925   0.545  1.00  0.00    -0.030 C 
BRANCH   6  12
ATOM     12  C   UNL     1       6.186  -7.850  -0.878  1.00  0.00     0.228 C 
ATOM     13  N   UNL     1       5.512  -7.221  -1.870  1.00  0.00    -0.326 N 
ATOM     14  H   UNL     1       5.253  -7.860  -2.574  1.00  0.00     0.169 HD
ATOM     15  O   UNL     1       6.324  -9.071  -1.107  1.00  0.00    -0.274 OA
BRANCH  13  16
ATOM     16  C   UNL     1       5.074  -5.927  -2.189  1.00  0.00     0.041 A 
ATOM     17  C   UNL     1       3.805  -3.413  -2.374  1.00  0.00     0.060 A 
ATOM     18  C   UNL     1       5.183  -3.508  -2.117  1.00  0.00     0.018 A 
ATOM     19  C   UNL     1       3.103  -4.572  -2.705  1.00  0.00     0.018 A 
ATOM     20  C   UNL     1       5.815  -4.766  -2.018  1.00  0.00     0.027 A 
ATOM     21  C   UNL     1       3.750  -5.816  -2.659  1.00  0.00     0.027 A 
BRANCH  17  22
ATOM     22  C   UNL     1       3.130  -2.086  -2.269  1.00  0.00     0.338 C 
ATOM     23  O   UNL     1       3.697  -1.029  -2.498  1.00  0.00    -0.246 OA
BRANCH  22  24
ATOM     24  O   UNL     1       1.846  -2.225  -1.840  1.00  0.00    -0.462 OA
BRANCH  24  25
ATOM     25  C   UNL     1       1.039  -1.030  -1.828  1.00  0.00     0.230 C 
ATOM     26  C   UNL     1       1.246  -0.170  -0.588  1.00  0.00     0.049 C 
ENDBRANCH  24  25
ENDBRANCH  22  24
ENDBRANCH  17  22
ENDBRANCH  13  16
ENDBRANCH   6  12
ENDBRANCH   3   5
ENDBRANCH   2   3
ENDBRANCH   1   2
BRANCH   1  27
ATOM     27  C   UNL     1       1.544  -6.451   0.902  1.00  0.00     0.202 C 
BRANCH  27  28
ATOM     28  O   UNL     1       1.569  -5.100   0.427  1.00  0.00    -0.374 OA
BRANCH  28  29
ATOM     29  C   UNL     1       2.229  -4.148   1.275  1.00  0.00     0.202 C 
BRANCH  29  30
ATOM     30  C   UNL     1       1.357  -2.960   1.634  1.00  0.00     0.261 C 
BRANCH  30  31
ATOM     31  O   UNL     1       0.297  -3.401   2.463  1.00  0.00    -0.460 OA
BRANCH  31  32
ATOM     32  C   UNL     1      -0.747  -3.835   1.725  1.00  0.00     0.338 C 
ATOM     33  O   UNL     1      -1.195  -3.334   0.709  1.00  0.00    -0.246 OA
BRANCH  32  34
ATOM     34  C   UNL     1      -1.163  -5.136   2.269  1.00  0.00     0.060 A 
ATOM     35  C   UNL     1      -1.894  -5.976   1.424  1.00  0.00     0.016 A 
ATOM     36  C   UNL     1      -0.829  -5.531   3.575  1.00  0.00     0.016 A 
ATOM     37  C   UNL     1      -2.438  -7.141   1.934  1.00  0.00     0.010 A 
ATOM     38  C   UNL     1      -1.361  -6.703   4.087  1.00  0.00     0.010 A 
ATOM     39  C   UNL     1      -2.254  -7.432   3.292  1.00  0.00    -0.014 A 
BRANCH  39  40
ATOM     40  C   UNL     1      -3.315  -8.194   3.966  1.00  0.00     0.031 A 
ATOM     41  C   UNL     1      -4.464  -7.399   4.524  1.00  0.00     0.074 A 
ATOM     42  C   UNL     1      -3.263  -9.530   4.020  1.00  0.00     0.049 A 
ATOM     43  N   UNL     1      -5.546  -7.809   5.129  1.00  0.00    -0.248 NA
ATOM     44  C   UNL     1      -4.381  -5.931   4.385  1.00  0.00     0.031 C 
ATOM     45  C   UNL     1      -2.187 -10.358   3.481  1.00  0.00     0.029 A 
ATOM     46  N   UNL     1      -4.149 -10.418   4.556  1.00  0.00    -0.354 N 
ATOM     47  C   UNL     1      -6.261  -6.656   5.432  1.00  0.00     0.074 A 
ATOM     48  C   UNL     1      -5.480  -5.527   4.995  1.00  0.00     0.031 C 
ATOM     49  C   UNL     1      -2.478 -11.649   3.718  1.00  0.00     0.029 A 
ATOM     50  C   UNL     1      -3.751 -11.723   4.433  1.00  0.00     0.049 A 
ATOM     51  H   UNL     1      -4.992 -10.149   4.987  1.00  0.00     0.167 HD
ATOM     52  C   UNL     1      -7.479  -6.554   6.008  1.00  0.00     0.037 A 
ATOM     53  C   UNL     1      -4.366 -12.839   4.859  1.00  0.00     0.037 A 
ATOM     54  C   UNL     1      -8.231  -7.695   6.444  1.00  0.00     0.049 A 
ATOM     55  C   UNL     1      -5.711 -12.699   5.522  1.00  0.00     0.074 A 
ATOM     56  C   UNL     1      -9.464  -7.739   7.062  1.00  0.00     0.029 A 
ATOM     57  N   UNL     1      -7.798  -9.007   6.301  1.00  0.00    -0.354 N 
ATOM     58  N   UNL     1      -6.397 -11.611   5.788  1.00  0.00    -0.248 NA
ATOM     59  C   UNL     1      -6.377 -13.943   5.924  1.00  0.00     0.031 C 
ATOM     60  C   UNL     1      -9.762  -9.081   7.327  1.00  0.00     0.029 A 
ATOM     61  C   UNL     1      -8.738  -9.872   6.827  1.00  0.00     0.049 A 
ATOM     62  H   UNL     1      -6.947  -9.280   5.888  1.00  0.00     0.167 HD
ATOM     63  C   UNL     1      -7.588 -12.038   6.359  1.00  0.00     0.074 A 
ATOM     64  C   UNL     1      -7.532 -13.487   6.386  1.00  0.00     0.031 C 
ATOM     65  C   UNL     1      -8.636 -11.309   6.820  1.00  0.00     0.037 A 
BRANCH  52  66
ATOM     66  C   UNL     1      -8.030  -5.174   6.213  1.00  0.00     0.064 A 
ATOM     67  C   UNL     1      -8.446  -4.377   5.134  1.00  0.00     0.173 A 
ATOM     68  C   UNL     1      -8.118  -4.627   7.501  1.00  0.00     0.173 A 
ATOM     69  F   UNL     1      -8.352  -4.839   3.877  1.00  0.00    -0.203 F 
ATOM     70  C   UNL     1      -8.904  -3.076   5.336  1.00  0.00     0.198 A 
ATOM     71  C   UNL     1      -8.603  -3.337   7.702  1.00  0.00     0.198 A 
ATOM     72  F   UNL     1      -7.721  -5.340   8.566  1.00  0.00    -0.203 F 
ATOM     73  F   UNL     1      -9.239  -2.314   4.285  1.00  0.00    -0.200 F 
ATOM     74  C   UNL     1      -8.988  -2.560   6.620  1.00  0.00     0.200 A 
ATOM     75  F   UNL     1      -8.685  -2.840   8.944  1.00  0.00    -0.200 F 
ATOM     76  F   UNL     1      -9.427  -1.309   6.813  1.00  0.00    -0.200 F 
ENDBRANCH  52  66
BRANCH  53  77
ATOM     77  C   UNL     1      -3.732 -14.162   4.638  1.00  0.00     0.064 A 
ATOM     78  C   UNL     1      -4.270 -15.080   3.728  1.00  0.00     0.173 A 
ATOM     79  C   UNL     1      -2.564 -14.529   5.323  1.00  0.00     0.173 A 
ATOM     80  F   UNL     1      -5.392 -14.779   3.058  1.00  0.00    -0.203 F 
ATOM     81  C   UNL     1      -3.677 -16.325   3.526  1.00  0.00     0.198 A 
ATOM     82  C   UNL     1      -1.957 -15.762   5.101  1.00  0.00     0.198 A 
ATOM     83  F   UNL     1      -2.003 -13.680   6.197  1.00  0.00    -0.203 F 
ATOM     84  F   UNL     1      -4.235 -17.200   2.678  1.00  0.00    -0.200 F 
ATOM     85  C   UNL     1      -2.518 -16.663   4.208  1.00  0.00     0.200 A 
ATOM     86  F   UNL     1      -0.828 -16.078   5.750  1.00  0.00    -0.200 F 
ATOM     87  F   UNL     1      -1.945 -17.857   4.009  1.00  0.00    -0.200 F 
ENDBRANCH  53  77
BRANCH  65  88
ATOM     88  C   UNL     1      -9.811 -12.077   7.344  1.00  0.00     0.064 A 
ATOM     89  C   UNL     1      -9.758 -12.756   8.569  1.00  0.00     0.173 A 
ATOM     90  C   UNL     1     -11.012 -12.106   6.621  1.00  0.00     0.173 A 
ATOM     91  F   UNL     1      -8.625 -12.763   9.289  1.00  0.00    -0.203 F 
ATOM     92  C   UNL     1     -10.856 -13.472   9.033  1.00  0.00     0.198 A 
ATOM     93  C   UNL     1     -12.118 -12.796   7.104  1.00  0.00     0.198 A 
ATOM     94  F   UNL     1     -11.114 -11.459   5.450  1.00  0.00    -0.203 F 
ATOM     95  F   UNL     1     -10.767 -14.164  10.177  1.00  0.00    -0.200 F 
ATOM     96  C   UNL     1     -12.036 -13.487   8.303  1.00  0.00     0.200 A 
ATOM     97  F   UNL     1     -13.262 -12.797   6.406  1.00  0.00    -0.200 F 
ATOM     98  F   UNL     1     -13.093 -14.178   8.752  1.00  0.00    -0.200 F 
ENDBRANCH  65  88
ENDBRANCH  39  40
ENDBRANCH  32  34
ENDBRANCH  31  32
ENDBRANCH  30  31
ENDBRANCH  29  30
ENDBRANCH  28  29
ENDBRANCH  27  28
ENDBRANCH   1  27
TORSDOF 19
