REMARK SMILES O=C(OCCOCCOC(=O)c1ccc(S(=O)(=O)NCC[NH+]2CCCC2)c(F)c1)c1ccc(-c2c3nc(c(-c4c(F)c(F)c(F)c(F)c4F)c4ccc([nH]4)c(-c4c(F)c(F)c(F)c(F)c4F)c4nc(c(-c5c(F)c(F)c(F)c(F)c5F)c5ccc2[nH]5)C=C4)C=C3)cc1
REMARK SMILES IDX 7 1 6 2 5 3 4 4 3 5 2 6 1 7 30 8 31 9 92 10 32 11 91 12
REMARK SMILES IDX 33 13 34 14 35 15 85 16 36 17 90 18 84 19 86 20 37 21 89 22
REMARK SMILES IDX 83 23 82 24 38 26 70 27 50 28 69 29 51 30 54 31 68 32 87 33
REMARK SMILES IDX 52 34 53 35 67 37 88 38 55 39 39 40 40 41 48 42 41 43 42 44
REMARK SMILES IDX 46 45 49 46 43 47 44 48 47 49 45 50 71 51 72 52 80 53 73 54
REMARK SMILES IDX 74 55 78 56 81 57 75 58 76 59 79 60 77 61 56 62 57 63 65 64
REMARK SMILES IDX 58 65 59 66 63 67 66 68 60 69 61 70 64 71 62 72 8 73 9 74
REMARK SMILES IDX 10 75 11 76 12 77 13 78 29 79 14 80 27 81 15 82 28 83 16 84
REMARK SMILES IDX 17 85 18 86 19 87 20 89 21 90 22 91 23 92 26 93 24 95 25 96
REMARK H PARENT 86 25 54 36 19 88 22 94
REMARK Flexibility Score: inf
ROOT
ATOM      1  C   UNL     1       2.688   1.556   1.467  1.00  0.00     0.202 C 
ENDROOT
BRANCH   1   2
ATOM      2  O   UNL     1       4.033   1.375   1.003  1.00  0.00    -0.374 OA
BRANCH   2   3
ATOM      3  C   UNL     1       4.245   1.595  -0.393  1.00  0.00     0.202 C 
BRANCH   3   4
ATOM      4  C   UNL     1       3.910   0.405  -1.300  1.00  0.00     0.261 C 
BRANCH   4   5
ATOM      5  O   UNL     1       2.551  -0.022  -1.103  1.00  0.00    -0.460 OA
BRANCH   5   6
ATOM      6  C   UNL     1       2.104  -1.132  -0.468  1.00  0.00     0.338 C 
ATOM      7  O   UNL     1       0.904  -1.396  -0.513  1.00  0.00    -0.246 OA
BRANCH   6   8
ATOM      8  C   UNL     1       2.993  -2.053   0.303  1.00  0.00     0.060 A 
ATOM      9  C   UNL     1       4.207  -1.678   0.875  1.00  0.00     0.016 A 
ATOM     10  C   UNL     1       2.529  -3.358   0.548  1.00  0.00     0.016 A 
ATOM     11  C   UNL     1       4.980  -2.570   1.593  1.00  0.00     0.010 A 
ATOM     12  C   UNL     1       3.272  -4.251   1.332  1.00  0.00     0.010 A 
ATOM     13  C   UNL     1       4.509  -3.854   1.848  1.00  0.00    -0.014 A 
BRANCH  13  14
ATOM     14  C   UNL     1       5.397  -4.740   2.619  1.00  0.00     0.031 A 
ATOM     15  C   UNL     1       6.161  -5.799   1.891  1.00  0.00     0.074 A 
ATOM     16  C   UNL     1       5.655  -4.433   3.905  1.00  0.00     0.049 A 
ATOM     17  N   UNL     1       7.042  -6.644   2.353  1.00  0.00    -0.248 NA
ATOM     18  C   UNL     1       5.927  -5.906   0.440  1.00  0.00     0.031 C 
ATOM     19  C   UNL     1       5.049  -3.315   4.637  1.00  0.00     0.029 A 
ATOM     20  N   UNL     1       6.534  -4.976   4.802  1.00  0.00    -0.354 N 
ATOM     21  C   UNL     1       7.453  -7.390   1.259  1.00  0.00     0.074 A 
ATOM     22  C   UNL     1       6.727  -6.908   0.107  1.00  0.00     0.031 C 
ATOM     23  C   UNL     1       5.617  -3.222   5.849  1.00  0.00     0.029 A 
ATOM     24  C   UNL     1       6.561  -4.321   6.011  1.00  0.00     0.049 A 
ATOM     25  H   UNL     1       7.093  -5.761   4.602  1.00  0.00     0.167 HD
ATOM     26  C   UNL     1       8.360  -8.391   1.236  1.00  0.00     0.037 A 
ATOM     27  C   UNL     1       7.257  -4.602   7.128  1.00  0.00     0.037 A 
ATOM     28  C   UNL     1       9.071  -8.839   2.402  1.00  0.00     0.049 A 
ATOM     29  C   UNL     1       8.170  -5.797   7.096  1.00  0.00     0.074 A 
ATOM     30  C   UNL     1       9.951  -9.897   2.525  1.00  0.00     0.029 A 
ATOM     31  N   UNL     1       8.983  -8.237   3.651  1.00  0.00    -0.354 N 
ATOM     32  N   UNL     1       8.489  -6.565   6.081  1.00  0.00    -0.248 NA
ATOM     33  C   UNL     1       8.800  -6.184   8.364  1.00  0.00     0.031 C 
ATOM     34  C   UNL     1      10.362  -9.962   3.859  1.00  0.00     0.029 A 
ATOM     35  C   UNL     1       9.779  -8.914   4.557  1.00  0.00     0.049 A 
ATOM     36  H   UNL     1       8.435  -7.446   3.860  1.00  0.00     0.167 HD
ATOM     37  C   UNL     1       9.358  -7.521   6.582  1.00  0.00     0.074 A 
ATOM     38  C   UNL     1       9.544  -7.215   7.987  1.00  0.00     0.031 C 
ATOM     39  C   UNL     1       9.940  -8.568   5.947  1.00  0.00     0.037 A 
BRANCH  26  40
ATOM     40  C   UNL     1       8.587  -9.097  -0.065  1.00  0.00     0.064 A 
ATOM     41  C   UNL     1       8.086 -10.393  -0.258  1.00  0.00     0.173 A 
ATOM     42  C   UNL     1       9.324  -8.515  -1.106  1.00  0.00     0.173 A 
ATOM     43  F   UNL     1       7.365 -10.989   0.704  1.00  0.00    -0.203 F 
ATOM     44  C   UNL     1       8.331 -11.089  -1.438  1.00  0.00     0.198 A 
ATOM     45  C   UNL     1       9.549  -9.206  -2.295  1.00  0.00     0.198 A 
ATOM     46  F   UNL     1       9.798  -7.266  -0.982  1.00  0.00    -0.203 F 
ATOM     47  F   UNL     1       7.861 -12.335  -1.590  1.00  0.00    -0.200 F 
ATOM     48  C   UNL     1       9.061 -10.494  -2.456  1.00  0.00     0.200 A 
ATOM     49  F   UNL     1      10.229  -8.620  -3.290  1.00  0.00    -0.200 F 
ATOM     50  F   UNL     1       9.288 -11.161  -3.596  1.00  0.00    -0.200 F 
ENDBRANCH  26  40
BRANCH  27  51
ATOM     51  C   UNL     1       7.073  -3.791   8.364  1.00  0.00     0.064 A 
ATOM     52  C   UNL     1       5.830  -3.730   9.015  1.00  0.00     0.173 A 
ATOM     53  C   UNL     1       8.136  -3.078   8.937  1.00  0.00     0.173 A 
ATOM     54  F   UNL     1       4.777  -4.397   8.521  1.00  0.00    -0.203 F 
ATOM     55  C   UNL     1       5.654  -2.977  10.175  1.00  0.00     0.198 A 
ATOM     56  C   UNL     1       7.967  -2.354  10.117  1.00  0.00     0.198 A 
ATOM     57  F   UNL     1       9.352  -3.119   8.372  1.00  0.00    -0.203 F 
ATOM     58  F   UNL     1       4.447  -2.917  10.755  1.00  0.00    -0.200 F 
ATOM     59  C   UNL     1       6.725  -2.298  10.731  1.00  0.00     0.200 A 
ATOM     60  F   UNL     1       9.014  -1.727  10.671  1.00  0.00    -0.200 F 
ATOM     61  F   UNL     1       6.564  -1.602  11.865  1.00  0.00    -0.200 F 
ENDBRANCH  27  51
BRANCH  39  62
ATOM     62  C   UNL     1      10.836  -9.446   6.765  1.00  0.00     0.064 A 
ATOM     63  C   UNL     1      12.221  -9.448   6.544  1.00  0.00     0.173 A 
ATOM     64  C   UNL     1      10.314 -10.337   7.714  1.00  0.00     0.173 A 
ATOM     65  F   UNL     1      12.763  -8.620   5.639  1.00  0.00    -0.203 F 
ATOM     66  C   UNL     1      13.050 -10.325   7.234  1.00  0.00     0.198 A 
ATOM     67  C   UNL     1      11.151 -11.189   8.425  1.00  0.00     0.198 A 
ATOM     68  F   UNL     1       8.996 -10.358   7.967  1.00  0.00    -0.203 F 
ATOM     69  F   UNL     1      14.366 -10.339   6.980  1.00  0.00    -0.200 F 
ATOM     70  C   UNL     1      12.516 -11.191   8.177  1.00  0.00     0.200 A 
ATOM     71  F   UNL     1      10.637 -12.006   9.355  1.00  0.00    -0.200 F 
ATOM     72  F   UNL     1      13.318 -12.027   8.850  1.00  0.00    -0.200 F 
ENDBRANCH  39  62
ENDBRANCH  13  14
ENDBRANCH   6   8
ENDBRANCH   5   6
ENDBRANCH   4   5
ENDBRANCH   3   4
ENDBRANCH   2   3
ENDBRANCH   1   2
BRANCH   1  73
ATOM     73  C   UNL     1       2.694   2.388   2.753  1.00  0.00     0.261 C 
BRANCH  73  74
ATOM     74  O   UNL     1       3.205   3.692   2.439  1.00  0.00    -0.460 OA
BRANCH  74  75
ATOM     75  C   UNL     1       4.558   3.791   2.470  1.00  0.00     0.338 C 
ATOM     76  O   UNL     1       5.341   3.108   3.109  1.00  0.00    -0.246 OA
BRANCH  75  77
ATOM     77  C   UNL     1       4.954   4.708   1.380  1.00  0.00     0.063 A 
ATOM     78  C   UNL     1       4.153   5.799   1.026  1.00  0.00     0.017 A 
ATOM     79  C   UNL     1       6.093   4.393   0.629  1.00  0.00     0.056 A 
ATOM     80  C   UNL     1       4.486   6.561  -0.089  1.00  0.00     0.026 A 
ATOM     81  C   UNL     1       6.414   5.153  -0.493  1.00  0.00     0.144 A 
ATOM     82  C   UNL     1       5.617   6.231  -0.849  1.00  0.00     0.118 A 
ATOM     83  F   UNL     1       7.489   4.801  -1.209  1.00  0.00    -0.205 F 
BRANCH  82  84
ATOM     84  S   UNL     1       6.006   7.253  -2.223  1.00  0.00     0.243 S 
ATOM     85  O   UNL     1       4.744   7.705  -2.762  1.00  0.00    -0.207 OA
ATOM     86  O   UNL     1       7.009   8.183  -1.757  1.00  0.00    -0.207 OA
BRANCH  84  87
ATOM     87  N   UNL     1       6.748   6.290  -3.353  1.00  0.00    -0.205 NA
ATOM     88  H   UNL     1       7.338   5.649  -2.823  1.00  0.00     0.141 HD
BRANCH  87  89
ATOM     89  C   UNL     1       6.036   5.461  -4.319  1.00  0.00     0.160 C 
BRANCH  89  90
ATOM     90  C   UNL     1       5.207   6.223  -5.377  1.00  0.00     0.278 C 
BRANCH  90  91
ATOM     91  N   UNL     1       5.729   7.368  -6.122  1.00  0.00    -0.334 N 
ATOM     92  C   UNL     1       7.159   7.545  -6.290  1.00  0.00     0.262 C 
ATOM     93  C   UNL     1       5.142   8.662  -5.788  1.00  0.00     0.262 C 
ATOM     94  H   UNL     1       5.397   7.039  -7.029  1.00  0.00     0.348 HD
ATOM     95  C   UNL     1       7.543   8.743  -5.438  1.00  0.00     0.067 C 
ATOM     96  C   UNL     1       6.259   9.526  -5.225  1.00  0.00     0.067 C 
ENDBRANCH  90  91
ENDBRANCH  89  90
ENDBRANCH  87  89
ENDBRANCH  84  87
ENDBRANCH  82  84
ENDBRANCH  75  77
ENDBRANCH  74  75
ENDBRANCH  73  74
ENDBRANCH   1  73
TORSDOF 19
