REMARK SMILES Cc1cc2c(=O)c3ccccc3oc2c(C(=O)OCCOCCOC(=O)c2ccc(-c3c4nc(c(-c5c(F)c(F)c(F)c(F)c5F)c5ccc([nH]5)c(-c5c(F)c(F)c(F)c(F)c5F)c5nc(c(-c6c(F)c(F)c(F)c(F)c6F)c6ccc3[nH]6)C=C5)C=C4)cc2)c1C
REMARK SMILES IDX 22 1 21 2 20 3 19 4 18 5 16 6 17 7 15 8 1 9 2 10 3 11 90 12
REMARK SMILES IDX 4 13 91 14 5 15 14 16 6 17 7 18 13 19 8 20 12 21 9 22 11 23
REMARK SMILES IDX 10 24 23 25 24 26 25 27 26 28 27 29 28 30 89 31 29 32 88 33
REMARK SMILES IDX 30 34 31 35 32 36 82 37 33 38 87 39 81 40 83 41 34 42 86 43
REMARK SMILES IDX 80 44 79 45 35 47 67 48 47 49 66 50 48 51 51 52 65 53 84 54
REMARK SMILES IDX 49 55 50 56 64 58 85 59 52 60 36 61 37 62 45 63 38 64 39 65
REMARK SMILES IDX 43 66 46 67 40 68 41 69 44 70 42 71 68 72 69 73 77 74 70 75
REMARK SMILES IDX 71 76 75 77 78 78 72 79 73 80 76 81 74 82 53 83 54 84 62 85
REMARK SMILES IDX 55 86 56 87 60 88 63 89 57 90 58 91 61 92 59 93
REMARK H PARENT 83 46 51 57
REMARK Flexibility Score: inf
ROOT
ATOM      1  C   UNL     1       2.964  -6.148   1.385  1.00  0.00     0.202 C 
ENDROOT
BRANCH   1   2
ATOM      2  O   UNL     1       3.062  -7.223   0.453  1.00  0.00    -0.374 OA
BRANCH   2   3
ATOM      3  C   UNL     1       3.401  -6.915  -0.898  1.00  0.00     0.202 C 
BRANCH   3   4
ATOM      4  C   UNL     1       2.321  -6.241  -1.743  1.00  0.00     0.261 C 
BRANCH   4   5
ATOM      5  O   UNL     1       1.976  -4.965  -1.185  1.00  0.00    -0.460 OA
BRANCH   5   6
ATOM      6  C   UNL     1       0.669  -4.799  -0.873  1.00  0.00     0.342 C 
ATOM      7  O   UNL     1      -0.239  -5.561  -1.159  1.00  0.00    -0.246 OA
BRANCH   6   8
ATOM      8  C   UNL     1       0.473  -3.582  -0.036  1.00  0.00     0.106 A 
ATOM      9  C   UNL     1       1.121   0.207   0.041  1.00  0.00     0.044 C 
ATOM     10  C   UNL     1       0.620  -1.178   0.357  1.00  0.00    -0.046 A 
ATOM     11  C   UNL     1      -0.306  -1.320   1.403  1.00  0.00     0.019 A 
ATOM     12  C   UNL     1       1.030  -2.319  -0.374  1.00  0.00    -0.030 A 
ATOM     13  C   UNL     1      -0.779  -2.580   1.770  1.00  0.00     0.067 A 
ATOM     14  C   UNL     1       2.081  -2.198  -1.452  1.00  0.00     0.046 C 
ATOM     15  C   UNL     1      -1.721  -2.714   2.892  1.00  0.00     0.200 A 
ATOM     16  C   UNL     1      -0.373  -3.717   1.084  1.00  0.00     0.153 A 
ATOM     17  O   UNL     1      -2.176  -1.734   3.467  1.00  0.00    -0.288 OA
ATOM     18  C   UNL     1      -2.069  -4.078   3.304  1.00  0.00     0.065 A 
ATOM     19  O   UNL     1      -0.716  -4.989   1.493  1.00  0.00    -0.455 OA
ATOM     20  C   UNL     1      -2.920  -4.305   4.391  1.00  0.00     0.016 A 
ATOM     21  C   UNL     1      -1.505  -5.141   2.606  1.00  0.00     0.138 A 
ATOM     22  C   UNL     1      -3.182  -5.613   4.797  1.00  0.00     0.001 A 
ATOM     23  C   UNL     1      -1.752  -6.448   3.029  1.00  0.00     0.048 A 
ATOM     24  C   UNL     1      -2.587  -6.683   4.126  1.00  0.00     0.004 A 
ENDBRANCH   6   8
ENDBRANCH   5   6
ENDBRANCH   4   5
ENDBRANCH   3   4
ENDBRANCH   2   3
ENDBRANCH   1   2
BRANCH   1  25
ATOM     25  C   UNL     1       4.271  -5.511   1.876  1.00  0.00     0.261 C 
BRANCH  25  26
ATOM     26  O   UNL     1       5.016  -4.864   0.830  1.00  0.00    -0.460 OA
BRANCH  26  27
ATOM     27  C   UNL     1       6.143  -5.511   0.442  1.00  0.00     0.338 C 
ATOM     28  O   UNL     1       6.593  -6.555   0.889  1.00  0.00    -0.246 OA
BRANCH  27  29
ATOM     29  C   UNL     1       6.680  -4.863  -0.768  1.00  0.00     0.060 A 
ATOM     30  C   UNL     1       7.038  -3.515  -0.767  1.00  0.00     0.016 A 
ATOM     31  C   UNL     1       6.855  -5.646  -1.917  1.00  0.00     0.016 A 
ATOM     32  C   UNL     1       7.583  -2.950  -1.924  1.00  0.00     0.010 A 
ATOM     33  C   UNL     1       7.394  -5.079  -3.071  1.00  0.00     0.010 A 
ATOM     34  C   UNL     1       7.773  -3.729  -3.081  1.00  0.00    -0.014 A 
BRANCH  34  35
ATOM     35  C   UNL     1       8.443  -3.158  -4.275  1.00  0.00     0.031 A 
ATOM     36  C   UNL     1       7.667  -2.827  -5.515  1.00  0.00     0.074 A 
ATOM     37  C   UNL     1       9.774  -2.962  -4.241  1.00  0.00     0.049 A 
ATOM     38  N   UNL     1       8.093  -2.320  -6.645  1.00  0.00    -0.248 NA
ATOM     39  C   UNL     1       6.224  -3.104  -5.486  1.00  0.00     0.031 C 
ATOM     40  C   UNL     1      10.637  -3.265  -3.099  1.00  0.00     0.029 A 
ATOM     41  N   UNL     1      10.633  -2.465  -5.188  1.00  0.00    -0.354 N 
ATOM     42  C   UNL     1       6.973  -2.201  -7.455  1.00  0.00     0.074 A 
ATOM     43  C   UNL     1       5.854  -2.735  -6.705  1.00  0.00     0.031 C 
ATOM     44  C   UNL     1      11.899  -2.925  -3.403  1.00  0.00     0.029 A 
ATOM     45  C   UNL     1      11.941  -2.417  -4.772  1.00  0.00     0.049 A 
ATOM     46  H   UNL     1      10.341  -2.170  -6.081  1.00  0.00     0.167 HD
ATOM     47  C   UNL     1       6.886  -1.676  -8.701  1.00  0.00     0.037 A 
ATOM     48  C   UNL     1      13.050  -2.015  -5.421  1.00  0.00     0.037 A 
ATOM     49  C   UNL     1       8.007  -1.162  -9.450  1.00  0.00     0.049 A 
ATOM     50  C   UNL     1      12.933  -1.499  -6.830  1.00  0.00     0.074 A 
ATOM     51  C   UNL     1       8.012  -0.592 -10.712  1.00  0.00     0.029 A 
ATOM     52  N   UNL     1       9.324  -1.167  -9.013  1.00  0.00    -0.354 N 
ATOM     53  N   UNL     1      11.861  -1.339  -7.566  1.00  0.00    -0.248 NA
ATOM     54  C   UNL     1      14.182  -1.104  -7.494  1.00  0.00     0.031 C 
ATOM     55  C   UNL     1       9.335  -0.305 -11.061  1.00  0.00     0.029 A 
ATOM     56  C   UNL     1      10.152  -0.637  -9.993  1.00  0.00     0.049 A 
ATOM     57  H   UNL     1       9.627  -1.498  -8.137  1.00  0.00     0.167 HD
ATOM     58  C   UNL     1      12.301  -0.806  -8.771  1.00  0.00     0.074 A 
ATOM     59  C   UNL     1      13.736  -0.644  -8.655  1.00  0.00     0.031 C 
ATOM     60  C   UNL     1      11.581  -0.485  -9.874  1.00  0.00     0.037 A 
BRANCH  47  61
ATOM     61  C   UNL     1       5.530  -1.619  -9.345  1.00  0.00     0.064 A 
ATOM     62  C   UNL     1       4.542  -0.734  -8.889  1.00  0.00     0.173 A 
ATOM     63  C   UNL     1       5.241  -2.397 -10.477  1.00  0.00     0.173 A 
ATOM     64  F   UNL     1       4.763   0.025  -7.805  1.00  0.00    -0.203 F 
ATOM     65  C   UNL     1       3.310  -0.640  -9.533  1.00  0.00     0.198 A 
ATOM     66  C   UNL     1       4.020  -2.278 -11.137  1.00  0.00     0.198 A 
ATOM     67  F   UNL     1       6.152  -3.254 -10.960  1.00  0.00    -0.203 F 
ATOM     68  F   UNL     1       2.370   0.189  -9.058  1.00  0.00    -0.200 F 
ATOM     69  C   UNL     1       3.054  -1.403 -10.662  1.00  0.00     0.200 A 
ATOM     70  F   UNL     1       3.781  -3.004 -12.238  1.00  0.00    -0.200 F 
ATOM     71  F   UNL     1       1.876  -1.297 -11.292  1.00  0.00    -0.200 F 
ENDBRANCH  47  61
BRANCH  48  72
ATOM     72  C   UNL     1      14.365  -2.062  -4.731  1.00  0.00     0.064 A 
ATOM     73  C   UNL     1      15.037  -0.882  -4.386  1.00  0.00     0.173 A 
ATOM     74  C   UNL     1      14.971  -3.281  -4.393  1.00  0.00     0.173 A 
ATOM     75  F   UNL     1      14.509   0.308  -4.708  1.00  0.00    -0.203 F 
ATOM     76  C   UNL     1      16.270  -0.919  -3.738  1.00  0.00     0.198 A 
ATOM     77  C   UNL     1      16.189  -3.317  -3.717  1.00  0.00     0.198 A 
ATOM     78  F   UNL     1      14.369  -4.439  -4.700  1.00  0.00    -0.203 F 
ATOM     79  F   UNL     1      16.910   0.224  -3.456  1.00  0.00    -0.200 F 
ATOM     80  C   UNL     1      16.841  -2.136  -3.397  1.00  0.00     0.200 A 
ATOM     81  F   UNL     1      16.728  -4.495  -3.374  1.00  0.00    -0.200 F 
ATOM     82  F   UNL     1      18.021  -2.171  -2.763  1.00  0.00    -0.200 F 
ENDBRANCH  48  72
BRANCH  60  83
ATOM     83  C   UNL     1      12.330   0.086 -11.047  1.00  0.00     0.064 A 
ATOM     84  C   UNL     1      13.214  -0.695 -11.807  1.00  0.00     0.173 A 
ATOM     85  C   UNL     1      12.132   1.419 -11.441  1.00  0.00     0.173 A 
ATOM     86  F   UNL     1      13.450  -1.971 -11.467  1.00  0.00    -0.203 F 
ATOM     87  C   UNL     1      13.895  -0.155 -12.896  1.00  0.00     0.198 A 
ATOM     88  C   UNL     1      12.786   1.944 -12.553  1.00  0.00     0.198 A 
ATOM     89  F   UNL     1      11.291   2.210 -10.757  1.00  0.00    -0.203 F 
ATOM     90  F   UNL     1      14.776  -0.906 -13.571  1.00  0.00    -0.200 F 
ATOM     91  C   UNL     1      13.674   1.160 -13.273  1.00  0.00     0.200 A 
ATOM     92  F   UNL     1      12.557   3.211 -12.926  1.00  0.00    -0.200 F 
ATOM     93  F   UNL     1      14.322   1.675 -14.327  1.00  0.00    -0.200 F 
ENDBRANCH  60  83
ENDBRANCH  34  35
ENDBRANCH  27  29
ENDBRANCH  26  27
ENDBRANCH  25  26
ENDBRANCH   1  25
TORSDOF 14
