REMARK SMILES C[C@@H](C(=O)OCCOCCOC(=O)c1ccc(-c2c3nc(c(-c4c(F)c(F)c(F)c(F)c4F)c4ccc([nH]4)c(-c4c(F)c(F)c(F)c(F)c4F)c4nc(c(-c5c(F)c(F)c(F)c(F)c5F)c5ccc2[nH]5)C=C4)C=C3)cc1)c1ccc(C[C@H]2CCC[C@H]2O)cc1
REMARK SMILES IDX 7 1 6 2 5 3 3 4 4 5 2 6 1 7 77 8 78 9 89 10 79 11 88 12
REMARK SMILES IDX 80 13 81 14 82 15 83 16 86 17 84 18 85 19 87 20 8 22 9 23
REMARK SMILES IDX 10 24 11 25 12 26 13 27 14 28 15 29 76 30 16 31 75 32 17 33
REMARK SMILES IDX 18 34 19 35 69 36 20 37 74 38 68 39 70 40 21 41 73 42 67 43
REMARK SMILES IDX 66 44 22 46 54 47 34 48 53 49 35 50 38 51 52 52 71 53 36 54
REMARK SMILES IDX 37 55 51 57 72 58 39 59 23 60 24 61 32 62 25 63 26 64 30 65
REMARK SMILES IDX 33 66 27 67 28 68 31 69 29 70 55 71 56 72 64 73 57 74 58 75
REMARK SMILES IDX 62 76 65 77 59 78 60 79 63 80 61 81 40 82 41 83 49 84 42 85
REMARK SMILES IDX 43 86 47 87 50 88 44 89 45 90 48 91 46 92
REMARK H PARENT 87 21 70 45 38 56
REMARK Flexibility Score: inf
ROOT
ATOM      1  C   UNL     1       2.089   1.501   4.392  1.00  0.00     0.202 C 
ENDROOT
BRANCH   1   2
ATOM      2  C   UNL     1       2.061  -0.015   4.183  1.00  0.00     0.261 C 
BRANCH   2   3
ATOM      3  O   UNL     1       1.835  -0.321   2.795  1.00  0.00    -0.463 OA
BRANCH   3   4
ATOM      4  C   UNL     1       0.942  -1.318   2.551  1.00  0.00     0.313 C 
ATOM      5  O   UNL     1       0.502  -2.068   3.417  1.00  0.00    -0.252 OA
BRANCH   4   6
ATOM      6  C   UNL     1       0.507  -1.384   1.077  1.00  0.00     0.126 C 
ATOM      7  C   UNL     1       1.333  -0.494   0.141  1.00  0.00     0.025 C 
BRANCH   6   8
ATOM      8  C   UNL     1      -1.003  -1.183   0.972  1.00  0.00    -0.034 A 
ATOM      9  C   UNL     1      -1.598   0.024   0.582  1.00  0.00     0.005 A 
ATOM     10  C   UNL     1      -1.847  -2.231   1.377  1.00  0.00     0.005 A 
ATOM     11  C   UNL     1      -2.984   0.198   0.663  1.00  0.00     0.004 A 
ATOM     12  C   UNL     1      -3.228  -2.051   1.469  1.00  0.00     0.004 A 
ATOM     13  C   UNL     1      -3.807  -0.817   1.160  1.00  0.00    -0.048 A 
BRANCH  13  14
ATOM     14  C   UNL     1      -5.280  -0.582   1.396  1.00  0.00     0.041 C 
BRANCH  14  15
ATOM     15  C   UNL     1      -5.703  -0.028   2.771  1.00  0.00     0.022 C 
ATOM     16  C   UNL     1      -5.156  -0.759   4.008  1.00  0.00     0.007 C 
ATOM     17  C   UNL     1      -5.435   1.457   3.056  1.00  0.00     0.117 C 
ATOM     18  C   UNL     1      -5.101   0.284   5.129  1.00  0.00     0.003 C 
ATOM     19  C   UNL     1      -5.707   1.560   4.553  1.00  0.00     0.032 C 
BRANCH  17  20
ATOM     20  O   UNL     1      -4.103   1.871   2.798  1.00  0.00    -0.393 OA
ATOM     21  H   UNL     1      -3.492   1.346   3.338  1.00  0.00     0.210 HD
ENDBRANCH  17  20
ENDBRANCH  14  15
ENDBRANCH  13  14
ENDBRANCH   6   8
ENDBRANCH   4   6
ENDBRANCH   3   4
ENDBRANCH   2   3
ENDBRANCH   1   2
BRANCH   1  22
ATOM     22  O   UNL     1       0.841   2.172   4.215  1.00  0.00    -0.374 OA
BRANCH  22  23
ATOM     23  C   UNL     1       0.365   2.326   2.878  1.00  0.00     0.202 C 
BRANCH  23  24
ATOM     24  C   UNL     1       1.009   3.454   2.061  1.00  0.00     0.261 C 
BRANCH  24  25
ATOM     25  O   UNL     1       2.419   3.243   1.853  1.00  0.00    -0.460 OA
BRANCH  25  26
ATOM     26  C   UNL     1       3.222   4.136   2.476  1.00  0.00     0.338 C 
ATOM     27  O   UNL     1       2.883   5.136   3.096  1.00  0.00    -0.246 OA
BRANCH  26  28
ATOM     28  C   UNL     1       4.621   3.668   2.467  1.00  0.00     0.060 A 
ATOM     29  C   UNL     1       5.286   3.607   3.698  1.00  0.00     0.016 A 
ATOM     30  C   UNL     1       5.299   3.379   1.280  1.00  0.00     0.016 A 
ATOM     31  C   UNL     1       6.646   3.308   3.744  1.00  0.00     0.010 A 
ATOM     32  C   UNL     1       6.668   3.088   1.329  1.00  0.00     0.010 A 
ATOM     33  C   UNL     1       7.355   3.087   2.557  1.00  0.00    -0.014 A 
BRANCH  33  34
ATOM     34  C   UNL     1       8.836   3.009   2.600  1.00  0.00     0.031 A 
ATOM     35  C   UNL     1       9.642   4.239   2.285  1.00  0.00     0.074 A 
ATOM     36  C   UNL     1       9.457   1.872   2.959  1.00  0.00     0.049 A 
ATOM     37  N   UNL     1      10.941   4.400   2.261  1.00  0.00    -0.248 NA
ATOM     38  C   UNL     1       8.879   5.454   1.954  1.00  0.00     0.031 C 
ATOM     39  C   UNL     1       8.789   0.626   3.327  1.00  0.00     0.029 A 
ATOM     40  N   UNL     1      10.795   1.584   3.072  1.00  0.00    -0.354 N 
ATOM     41  C   UNL     1      11.151   5.728   1.911  1.00  0.00     0.074 A 
ATOM     42  C   UNL     1       9.848   6.323   1.704  1.00  0.00     0.031 C 
ATOM     43  C   UNL     1       9.721  -0.297   3.620  1.00  0.00     0.029 A 
ATOM     44  C   UNL     1      11.050   0.285   3.435  1.00  0.00     0.049 A 
ATOM     45  H   UNL     1      11.505   2.247   2.909  1.00  0.00     0.167 HD
ATOM     46  C   UNL     1      12.323   6.393   1.783  1.00  0.00     0.037 A 
ATOM     47  C   UNL     1      12.222  -0.362   3.584  1.00  0.00     0.037 A 
ATOM     48  C   UNL     1      13.619   5.805   1.994  1.00  0.00     0.049 A 
ATOM     49  C   UNL     1      13.514   0.384   3.369  1.00  0.00     0.074 A 
ATOM     50  C   UNL     1      14.864   6.405   1.913  1.00  0.00     0.029 A 
ATOM     51  N   UNL     1      13.837   4.476   2.323  1.00  0.00    -0.354 N 
ATOM     52  N   UNL     1      13.702   1.646   3.068  1.00  0.00    -0.248 NA
ATOM     53  C   UNL     1      14.757  -0.386   3.518  1.00  0.00     0.031 C 
ATOM     54  C   UNL     1      15.837   5.428   2.146  1.00  0.00     0.029 A 
ATOM     55  C   UNL     1      15.197   4.230   2.420  1.00  0.00     0.049 A 
ATOM     56  H   UNL     1      13.130   3.805   2.465  1.00  0.00     0.167 HD
ATOM     57  C   UNL     1      15.078   1.827   3.019  1.00  0.00     0.074 A 
ATOM     58  C   UNL     1      15.679   0.548   3.333  1.00  0.00     0.031 C 
ATOM     59  C   UNL     1      15.781   2.953   2.742  1.00  0.00     0.037 A 
BRANCH  46  60
ATOM     60  C   UNL     1      12.260   7.835   1.372  1.00  0.00     0.064 A 
ATOM     61  C   UNL     1      11.823   8.834   2.254  1.00  0.00     0.173 A 
ATOM     62  C   UNL     1      12.676   8.225   0.090  1.00  0.00     0.173 A 
ATOM     63  F   UNL     1      11.402   8.510   3.486  1.00  0.00    -0.203 F 
ATOM     64  C   UNL     1      11.785  10.169   1.860  1.00  0.00     0.198 A 
ATOM     65  C   UNL     1      12.661   9.563  -0.291  1.00  0.00     0.198 A 
ATOM     66  F   UNL     1      13.105   7.308  -0.789  1.00  0.00    -0.203 F 
ATOM     67  F   UNL     1      11.326  11.103   2.705  1.00  0.00    -0.200 F 
ATOM     68  C   UNL     1      12.210  10.533   0.591  1.00  0.00     0.200 A 
ATOM     69  F   UNL     1      13.082   9.915  -1.514  1.00  0.00    -0.200 F 
ATOM     70  F   UNL     1      12.179  11.819   0.216  1.00  0.00    -0.200 F 
ENDBRANCH  46  60
BRANCH  47  71
ATOM     71  C   UNL     1      12.234  -1.802   3.949  1.00  0.00     0.064 A 
ATOM     72  C   UNL     1      12.695  -2.227   5.203  1.00  0.00     0.173 A 
ATOM     73  C   UNL     1      11.805  -2.784   3.044  1.00  0.00     0.173 A 
ATOM     74  F   UNL     1      13.142  -1.328   6.091  1.00  0.00    -0.203 F 
ATOM     75  C   UNL     1      12.741  -3.581   5.531  1.00  0.00     0.198 A 
ATOM     76  C   UNL     1      11.826  -4.135   3.383  1.00  0.00     0.198 A 
ATOM     77  F   UNL     1      11.359  -2.429   1.830  1.00  0.00    -0.203 F 
ATOM     78  F   UNL     1      13.229  -3.963   6.718  1.00  0.00    -0.200 F 
ATOM     79  C   UNL     1      12.302  -4.533   4.623  1.00  0.00     0.200 A 
ATOM     80  F   UNL     1      11.393  -5.050   2.506  1.00  0.00    -0.200 F 
ATOM     81  F   UNL     1      12.346  -5.834   4.939  1.00  0.00    -0.200 F 
ENDBRANCH  47  71
BRANCH  59  82
ATOM     82  C   UNL     1      17.278   2.864   2.797  1.00  0.00     0.064 A 
ATOM     83  C   UNL     1      18.013   2.200   1.805  1.00  0.00     0.173 A 
ATOM     84  C   UNL     1      17.988   3.489   3.834  1.00  0.00     0.173 A 
ATOM     85  F   UNL     1      17.380   1.574   0.801  1.00  0.00    -0.203 F 
ATOM     86  C   UNL     1      19.404   2.146   1.860  1.00  0.00     0.198 A 
ATOM     87  C   UNL     1      19.379   3.457   3.871  1.00  0.00     0.198 A 
ATOM     88  F   UNL     1      17.332   4.144   4.804  1.00  0.00    -0.203 F 
ATOM     89  F   UNL     1      20.084   1.469   0.924  1.00  0.00    -0.200 F 
ATOM     90  C   UNL     1      20.085   2.780   2.888  1.00  0.00     0.200 A 
ATOM     91  F   UNL     1      20.037   4.081   4.858  1.00  0.00    -0.200 F 
ATOM     92  F   UNL     1      21.424   2.733   2.936  1.00  0.00    -0.200 F 
ENDBRANCH  59  82
ENDBRANCH  33  34
ENDBRANCH  26  28
ENDBRANCH  25  26
ENDBRANCH  24  25
ENDBRANCH  23  24
ENDBRANCH  22  23
ENDBRANCH   1  22
TORSDOF 18
