REMARK SMILES O=C(OCCOCCOC(=O)c1ccc(-c2c3nc(c(-c4c(F)c(F)c(F)c(F)c4F)c4ccc([nH]4)c(-c4c(F)c(F)c(F)c(F)c4F)c4nc(c(-c5c(F)c(F)c(F)c(F)c5F)c5ccc2[nH]5)C=C4)C=C3)cc1)C1=NN(c2ccc(S(=O)(=O)[O-])cc2)C(=O)/C1=C/Nc1ccccc1
REMARK SMILES IDX 6 1 5 2 4 3 3 4 2 5 1 6 75 7 76 8 90 9 77 10 88 11 91 12
REMARK SMILES IDX 89 13 78 14 79 15 87 16 80 17 86 18 81 19 82 20 83 21 84 22
REMARK SMILES IDX 85 23 92 24 93 26 94 27 98 28 95 29 97 30 96 31 7 32 8 33
REMARK SMILES IDX 9 34 10 35 11 36 12 37 13 38 74 39 14 40 73 41 15 42 16 43
REMARK SMILES IDX 17 44 67 45 18 46 72 47 66 48 68 49 19 50 71 51 65 52 64 53
REMARK SMILES IDX 20 55 52 56 32 57 51 58 33 59 36 60 50 61 69 62 34 63 35 64
REMARK SMILES IDX 49 66 70 67 37 68 21 69 22 70 30 71 23 72 24 73 28 74 31 75
REMARK SMILES IDX 25 76 26 77 29 78 27 79 53 80 54 81 62 82 55 83 56 84 60 85
REMARK SMILES IDX 63 86 57 87 58 88 61 89 59 90 38 91 39 92 47 93 40 94 41 95
REMARK SMILES IDX 45 96 48 97 42 98 43 99 46 100 44 101
REMARK H PARENT 92 25 68 54 36 65
REMARK Flexibility Score: inf
ROOT
ATOM      1  O   UNL     1       2.966  -0.471   0.985  1.00  0.00    -0.374 OA
ENDROOT
BRANCH   1   2
ATOM      2  C   UNL     1       3.713   0.749   1.063  1.00  0.00     0.202 C 
BRANCH   2   3
ATOM      3  C   UNL     1       3.928   1.339  -0.330  1.00  0.00     0.261 C 
BRANCH   3   4
ATOM      4  O   UNL     1       2.786   1.095  -1.157  1.00  0.00    -0.458 OA
BRANCH   4   5
ATOM      5  C   UNL     1       2.544  -0.186  -1.511  1.00  0.00     0.359 C 
ATOM      6  O   UNL     1       1.418  -0.654  -1.613  1.00  0.00    -0.244 OA
BRANCH   5   7
ATOM      7  C   UNL     1       3.679  -0.917  -2.159  1.00  0.00     0.183 C 
ATOM      8  N   UNL     1       3.826  -0.671  -3.435  1.00  0.00    -0.157 NA
ATOM      9  C   UNL     1       4.544  -2.029  -1.684  1.00  0.00     0.093 C 
ATOM     10  N   UNL     1       4.640  -1.659  -3.923  1.00  0.00    -0.196 N 
ATOM     11  C   UNL     1       5.236  -2.452  -2.942  1.00  0.00     0.282 C 
ATOM     12  C   UNL     1       4.842  -2.794  -0.622  1.00  0.00     0.099 C 
ATOM     13  O   UNL     1       6.060  -3.344  -3.052  1.00  0.00    -0.267 OA
BRANCH  10  14
ATOM     14  C   UNL     1       4.348  -2.070  -5.243  1.00  0.00     0.069 A 
ATOM     15  C   UNL     1       3.772  -1.161  -6.146  1.00  0.00     0.030 A 
ATOM     16  C   UNL     1       4.442  -3.422  -5.601  1.00  0.00     0.030 A 
ATOM     17  C   UNL     1       3.304  -1.593  -7.386  1.00  0.00     0.021 A 
ATOM     18  C   UNL     1       3.952  -3.866  -6.828  1.00  0.00     0.021 A 
ATOM     19  C   UNL     1       3.397  -2.945  -7.716  1.00  0.00     0.054 A 
BRANCH  19  20
ATOM     20  S   UNL     1       2.792  -3.476  -9.288  1.00  0.00     0.124 S 
ATOM     21  O   UNL     1       1.380  -3.174  -9.345  1.00  0.00    -0.237 OA
ATOM     22  O   UNL     1       3.725  -3.004 -10.287  1.00  0.00    -0.237 OA
ATOM     23  O   UNL     1       2.946  -5.082  -9.291  1.00  0.00    -0.744 OA
ENDBRANCH  19  20
ENDBRANCH  10  14
BRANCH  12  24
ATOM     24  N   UNL     1       4.391  -2.887   0.666  1.00  0.00    -0.361 N 
ATOM     25  H   UNL     1       3.534  -2.448   0.870  1.00  0.00     0.166 HD
BRANCH  24  26
ATOM     26  C   UNL     1       5.045  -3.559   1.744  1.00  0.00     0.038 A 
ATOM     27  C   UNL     1       4.250  -4.257   2.672  1.00  0.00     0.026 A 
ATOM     28  C   UNL     1       6.356  -3.221   2.115  1.00  0.00     0.026 A 
ATOM     29  C   UNL     1       4.715  -4.519   3.967  1.00  0.00     0.002 A 
ATOM     30  C   UNL     1       6.823  -3.492   3.409  1.00  0.00     0.002 A 
ATOM     31  C   UNL     1       5.993  -4.113   4.343  1.00  0.00     0.000 A 
ENDBRANCH  24  26
ENDBRANCH  12  24
ENDBRANCH   5   7
ENDBRANCH   4   5
ENDBRANCH   3   4
ENDBRANCH   2   3
ENDBRANCH   1   2
BRANCH   1  32
ATOM     32  C   UNL     1       1.610  -0.393   1.463  1.00  0.00     0.202 C 
BRANCH  32  33
ATOM     33  C   UNL     1       1.411  -1.213   2.741  1.00  0.00     0.261 C 
BRANCH  33  34
ATOM     34  O   UNL     1       2.077  -0.599   3.855  1.00  0.00    -0.460 OA
BRANCH  34  35
ATOM     35  C   UNL     1       3.405  -0.827   3.825  1.00  0.00     0.338 C 
ATOM     36  O   UNL     1       4.000  -1.491   3.006  1.00  0.00    -0.246 OA
BRANCH  35  37
ATOM     37  C   UNL     1       4.175  -0.076   4.793  1.00  0.00     0.060 A 
ATOM     38  C   UNL     1       5.512   0.189   4.446  1.00  0.00     0.016 A 
ATOM     39  C   UNL     1       3.636   0.282   6.021  1.00  0.00     0.016 A 
ATOM     40  C   UNL     1       6.339   0.805   5.354  1.00  0.00     0.010 A 
ATOM     41  C   UNL     1       4.463   0.913   6.929  1.00  0.00     0.010 A 
ATOM     42  C   UNL     1       5.807   1.153   6.596  1.00  0.00    -0.014 A 
BRANCH  42  43
ATOM     43  C   UNL     1       6.693   1.726   7.603  1.00  0.00     0.031 A 
ATOM     44  C   UNL     1       7.163   0.845   8.707  1.00  0.00     0.074 A 
ATOM     45  C   UNL     1       7.006   3.024   7.490  1.00  0.00     0.049 A 
ATOM     46  N   UNL     1       7.805   1.164   9.795  1.00  0.00    -0.248 NA
ATOM     47  C   UNL     1       6.850  -0.590   8.582  1.00  0.00     0.031 C 
ATOM     48  C   UNL     1       6.595   3.897   6.387  1.00  0.00     0.029 A 
ATOM     49  N   UNL     1       7.721   3.836   8.317  1.00  0.00    -0.354 N 
ATOM     50  C   UNL     1       7.941  -0.021  10.503  1.00  0.00     0.074 A 
ATOM     51  C   UNL     1       7.310  -1.066   9.729  1.00  0.00     0.031 C 
ATOM     52  C   UNL     1       7.059   5.134   6.614  1.00  0.00     0.029 A 
ATOM     53  C   UNL     1       7.746   5.141   7.899  1.00  0.00     0.049 A 
ATOM     54  H   UNL     1       8.173   3.518   9.132  1.00  0.00     0.167 HD
ATOM     55  C   UNL     1       8.539  -0.191  11.703  1.00  0.00     0.037 A 
ATOM     56  C   UNL     1       8.247   6.217   8.525  1.00  0.00     0.037 A 
ATOM     57  C   UNL     1       9.151   0.894  12.423  1.00  0.00     0.049 A 
ATOM     58  C   UNL     1       8.890   5.997   9.864  1.00  0.00     0.074 A 
ATOM     59  C   UNL     1       9.796   0.874  13.643  1.00  0.00     0.029 A 
ATOM     60  N   UNL     1       9.186   2.209  11.968  1.00  0.00    -0.354 N 
ATOM     61  N   UNL     1       9.015   4.882  10.547  1.00  0.00    -0.248 NA
ATOM     62  C   UNL     1       9.462   7.176  10.518  1.00  0.00     0.031 C 
ATOM     63  C   UNL     1      10.187   2.184  13.944  1.00  0.00     0.029 A 
ATOM     64  C   UNL     1       9.833   3.013  12.888  1.00  0.00     0.049 A 
ATOM     65  H   UNL     1       8.806   2.522  11.115  1.00  0.00     0.167 HD
ATOM     66  C   UNL     1       9.705   5.214  11.700  1.00  0.00     0.074 A 
ATOM     67  C   UNL     1       9.982   6.638  11.613  1.00  0.00     0.031 C 
ATOM     68  C   UNL     1      10.082   4.427  12.740  1.00  0.00     0.037 A 
BRANCH  55  69
ATOM     69  C   UNL     1       8.503  -1.564  12.306  1.00  0.00     0.064 A 
ATOM     70  C   UNL     1       9.227  -2.636  11.761  1.00  0.00     0.173 A 
ATOM     71  C   UNL     1       7.715  -1.817  13.439  1.00  0.00     0.173 A 
ATOM     72  F   UNL     1       9.973  -2.457  10.660  1.00  0.00    -0.203 F 
ATOM     73  C   UNL     1       9.142  -3.914  12.311  1.00  0.00     0.198 A 
ATOM     74  C   UNL     1       7.655  -3.089  14.004  1.00  0.00     0.198 A 
ATOM     75  F   UNL     1       6.993  -0.833  13.994  1.00  0.00    -0.203 F 
ATOM     76  F   UNL     1       9.796  -4.933  11.738  1.00  0.00    -0.200 F 
ATOM     77  C   UNL     1       8.361  -4.138  13.435  1.00  0.00     0.200 A 
ATOM     78  F   UNL     1       6.902  -3.303  15.091  1.00  0.00    -0.200 F 
ATOM     79  F   UNL     1       8.279  -5.367  13.962  1.00  0.00    -0.200 F 
ENDBRANCH  55  69
BRANCH  56  80
ATOM     80  C   UNL     1       8.164   7.551   7.884  1.00  0.00     0.064 A 
ATOM     81  C   UNL     1       9.316   8.186   7.402  1.00  0.00     0.173 A 
ATOM     82  C   UNL     1       6.933   8.199   7.693  1.00  0.00     0.173 A 
ATOM     83  F   UNL     1      10.515   7.608   7.564  1.00  0.00    -0.203 F 
ATOM     84  C   UNL     1       9.243   9.425   6.769  1.00  0.00     0.198 A 
ATOM     85  C   UNL     1       6.859   9.425   7.035  1.00  0.00     0.198 A 
ATOM     86  F   UNL     1       5.798   7.625   8.118  1.00  0.00    -0.203 F 
ATOM     87  F   UNL     1      10.365  10.023   6.344  1.00  0.00    -0.200 F 
ATOM     88  C   UNL     1       8.015  10.040   6.579  1.00  0.00     0.200 A 
ATOM     89  F   UNL     1       5.668  10.004   6.833  1.00  0.00    -0.200 F 
ATOM     90  F   UNL     1       7.945  11.225   5.958  1.00  0.00    -0.200 F 
ENDBRANCH  56  80
BRANCH  68  91
ATOM     91  C   UNL     1      10.867   5.097  13.824  1.00  0.00     0.064 A 
ATOM     92  C   UNL     1      10.266   5.986  14.726  1.00  0.00     0.173 A 
ATOM     93  C   UNL     1      12.237   4.831  13.965  1.00  0.00     0.173 A 
ATOM     94  F   UNL     1       8.962   6.282  14.614  1.00  0.00    -0.203 F 
ATOM     95  C   UNL     1      11.019   6.614  15.712  1.00  0.00     0.198 A 
ATOM     96  C   UNL     1      12.979   5.435  14.973  1.00  0.00     0.198 A 
ATOM     97  F   UNL     1      12.851   3.981  13.128  1.00  0.00    -0.203 F 
ATOM     98  F   UNL     1      10.439   7.506  16.526  1.00  0.00    -0.200 F 
ATOM     99  C   UNL     1      12.372   6.333  15.838  1.00  0.00     0.200 A 
ATOM    100  F   UNL     1      14.282   5.154  15.103  1.00  0.00    -0.200 F 
ATOM    101  F   UNL     1      13.095   6.940  16.789  1.00  0.00    -0.200 F 
ENDBRANCH  68  91
ENDBRANCH  42  43
ENDBRANCH  35  37
ENDBRANCH  34  35
ENDBRANCH  33  34
ENDBRANCH  32  33
ENDBRANCH   1  32
TORSDOF 18
