REMARK SMILES O=C(OCCOCCOC(=O)[C@H]1CCC[N@@H+]1Cc1ccccc1[N+](=O)[O-])c1ccc(-c2c3nc(c(-c4c(F)c(F)c(F)c(F)c4F)c4ccc([nH]4)c(-c4c(F)c(F)c(F)c(F)c4F)c4nc(c(-c5c(F)c(F)c(F)c(F)c5F)c5ccc2[nH]5)C=C4)C=C3)cc1
REMARK SMILES IDX 7 1 6 2 5 3 4 4 3 5 2 6 1 7 27 8 28 9 89 10 29 11 88 12
REMARK SMILES IDX 30 13 31 14 32 15 82 16 33 17 87 18 81 19 83 20 34 21 86 22
REMARK SMILES IDX 80 23 79 24 35 26 67 27 47 28 66 29 48 30 51 31 65 32 84 33
REMARK SMILES IDX 49 34 50 35 64 37 85 38 52 39 36 40 37 41 45 42 38 43 39 44
REMARK SMILES IDX 43 45 46 46 40 47 41 48 44 49 42 50 68 51 69 52 77 53 70 54
REMARK SMILES IDX 71 55 75 56 78 57 72 58 73 59 76 60 74 61 53 62 54 63 62 64
REMARK SMILES IDX 55 65 56 66 60 67 63 68 57 69 58 70 61 71 59 72 8 73 9 74
REMARK SMILES IDX 10 75 11 76 12 77 13 78 16 79 14 80 15 81 17 83 18 84 19 85
REMARK SMILES IDX 23 86 20 87 22 88 21 89 24 90 25 91 26 92
REMARK H PARENT 83 25 51 36 16 82
REMARK Flexibility Score: inf
ROOT
ATOM      1  C   UNL     1       5.879  -0.375  -5.790  1.00  0.00     0.202 C 
ENDROOT
BRANCH   1   2
ATOM      2  O   UNL     1       6.540  -1.623  -5.602  1.00  0.00    -0.374 OA
BRANCH   2   3
ATOM      3  C   UNL     1       7.084  -1.817  -4.295  1.00  0.00     0.202 C 
BRANCH   3   4
ATOM      4  C   UNL     1       8.609  -1.704  -4.256  1.00  0.00     0.261 C 
BRANCH   4   5
ATOM      5  O   UNL     1       9.053  -0.561  -4.997  1.00  0.00    -0.460 OA
BRANCH   5   6
ATOM      6  C   UNL     1       9.208  -0.494  -6.342  1.00  0.00     0.338 C 
ATOM      7  O   UNL     1       9.336   0.610  -6.869  1.00  0.00    -0.246 OA
BRANCH   6   8
ATOM      8  C   UNL     1       9.344  -1.704  -7.215  1.00  0.00     0.060 A 
ATOM      9  C   UNL     1       8.671  -2.916  -7.040  1.00  0.00     0.016 A 
ATOM     10  C   UNL     1      10.165  -1.566  -8.348  1.00  0.00     0.016 A 
ATOM     11  C   UNL     1       8.825  -3.969  -7.924  1.00  0.00     0.010 A 
ATOM     12  C   UNL     1      10.304  -2.612  -9.265  1.00  0.00     0.010 A 
ATOM     13  C   UNL     1       9.634  -3.818  -9.042  1.00  0.00    -0.014 A 
BRANCH  13  14
ATOM     14  C   UNL     1       9.831  -5.000  -9.890  1.00  0.00     0.031 A 
ATOM     15  C   UNL     1      11.093  -5.780  -9.723  1.00  0.00     0.074 A 
ATOM     16  C   UNL     1       8.816  -5.434 -10.655  1.00  0.00     0.049 A 
ATOM     17  N   UNL     1      11.509  -6.833 -10.369  1.00  0.00    -0.248 NA
ATOM     18  C   UNL     1      12.007  -5.317  -8.664  1.00  0.00     0.031 C 
ATOM     19  C   UNL     1       7.495  -4.803 -10.735  1.00  0.00     0.029 A 
ATOM     20  N   UNL     1       8.715  -6.525 -11.472  1.00  0.00    -0.354 N 
ATOM     21  C   UNL     1      12.748  -7.136  -9.824  1.00  0.00     0.074 A 
ATOM     22  C   UNL     1      13.014  -6.165  -8.787  1.00  0.00     0.031 C 
ATOM     23  C   UNL     1       6.707  -5.538 -11.535  1.00  0.00     0.029 A 
ATOM     24  C   UNL     1       7.491  -6.639 -12.082  1.00  0.00     0.049 A 
ATOM     25  H   UNL     1       9.449  -7.166 -11.610  1.00  0.00     0.167 HD
ATOM     26  C   UNL     1      13.586  -8.134 -10.183  1.00  0.00     0.037 A 
ATOM     27  C   UNL     1       7.078  -7.522 -13.009  1.00  0.00     0.037 A 
ATOM     28  C   UNL     1      13.276  -9.075 -11.224  1.00  0.00     0.049 A 
ATOM     29  C   UNL     1       8.067  -8.559 -13.467  1.00  0.00     0.074 A 
ATOM     30  C   UNL     1      14.059 -10.083 -11.750  1.00  0.00     0.029 A 
ATOM     31  N   UNL     1      12.060  -9.113 -11.901  1.00  0.00    -0.354 N 
ATOM     32  N   UNL     1       9.283  -8.790 -13.028  1.00  0.00    -0.248 NA
ATOM     33  C   UNL     1       7.643  -9.439 -14.560  1.00  0.00     0.031 C 
ATOM     34  C   UNL     1      13.333 -10.700 -12.777  1.00  0.00     0.029 A 
ATOM     35  C   UNL     1      12.077 -10.114 -12.854  1.00  0.00     0.049 A 
ATOM     36  H   UNL     1      11.299  -8.513 -11.726  1.00  0.00     0.167 HD
ATOM     37  C   UNL     1       9.769  -9.848 -13.780  1.00  0.00     0.074 A 
ATOM     38  C   UNL     1       8.703 -10.225 -14.691  1.00  0.00     0.031 C 
ATOM     39  C   UNL     1      10.983 -10.452 -13.733  1.00  0.00     0.037 A 
BRANCH  26  40
ATOM     40  C   UNL     1      14.927  -8.163  -9.512  1.00  0.00     0.064 A 
ATOM     41  C   UNL     1      15.082  -8.504  -8.159  1.00  0.00     0.173 A 
ATOM     42  C   UNL     1      16.070  -7.757 -10.218  1.00  0.00     0.173 A 
ATOM     43  F   UNL     1      14.016  -8.865  -7.428  1.00  0.00    -0.203 F 
ATOM     44  C   UNL     1      16.320  -8.393  -7.529  1.00  0.00     0.198 A 
ATOM     45  C   UNL     1      17.311  -7.676  -9.593  1.00  0.00     0.198 A 
ATOM     46  F   UNL     1      15.978  -7.410 -11.511  1.00  0.00    -0.203 F 
ATOM     47  F   UNL     1      16.428  -8.647  -6.217  1.00  0.00    -0.200 F 
ATOM     48  C   UNL     1      17.433  -7.980  -8.246  1.00  0.00     0.200 A 
ATOM     49  F   UNL     1      18.385  -7.276 -10.288  1.00  0.00    -0.200 F 
ATOM     50  F   UNL     1      18.619  -7.854  -7.634  1.00  0.00    -0.200 F 
ENDBRANCH  26  40
BRANCH  27  51
ATOM     51  C   UNL     1       5.710  -7.423 -13.584  1.00  0.00     0.064 A 
ATOM     52  C   UNL     1       4.760  -8.432 -13.382  1.00  0.00     0.173 A 
ATOM     53  C   UNL     1       5.317  -6.306 -14.339  1.00  0.00     0.173 A 
ATOM     54  F   UNL     1       5.087  -9.531 -12.687  1.00  0.00    -0.203 F 
ATOM     55  C   UNL     1       3.475  -8.332 -13.917  1.00  0.00     0.198 A 
ATOM     56  C   UNL     1       4.024  -6.192 -14.848  1.00  0.00     0.198 A 
ATOM     57  F   UNL     1       6.186  -5.310 -14.570  1.00  0.00    -0.203 F 
ATOM     58  F   UNL     1       2.598  -9.330 -13.739  1.00  0.00    -0.200 F 
ATOM     59  C   UNL     1       3.106  -7.209 -14.642  1.00  0.00     0.200 A 
ATOM     60  F   UNL     1       3.671  -5.098 -15.535  1.00  0.00    -0.200 F 
ATOM     61  F   UNL     1       1.869  -7.110 -15.148  1.00  0.00    -0.200 F 
ENDBRANCH  27  51
BRANCH  39  62
ATOM     62  C   UNL     1      11.197 -11.599 -14.671  1.00  0.00     0.064 A 
ATOM     63  C   UNL     1      11.389 -11.397 -16.045  1.00  0.00     0.173 A 
ATOM     64  C   UNL     1      11.263 -12.910 -14.177  1.00  0.00     0.173 A 
ATOM     65  F   UNL     1      11.317 -10.162 -16.563  1.00  0.00    -0.203 F 
ATOM     66  C   UNL     1      11.618 -12.473 -16.896  1.00  0.00     0.198 A 
ATOM     67  C   UNL     1      11.523 -13.979 -15.026  1.00  0.00     0.198 A 
ATOM     68  F   UNL     1      11.092 -13.148 -12.868  1.00  0.00    -0.203 F 
ATOM     69  F   UNL     1      11.755 -12.266 -18.213  1.00  0.00    -0.200 F 
ATOM     70  C   UNL     1      11.694 -13.761 -16.385  1.00  0.00     0.200 A 
ATOM     71  F   UNL     1      11.610 -15.221 -14.529  1.00  0.00    -0.200 F 
ATOM     72  F   UNL     1      11.927 -14.795 -17.205  1.00  0.00    -0.200 F 
ENDBRANCH  39  62
ENDBRANCH  13  14
ENDBRANCH   6   8
ENDBRANCH   5   6
ENDBRANCH   4   5
ENDBRANCH   3   4
ENDBRANCH   2   3
ENDBRANCH   1   2
BRANCH   1  73
ATOM     73  C   UNL     1       4.370  -0.537  -5.623  1.00  0.00     0.261 C 
BRANCH  73  74
ATOM     74  O   UNL     1       4.060  -1.039  -4.311  1.00  0.00    -0.459 OA
BRANCH  74  75
ATOM     75  C   UNL     1       3.881  -2.397  -4.232  1.00  0.00     0.365 C 
ATOM     76  O   UNL     1       3.874  -3.162  -5.181  1.00  0.00    -0.245 OA
BRANCH  75  77
ATOM     77  C   UNL     1       3.680  -2.812  -2.763  1.00  0.00     0.295 C 
ATOM     78  C   UNL     1       3.061  -4.203  -2.683  1.00  0.00     0.083 C 
ATOM     79  N   UNL     1       4.983  -2.935  -2.060  1.00  0.00    -0.319 N 
ATOM     80  C   UNL     1       4.252  -5.143  -2.711  1.00  0.00     0.068 C 
ATOM     81  C   UNL     1       5.427  -4.328  -2.197  1.00  0.00     0.263 C 
ATOM     82  H   UNL     1       5.658  -2.315  -2.508  1.00  0.00     0.349 HD
BRANCH  79  83
ATOM     83  C   UNL     1       5.016  -2.407  -0.681  1.00  0.00     0.307 C 
BRANCH  83  84
ATOM     84  C   UNL     1       3.900  -2.878   0.234  1.00  0.00     0.084 A 
ATOM     85  C   UNL     1       2.720  -2.109   0.286  1.00  0.00     0.017 A 
ATOM     86  C   UNL     1       3.893  -4.111   0.914  1.00  0.00     0.278 A 
ATOM     87  C   UNL     1       1.551  -2.616   0.857  1.00  0.00     0.001 A 
ATOM     88  C   UNL     1       2.716  -4.635   1.468  1.00  0.00     0.086 A 
ATOM     89  C   UNL     1       1.539  -3.893   1.411  1.00  0.00     0.007 A 
BRANCH  86  90
ATOM     90  N   UNL     1       5.109  -4.893   1.094  1.00  0.00     0.063 N 
ATOM     91  O   UNL     1       5.045  -6.106   0.848  1.00  0.00    -0.258 OA
ATOM     92  O   UNL     1       6.117  -4.297   1.496  1.00  0.00    -0.258 OA
ENDBRANCH  86  90
ENDBRANCH  83  84
ENDBRANCH  79  83
ENDBRANCH  75  77
ENDBRANCH  74  75
ENDBRANCH  73  74
ENDBRANCH   1  73
TORSDOF 17
