REMARK SMILES O=C(CCc1ccccc1)Nc1ccccc1Oc1ccsc1C(=O)OCCOCCOC(=O)c1ccc(-c2c3nc(c(-c4c(F)c(F)c(F)c(F)c4F)c4ccc([nH]4)c(-c4c(F)c(F)c(F)c(F)c4F)c4nc(c(-c5c(F)c(F)c(F)c(F)c5F)c5ccc2[nH]5)C=C4)C=C3)cc1
REMARK SMILES IDX 27 1 26 2 24 3 25 4 23 5 19 6 20 7 21 8 22 9 18 10 17 11
REMARK SMILES IDX 12 12 13 13 14 14 16 15 15 16 11 17 1 18 2 19 3 21 4 22 5 23
REMARK SMILES IDX 6 24 10 25 7 26 9 27 8 28 28 29 29 30 30 31 31 32 32 33
REMARK SMILES IDX 33 34 34 35 35 36 36 37 97 38 37 39 96 40 38 41 39 42 40 43
REMARK SMILES IDX 90 44 41 45 95 46 89 47 91 48 42 49 94 50 88 51 87 52 43 54
REMARK SMILES IDX 75 55 55 56 74 57 56 58 59 59 73 60 92 61 57 62 58 63 72 65
REMARK SMILES IDX 93 66 60 67 44 68 45 69 53 70 46 71 47 72 51 73 54 74 48 75
REMARK SMILES IDX 49 76 52 77 50 78 76 79 77 80 85 81 78 82 79 83 83 84 86 85
REMARK SMILES IDX 80 86 81 87 84 88 82 89 61 90 62 91 70 92 63 93 64 94 68 95
REMARK SMILES IDX 71 96 65 97 66 98 69 99 67 100
REMARK H PARENT 11 20 91 53 59 64
REMARK Flexibility Score: inf
ROOT
ATOM      1  C   UNL     1      -3.191   0.096  -1.067  1.00  0.00     0.261 C 
ENDROOT
BRANCH   1   2
ATOM      2  O   UNL     1      -1.821  -0.271  -1.309  1.00  0.00    -0.459 OA
BRANCH   2   3
ATOM      3  C   UNL     1      -1.109   0.523  -2.159  1.00  0.00     0.352 C 
ATOM      4  O   UNL     1      -1.589   1.505  -2.727  1.00  0.00    -0.245 OA
BRANCH   3   5
ATOM      5  C   UNL     1       0.253   0.040  -2.327  1.00  0.00     0.155 A 
ATOM      6  C   UNL     1       0.947  -0.987  -1.702  1.00  0.00     0.152 A 
ATOM      7  C   UNL     1       2.264  -1.157  -2.229  1.00  0.00     0.060 A 
ATOM      8  C   UNL     1       2.578  -0.184  -3.152  1.00  0.00     0.070 A 
ATOM      9  S   UNL     1       1.270   0.871  -3.441  1.00  0.00    -0.133 S 
BRANCH   6  10
ATOM     10  O   UNL     1       0.355  -1.688  -0.707  1.00  0.00    -0.453 OA
BRANCH  10  11
ATOM     11  C   UNL     1       1.003  -2.461   0.224  1.00  0.00     0.151 A 
ATOM     12  C   UNL     1       2.069  -2.084   1.062  1.00  0.00     0.084 A 
ATOM     13  C   UNL     1       2.561  -3.030   1.983  1.00  0.00     0.030 A 
ATOM     14  C   UNL     1       1.974  -4.290   2.121  1.00  0.00     0.002 A 
ATOM     15  C   UNL     1       0.430  -3.739   0.365  1.00  0.00     0.049 A 
ATOM     16  C   UNL     1       0.907  -4.647   1.310  1.00  0.00     0.004 A 
BRANCH  12  17
ATOM     17  N   UNL     1       2.756  -0.848   1.067  1.00  0.00    -0.323 N 
ATOM     18  O   UNL     1       1.090   0.678   0.733  1.00  0.00    -0.275 OA
ATOM     19  C   UNL     1       2.276   0.377   0.688  1.00  0.00     0.224 C 
ATOM     20  H   UNL     1       3.689  -0.871   1.379  1.00  0.00     0.170 HD
BRANCH  19  21
ATOM     21  C   UNL     1       3.286   1.373   0.137  1.00  0.00     0.105 C 
BRANCH  21  22
ATOM     22  C   UNL     1       4.406   1.811   1.069  1.00  0.00     0.045 C 
BRANCH  22  23
ATOM     23  C   UNL     1       5.505   0.816   1.365  1.00  0.00    -0.048 A 
ATOM     24  C   UNL     1       5.731  -0.347   0.615  1.00  0.00     0.004 A 
ATOM     25  C   UNL     1       6.329   1.064   2.472  1.00  0.00     0.004 A 
ATOM     26  C   UNL     1       6.631  -1.315   1.060  1.00  0.00     0.000 A 
ATOM     27  C   UNL     1       7.267   0.119   2.887  1.00  0.00     0.000 A 
ATOM     28  C   UNL     1       7.389  -1.087   2.204  1.00  0.00     0.000 A 
ENDBRANCH  22  23
ENDBRANCH  21  22
ENDBRANCH  19  21
ENDBRANCH  12  17
ENDBRANCH  10  11
ENDBRANCH   6  10
ENDBRANCH   3   5
ENDBRANCH   2   3
ENDBRANCH   1   2
BRANCH   1  29
ATOM     29  C   UNL     1      -3.420   0.532   0.382  1.00  0.00     0.202 C 
BRANCH  29  30
ATOM     30  O   UNL     1      -2.916   1.820   0.736  1.00  0.00    -0.374 OA
BRANCH  30  31
ATOM     31  C   UNL     1      -1.528   1.849   1.081  1.00  0.00     0.202 C 
BRANCH  31  32
ATOM     32  C   UNL     1      -1.208   1.440   2.529  1.00  0.00     0.261 C 
BRANCH  32  33
ATOM     33  O   UNL     1      -1.430   0.033   2.752  1.00  0.00    -0.460 OA
BRANCH  33  34
ATOM     34  C   UNL     1      -2.485  -0.263   3.541  1.00  0.00     0.338 C 
ATOM     35  O   UNL     1      -3.173   0.509   4.188  1.00  0.00    -0.246 OA
BRANCH  34  36
ATOM     36  C   UNL     1      -2.850  -1.684   3.382  1.00  0.00     0.060 A 
ATOM     37  C   UNL     1      -4.177  -1.959   3.025  1.00  0.00     0.016 A 
ATOM     38  C   UNL     1      -1.962  -2.723   3.663  1.00  0.00     0.016 A 
ATOM     39  C   UNL     1      -4.642  -3.271   3.019  1.00  0.00     0.010 A 
ATOM     40  C   UNL     1      -2.434  -4.043   3.665  1.00  0.00     0.010 A 
ATOM     41  C   UNL     1      -3.787  -4.316   3.390  1.00  0.00    -0.014 A 
BRANCH  41  42
ATOM     42  C   UNL     1      -4.367  -5.658   3.656  1.00  0.00     0.031 A 
ATOM     43  C   UNL     1      -4.609  -6.077   5.081  1.00  0.00     0.074 A 
ATOM     44  C   UNL     1      -4.736  -6.466   2.648  1.00  0.00     0.049 A 
ATOM     45  N   UNL     1      -5.094  -7.199   5.550  1.00  0.00    -0.248 NA
ATOM     46  C   UNL     1      -4.253  -5.096   6.119  1.00  0.00     0.031 C 
ATOM     47  C   UNL     1      -4.606  -6.155   1.227  1.00  0.00     0.029 A 
ATOM     48  N   UNL     1      -5.300  -7.718   2.670  1.00  0.00    -0.354 N 
ATOM     49  C   UNL     1      -5.096  -7.061   6.933  1.00  0.00     0.074 A 
ATOM     50  C   UNL     1      -4.528  -5.764   7.229  1.00  0.00     0.031 C 
ATOM     51  C   UNL     1      -5.070  -7.193   0.510  1.00  0.00     0.029 A 
ATOM     52  C   UNL     1      -5.498  -8.253   1.422  1.00  0.00     0.049 A 
ATOM     53  H   UNL     1      -5.538  -8.187   3.502  1.00  0.00     0.167 HD
ATOM     54  C   UNL     1      -5.542  -7.932   7.870  1.00  0.00     0.037 A 
ATOM     55  C   UNL     1      -5.953  -9.469   1.059  1.00  0.00     0.037 A 
ATOM     56  C   UNL     1      -6.109  -9.222   7.574  1.00  0.00     0.049 A 
ATOM     57  C   UNL     1      -6.374 -10.451   2.122  1.00  0.00     0.074 A 
ATOM     58  C   UNL     1      -6.597 -10.174   8.453  1.00  0.00     0.029 A 
ATOM     59  N   UNL     1      -6.258  -9.745   6.297  1.00  0.00    -0.354 N 
ATOM     60  N   UNL     1      -6.382 -10.311   3.425  1.00  0.00    -0.248 NA
ATOM     61  C   UNL     1      -6.857 -11.760   1.659  1.00  0.00     0.031 C 
ATOM     62  C   UNL     1      -6.984 -11.296   7.713  1.00  0.00     0.029 A 
ATOM     63  C   UNL     1      -6.805 -11.017   6.367  1.00  0.00     0.049 A 
ATOM     64  H   UNL     1      -6.013  -9.281   5.465  1.00  0.00     0.167 HD
ATOM     65  C   UNL     1      -6.902 -11.495   3.936  1.00  0.00     0.074 A 
ATOM     66  C   UNL     1      -7.205 -12.339   2.800  1.00  0.00     0.031 C 
ATOM     67  C   UNL     1      -7.112 -11.847   5.229  1.00  0.00     0.037 A 
BRANCH  54  68
ATOM     68  C   UNL     1      -5.401  -7.529   9.311  1.00  0.00     0.064 A 
ATOM     69  C   UNL     1      -6.163  -6.490   9.870  1.00  0.00     0.173 A 
ATOM     70  C   UNL     1      -4.503  -8.205  10.151  1.00  0.00     0.173 A 
ATOM     71  F   UNL     1      -7.028  -5.802   9.109  1.00  0.00    -0.203 F 
ATOM     72  C   UNL     1      -6.004  -6.121  11.204  1.00  0.00     0.198 A 
ATOM     73  C   UNL     1      -4.372  -7.856  11.493  1.00  0.00     0.198 A 
ATOM     74  F   UNL     1      -3.754  -9.209   9.672  1.00  0.00    -0.203 F 
ATOM     75  F   UNL     1      -6.699  -5.088  11.699  1.00  0.00    -0.200 F 
ATOM     76  C   UNL     1      -5.114  -6.808  12.015  1.00  0.00     0.200 A 
ATOM     77  F   UNL     1      -3.523  -8.532  12.279  1.00  0.00    -0.200 F 
ATOM     78  F   UNL     1      -4.965  -6.455  13.299  1.00  0.00    -0.200 F 
ENDBRANCH  54  68
BRANCH  55  79
ATOM     79  C   UNL     1      -6.023  -9.829  -0.382  1.00  0.00     0.064 A 
ATOM     80  C   UNL     1      -7.253 -10.022  -1.025  1.00  0.00     0.173 A 
ATOM     81  C   UNL     1      -4.856  -9.998  -1.143  1.00  0.00     0.173 A 
ATOM     82  F   UNL     1      -8.396  -9.899  -0.334  1.00  0.00    -0.203 F 
ATOM     83  C   UNL     1      -7.313 -10.386  -2.369  1.00  0.00     0.198 A 
ATOM     84  C   UNL     1      -4.918 -10.330  -2.494  1.00  0.00     0.198 A 
ATOM     85  F   UNL     1      -3.653  -9.827  -0.575  1.00  0.00    -0.203 F 
ATOM     86  F   UNL     1      -8.501 -10.611  -2.947  1.00  0.00    -0.200 F 
ATOM     87  C   UNL     1      -6.146 -10.532  -3.104  1.00  0.00     0.200 A 
ATOM     88  F   UNL     1      -3.788 -10.457  -3.203  1.00  0.00    -0.200 F 
ATOM     89  F   UNL     1      -6.205 -10.875  -4.398  1.00  0.00    -0.200 F 
ENDBRANCH  55  79
BRANCH  67  90
ATOM     90  C   UNL     1      -7.746 -13.186   5.489  1.00  0.00     0.064 A 
ATOM     91  C   UNL     1      -7.064 -14.390   5.260  1.00  0.00     0.173 A 
ATOM     92  C   UNL     1      -9.047 -13.261   6.013  1.00  0.00     0.173 A 
ATOM     93  F   UNL     1      -5.823 -14.376   4.750  1.00  0.00    -0.203 F 
ATOM     94  C   UNL     1      -7.670 -15.618   5.516  1.00  0.00     0.198 A 
ATOM     95  C   UNL     1      -9.637 -14.489   6.300  1.00  0.00     0.198 A 
ATOM     96  F   UNL     1      -9.743 -12.141   6.261  1.00  0.00    -0.203 F 
ATOM     97  F   UNL     1      -7.019 -16.755   5.237  1.00  0.00    -0.200 F 
ATOM     98  C   UNL     1      -8.953 -15.666   6.042  1.00  0.00     0.200 A 
ATOM     99  F   UNL     1     -10.869 -14.532   6.826  1.00  0.00    -0.200 F 
ATOM    100  F   UNL     1      -9.531 -16.848   6.294  1.00  0.00    -0.200 F 
ENDBRANCH  67  90
ENDBRANCH  41  42
ENDBRANCH  34  36
ENDBRANCH  33  34
ENDBRANCH  32  33
ENDBRANCH  31  32
ENDBRANCH  30  31
ENDBRANCH  29  30
ENDBRANCH   1  29
TORSDOF 20
