REMARK SMILES C[C@@H](C(=O)[C@H](C)[C@@H](C)C(=O)OCCOCCOC(=O)c1ccc(-c2c3nc(c(-c4c(F)c(F)c(F)c(F)c4F)c4ccc([nH]4)c(-c4c(F)c(F)c(F)c(F)c4F)c4nc(c(-c5c(F)c(F)c(F)c(F)c5F)c5ccc2[nH]5)C=C4)C=C3)cc1)c1ccccc1
REMARK SMILES IDX 13 1 12 2 11 3 9 4 10 5 7 6 8 7 5 8 6 9 3 10 4 11 2 12 1 13
REMARK SMILES IDX 83 14 84 15 88 16 85 17 87 18 86 19 14 20 15 21 16 22 17 23
REMARK SMILES IDX 18 24 19 25 20 26 21 27 82 28 22 29 81 30 23 31 24 32 25 33
REMARK SMILES IDX 75 34 26 35 80 36 74 37 76 38 27 39 79 40 73 41 72 42 28 44
REMARK SMILES IDX 60 45 40 46 59 47 41 48 44 49 58 50 77 51 42 52 43 53 57 55
REMARK SMILES IDX 78 56 45 57 29 58 30 59 38 60 31 61 32 62 36 63 39 64 33 65
REMARK SMILES IDX 34 66 37 67 35 68 61 69 62 70 70 71 63 72 64 73 68 74 71 75
REMARK SMILES IDX 65 76 66 77 69 78 67 79 46 80 47 81 55 82 48 83 49 84 53 85
REMARK SMILES IDX 56 86 50 87 51 88 54 89 52 90
REMARK H PARENT 76 43 44 54
REMARK Flexibility Score: inf
ROOT
ATOM      1  C   UNL     1       7.141   1.087   3.415  1.00  0.00     0.202 C 
ENDROOT
BRANCH   1   2
ATOM      2  C   UNL     1       6.063   1.918   2.718  1.00  0.00     0.261 C 
BRANCH   2   3
ATOM      3  O   UNL     1       4.787   1.242   2.638  1.00  0.00    -0.463 OA
BRANCH   3   4
ATOM      4  C   UNL     1       4.279   1.090   1.387  1.00  0.00     0.309 C 
ATOM      5  O   UNL     1       4.901   1.289   0.349  1.00  0.00    -0.252 OA
BRANCH   4   6
ATOM      6  C   UNL     1       2.796   0.772   1.372  1.00  0.00     0.106 C 
ATOM      7  C   UNL     1       2.104   2.121   1.642  1.00  0.00     0.021 C 
BRANCH   6   8
ATOM      8  C   UNL     1       2.327  -0.344   2.326  1.00  0.00     0.067 C 
ATOM      9  C   UNL     1       0.796  -0.301   2.515  1.00  0.00     0.017 C 
BRANCH   8  10
ATOM     10  C   UNL     1       2.663  -1.827   2.054  1.00  0.00     0.143 C 
ATOM     11  O   UNL     1       2.347  -2.626   2.950  1.00  0.00    -0.299 OA
BRANCH  10  12
ATOM     12  C   UNL     1       3.372  -2.322   0.769  1.00  0.00     0.083 C 
ATOM     13  C   UNL     1       2.469  -2.295  -0.458  1.00  0.00     0.021 C 
BRANCH  12  14
ATOM     14  C   UNL     1       3.951  -3.743   0.944  1.00  0.00    -0.038 A 
ATOM     15  C   UNL     1       3.137  -4.821   1.336  1.00  0.00     0.004 A 
ATOM     16  C   UNL     1       5.323  -3.988   0.784  1.00  0.00     0.004 A 
ATOM     17  C   UNL     1       3.688  -6.063   1.664  1.00  0.00     0.000 A 
ATOM     18  C   UNL     1       5.878  -5.226   1.132  1.00  0.00     0.000 A 
ATOM     19  C   UNL     1       5.062  -6.257   1.588  1.00  0.00     0.000 A 
ENDBRANCH  12  14
ENDBRANCH  10  12
ENDBRANCH   8  10
ENDBRANCH   6   8
ENDBRANCH   4   6
ENDBRANCH   3   4
ENDBRANCH   2   3
ENDBRANCH   1   2
BRANCH   1  20
ATOM     20  O   UNL     1       7.717   0.003   2.690  1.00  0.00    -0.374 OA
BRANCH  20  21
ATOM     21  C   UNL     1       6.858  -1.005   2.182  1.00  0.00     0.202 C 
BRANCH  21  22
ATOM     22  C   UNL     1       6.139  -1.929   3.175  1.00  0.00     0.261 C 
BRANCH  22  23
ATOM     23  O   UNL     1       6.107  -1.460   4.509  1.00  0.00    -0.460 OA
BRANCH  23  24
ATOM     24  C   UNL     1       7.149  -1.895   5.242  1.00  0.00     0.338 C 
ATOM     25  O   UNL     1       8.025  -2.688   4.927  1.00  0.00    -0.246 OA
BRANCH  24  26
ATOM     26  C   UNL     1       7.169  -1.099   6.464  1.00  0.00     0.060 A 
ATOM     27  C   UNL     1       8.352  -0.418   6.748  1.00  0.00     0.016 A 
ATOM     28  C   UNL     1       6.052  -1.027   7.304  1.00  0.00     0.016 A 
ATOM     29  C   UNL     1       8.453   0.286   7.933  1.00  0.00     0.010 A 
ATOM     30  C   UNL     1       6.153  -0.315   8.494  1.00  0.00     0.010 A 
ATOM     31  C   UNL     1       7.372   0.295   8.827  1.00  0.00    -0.014 A 
BRANCH  31  32
ATOM     32  C   UNL     1       7.621   0.789  10.191  1.00  0.00     0.031 A 
ATOM     33  C   UNL     1       7.971  -0.211  11.251  1.00  0.00     0.074 A 
ATOM     34  C   UNL     1       7.645   2.110  10.423  1.00  0.00     0.049 A 
ATOM     35  N   UNL     1       8.379  -0.013  12.476  1.00  0.00    -0.248 NA
ATOM     36  C   UNL     1       7.853  -1.632  10.878  1.00  0.00     0.031 C 
ATOM     37  C   UNL     1       7.345   3.143   9.432  1.00  0.00     0.029 A 
ATOM     38  N   UNL     1       7.965   2.806  11.556  1.00  0.00    -0.354 N 
ATOM     39  C   UNL     1       8.572  -1.278  13.014  1.00  0.00     0.074 A 
ATOM     40  C   UNL     1       8.198  -2.239  12.002  1.00  0.00     0.031 C 
ATOM     41  C   UNL     1       7.522   4.349   9.996  1.00  0.00     0.029 A 
ATOM     42  C   UNL     1       7.931   4.167  11.386  1.00  0.00     0.049 A 
ATOM     43  H   UNL     1       8.196   2.373  12.409  1.00  0.00     0.167 HD
ATOM     44  C   UNL     1       9.039  -1.601  14.242  1.00  0.00     0.037 A 
ATOM     45  C   UNL     1       8.215   5.145  12.264  1.00  0.00     0.037 A 
ATOM     46  C   UNL     1       9.401  -0.624  15.232  1.00  0.00     0.049 A 
ATOM     47  C   UNL     1       8.688   4.757  13.639  1.00  0.00     0.074 A 
ATOM     48  C   UNL     1       9.890  -0.823  16.509  1.00  0.00     0.029 A 
ATOM     49  N   UNL     1       9.302   0.750  15.048  1.00  0.00    -0.354 N 
ATOM     50  N   UNL     1       8.907   3.561  14.133  1.00  0.00    -0.248 NA
ATOM     51  C   UNL     1       8.966   5.853  14.573  1.00  0.00     0.031 C 
ATOM     52  C   UNL     1      10.040   0.430  17.115  1.00  0.00     0.029 A 
ATOM     53  C   UNL     1       9.697   1.411  16.198  1.00  0.00     0.049 A 
ATOM     54  H   UNL     1       8.997   1.188  14.221  1.00  0.00     0.167 HD
ATOM     55  C   UNL     1       9.374   3.759  15.425  1.00  0.00     0.074 A 
ATOM     56  C   UNL     1       9.422   5.194  15.629  1.00  0.00     0.031 C 
ATOM     57  C   UNL     1       9.731   2.844  16.360  1.00  0.00     0.037 A 
BRANCH  44  58
ATOM     58  C   UNL     1       9.140  -3.060  14.578  1.00  0.00     0.064 A 
ATOM     59  C   UNL     1      10.094  -3.896  13.976  1.00  0.00     0.173 A 
ATOM     60  C   UNL     1       8.261  -3.635  15.508  1.00  0.00     0.173 A 
ATOM     61  F   UNL     1      10.944  -3.402  13.063  1.00  0.00    -0.203 F 
ATOM     62  C   UNL     1      10.143  -5.257  14.269  1.00  0.00     0.198 A 
ATOM     63  C   UNL     1       8.332  -4.990  15.821  1.00  0.00     0.198 A 
ATOM     64  F   UNL     1       7.328  -2.883  16.110  1.00  0.00    -0.203 F 
ATOM     65  F   UNL     1      11.024  -6.046  13.640  1.00  0.00    -0.200 F 
ATOM     66  C   UNL     1       9.265  -5.802  15.195  1.00  0.00     0.200 A 
ATOM     67  F   UNL     1       7.487  -5.513  16.721  1.00  0.00    -0.200 F 
ATOM     68  F   UNL     1       9.312  -7.112  15.475  1.00  0.00    -0.200 F 
ENDBRANCH  44  58
BRANCH  45  69
ATOM     69  C   UNL     1       8.090   6.568  11.856  1.00  0.00     0.064 A 
ATOM     70  C   UNL     1       9.220   7.385  11.722  1.00  0.00     0.173 A 
ATOM     71  C   UNL     1       6.838   7.137  11.582  1.00  0.00     0.173 A 
ATOM     72  F   UNL     1      10.439   6.892  11.987  1.00  0.00    -0.203 F 
ATOM     73  C   UNL     1       9.102   8.722  11.345  1.00  0.00     0.198 A 
ATOM     74  C   UNL     1       6.723   8.466  11.178  1.00  0.00     0.198 A 
ATOM     75  F   UNL     1       5.725   6.397  11.689  1.00  0.00    -0.203 F 
ATOM     76  F   UNL     1      10.196   9.491  11.261  1.00  0.00    -0.200 F 
ATOM     77  C   UNL     1       7.854   9.259  11.068  1.00  0.00     0.200 A 
ATOM     78  F   UNL     1       5.516   8.976  10.896  1.00  0.00    -0.200 F 
ATOM     79  F   UNL     1       7.741  10.542  10.698  1.00  0.00    -0.200 F 
ENDBRANCH  45  69
BRANCH  57  80
ATOM     80  C   UNL     1      10.231   3.377  17.670  1.00  0.00     0.064 A 
ATOM     81  C   UNL     1       9.369   3.987  18.592  1.00  0.00     0.173 A 
ATOM     82  C   UNL     1      11.586   3.254  18.014  1.00  0.00     0.173 A 
ATOM     83  F   UNL     1       8.068   4.141  18.302  1.00  0.00    -0.203 F 
ATOM     84  C   UNL     1       9.853   4.487  19.798  1.00  0.00     0.198 A 
ATOM     85  C   UNL     1      12.059   3.725  19.234  1.00  0.00     0.198 A 
ATOM     86  F   UNL     1      12.448   2.669  17.168  1.00  0.00    -0.203 F 
ATOM     87  F   UNL     1       9.023   5.119  20.639  1.00  0.00    -0.200 F 
ATOM     88  C   UNL     1      11.195   4.350  20.120  1.00  0.00     0.200 A 
ATOM     89  F   UNL     1      13.353   3.579  19.550  1.00  0.00    -0.200 F 
ATOM     90  F   UNL     1      11.658   4.831  21.282  1.00  0.00    -0.200 F 
ENDBRANCH  57  80
ENDBRANCH  31  32
ENDBRANCH  24  26
ENDBRANCH  23  24
ENDBRANCH  22  23
ENDBRANCH  21  22
ENDBRANCH  20  21
ENDBRANCH   1  20
TORSDOF 18
