REMARK SMILES C[C@@H]1CCCN(C(=O)CSc2nnc3c4ccccc4n(CC(=O)OCCOCCOC(=O)c4ccc(-c5c6nc(c(-c7c(F)c(F)c(F)c(F)c7F)c7ccc([nH]7)c(-c7c(F)c(F)c(F)c(F)c7F)c7nc(c(-c8c(F)c(F)c(F)c(F)c8F)c8ccc5[nH]8)C=C7)C=C6)cc4)c3n2)C1
REMARK SMILES IDX 26 1 25 2 23 3 24 4 22 5 21 6 11 7 12 8 98 9 13 10 97 11
REMARK SMILES IDX 14 12 15 13 20 14 16 15 19 16 17 17 18 18 10 19 9 20 7 21
REMARK SMILES IDX 8 22 6 23 1 24 2 25 3 26 99 27 4 28 5 29 27 30 28 31 29 32
REMARK SMILES IDX 30 33 31 34 32 35 33 36 34 37 35 38 96 39 36 40 95 41 37 42
REMARK SMILES IDX 38 43 39 44 89 45 40 46 94 47 88 48 90 49 41 50 93 51 87 52
REMARK SMILES IDX 86 53 42 55 74 56 54 57 73 58 55 59 58 60 72 61 91 62 56 63
REMARK SMILES IDX 57 64 71 66 92 67 59 68 43 69 44 70 52 71 45 72 46 73 50 74
REMARK SMILES IDX 53 75 47 76 48 77 51 78 49 79 75 80 76 81 84 82 77 83 78 84
REMARK SMILES IDX 82 85 85 86 79 87 80 88 83 89 81 90 60 91 61 92 69 93 62 94
REMARK SMILES IDX 63 95 67 96 70 97 64 98 65 99 68 100 66 101
REMARK H PARENT 90 54 58 65
REMARK Flexibility Score: inf
ROOT
ATOM      1  C   UNL     1       5.323   2.960   7.372  1.00  0.00     0.261 C 
ENDROOT
BRANCH   1   2
ATOM      2  O   UNL     1       4.584   3.462   6.241  1.00  0.00    -0.462 OA
BRANCH   2   3
ATOM      3  C   UNL     1       3.293   3.039   6.178  1.00  0.00     0.326 C 
ATOM      4  O   UNL     1       2.795   2.249   6.978  1.00  0.00    -0.250 OA
BRANCH   3   5
ATOM      5  C   UNL     1       2.458   3.605   5.060  1.00  0.00     0.246 C 
BRANCH   5   6
ATOM      6  N   UNL     1       3.009   4.683   4.248  1.00  0.00    -0.313 N 
ATOM      7  C   UNL     1       4.121   3.501   1.094  1.00  0.00     0.211 A 
ATOM      8  N   UNL     1       4.470   4.686   0.528  1.00  0.00    -0.122 NA
ATOM      9  N   UNL     1       3.650   3.313   2.346  1.00  0.00    -0.201 NA
ATOM     10  N   UNL     1       4.348   5.825   1.208  1.00  0.00    -0.144 NA
ATOM     11  C   UNL     1       3.518   4.489   2.987  1.00  0.00     0.165 A 
ATOM     12  C   UNL     1       3.847   5.726   2.464  1.00  0.00     0.138 A 
ATOM     13  C   UNL     1       3.518   6.712   3.427  1.00  0.00     0.030 A 
ATOM     14  C   UNL     1       2.876   6.047   4.484  1.00  0.00     0.053 A 
ATOM     15  C   UNL     1       3.649   8.116   3.474  1.00  0.00     0.013 A 
ATOM     16  C   UNL     1       2.253   6.765   5.520  1.00  0.00     0.027 A 
ATOM     17  C   UNL     1       3.113   8.823   4.552  1.00  0.00     0.001 A 
ATOM     18  C   UNL     1       2.401   8.158   5.546  1.00  0.00     0.002 A 
BRANCH   7  19
ATOM     19  S   UNL     1       4.477   2.023   0.182  1.00  0.00    -0.074 SA
BRANCH  19  20
ATOM     20  C   UNL     1       3.265   2.176  -1.160  1.00  0.00     0.178 C 
BRANCH  20  21
ATOM     21  C   UNL     1       1.824   2.273  -0.680  1.00  0.00     0.233 C 
ATOM     22  O   UNL     1       1.232   3.352  -0.788  1.00  0.00    -0.274 OA
BRANCH  21  23
ATOM     23  N   UNL     1       1.180   1.133  -0.207  1.00  0.00    -0.342 N 
ATOM     24  C   UNL     1      -2.493   0.096   0.099  1.00  0.00     0.009 C 
ATOM     25  C   UNL     1      -1.031   0.015  -0.332  1.00  0.00     0.005 C 
ATOM     26  C   UNL     1      -0.388  -1.282   0.173  1.00  0.00     0.007 C 
ATOM     27  C   UNL     1      -0.235   1.230   0.165  1.00  0.00     0.122 C 
ATOM     28  C   UNL     1       1.074  -1.348  -0.252  1.00  0.00     0.022 C 
ATOM     29  C   UNL     1       1.848  -0.110   0.184  1.00  0.00     0.119 C 
ENDBRANCH  21  23
ENDBRANCH  20  21
ENDBRANCH  19  20
ENDBRANCH   7  19
ENDBRANCH   5   6
ENDBRANCH   3   5
ENDBRANCH   2   3
ENDBRANCH   1   2
BRANCH   1  30
ATOM     30  C   UNL     1       5.705   4.025   8.413  1.00  0.00     0.202 C 
BRANCH  30  31
ATOM     31  O   UNL     1       4.754   4.980   8.851  1.00  0.00    -0.374 OA
BRANCH  31  32
ATOM     32  C   UNL     1       4.304   5.928   7.890  1.00  0.00     0.202 C 
BRANCH  32  33
ATOM     33  C   UNL     1       5.311   6.906   7.254  1.00  0.00     0.261 C 
BRANCH  33  34
ATOM     34  O   UNL     1       6.397   6.248   6.600  1.00  0.00    -0.460 OA
BRANCH  34  35
ATOM     35  C   UNL     1       7.616   6.832   6.805  1.00  0.00     0.338 C 
ATOM     36  O   UNL     1       7.856   7.971   7.119  1.00  0.00    -0.246 OA
BRANCH  35  37
ATOM     37  C   UNL     1       8.518   5.682   7.020  1.00  0.00     0.060 A 
ATOM     38  C   UNL     1       8.517   4.614   6.118  1.00  0.00     0.016 A 
ATOM     39  C   UNL     1       8.990   5.536   8.334  1.00  0.00     0.016 A 
ATOM     40  C   UNL     1       8.866   3.356   6.585  1.00  0.00     0.010 A 
ATOM     41  C   UNL     1       9.302   4.269   8.805  1.00  0.00     0.010 A 
ATOM     42  C   UNL     1       9.182   3.173   7.946  1.00  0.00    -0.014 A 
BRANCH  42  43
ATOM     43  C   UNL     1       9.659   1.856   8.368  1.00  0.00     0.031 A 
ATOM     44  C   UNL     1      10.991   1.575   7.766  1.00  0.00     0.074 A 
ATOM     45  C   UNL     1       9.088   1.043   9.283  1.00  0.00     0.049 A 
ATOM     46  N   UNL     1      11.299   0.648   6.921  1.00  0.00    -0.248 NA
ATOM     47  C   UNL     1      12.053   2.577   7.977  1.00  0.00     0.031 C 
ATOM     48  C   UNL     1       7.926   1.288  10.133  1.00  0.00     0.029 A 
ATOM     49  N   UNL     1       9.494  -0.192   9.706  1.00  0.00    -0.354 N 
ATOM     50  C   UNL     1      12.646   0.846   6.636  1.00  0.00     0.074 A 
ATOM     51  C   UNL     1      12.995   2.144   7.143  1.00  0.00     0.031 C 
ATOM     52  C   UNL     1       7.856   0.352  11.108  1.00  0.00     0.029 A 
ATOM     53  C   UNL     1       8.899  -0.630  10.890  1.00  0.00     0.049 A 
ATOM     54  H   UNL     1      10.156  -0.731   9.214  1.00  0.00     0.167 HD
ATOM     55  C   UNL     1      13.443  -0.184   6.250  1.00  0.00     0.037 A 
ATOM     56  C   UNL     1       9.286  -1.687  11.654  1.00  0.00     0.037 A 
ATOM     57  C   UNL     1      12.671  -1.275   5.718  1.00  0.00     0.049 A 
ATOM     58  C   UNL     1      10.118  -2.562  10.792  1.00  0.00     0.074 A 
ATOM     59  C   UNL     1      11.823  -1.424   4.638  1.00  0.00     0.029 A 
ATOM     60  N   UNL     1      12.412  -2.340   6.543  1.00  0.00    -0.354 N 
ATOM     61  N   UNL     1       9.647  -3.241   9.786  1.00  0.00    -0.248 NA
ATOM     62  C   UNL     1      11.548  -2.299  10.768  1.00  0.00     0.031 C 
ATOM     63  C   UNL     1      10.780  -2.278   5.100  1.00  0.00     0.029 A 
ATOM     64  C   UNL     1      11.085  -2.655   6.407  1.00  0.00     0.049 A 
ATOM     65  H   UNL     1      13.061  -2.795   7.126  1.00  0.00     0.167 HD
ATOM     66  C   UNL     1      10.614  -3.111   8.802  1.00  0.00     0.074 A 
ATOM     67  C   UNL     1      11.787  -2.566   9.482  1.00  0.00     0.031 C 
ATOM     68  C   UNL     1      10.280  -3.182   7.481  1.00  0.00     0.037 A 
BRANCH  55  69
ATOM     69  C   UNL     1      14.866  -0.335   6.725  1.00  0.00     0.064 A 
ATOM     70  C   UNL     1      15.680  -1.331   6.159  1.00  0.00     0.173 A 
ATOM     71  C   UNL     1      15.371   0.268   7.901  1.00  0.00     0.173 A 
ATOM     72  F   UNL     1      15.279  -2.000   5.067  1.00  0.00    -0.203 F 
ATOM     73  C   UNL     1      16.881  -1.726   6.754  1.00  0.00     0.198 A 
ATOM     74  C   UNL     1      16.596  -0.085   8.457  1.00  0.00     0.198 A 
ATOM     75  F   UNL     1      14.654   1.133   8.628  1.00  0.00    -0.203 F 
ATOM     76  F   UNL     1      17.564  -2.762   6.248  1.00  0.00    -0.200 F 
ATOM     77  C   UNL     1      17.339  -1.102   7.901  1.00  0.00     0.200 A 
ATOM     78  F   UNL     1      17.004   0.515   9.584  1.00  0.00    -0.200 F 
ATOM     79  F   UNL     1      18.462  -1.514   8.501  1.00  0.00    -0.200 F 
ENDBRANCH  55  69
BRANCH  56  80
ATOM     80  C   UNL     1       9.333  -1.807  13.138  1.00  0.00     0.064 A 
ATOM     81  C   UNL     1       9.612  -3.045  13.751  1.00  0.00     0.173 A 
ATOM     82  C   UNL     1       9.435  -0.672  13.965  1.00  0.00     0.173 A 
ATOM     83  F   UNL     1       9.575  -4.177  13.032  1.00  0.00    -0.203 F 
ATOM     84  C   UNL     1      10.019  -3.134  15.088  1.00  0.00     0.198 A 
ATOM     85  C   UNL     1       9.836  -0.763  15.300  1.00  0.00     0.198 A 
ATOM     86  F   UNL     1       9.249   0.558  13.469  1.00  0.00    -0.203 F 
ATOM     87  F   UNL     1      10.353  -4.323  15.609  1.00  0.00    -0.200 F 
ATOM     88  C   UNL     1      10.148  -1.990  15.856  1.00  0.00     0.200 A 
ATOM     89  F   UNL     1       9.991   0.355  16.024  1.00  0.00    -0.200 F 
ATOM     90  F   UNL     1      10.613  -2.063  17.111  1.00  0.00    -0.200 F 
ENDBRANCH  56  80
BRANCH  68  91
ATOM     91  C   UNL     1       8.890  -3.638   7.133  1.00  0.00     0.064 A 
ATOM     92  C   UNL     1       7.720  -2.933   7.470  1.00  0.00     0.173 A 
ATOM     93  C   UNL     1       8.753  -4.753   6.297  1.00  0.00     0.173 A 
ATOM     94  F   UNL     1       7.776  -1.805   8.189  1.00  0.00    -0.203 F 
ATOM     95  C   UNL     1       6.469  -3.350   7.013  1.00  0.00     0.198 A 
ATOM     96  C   UNL     1       7.509  -5.144   5.812  1.00  0.00     0.198 A 
ATOM     97  F   UNL     1       9.841  -5.433   5.903  1.00  0.00    -0.203 F 
ATOM     98  F   UNL     1       5.366  -2.664   7.349  1.00  0.00    -0.200 F 
ATOM     99  C   UNL     1       6.367  -4.449   6.176  1.00  0.00     0.200 A 
ATOM    100  F   UNL     1       7.421  -6.178   4.964  1.00  0.00    -0.200 F 
ATOM    101  F   UNL     1       5.172  -4.822   5.695  1.00  0.00    -0.200 F 
ENDBRANCH  68  91
ENDBRANCH  42  43
ENDBRANCH  35  37
ENDBRANCH  34  35
ENDBRANCH  33  34
ENDBRANCH  32  33
ENDBRANCH  31  32
ENDBRANCH  30  31
ENDBRANCH   1  30
TORSDOF 19
