REMARK SMILES CC(C)[C@H](NC(=O)Cn1ccc2c(Br)cccc21)C(=O)OCCOCCOC(=O)c1ccc(-c2c3nc(c(-c4c(F)c(F)c(F)c(F)c4F)c4ccc([nH]4)c(-c4c(F)c(F)c(F)c(F)c4F)c4nc(c(-c5c(F)c(F)c(F)c(F)c5F)c5ccc2[nH]5)C=C4)C=C3)cc1
REMARK SMILES IDX 23 1 22 2 21 3 19 4 20 5 4 6 2 7 1 8 3 9 5 10 6 11 7 13 8 14
REMARK SMILES IDX 9 15 10 16 18 17 11 18 12 19 17 20 13 21 16 22 14 23 15 24
REMARK SMILES IDX 24 25 25 26 26 27 27 28 28 29 29 30 30 31 31 32 92 33 32 34
REMARK SMILES IDX 91 35 33 36 34 37 35 38 85 39 36 40 90 41 84 42 86 43 37 44
REMARK SMILES IDX 89 45 83 46 82 47 38 49 70 50 50 51 69 52 51 53 54 54 68 55
REMARK SMILES IDX 87 56 52 57 53 58 67 60 88 61 55 62 39 63 40 64 48 65 41 66
REMARK SMILES IDX 42 67 46 68 49 69 43 70 44 71 47 72 45 73 71 74 72 75 80 76
REMARK SMILES IDX 73 77 74 78 78 79 81 80 75 81 76 82 79 83 77 84 56 85 57 86
REMARK SMILES IDX 65 87 58 88 59 89 63 90 66 91 60 92 61 93 64 94 62 95
REMARK H PARENT 5 12 86 48 54 59
REMARK Flexibility Score: inf
ROOT
ATOM      1  C   UNL     1      -2.304  -0.226   5.723  1.00  0.00     0.202 C 
ENDROOT
BRANCH   1   2
ATOM      2  C   UNL     1      -2.897  -1.407   4.710  1.00  0.00     0.261 C 
BRANCH   2   3
ATOM      3  O   UNL     1      -2.277  -1.607   3.369  1.00  0.00    -0.462 OA
BRANCH   3   4
ATOM      4  C   UNL     1      -2.777  -1.182   2.175  1.00  0.00     0.328 C 
ATOM      5  O   UNL     1      -3.973  -1.089   1.934  1.00  0.00    -0.250 OA
BRANCH   4   6
ATOM      6  C   UNL     1      -1.644  -0.820   1.132  1.00  0.00     0.194 C 
BRANCH   6   7
ATOM      7  C   UNL     1      -1.615  -1.920   0.042  1.00  0.00     0.017 C 
ATOM      8  C   UNL     1      -0.393  -1.891  -0.889  1.00  0.00     0.010 C 
ATOM      9  C   UNL     1      -1.733  -3.307   0.671  1.00  0.00     0.010 C 
ENDBRANCH   6   7
BRANCH   6  10
ATOM     10  N   UNL     1      -0.273  -0.391   1.478  1.00  0.00    -0.341 N 
ATOM     11  C   UNL     1       0.528  -0.663   2.523  1.00  0.00     0.240 C 
ATOM     12  H   UNL     1       0.133   0.212   0.813  1.00  0.00     0.164 HD
ATOM     13  O   UNL     1       1.734  -0.789   2.285  1.00  0.00    -0.273 OA
BRANCH  11  14
ATOM     14  C   UNL     1       0.002  -0.697   3.929  1.00  0.00     0.222 C 
BRANCH  14  15
ATOM     15  N   UNL     1      -0.668   0.543   4.470  1.00  0.00    -0.338 N 
ATOM     16  C   UNL     1      -2.205   1.144   3.506  1.00  0.00     0.087 A 
ATOM     17  C   UNL     1      -0.318   1.922   5.785  1.00  0.00     0.050 A 
ATOM     18  C   UNL     1      -2.694   2.693   4.156  1.00  0.00     0.029 A 
ATOM     19  C   UNL     1      -1.560   3.177   5.587  1.00  0.00     0.014 A 
ATOM     20  C   UNL     1       0.806   2.558   6.511  1.00  0.00     0.027 A 
ATOM     21  C   UNL     1      -1.426   4.421   6.232  1.00  0.00     0.027 A 
ATOM     22  C   UNL     1       0.853   3.902   6.933  1.00  0.00     0.003 A 
ATOM     23  Br  UNL     1      -2.757   5.742   6.003  1.00  0.00    -0.050 Br
ATOM     24  C   UNL     1      -0.217   4.781   6.828  1.00  0.00     0.016 A 
ENDBRANCH  14  15
ENDBRANCH  11  14
ENDBRANCH   6  10
ENDBRANCH   4   6
ENDBRANCH   3   4
ENDBRANCH   2   3
ENDBRANCH   1   2
BRANCH   1  25
ATOM     25  O   UNL     1      -1.968   1.371   5.282  1.00  0.00    -0.374 OA
BRANCH  25  26
ATOM     26  C   UNL     1      -0.620   2.283   3.917  1.00  0.00     0.202 C 
BRANCH  26  27
ATOM     27  C   UNL     1       1.200   1.920   3.996  1.00  0.00     0.261 C 
BRANCH  27  28
ATOM     28  O   UNL     1       1.859   0.775   4.861  1.00  0.00    -0.460 OA
BRANCH  28  29
ATOM     29  C   UNL     1       1.559   0.029   6.018  1.00  0.00     0.338 C 
ATOM     30  O   UNL     1       0.679   0.065   6.868  1.00  0.00    -0.246 OA
BRANCH  29  31
ATOM     31  C   UNL     1       2.401  -1.110   6.179  1.00  0.00     0.060 A 
ATOM     32  C   UNL     1       2.441  -1.645   7.475  1.00  0.00     0.016 A 
ATOM     33  C   UNL     1       3.391  -1.236   5.256  1.00  0.00     0.016 A 
ATOM     34  C   UNL     1       3.674  -1.634   8.046  1.00  0.00     0.010 A 
ATOM     35  C   UNL     1       4.563  -1.529   5.820  1.00  0.00     0.010 A 
ATOM     36  C   UNL     1       4.726  -1.329   7.193  1.00  0.00    -0.014 A 
BRANCH  36  37
ATOM     37  C   UNL     1       6.088  -1.312   7.651  1.00  0.00     0.031 A 
ATOM     38  C   UNL     1       6.484  -2.742   7.764  1.00  0.00     0.074 A 
ATOM     39  C   UNL     1       6.795  -0.169   7.806  1.00  0.00     0.049 A 
ATOM     40  N   UNL     1       6.274  -3.467   8.819  1.00  0.00    -0.248 NA
ATOM     41  C   UNL     1       6.633  -3.570   6.538  1.00  0.00     0.031 C 
ATOM     42  C   UNL     1       6.453   1.248   7.591  1.00  0.00     0.029 A 
ATOM     43  N   UNL     1       8.095  -0.070   8.214  1.00  0.00    -0.354 N 
ATOM     44  C   UNL     1       6.607  -4.751   8.419  1.00  0.00     0.074 A 
ATOM     45  C   UNL     1       6.360  -4.788   7.016  1.00  0.00     0.031 C 
ATOM     46  C   UNL     1       7.586   2.005   7.588  1.00  0.00     0.029 A 
ATOM     47  C   UNL     1       8.713   1.165   7.936  1.00  0.00     0.049 A 
ATOM     48  H   UNL     1       8.565  -0.807   8.668  1.00  0.00     0.167 HD
ATOM     49  C   UNL     1       7.542  -5.442   9.126  1.00  0.00     0.037 A 
ATOM     50  C   UNL     1      10.063   1.374   8.006  1.00  0.00     0.037 A 
ATOM     51  C   UNL     1       7.700  -4.829  10.424  1.00  0.00     0.049 A 
ATOM     52  C   UNL     1      10.590   0.273   8.875  1.00  0.00     0.074 A 
ATOM     53  C   UNL     1       6.843  -4.595  11.481  1.00  0.00     0.029 A 
ATOM     54  N   UNL     1       8.714  -3.907  10.523  1.00  0.00    -0.354 N 
ATOM     55  N   UNL     1      10.255   0.167  10.137  1.00  0.00    -0.248 NA
ATOM     56  C   UNL     1      10.911  -0.977   8.188  1.00  0.00     0.031 C 
ATOM     57  C   UNL     1       7.153  -3.277  11.925  1.00  0.00     0.029 A 
ATOM     58  C   UNL     1       8.281  -2.824  11.241  1.00  0.00     0.049 A 
ATOM     59  H   UNL     1       9.614  -4.009  10.137  1.00  0.00     0.167 HD
ATOM     60  C   UNL     1       9.875  -1.160  10.278  1.00  0.00     0.074 A 
ATOM     61  C   UNL     1      10.297  -1.816   9.033  1.00  0.00     0.031 C 
ATOM     62  C   UNL     1       8.942  -1.539  11.202  1.00  0.00     0.037 A 
BRANCH  49  63
ATOM     63  C   UNL     1       8.629  -6.294   8.503  1.00  0.00     0.064 A 
ATOM     64  C   UNL     1       9.453  -7.035   9.368  1.00  0.00     0.173 A 
ATOM     65  C   UNL     1       9.075  -6.230   7.160  1.00  0.00     0.173 A 
ATOM     66  F   UNL     1       9.146  -7.147  10.669  1.00  0.00    -0.203 F 
ATOM     67  C   UNL     1      10.651  -7.610   8.938  1.00  0.00     0.198 A 
ATOM     68  C   UNL     1      10.246  -6.842   6.725  1.00  0.00     0.198 A 
ATOM     69  F   UNL     1       8.476  -5.501   6.217  1.00  0.00    -0.203 F 
ATOM     70  F   UNL     1      11.452  -8.213   9.825  1.00  0.00    -0.200 F 
ATOM     71  C   UNL     1      11.048  -7.512   7.617  1.00  0.00     0.200 A 
ATOM     72  F   UNL     1      10.620  -6.705   5.444  1.00  0.00    -0.200 F 
ATOM     73  F   UNL     1      12.216  -8.025   7.212  1.00  0.00    -0.200 F 
ENDBRANCH  49  63
BRANCH  50  74
ATOM     74  C   UNL     1      10.961   2.127   7.078  1.00  0.00     0.064 A 
ATOM     75  C   UNL     1      12.322   2.369   7.372  1.00  0.00     0.173 A 
ATOM     76  C   UNL     1      10.580   2.344   5.742  1.00  0.00     0.173 A 
ATOM     77  F   UNL     1      12.796   2.150   8.608  1.00  0.00    -0.203 F 
ATOM     78  C   UNL     1      13.238   2.769   6.384  1.00  0.00     0.198 A 
ATOM     79  C   UNL     1      11.495   2.732   4.757  1.00  0.00     0.198 A 
ATOM     80  F   UNL     1       9.328   2.087   5.342  1.00  0.00    -0.203 F 
ATOM     81  F   UNL     1      14.533   2.939   6.691  1.00  0.00    -0.200 F 
ATOM     82  C   UNL     1      12.825   2.933   5.073  1.00  0.00     0.200 A 
ATOM     83  F   UNL     1      11.088   2.846   3.485  1.00  0.00    -0.200 F 
ATOM     84  F   UNL     1      13.708   3.240   4.111  1.00  0.00    -0.200 F 
ENDBRANCH  50  74
BRANCH  62  85
ATOM     85  C   UNL     1       8.448  -0.531  12.209  1.00  0.00     0.064 A 
ATOM     86  C   UNL     1       7.563   0.526  11.924  1.00  0.00     0.173 A 
ATOM     87  C   UNL     1       8.675  -0.828  13.557  1.00  0.00     0.173 A 
ATOM     88  F   UNL     1       7.220   0.818  10.663  1.00  0.00    -0.203 F 
ATOM     89  C   UNL     1       6.941   1.247  12.948  1.00  0.00     0.198 A 
ATOM     90  C   UNL     1       8.028  -0.135  14.573  1.00  0.00     0.198 A 
ATOM     91  F   UNL     1       9.458  -1.868  13.883  1.00  0.00    -0.203 F 
ATOM     92  F   UNL     1       6.079   2.234  12.655  1.00  0.00    -0.200 F 
ATOM     93  C   UNL     1       7.164   0.905  14.272  1.00  0.00     0.200 A 
ATOM     94  F   UNL     1       8.199  -0.517  15.846  1.00  0.00    -0.200 F 
ATOM     95  F   UNL     1       6.521   1.550  15.255  1.00  0.00    -0.200 F 
ENDBRANCH  62  85
ENDBRANCH  36  37
ENDBRANCH  29  31
ENDBRANCH  28  29
ENDBRANCH  27  28
ENDBRANCH  26  27
ENDBRANCH  25  26
ENDBRANCH   1  25
TORSDOF 18
