REMARK SMILES Cc1ccc(N2C(=O)N[C@@H]3CCN(C(=O)CC4(CC(=O)OCCOCCOC(=O)c5ccc(-c6c7nc(c(-c8c(F)c(F)c(F)c(F)c8F)c8ccc([nH]8)c(-c8c(F)c(F)c(F)c(F)c8F)c8nc(c(-c9c(F)c(F)c(F)c(F)c9F)c9ccc6[nH]9)C=C8)C=C7)cc5)CCCC4)[C@@H]3C2=O)cc1
REMARK SMILES IDX 22 1 21 2 19 3 20 4 18 5 17 6 93 7 96 8 94 9 95 10 16 11
REMARK SMILES IDX 14 12 15 13 13 14 6 15 7 16 98 17 8 18 9 19 97 20 99 21
REMARK SMILES IDX 10 22 11 24 12 25 5 26 1 27 2 28 3 29 101 30 4 31 100 32
REMARK SMILES IDX 23 33 24 34 25 35 26 36 27 37 28 38 29 39 30 40 31 41 92 42
REMARK SMILES IDX 32 43 91 44 33 45 34 46 35 47 85 48 36 49 90 50 84 51 86 52
REMARK SMILES IDX 37 53 89 54 83 55 82 56 38 58 70 59 50 60 69 61 51 62 54 63
REMARK SMILES IDX 68 64 87 65 52 66 53 67 67 69 88 70 55 71 39 72 40 73 48 74
REMARK SMILES IDX 41 75 42 76 46 77 49 78 43 79 44 80 47 81 45 82 71 83 72 84
REMARK SMILES IDX 80 85 73 86 74 87 78 88 81 89 75 90 76 91 79 92 77 93 56 94
REMARK SMILES IDX 57 95 65 96 58 97 59 98 63 99 66 100 60 101 61 102 64 103
REMARK SMILES IDX 62 104
REMARK H PARENT 9 23 86 57 54 68
REMARK Flexibility Score: inf
ROOT
ATOM      1  C   UNL     1      -9.601   1.466  -6.127  1.00  0.00     0.261 C 
ENDROOT
BRANCH   1   2
ATOM      2  O   UNL     1      -8.392   0.721  -6.122  1.00  0.00    -0.463 OA
BRANCH   2   3
ATOM      3  C   UNL     1      -7.268   1.179  -6.757  1.00  0.00     0.306 C 
ATOM      4  O   UNL     1      -7.216   2.071  -7.570  1.00  0.00    -0.252 OA
BRANCH   3   5
ATOM      5  C   UNL     1      -6.077   0.370  -6.242  1.00  0.00     0.130 C 
BRANCH   5   6
ATOM      6  C   UNL     1      -6.253  -0.003  -4.727  1.00  0.00    -0.011 C 
ATOM      7  C   UNL     1      -5.011  -0.746  -4.206  1.00  0.00     0.008 C 
ATOM      8  C   UNL     1      -7.376  -1.110  -4.623  1.00  0.00     0.008 C 
ATOM      9  C   UNL     1      -5.260  -2.212  -4.542  1.00  0.00     0.001 C 
ATOM     10  C   UNL     1      -6.719  -2.409  -4.188  1.00  0.00     0.001 C 
BRANCH   6  11
ATOM     11  C   UNL     1      -6.600   1.333  -3.982  1.00  0.00     0.107 C 
BRANCH  11  12
ATOM     12  C   UNL     1      -5.895   1.795  -2.732  1.00  0.00     0.223 C 
ATOM     13  O   UNL     1      -5.213   2.820  -2.734  1.00  0.00    -0.275 OA
BRANCH  12  14
ATOM     14  N   UNL     1      -6.121   1.079  -1.587  1.00  0.00    -0.328 N 
ATOM     15  N   UNL     1      -3.209   0.155   0.363  1.00  0.00    -0.230 N 
ATOM     16  C   UNL     1      -3.821  -0.383   1.484  1.00  0.00     0.329 C 
ATOM     17  C   UNL     1      -3.884   0.756  -0.693  1.00  0.00     0.260 C 
ATOM     18  O   UNL     1      -3.278  -1.063   2.353  1.00  0.00    -0.248 OA
ATOM     19  N   UNL     1      -5.142  -0.100   1.660  1.00  0.00    -0.332 N 
ATOM     20  C   UNL     1      -5.290   1.287  -0.405  1.00  0.00     0.197 C 
ATOM     21  O   UNL     1      -3.373   0.874  -1.813  1.00  0.00    -0.271 OA
ATOM     22  C   UNL     1      -6.002   0.503   0.688  1.00  0.00     0.118 C 
ATOM     23  H   UNL     1      -5.539  -0.329   2.531  1.00  0.00     0.165 HD
ATOM     24  C   UNL     1      -6.795  -0.562  -0.066  1.00  0.00     0.049 C 
ATOM     25  C   UNL     1      -7.195   0.145  -1.336  1.00  0.00     0.122 C 
BRANCH  15  26
ATOM     26  C   UNL     1      -1.794   0.043   0.220  1.00  0.00     0.054 A 
ATOM     27  C   UNL     1       2.498  -0.115  -0.056  1.00  0.00     0.044 C 
ATOM     28  C   UNL     1       1.002  -0.059   0.015  1.00  0.00    -0.051 A 
ATOM     29  C   UNL     1       0.259  -1.230   0.218  1.00  0.00     0.005 A 
ATOM     30  C   UNL     1       0.334   1.159  -0.131  1.00  0.00     0.005 A 
ATOM     31  C   UNL     1      -1.131  -1.179   0.340  1.00  0.00     0.027 A 
ATOM     32  C   UNL     1      -1.054   1.206  -0.046  1.00  0.00     0.027 A 
ENDBRANCH  15  26
ENDBRANCH  12  14
ENDBRANCH  11  12
ENDBRANCH   6  11
ENDBRANCH   5   6
ENDBRANCH   3   5
ENDBRANCH   2   3
ENDBRANCH   1   2
BRANCH   1  33
ATOM     33  C   UNL     1      -9.735   2.383  -4.958  1.00  0.00     0.202 C 
BRANCH  33  34
ATOM     34  O   UNL     1      -9.008   3.547  -5.303  1.00  0.00    -0.374 OA
BRANCH  34  35
ATOM     35  C   UNL     1      -9.024   4.589  -4.344  1.00  0.00     0.202 C 
BRANCH  35  36
ATOM     36  C   UNL     1     -10.420   4.923  -3.790  1.00  0.00     0.261 C 
BRANCH  36  37
ATOM     37  O   UNL     1     -11.287   5.331  -4.874  1.00  0.00    -0.460 OA
BRANCH  37  38
ATOM     38  C   UNL     1     -12.308   4.488  -5.203  1.00  0.00     0.338 C 
ATOM     39  O   UNL     1     -13.038   3.917  -4.409  1.00  0.00    -0.246 OA
BRANCH  38  40
ATOM     40  C   UNL     1     -12.164   4.076  -6.639  1.00  0.00     0.060 A 
ATOM     41  C   UNL     1     -12.850   2.941  -7.122  1.00  0.00     0.016 A 
ATOM     42  C   UNL     1     -11.082   4.575  -7.356  1.00  0.00     0.016 A 
ATOM     43  C   UNL     1     -12.355   2.219  -8.227  1.00  0.00     0.010 A 
ATOM     44  C   UNL     1     -10.544   3.803  -8.368  1.00  0.00     0.010 A 
ATOM     45  C   UNL     1     -11.145   2.599  -8.797  1.00  0.00    -0.014 A 
BRANCH  45  46
ATOM     46  C   UNL     1     -10.319   1.810  -9.737  1.00  0.00     0.031 A 
ATOM     47  C   UNL     1      -9.933   2.463 -11.012  1.00  0.00     0.074 A 
ATOM     48  C   UNL     1      -9.654   0.678  -9.379  1.00  0.00     0.049 A 
ATOM     49  N   UNL     1      -9.303   1.879 -11.969  1.00  0.00    -0.248 NA
ATOM     50  C   UNL     1     -10.248   3.851 -11.319  1.00  0.00     0.031 C 
ATOM     51  C   UNL     1      -8.413   0.147  -9.960  1.00  0.00     0.029 A 
ATOM     52  N   UNL     1      -9.938  -0.270  -8.382  1.00  0.00    -0.354 N 
ATOM     53  C   UNL     1      -8.834   2.848 -12.825  1.00  0.00     0.074 A 
ATOM     54  C   UNL     1      -9.515   4.050 -12.414  1.00  0.00     0.031 C 
ATOM     55  C   UNL     1      -8.223  -1.116  -9.546  1.00  0.00     0.029 A 
ATOM     56  C   UNL     1      -9.403  -1.505  -8.806  1.00  0.00     0.049 A 
ATOM     57  H   UNL     1     -10.422  -0.103  -7.541  1.00  0.00     0.167 HD
ATOM     58  C   UNL     1      -7.841   2.511 -13.701  1.00  0.00     0.037 A 
ATOM     59  C   UNL     1     -10.221  -2.574  -9.003  1.00  0.00     0.037 A 
ATOM     60  C   UNL     1      -7.547   1.062 -13.622  1.00  0.00     0.049 A 
ATOM     61  C   UNL     1     -10.255  -2.928 -10.467  1.00  0.00     0.074 A 
ATOM     62  C   UNL     1      -6.521   0.284 -13.108  1.00  0.00     0.029 A 
ATOM     63  N   UNL     1      -8.587   0.171 -13.854  1.00  0.00    -0.354 N 
ATOM     64  N   UNL     1      -9.431  -2.429 -11.348  1.00  0.00    -0.248 NA
ATOM     65  C   UNL     1     -11.276  -3.768 -11.079  1.00  0.00     0.031 C 
ATOM     66  C   UNL     1      -6.976  -1.076 -13.037  1.00  0.00     0.029 A 
ATOM     67  C   UNL     1      -8.266  -1.137 -13.534  1.00  0.00     0.049 A 
ATOM     68  H   UNL     1      -9.464   0.442 -14.209  1.00  0.00     0.167 HD
ATOM     69  C   UNL     1      -9.864  -2.714 -12.604  1.00  0.00     0.074 A 
ATOM     70  C   UNL     1     -11.013  -3.584 -12.385  1.00  0.00     0.031 C 
ATOM     71  C   UNL     1      -9.288  -2.171 -13.721  1.00  0.00     0.037 A 
BRANCH  58  72
ATOM     72  C   UNL     1      -7.013   3.506 -14.505  1.00  0.00     0.064 A 
ATOM     73  C   UNL     1      -5.799   3.108 -15.107  1.00  0.00     0.173 A 
ATOM     74  C   UNL     1      -7.323   4.870 -14.710  1.00  0.00     0.173 A 
ATOM     75  F   UNL     1      -5.400   1.830 -15.089  1.00  0.00    -0.203 F 
ATOM     76  C   UNL     1      -4.947   4.005 -15.768  1.00  0.00     0.198 A 
ATOM     77  C   UNL     1      -6.451   5.777 -15.323  1.00  0.00     0.198 A 
ATOM     78  F   UNL     1      -8.514   5.385 -14.410  1.00  0.00    -0.203 F 
ATOM     79  F   UNL     1      -3.816   3.555 -16.328  1.00  0.00    -0.200 F 
ATOM     80  C   UNL     1      -5.259   5.345 -15.851  1.00  0.00     0.200 A 
ATOM     81  F   UNL     1      -6.799   7.069 -15.415  1.00  0.00    -0.200 F 
ATOM     82  F   UNL     1      -4.439   6.207 -16.465  1.00  0.00    -0.200 F 
ENDBRANCH  58  72
BRANCH  59  83
ATOM     83  C   UNL     1     -11.349  -2.547  -8.016  1.00  0.00     0.064 A 
ATOM     84  C   UNL     1     -10.996  -2.675  -6.651  1.00  0.00     0.173 A 
ATOM     85  C   UNL     1     -12.545  -1.875  -8.307  1.00  0.00     0.173 A 
ATOM     86  F   UNL     1      -9.856  -3.297  -6.308  1.00  0.00    -0.203 F 
ATOM     87  C   UNL     1     -11.701  -2.002  -5.653  1.00  0.00     0.198 A 
ATOM     88  C   UNL     1     -13.260  -1.224  -7.297  1.00  0.00     0.198 A 
ATOM     89  F   UNL     1     -12.932  -1.703  -9.578  1.00  0.00    -0.203 F 
ATOM     90  F   UNL     1     -11.232  -1.984  -4.396  1.00  0.00    -0.200 F 
ATOM     91  C   UNL     1     -12.809  -1.243  -5.985  1.00  0.00     0.200 A 
ATOM     92  F   UNL     1     -14.324  -0.471  -7.615  1.00  0.00    -0.200 F 
ATOM     93  F   UNL     1     -13.399  -0.476  -5.056  1.00  0.00    -0.200 F 
ENDBRANCH  59  83
BRANCH  71  94
ATOM     94  C   UNL     1      -9.737  -2.558 -15.105  1.00  0.00     0.064 A 
ATOM     95  C   UNL     1     -10.107  -3.876 -15.419  1.00  0.00     0.173 A 
ATOM     96  C   UNL     1      -9.752  -1.648 -16.184  1.00  0.00     0.173 A 
ATOM     97  F   UNL     1      -9.972  -4.864 -14.521  1.00  0.00    -0.203 F 
ATOM     98  C   UNL     1     -10.611  -4.220 -16.672  1.00  0.00     0.198 A 
ATOM     99  C   UNL     1     -10.190  -2.010 -17.454  1.00  0.00     0.198 A 
ATOM    100  F   UNL     1      -9.368  -0.373 -16.052  1.00  0.00    -0.203 F 
ATOM    101  F   UNL     1     -11.057  -5.465 -16.886  1.00  0.00    -0.200 F 
ATOM    102  C   UNL     1     -10.658  -3.285 -17.687  1.00  0.00     0.200 A 
ATOM    103  F   UNL     1     -10.171  -1.105 -18.442  1.00  0.00    -0.200 F 
ATOM    104  F   UNL     1     -11.146  -3.613 -18.890  1.00  0.00    -0.200 F 
ENDBRANCH  71  94
ENDBRANCH  45  46
ENDBRANCH  38  40
ENDBRANCH  37  38
ENDBRANCH  36  37
ENDBRANCH  35  36
ENDBRANCH  34  35
ENDBRANCH  33  34
ENDBRANCH   1  33
TORSDOF 19
