REMARK SMILES O=C(OCCOCCOC(=O)c1cccn1CC(=O)N1CC[C@H]2CCCC[C@H]2C1)c1ccc(-c2c3nc(c(-c4c(F)c(F)c(F)c(F)c4F)c4ccc([nH]4)c(-c4c(F)c(F)c(F)c(F)c4F)c4nc(c(-c5c(F)c(F)c(F)c(F)c5F)c5ccc2[nH]5)C=C4)C=C3)cc1
REMARK SMILES IDX 7 1 6 2 5 3 4 4 3 5 2 6 1 7 30 8 31 9 92 10 32 11 91 12
REMARK SMILES IDX 33 13 34 14 35 15 85 16 36 17 90 18 84 19 86 20 37 21 89 22
REMARK SMILES IDX 83 23 82 24 38 26 70 27 50 28 69 29 51 30 54 31 68 32 87 33
REMARK SMILES IDX 52 34 53 35 67 37 88 38 55 39 39 40 40 41 48 42 41 43 42 44
REMARK SMILES IDX 46 45 49 46 43 47 44 48 47 49 45 50 71 51 72 52 80 53 73 54
REMARK SMILES IDX 74 55 78 56 81 57 75 58 76 59 79 60 77 61 56 62 57 63 65 64
REMARK SMILES IDX 58 65 59 66 63 67 66 68 60 69 61 70 64 71 62 72 8 73 9 74
REMARK SMILES IDX 10 75 11 76 12 77 13 78 16 79 14 80 15 81 17 82 18 83 19 84
REMARK SMILES IDX 20 85 21 86 29 87 22 88 28 89 23 90 27 91 24 92 26 93 25 94
REMARK H PARENT 86 25 54 36
REMARK Flexibility Score: inf
ROOT
ATOM      1  C   UNL     1       3.002  -1.140  -2.556  1.00  0.00     0.202 C 
ENDROOT
BRANCH   1   2
ATOM      2  O   UNL     1       4.065  -0.192  -2.385  1.00  0.00    -0.374 OA
BRANCH   2   3
ATOM      3  C   UNL     1       4.984  -0.410  -1.329  1.00  0.00     0.202 C 
BRANCH   3   4
ATOM      4  C   UNL     1       4.467  -0.191   0.089  1.00  0.00     0.261 C 
BRANCH   4   5
ATOM      5  O   UNL     1       3.044  -0.356   0.203  1.00  0.00    -0.460 OA
BRANCH   5   6
ATOM      6  C   UNL     1       2.067   0.567   0.052  1.00  0.00     0.338 C 
ATOM      7  O   UNL     1       0.910   0.241  -0.190  1.00  0.00    -0.246 OA
BRANCH   6   8
ATOM      8  C   UNL     1       2.361   1.949   0.434  1.00  0.00     0.060 A 
ATOM      9  C   UNL     1       3.553   2.576   0.090  1.00  0.00     0.016 A 
ATOM     10  C   UNL     1       1.405   2.601   1.226  1.00  0.00     0.016 A 
ATOM     11  C   UNL     1       3.926   3.712   0.765  1.00  0.00     0.010 A 
ATOM     12  C   UNL     1       1.702   3.832   1.778  1.00  0.00     0.010 A 
ATOM     13  C   UNL     1       2.983   4.353   1.576  1.00  0.00    -0.014 A 
BRANCH  13  14
ATOM     14  C   UNL     1       3.294   5.752   1.878  1.00  0.00     0.031 A 
ATOM     15  C   UNL     1       3.294   6.553   0.555  1.00  0.00     0.074 A 
ATOM     16  C   UNL     1       3.600   6.039   3.176  1.00  0.00     0.049 A 
ATOM     17  N   UNL     1       4.013   7.568   0.191  1.00  0.00    -0.248 NA
ATOM     18  C   UNL     1       2.447   6.069  -0.582  1.00  0.00     0.031 C 
ATOM     19  C   UNL     1       3.521   5.083   4.301  1.00  0.00     0.029 A 
ATOM     20  N   UNL     1       4.053   7.168   3.817  1.00  0.00    -0.354 N 
ATOM     21  C   UNL     1       3.556   7.962  -1.088  1.00  0.00     0.074 A 
ATOM     22  C   UNL     1       2.744   6.898  -1.582  1.00  0.00     0.031 C 
ATOM     23  C   UNL     1       3.979   5.636   5.445  1.00  0.00     0.029 A 
ATOM     24  C   UNL     1       4.376   7.006   5.193  1.00  0.00     0.049 A 
ATOM     25  H   UNL     1       4.147   8.032   3.355  1.00  0.00     0.167 HD
ATOM     26  C   UNL     1       3.712   9.227  -1.574  1.00  0.00     0.037 A 
ATOM     27  C   UNL     1       4.958   7.911   6.043  1.00  0.00     0.037 A 
ATOM     28  C   UNL     1       4.416  10.017  -0.623  1.00  0.00     0.049 A 
ATOM     29  C   UNL     1       4.993   9.161   5.270  1.00  0.00     0.074 A 
ATOM     30  C   UNL     1       5.732  10.031  -0.248  1.00  0.00     0.029 A 
ATOM     31  N   UNL     1       3.658  10.631   0.347  1.00  0.00    -0.354 N 
ATOM     32  N   UNL     1       3.944   9.871   4.977  1.00  0.00    -0.248 NA
ATOM     33  C   UNL     1       6.263   9.590   4.675  1.00  0.00     0.031 C 
ATOM     34  C   UNL     1       5.664  10.218   1.147  1.00  0.00     0.029 A 
ATOM     35  C   UNL     1       4.359  10.561   1.524  1.00  0.00     0.049 A 
ATOM     36  H   UNL     1       2.773  11.044   0.219  1.00  0.00     0.167 HD
ATOM     37  C   UNL     1       4.384  10.607   3.904  1.00  0.00     0.074 A 
ATOM     38  C   UNL     1       5.827  10.644   3.991  1.00  0.00     0.031 C 
ATOM     39  C   UNL     1       3.633  10.651   2.772  1.00  0.00     0.037 A 
BRANCH  26  40
ATOM     40  C   UNL     1       3.056   9.955  -2.711  1.00  0.00     0.064 A 
ATOM     41  C   UNL     1       3.661  11.155  -3.160  1.00  0.00     0.173 A 
ATOM     42  C   UNL     1       1.727   9.748  -3.101  1.00  0.00     0.173 A 
ATOM     43  F   UNL     1       4.950  11.416  -2.887  1.00  0.00    -0.203 F 
ATOM     44  C   UNL     1       2.935  12.149  -3.809  1.00  0.00     0.198 A 
ATOM     45  C   UNL     1       1.016  10.727  -3.801  1.00  0.00     0.198 A 
ATOM     46  F   UNL     1       1.052   8.655  -2.728  1.00  0.00    -0.203 F 
ATOM     47  F   UNL     1       3.509  13.332  -4.072  1.00  0.00    -0.200 F 
ATOM     48  C   UNL     1       1.604  11.943  -4.109  1.00  0.00     0.200 A 
ATOM     49  F   UNL     1      -0.274  10.519  -4.101  1.00  0.00    -0.200 F 
ATOM     50  F   UNL     1       0.877  12.924  -4.661  1.00  0.00    -0.200 F 
ENDBRANCH  26  40
BRANCH  27  51
ATOM     51  C   UNL     1       5.585   7.954   7.420  1.00  0.00     0.064 A 
ATOM     52  C   UNL     1       5.585   6.923   8.367  1.00  0.00     0.173 A 
ATOM     53  C   UNL     1       6.339   9.100   7.817  1.00  0.00     0.173 A 
ATOM     54  F   UNL     1       4.829   5.833   8.202  1.00  0.00    -0.203 F 
ATOM     55  C   UNL     1       6.366   6.985   9.540  1.00  0.00     0.198 A 
ATOM     56  C   UNL     1       7.154   9.140   8.947  1.00  0.00     0.198 A 
ATOM     57  F   UNL     1       6.318  10.238   7.112  1.00  0.00    -0.203 F 
ATOM     58  F   UNL     1       6.337   5.967  10.412  1.00  0.00    -0.200 F 
ATOM     59  C   UNL     1       7.182   8.071   9.806  1.00  0.00     0.200 A 
ATOM     60  F   UNL     1       7.921  10.217   9.173  1.00  0.00    -0.200 F 
ATOM     61  F   UNL     1       7.978   8.094  10.883  1.00  0.00    -0.200 F 
ENDBRANCH  27  51
BRANCH  39  62
ATOM     62  C   UNL     1       2.152  10.376   3.001  1.00  0.00     0.064 A 
ATOM     63  C   UNL     1       1.416  11.178   3.888  1.00  0.00     0.173 A 
ATOM     64  C   UNL     1       1.463   9.270   2.479  1.00  0.00     0.173 A 
ATOM     65  F   UNL     1       1.972  12.285   4.403  1.00  0.00    -0.203 F 
ATOM     66  C   UNL     1       0.104  10.860   4.261  1.00  0.00     0.198 A 
ATOM     67  C   UNL     1       0.158   8.939   2.855  1.00  0.00     0.198 A 
ATOM     68  F   UNL     1       2.032   8.491   1.567  1.00  0.00    -0.203 F 
ATOM     69  F   UNL     1      -0.557  11.655   5.113  1.00  0.00    -0.200 F 
ATOM     70  C   UNL     1      -0.520   9.733   3.755  1.00  0.00     0.200 A 
ATOM     71  F   UNL     1      -0.438   7.855   2.333  1.00  0.00    -0.200 F 
ATOM     72  F   UNL     1      -1.777   9.430   4.112  1.00  0.00    -0.200 F 
ENDBRANCH  39  62
ENDBRANCH  13  14
ENDBRANCH   6   8
ENDBRANCH   5   6
ENDBRANCH   4   5
ENDBRANCH   3   4
ENDBRANCH   2   3
ENDBRANCH   1   2
BRANCH   1  73
ATOM     73  C   UNL     1       3.354  -2.621  -2.736  1.00  0.00     0.261 C 
BRANCH  73  74
ATOM     74  O   UNL     1       3.686  -3.289  -1.495  1.00  0.00    -0.459 OA
BRANCH  74  75
ATOM     75  C   UNL     1       4.964  -3.750  -1.376  1.00  0.00     0.355 C 
ATOM     76  O   UNL     1       5.867  -3.532  -2.170  1.00  0.00    -0.244 OA
BRANCH  75  77
ATOM     77  C   UNL     1       5.131  -4.499  -0.152  1.00  0.00     0.128 A 
ATOM     78  C   UNL     1       4.513  -5.693   0.189  1.00  0.00     0.035 A 
ATOM     79  N   UNL     1       6.043  -4.232   0.861  1.00  0.00    -0.333 N 
ATOM     80  C   UNL     1       5.216  -6.250   1.284  1.00  0.00     0.020 A 
ATOM     81  C   UNL     1       6.198  -5.354   1.639  1.00  0.00     0.087 A 
BRANCH  79  82
ATOM     82  C   UNL     1       6.809  -3.010   1.047  1.00  0.00     0.222 C 
BRANCH  82  83
ATOM     83  C   UNL     1       6.726  -2.243   2.377  1.00  0.00     0.242 C 
ATOM     84  O   UNL     1       7.763  -1.669   2.745  1.00  0.00    -0.273 OA
BRANCH  83  85
ATOM     85  N   UNL     1       5.529  -1.972   3.035  1.00  0.00    -0.341 N 
ATOM     86  C   UNL     1       4.380  -2.862   3.160  1.00  0.00     0.120 C 
ATOM     87  C   UNL     1       5.463  -0.823   3.952  1.00  0.00     0.123 C 
ATOM     88  C   UNL     1       3.061  -2.142   2.909  1.00  0.00     0.025 C 
ATOM     89  C   UNL     1       4.192   0.006   3.679  1.00  0.00     0.012 C 
ATOM     90  C   UNL     1       2.908  -0.843   3.721  1.00  0.00    -0.005 C 
ATOM     91  C   UNL     1       4.046   1.226   4.587  1.00  0.00     0.006 C 
ATOM     92  C   UNL     1       2.433  -1.173   5.145  1.00  0.00     0.004 C 
ATOM     93  C   UNL     1       3.789   0.847   6.034  1.00  0.00     0.000 C 
ATOM     94  C   UNL     1       2.590  -0.078   6.198  1.00  0.00     0.000 C 
ENDBRANCH  83  85
ENDBRANCH  82  83
ENDBRANCH  79  82
ENDBRANCH  75  77
ENDBRANCH  74  75
ENDBRANCH  73  74
ENDBRANCH   1  73
TORSDOF 17
