REMARK SMILES C[C@H](NC(=O)OCc1ccccc1)C(=O)NCC(=O)N1CCC[C@H]1C(=O)OCCOCCOC(=O)c1ccc(-c2c3nc(c(-c4c(F)c(F)c(F)c(F)c4F)c4ccc([nH]4)c(-c4c(F)c(F)c(F)c(F)c4F)c4nc(c(-c5c(F)c(F)c(F)c(F)c5F)c5ccc2[nH]5)C=C4)C=C3)cc1
REMARK SMILES IDX 27 1 25 2 26 3 24 4 20 5 21 6 22 7 23 8 18 9 19 10 17 11
REMARK SMILES IDX 16 12 14 13 15 14 2 16 1 17 3 18 4 19 5 21 6 22 7 23 8 24
REMARK SMILES IDX 9 25 13 26 10 27 12 28 11 29 28 30 29 31 30 32 31 33 32 34
REMARK SMILES IDX 33 35 34 36 35 37 36 38 37 39 98 40 38 41 97 42 39 43 40 44
REMARK SMILES IDX 41 45 91 46 42 47 96 48 90 49 92 50 43 51 95 52 89 53 88 54
REMARK SMILES IDX 44 56 76 57 56 58 75 59 57 60 60 61 74 62 93 63 58 64 59 65
REMARK SMILES IDX 73 67 94 68 61 69 45 70 46 71 54 72 47 73 48 74 52 75 55 76
REMARK SMILES IDX 49 77 50 78 53 79 51 80 77 81 78 82 86 83 79 84 80 85 84 86
REMARK SMILES IDX 87 87 81 88 82 89 85 90 83 91 62 92 63 93 71 94 64 95 65 96
REMARK SMILES IDX 69 97 72 98 66 99 67 100 70 101 68 102
REMARK H PARENT 16 15 3 20 92 55 60 66
REMARK Flexibility Score: inf
ROOT
ATOM      1  O   UNL     1      -2.370  -2.500   4.445  1.00  0.00    -0.462 OA
ENDROOT
BRANCH   1   2
ATOM      2  C   UNL     1      -2.229  -1.224   4.001  1.00  0.00     0.328 C 
ATOM      3  O   UNL     1      -3.008  -0.305   4.228  1.00  0.00    -0.250 OA
BRANCH   2   4
ATOM      4  C   UNL     1      -0.938  -1.089   3.185  1.00  0.00     0.195 C 
ATOM      5  N   UNL     1      -1.256  -0.900   1.782  1.00  0.00    -0.327 N 
ATOM      6  C   UNL     1      -1.452   0.516   1.541  1.00  0.00     0.120 C 
ATOM      7  C   UNL     1      -0.485   1.201   2.499  1.00  0.00     0.024 C 
ATOM      8  C   UNL     1      -0.196   0.183   3.602  1.00  0.00     0.039 C 
BRANCH   5   9
ATOM      9  C   UNL     1      -1.379  -2.013   0.990  1.00  0.00     0.242 C 
ATOM     10  O   UNL     1      -1.298  -3.144   1.492  1.00  0.00    -0.273 OA
BRANCH   9  11
ATOM     11  C   UNL     1      -1.500  -1.942  -0.538  1.00  0.00     0.216 C 
BRANCH  11  12
ATOM     12  N   UNL     1      -1.753  -0.700  -1.226  1.00  0.00    -0.345 N 
ATOM     13  C   UNL     1      -0.895   0.168  -1.824  1.00  0.00     0.242 C 
ATOM     14  O   UNL     1      -1.405   1.104  -2.449  1.00  0.00    -0.273 OA
ATOM     15  H   UNL     1      -2.701  -0.439  -1.270  1.00  0.00     0.164 HD
BRANCH  13  16
ATOM     16  C   UNL     1       0.643   0.000  -1.803  1.00  0.00     0.171 C 
ATOM     17  C   UNL     1       1.114  -0.972  -2.872  1.00  0.00     0.042 C 
BRANCH  16  18
ATOM     18  N   UNL     1       1.203  -0.157  -0.462  1.00  0.00    -0.310 N 
ATOM     19  C   UNL     1       1.687  -1.230   0.211  1.00  0.00     0.408 C 
ATOM     20  H   UNL     1       1.236   0.681   0.054  1.00  0.00     0.167 HD
ATOM     21  O   UNL     1       1.957  -1.140   1.405  1.00  0.00    -0.225 OA
BRANCH  19  22
ATOM     22  O   UNL     1       1.821  -2.339  -0.546  1.00  0.00    -0.445 OA
BRANCH  22  23
ATOM     23  C   UNL     1       2.367  -3.487   0.124  1.00  0.00     0.270 C 
BRANCH  23  24
ATOM     24  C   UNL     1       3.814  -3.289   0.507  1.00  0.00    -0.011 A 
ATOM     25  C   UNL     1       4.269  -3.714   1.763  1.00  0.00     0.007 A 
ATOM     26  C   UNL     1       4.710  -2.648  -0.362  1.00  0.00     0.007 A 
ATOM     27  C   UNL     1       5.581  -3.457   2.161  1.00  0.00     0.000 A 
ATOM     28  C   UNL     1       6.019  -2.386   0.042  1.00  0.00     0.000 A 
ATOM     29  C   UNL     1       6.451  -2.783   1.306  1.00  0.00     0.000 A 
ENDBRANCH  23  24
ENDBRANCH  22  23
ENDBRANCH  19  22
ENDBRANCH  16  18
ENDBRANCH  13  16
ENDBRANCH  11  12
ENDBRANCH   9  11
ENDBRANCH   5   9
ENDBRANCH   2   4
ENDBRANCH   1   2
BRANCH   1  30
ATOM     30  C   UNL     1      -3.275  -2.678   5.535  1.00  0.00     0.261 C 
BRANCH  30  31
ATOM     31  C   UNL     1      -2.546  -3.362   6.691  1.00  0.00     0.202 C 
BRANCH  31  32
ATOM     32  O   UNL     1      -1.406  -2.701   7.239  1.00  0.00    -0.374 OA
BRANCH  32  33
ATOM     33  C   UNL     1      -0.209  -2.634   6.464  1.00  0.00     0.202 C 
BRANCH  33  34
ATOM     34  C   UNL     1       0.584  -3.922   6.196  1.00  0.00     0.261 C 
BRANCH  34  35
ATOM     35  O   UNL     1      -0.154  -4.924   5.478  1.00  0.00    -0.460 OA
BRANCH  35  36
ATOM     36  C   UNL     1      -0.523  -5.994   6.224  1.00  0.00     0.338 C 
ATOM     37  O   UNL     1      -0.287  -6.197   7.402  1.00  0.00    -0.246 OA
BRANCH  36  38
ATOM     38  C   UNL     1      -1.440  -6.848   5.451  1.00  0.00     0.060 A 
ATOM     39  C   UNL     1      -2.739  -7.034   5.943  1.00  0.00     0.016 A 
ATOM     40  C   UNL     1      -1.000  -7.537   4.322  1.00  0.00     0.016 A 
ATOM     41  C   UNL     1      -3.598  -7.937   5.323  1.00  0.00     0.010 A 
ATOM     42  C   UNL     1      -1.858  -8.453   3.709  1.00  0.00     0.010 A 
ATOM     43  C   UNL     1      -3.148  -8.680   4.225  1.00  0.00    -0.014 A 
BRANCH  43  44
ATOM     44  C   UNL     1      -3.967  -9.798   3.704  1.00  0.00     0.031 A 
ATOM     45  C   UNL     1      -3.588 -11.205   4.065  1.00  0.00     0.074 A 
ATOM     46  C   UNL     1      -5.031  -9.561   2.917  1.00  0.00     0.049 A 
ATOM     47  N   UNL     1      -4.091 -12.337   3.644  1.00  0.00    -0.248 NA
ATOM     48  C   UNL     1      -2.485 -11.356   5.026  1.00  0.00     0.031 C 
ATOM     49  C   UNL     1      -5.520  -8.238   2.538  1.00  0.00     0.029 A 
ATOM     50  N   UNL     1      -5.878 -10.433   2.281  1.00  0.00    -0.354 N 
ATOM     51  C   UNL     1      -3.353 -13.332   4.272  1.00  0.00     0.074 A 
ATOM     52  C   UNL     1      -2.352 -12.672   5.080  1.00  0.00     0.031 C 
ATOM     53  C   UNL     1      -6.572  -8.384   1.716  1.00  0.00     0.029 A 
ATOM     54  C   UNL     1      -6.799  -9.809   1.477  1.00  0.00     0.049 A 
ATOM     55  H   UNL     1      -5.830 -11.410   2.390  1.00  0.00     0.167 HD
ATOM     56  C   UNL     1      -3.503 -14.675   4.180  1.00  0.00     0.037 A 
ATOM     57  C   UNL     1      -7.697 -10.330   0.619  1.00  0.00     0.037 A 
ATOM     58  C   UNL     1      -4.505 -15.321   3.373  1.00  0.00     0.049 A 
ATOM     59  C   UNL     1      -7.797 -11.827   0.476  1.00  0.00     0.074 A 
ATOM     60  C   UNL     1      -4.761 -16.673   3.234  1.00  0.00     0.029 A 
ATOM     61  N   UNL     1      -5.409 -14.656   2.555  1.00  0.00    -0.354 N 
ATOM     62  N   UNL     1      -7.115 -12.766   1.088  1.00  0.00    -0.248 NA
ATOM     63  C   UNL     1      -8.792 -12.338  -0.477  1.00  0.00     0.031 C 
ATOM     64  C   UNL     1      -5.771 -16.830   2.280  1.00  0.00     0.029 A 
ATOM     65  C   UNL     1      -6.199 -15.573   1.881  1.00  0.00     0.049 A 
ATOM     66  H   UNL     1      -5.478 -13.678   2.467  1.00  0.00     0.167 HD
ATOM     67  C   UNL     1      -7.620 -13.973   0.623  1.00  0.00     0.074 A 
ATOM     68  C   UNL     1      -8.670 -13.649  -0.320  1.00  0.00     0.031 C 
ATOM     69  C   UNL     1      -7.250 -15.236   0.953  1.00  0.00     0.037 A 
BRANCH  56  70
ATOM     70  C   UNL     1      -2.533 -15.536   4.939  1.00  0.00     0.064 A 
ATOM     71  C   UNL     1      -2.527 -15.595   6.341  1.00  0.00     0.173 A 
ATOM     72  C   UNL     1      -1.607 -16.333   4.248  1.00  0.00     0.173 A 
ATOM     73  F   UNL     1      -3.384 -14.847   7.052  1.00  0.00    -0.203 F 
ATOM     74  C   UNL     1      -1.607 -16.390   7.022  1.00  0.00     0.198 A 
ATOM     75  C   UNL     1      -0.713 -17.154   4.930  1.00  0.00     0.198 A 
ATOM     76  F   UNL     1      -1.571 -16.321   2.906  1.00  0.00    -0.203 F 
ATOM     77  F   UNL     1      -1.582 -16.384   8.362  1.00  0.00    -0.200 F 
ATOM     78  C   UNL     1      -0.707 -17.173   6.316  1.00  0.00     0.200 A 
ATOM     79  F   UNL     1       0.145 -17.922   4.246  1.00  0.00    -0.200 F 
ATOM     80  F   UNL     1       0.174 -17.941   6.973  1.00  0.00    -0.200 F 
ENDBRANCH  56  70
BRANCH  57  81
ATOM     81  C   UNL     1      -8.559  -9.425  -0.184  1.00  0.00     0.064 A 
ATOM     82  C   UNL     1      -9.941  -9.357   0.037  1.00  0.00     0.173 A 
ATOM     83  C   UNL     1      -8.018  -8.605  -1.186  1.00  0.00     0.173 A 
ATOM     84  F   UNL     1     -10.509 -10.138   0.968  1.00  0.00    -0.203 F 
ATOM     85  C   UNL     1     -10.751  -8.514  -0.722  1.00  0.00     0.198 A 
ATOM     86  C   UNL     1      -8.824  -7.740  -1.923  1.00  0.00     0.198 A 
ATOM     87  F   UNL     1      -6.702  -8.632  -1.439  1.00  0.00    -0.203 F 
ATOM     88  F   UNL     1     -12.075  -8.500  -0.518  1.00  0.00    -0.200 F 
ATOM     89  C   UNL     1     -10.191  -7.700  -1.695  1.00  0.00     0.200 A 
ATOM     90  F   UNL     1      -8.276  -6.944  -2.851  1.00  0.00    -0.200 F 
ATOM     91  F   UNL     1     -10.969  -6.883  -2.417  1.00  0.00    -0.200 F 
ENDBRANCH  57  81
BRANCH  69  92
ATOM     92  C   UNL     1      -8.016 -16.372   0.334  1.00  0.00     0.064 A 
ATOM     93  C   UNL     1      -7.886 -16.704  -1.022  1.00  0.00     0.173 A 
ATOM     94  C   UNL     1      -8.840 -17.183   1.131  1.00  0.00     0.173 A 
ATOM     95  F   UNL     1      -7.122 -15.954  -1.831  1.00  0.00    -0.203 F 
ATOM     96  C   UNL     1      -8.567 -17.794  -1.561  1.00  0.00     0.198 A 
ATOM     97  C   UNL     1      -9.491 -18.291   0.597  1.00  0.00     0.198 A 
ATOM     98  F   UNL     1      -8.994 -16.914   2.436  1.00  0.00    -0.203 F 
ATOM     99  F   UNL     1      -8.461 -18.067  -2.869  1.00  0.00    -0.200 F 
ATOM    100  C   UNL     1      -9.359 -18.592  -0.749  1.00  0.00     0.200 A 
ATOM    101  F   UNL     1     -10.241 -19.071   1.388  1.00  0.00    -0.200 F 
ATOM    102  F   UNL     1      -9.999 -19.650  -1.266  1.00  0.00    -0.200 F 
ENDBRANCH  69  92
ENDBRANCH  43  44
ENDBRANCH  36  38
ENDBRANCH  35  36
ENDBRANCH  34  35
ENDBRANCH  33  34
ENDBRANCH  32  33
ENDBRANCH  31  32
ENDBRANCH  30  31
ENDBRANCH   1  30
TORSDOF 22
