REMARK SMILES CC1(C)C(NC(=O)N[C@]2(C(=O)OCCOCCOC(=O)c3ccc(-c4c5nc(c(-c6c(F)c(F)c(F)c(F)c6F)c6ccc([nH]6)c(-c6c(F)c(F)c(F)c(F)c6F)c6nc(c(-c7c(F)c(F)c(F)c(F)c7F)c7ccc4[nH]7)C=C6)C=C5)cc3)CC[C@@H](C)CC2)C1(C)C
REMARK SMILES IDX 15 1 14 2 13 3 12 4 10 5 11 6 9 7 87 8 86 9 88 10 85 11
REMARK SMILES IDX 89 12 84 13 8 14 6 15 7 17 5 18 4 20 2 21 90 22 1 23 3 24
REMARK SMILES IDX 91 25 92 26 16 27 17 28 18 29 19 30 20 31 21 32 22 33 83 34
REMARK SMILES IDX 23 35 82 36 24 37 25 38 26 39 76 40 27 41 81 42 75 43 77 44
REMARK SMILES IDX 28 45 80 46 74 47 73 48 29 50 61 51 41 52 60 53 42 54 45 55
REMARK SMILES IDX 59 56 78 57 43 58 44 59 58 61 79 62 46 63 30 64 31 65 39 66
REMARK SMILES IDX 32 67 33 68 37 69 40 70 34 71 35 72 38 73 36 74 62 75 63 76
REMARK SMILES IDX 71 77 64 78 65 79 69 80 72 81 66 82 67 83 70 84 68 85 47 86
REMARK SMILES IDX 48 87 56 88 49 89 50 90 54 91 57 92 51 93 52 94 55 95 53 96
REMARK H PARENT 8 16 5 19 77 49 45 60
REMARK Flexibility Score: inf
ROOT
ATOM      1  O   UNL     1      -0.171   1.909  -5.194  1.00  0.00    -0.374 OA
ENDROOT
BRANCH   1   2
ATOM      2  C   UNL     1      -1.433   2.200  -4.606  1.00  0.00     0.202 C 
BRANCH   2   3
ATOM      3  C   UNL     1      -1.720   2.470  -3.116  1.00  0.00     0.261 C 
BRANCH   3   4
ATOM      4  O   UNL     1      -2.311   1.425  -2.312  1.00  0.00    -0.461 OA
BRANCH   4   5
ATOM      5  C   UNL     1      -1.485   0.624  -1.580  1.00  0.00     0.331 C 
ATOM      6  O   UNL     1      -0.325   0.393  -1.897  1.00  0.00    -0.249 OA
BRANCH   5   7
ATOM      7  C   UNL     1      -2.092   0.264  -0.191  1.00  0.00     0.139 C 
ATOM      8  C   UNL     1       2.074   0.159   0.537  1.00  0.00     0.007 C 
ATOM      9  C   UNL     1       0.645   0.155   1.102  1.00  0.00    -0.014 C 
ATOM     10  C   UNL     1      -0.078  -1.117   0.617  1.00  0.00     0.006 C 
ATOM     11  C   UNL     1      -0.051   1.494   0.793  1.00  0.00     0.006 C 
ATOM     12  C   UNL     1      -1.597  -1.016   0.505  1.00  0.00     0.041 C 
ATOM     13  C   UNL     1      -1.584   1.420   0.733  1.00  0.00     0.041 C 
BRANCH   7  14
ATOM     14  N   UNL     1      -3.572   0.290  -0.215  1.00  0.00    -0.322 N 
ATOM     15  C   UNL     1      -4.540  -0.323  -0.915  1.00  0.00     0.315 C 
ATOM     16  H   UNL     1      -3.940   0.914   0.452  1.00  0.00     0.166 HD
ATOM     17  O   UNL     1      -5.701  -0.100  -0.552  1.00  0.00    -0.249 OA
ATOM     18  N   UNL     1      -4.367  -1.124  -1.988  1.00  0.00    -0.334 N 
ATOM     19  H   UNL     1      -5.220  -1.419  -2.381  1.00  0.00     0.165 HD
BRANCH  18  20
ATOM     20  C   UNL     1      -3.233  -1.642  -2.684  1.00  0.00     0.096 C 
ATOM     21  C   UNL     1      -3.303  -2.623  -3.881  1.00  0.00    -0.007 C 
ATOM     22  C   UNL     1      -2.887  -1.178  -4.081  1.00  0.00    -0.007 C 
ATOM     23  C   UNL     1      -2.205  -3.673  -3.985  1.00  0.00     0.014 C 
ATOM     24  C   UNL     1      -4.538  -3.022  -4.647  1.00  0.00     0.014 C 
ATOM     25  C   UNL     1      -3.842  -0.208  -4.764  1.00  0.00     0.014 C 
ATOM     26  C   UNL     1      -1.442  -0.962  -4.419  1.00  0.00     0.014 C 
ENDBRANCH  18  20
ENDBRANCH   7  14
ENDBRANCH   5   7
ENDBRANCH   4   5
ENDBRANCH   3   4
ENDBRANCH   2   3
ENDBRANCH   1   2
BRANCH   1  27
ATOM     27  C   UNL     1       0.976   1.373  -4.550  1.00  0.00     0.202 C 
BRANCH  27  28
ATOM     28  C   UNL     1       1.625   2.249  -3.475  1.00  0.00     0.261 C 
BRANCH  28  29
ATOM     29  O   UNL     1       1.192   3.612  -3.535  1.00  0.00    -0.460 OA
BRANCH  29  30
ATOM     30  C   UNL     1       1.391   4.220  -4.727  1.00  0.00     0.338 C 
ATOM     31  O   UNL     1       2.247   3.954  -5.554  1.00  0.00    -0.246 OA
BRANCH  30  32
ATOM     32  C   UNL     1       0.189   5.046  -4.975  1.00  0.00     0.060 A 
ATOM     33  C   UNL     1      -0.420   4.941  -6.233  1.00  0.00     0.016 A 
ATOM     34  C   UNL     1      -0.434   5.764  -3.943  1.00  0.00     0.016 A 
ATOM     35  C   UNL     1      -1.651   5.551  -6.462  1.00  0.00     0.010 A 
ATOM     36  C   UNL     1      -1.645   6.416  -4.185  1.00  0.00     0.010 A 
ATOM     37  C   UNL     1      -2.239   6.335  -5.456  1.00  0.00    -0.014 A 
BRANCH  37  38
ATOM     38  C   UNL     1      -3.240   7.343  -5.870  1.00  0.00     0.031 A 
ATOM     39  C   UNL     1      -2.685   8.605  -6.472  1.00  0.00     0.074 A 
ATOM     40  C   UNL     1      -4.566   7.144  -5.787  1.00  0.00     0.049 A 
ATOM     41  N   UNL     1      -3.309   9.632  -6.983  1.00  0.00    -0.248 NA
ATOM     42  C   UNL     1      -1.214   8.708  -6.524  1.00  0.00     0.031 C 
ATOM     43  C   UNL     1      -5.222   5.943  -5.278  1.00  0.00     0.029 A 
ATOM     44  N   UNL     1      -5.604   7.970  -6.145  1.00  0.00    -0.354 N 
ATOM     45  C   UNL     1      -2.309  10.480  -7.439  1.00  0.00     0.074 A 
ATOM     46  C   UNL     1      -1.040   9.870  -7.126  1.00  0.00     0.031 C 
ATOM     47  C   UNL     1      -6.556   6.115  -5.347  1.00  0.00     0.029 A 
ATOM     48  C   UNL     1      -6.845   7.447  -5.880  1.00  0.00     0.049 A 
ATOM     49  H   UNL     1      -5.470   8.855  -6.554  1.00  0.00     0.167 HD
ATOM     50  C   UNL     1      -2.436  11.669  -8.066  1.00  0.00     0.037 A 
ATOM     51  C   UNL     1      -8.066   7.998  -6.037  1.00  0.00     0.037 A 
ATOM     52  C   UNL     1      -3.694  12.304  -8.328  1.00  0.00     0.049 A 
ATOM     53  C   UNL     1      -8.175   9.389  -6.622  1.00  0.00     0.074 A 
ATOM     54  C   UNL     1      -3.933  13.521  -8.935  1.00  0.00     0.029 A 
ATOM     55  N   UNL     1      -4.926  11.778  -7.971  1.00  0.00    -0.354 N 
ATOM     56  N   UNL     1      -7.230  10.175  -7.080  1.00  0.00    -0.248 NA
ATOM     57  C   UNL     1      -9.524   9.969  -6.709  1.00  0.00     0.031 C 
ATOM     58  C   UNL     1      -5.309  13.764  -8.885  1.00  0.00     0.029 A 
ATOM     59  C   UNL     1      -5.931  12.667  -8.308  1.00  0.00     0.049 A 
ATOM     60  H   UNL     1      -5.065  10.903  -7.541  1.00  0.00     0.167 HD
ATOM     61  C   UNL     1      -7.869  11.325  -7.530  1.00  0.00     0.074 A 
ATOM     62  C   UNL     1      -9.285  11.127  -7.308  1.00  0.00     0.031 C 
ATOM     63  C   UNL     1      -7.335  12.446  -8.077  1.00  0.00     0.037 A 
BRANCH  50  64
ATOM     64  C   UNL     1      -1.171  12.376  -8.446  1.00  0.00     0.064 A 
ATOM     65  C   UNL     1      -0.352  11.916  -9.488  1.00  0.00     0.173 A 
ATOM     66  C   UNL     1      -0.771  13.525  -7.750  1.00  0.00     0.173 A 
ATOM     67  F   UNL     1      -0.675  10.800 -10.160  1.00  0.00    -0.203 F 
ATOM     68  C   UNL     1       0.832  12.573  -9.807  1.00  0.00     0.198 A 
ATOM     69  C   UNL     1       0.398  14.196  -8.091  1.00  0.00     0.198 A 
ATOM     70  F   UNL     1      -1.513  13.993  -6.734  1.00  0.00    -0.203 F 
ATOM     71  F   UNL     1       1.627  12.089 -10.772  1.00  0.00    -0.200 F 
ATOM     72  C   UNL     1       1.202  13.717  -9.115  1.00  0.00     0.200 A 
ATOM     73  F   UNL     1       0.752  15.303  -7.423  1.00  0.00    -0.200 F 
ATOM     74  F   UNL     1       2.339  14.352  -9.427  1.00  0.00    -0.200 F 
ENDBRANCH  50  64
BRANCH  51  75
ATOM     75  C   UNL     1      -9.288   7.267  -5.599  1.00  0.00     0.064 A 
ATOM     76  C   UNL     1     -10.271   6.866  -6.516  1.00  0.00     0.173 A 
ATOM     77  C   UNL     1      -9.526   7.006  -4.241  1.00  0.00     0.173 A 
ATOM     78  F   UNL     1     -10.112   7.122  -7.823  1.00  0.00    -0.203 F 
ATOM     79  C   UNL     1     -11.450   6.255  -6.090  1.00  0.00     0.198 A 
ATOM     80  C   UNL     1     -10.691   6.367  -3.819  1.00  0.00     0.198 A 
ATOM     81  F   UNL     1      -8.628   7.381  -3.318  1.00  0.00    -0.203 F 
ATOM     82  F   UNL     1     -12.399   5.938  -6.982  1.00  0.00    -0.200 F 
ATOM     83  C   UNL     1     -11.657   6.001  -4.743  1.00  0.00     0.200 A 
ATOM     84  F   UNL     1     -10.882   6.121  -2.516  1.00  0.00    -0.200 F 
ATOM     85  F   UNL     1     -12.792   5.420  -4.333  1.00  0.00    -0.200 F 
ENDBRANCH  51  75
BRANCH  63  86
ATOM     86  C   UNL     1      -8.280  13.536  -8.495  1.00  0.00     0.064 A 
ATOM     87  C   UNL     1      -8.961  14.322  -7.555  1.00  0.00     0.173 A 
ATOM     88  C   UNL     1      -8.455  13.841  -9.855  1.00  0.00     0.173 A 
ATOM     89  F   UNL     1      -8.835  14.067  -6.244  1.00  0.00    -0.203 F 
ATOM     90  C   UNL     1      -9.803  15.355  -7.960  1.00  0.00     0.198 A 
ATOM     91  C   UNL     1      -9.269  14.896 -10.255  1.00  0.00     0.198 A 
ATOM     92  F   UNL     1      -7.815  13.129 -10.795  1.00  0.00    -0.203 F 
ATOM     93  F   UNL     1     -10.480  16.063  -7.045  1.00  0.00    -0.200 F 
ATOM     94  C   UNL     1      -9.948  15.647  -9.308  1.00  0.00     0.200 A 
ATOM     95  F   UNL     1      -9.391  15.190 -11.557  1.00  0.00    -0.200 F 
ATOM     96  F   UNL     1     -10.748  16.650  -9.695  1.00  0.00    -0.200 F 
ENDBRANCH  63  86
ENDBRANCH  37  38
ENDBRANCH  30  32
ENDBRANCH  29  30
ENDBRANCH  28  29
ENDBRANCH  27  28
ENDBRANCH   1  27
TORSDOF 16
