REMARK SMILES CC(C)[C@@H](C)C(=O)N[C@@](C)(C(=O)OCCOCCOC(=O)c1ccc(-c2c3nc(c(-c4c(F)c(F)c(F)c(F)c4F)c4ccc([nH]4)c(-c4c(F)c(F)c(F)c(F)c4F)c4nc(c(-c5c(F)c(F)c(F)c(F)c5F)c5ccc2[nH]5)C=C4)C=C3)cc1)C(F)(F)F
REMARK SMILES IDX 15 1 14 2 13 3 11 4 12 5 9 6 10 7 8 8 6 9 7 10 4 12 5 13
REMARK SMILES IDX 2 14 1 15 3 16 85 17 86 18 87 19 88 20 16 21 17 22 18 23
REMARK SMILES IDX 19 24 20 25 21 26 22 27 23 28 84 29 24 30 83 31 25 32 26 33
REMARK SMILES IDX 27 34 77 35 28 36 82 37 76 38 78 39 29 40 81 41 75 42 74 43
REMARK SMILES IDX 30 45 62 46 42 47 61 48 43 49 46 50 60 51 79 52 44 53 45 54
REMARK SMILES IDX 59 56 80 57 47 58 31 59 32 60 40 61 33 62 34 63 38 64 41 65
REMARK SMILES IDX 35 66 36 67 39 68 37 69 63 70 64 71 72 72 65 73 66 74 70 75
REMARK SMILES IDX 73 76 67 77 68 78 71 79 69 80 48 81 49 82 57 83 50 84 51 85
REMARK SMILES IDX 55 86 58 87 52 88 53 89 56 90 54 91
REMARK H PARENT 8 11 78 44 46 55
REMARK Flexibility Score: inf
ROOT
ATOM      1  C   UNL     1      -3.017   6.629  -0.433  1.00  0.00     0.202 C 
ENDROOT
BRANCH   1   2
ATOM      2  C   UNL     1      -1.775   6.783  -1.325  1.00  0.00     0.261 C 
BRANCH   2   3
ATOM      3  O   UNL     1      -1.193   5.532  -1.717  1.00  0.00    -0.461 OA
BRANCH   3   4
ATOM      4  C   UNL     1       0.071   5.294  -1.251  1.00  0.00     0.341 C 
ATOM      5  O   UNL     1       0.769   6.156  -0.733  1.00  0.00    -0.249 OA
BRANCH   4   6
ATOM      6  C   UNL     1       0.525   3.839  -1.509  1.00  0.00     0.231 C 
ATOM      7  C   UNL     1       1.683   3.927  -2.511  1.00  0.00     0.058 C 
BRANCH   6   8
ATOM      8  N   UNL     1      -0.612   3.101  -2.196  1.00  0.00    -0.333 N 
ATOM      9  C   UNL     1      -1.123   1.870  -2.399  1.00  0.00     0.224 C 
ATOM     10  O   UNL     1      -1.995   1.819  -3.278  1.00  0.00    -0.275 OA
ATOM     11  H   UNL     1      -1.180   3.758  -2.660  1.00  0.00     0.164 HD
BRANCH   9  12
ATOM     12  C   UNL     1      -0.845   0.609  -1.586  1.00  0.00     0.078 C 
ATOM     13  C   UNL     1      -1.558   0.731  -0.238  1.00  0.00     0.018 C 
BRANCH  12  14
ATOM     14  C   UNL     1       0.627   0.150  -1.609  1.00  0.00    -0.005 C 
ATOM     15  C   UNL     1       1.097  -0.533  -0.321  1.00  0.00     0.008 C 
ATOM     16  C   UNL     1       0.877  -0.799  -2.791  1.00  0.00     0.008 C 
ENDBRANCH  12  14
ENDBRANCH   9  12
ENDBRANCH   6   8
BRANCH   6  17
ATOM     17  C   UNL     1       1.022   3.402  -0.120  1.00  0.00     0.422 C 
ATOM     18  F   UNL     1       0.013   3.289   0.769  1.00  0.00    -0.168 F 
ATOM     19  F   UNL     1       1.656   2.212  -0.163  1.00  0.00    -0.168 F 
ATOM     20  F   UNL     1       1.931   4.251   0.412  1.00  0.00    -0.168 F 
ENDBRANCH   6  17
ENDBRANCH   4   6
ENDBRANCH   3   4
ENDBRANCH   2   3
ENDBRANCH   1   2
BRANCH   1  21
ATOM     21  O   UNL     1      -3.079   5.523   0.457  1.00  0.00    -0.374 OA
BRANCH  21  22
ATOM     22  C   UNL     1      -3.232   4.213  -0.091  1.00  0.00     0.202 C 
BRANCH  22  23
ATOM     23  C   UNL     1      -4.435   3.918  -0.998  1.00  0.00     0.261 C 
BRANCH  23  24
ATOM     24  O   UNL     1      -4.445   4.715  -2.197  1.00  0.00    -0.460 OA
BRANCH  24  25
ATOM     25  C   UNL     1      -5.592   5.410  -2.405  1.00  0.00     0.338 C 
ATOM     26  O   UNL     1      -6.601   5.410  -1.724  1.00  0.00    -0.246 OA
BRANCH  25  27
ATOM     27  C   UNL     1      -5.399   6.353  -3.518  1.00  0.00     0.060 A 
ATOM     28  C   UNL     1      -5.393   7.723  -3.228  1.00  0.00     0.016 A 
ATOM     29  C   UNL     1      -5.325   5.900  -4.835  1.00  0.00     0.016 A 
ATOM     30  C   UNL     1      -5.321   8.653  -4.263  1.00  0.00     0.010 A 
ATOM     31  C   UNL     1      -5.272   6.834  -5.873  1.00  0.00     0.010 A 
ATOM     32  C   UNL     1      -5.288   8.213  -5.593  1.00  0.00    -0.014 A 
BRANCH  32  33
ATOM     33  C   UNL     1      -5.379   9.194  -6.698  1.00  0.00     0.031 A 
ATOM     34  C   UNL     1      -6.711   9.458  -7.337  1.00  0.00     0.074 A 
ATOM     35  C   UNL     1      -4.280   9.841  -7.123  1.00  0.00     0.049 A 
ATOM     36  N   UNL     1      -7.003  10.211  -8.367  1.00  0.00    -0.248 NA
ATOM     37  C   UNL     1      -7.871   8.783  -6.734  1.00  0.00     0.031 C 
ATOM     38  C   UNL     1      -2.945   9.700  -6.545  1.00  0.00     0.029 A 
ATOM     39  N   UNL     1      -4.112  10.735  -8.150  1.00  0.00    -0.354 N 
ATOM     40  C   UNL     1      -8.376  10.097  -8.538  1.00  0.00     0.074 A 
ATOM     41  C   UNL     1      -8.857   9.187  -7.521  1.00  0.00     0.031 C 
ATOM     42  C   UNL     1      -2.087  10.466  -7.241  1.00  0.00     0.029 A 
ATOM     43  C   UNL     1      -2.807  11.118  -8.334  1.00  0.00     0.049 A 
ATOM     44  H   UNL     1      -4.856  11.069  -8.701  1.00  0.00     0.167 HD
ATOM     45  C   UNL     1      -9.162  10.703  -9.460  1.00  0.00     0.037 A 
ATOM     46  C   UNL     1      -2.255  11.880  -9.297  1.00  0.00     0.037 A 
ATOM     47  C   UNL     1      -8.675  11.602 -10.473  1.00  0.00     0.049 A 
ATOM     48  C   UNL     1      -3.138  12.466 -10.368  1.00  0.00     0.074 A 
ATOM     49  C   UNL     1      -9.392  12.286 -11.439  1.00  0.00     0.029 A 
ATOM     50  N   UNL     1      -7.340  11.933 -10.657  1.00  0.00    -0.354 N 
ATOM     51  N   UNL     1      -4.438  12.375 -10.512  1.00  0.00    -0.248 NA
ATOM     52  C   UNL     1      -2.474  13.257 -11.415  1.00  0.00     0.031 C 
ATOM     53  C   UNL     1      -8.486  12.988 -12.240  1.00  0.00     0.029 A 
ATOM     54  C   UNL     1      -7.208  12.783 -11.743  1.00  0.00     0.049 A 
ATOM     55  H   UNL     1      -6.596  11.611 -10.098  1.00  0.00     0.167 HD
ATOM     56  C   UNL     1      -4.750  13.109 -11.648  1.00  0.00     0.074 A 
ATOM     57  C   UNL     1      -3.505  13.654 -12.148  1.00  0.00     0.031 C 
ATOM     58  C   UNL     1      -5.959  13.314 -12.227  1.00  0.00     0.037 A 
BRANCH  45  59
ATOM     59  C   UNL     1     -10.628  10.387  -9.436  1.00  0.00     0.064 A 
ATOM     60  C   UNL     1     -11.471  10.876  -8.427  1.00  0.00     0.173 A 
ATOM     61  C   UNL     1     -11.204   9.614 -10.455  1.00  0.00     0.173 A 
ATOM     62  F   UNL     1     -10.967  11.610  -7.423  1.00  0.00    -0.203 F 
ATOM     63  C   UNL     1     -12.833  10.583  -8.427  1.00  0.00     0.198 A 
ATOM     64  C   UNL     1     -12.569   9.344 -10.467  1.00  0.00     0.198 A 
ATOM     65  F   UNL     1     -10.442   9.125 -11.445  1.00  0.00    -0.203 F 
ATOM     66  F   UNL     1     -13.612  11.026  -7.431  1.00  0.00    -0.200 F 
ATOM     67  C   UNL     1     -13.382   9.823  -9.450  1.00  0.00     0.200 A 
ATOM     68  F   UNL     1     -13.100   8.620 -11.461  1.00  0.00    -0.200 F 
ATOM     69  F   UNL     1     -14.693   9.547  -9.452  1.00  0.00    -0.200 F 
ENDBRANCH  45  59
BRANCH  46  70
ATOM     70  C   UNL     1      -0.787  12.109  -9.312  1.00  0.00     0.064 A 
ATOM     71  C   UNL     1      -0.249  13.378  -9.058  1.00  0.00     0.173 A 
ATOM     72  C   UNL     1       0.107  11.066  -9.595  1.00  0.00     0.173 A 
ATOM     73  F   UNL     1      -1.065  14.412  -8.809  1.00  0.00    -0.203 F 
ATOM     74  C   UNL     1       1.126  13.598  -9.101  1.00  0.00     0.198 A 
ATOM     75  C   UNL     1       1.484  11.281  -9.611  1.00  0.00     0.198 A 
ATOM     76  F   UNL     1      -0.356   9.833  -9.848  1.00  0.00    -0.203 F 
ATOM     77  F   UNL     1       1.611  14.830  -8.898  1.00  0.00    -0.200 F 
ATOM     78  C   UNL     1       1.992  12.548  -9.371  1.00  0.00     0.200 A 
ATOM     79  F   UNL     1       2.316  10.261  -9.861  1.00  0.00    -0.200 F 
ATOM     80  F   UNL     1       3.314  12.760  -9.409  1.00  0.00    -0.200 F 
ENDBRANCH  46  70
BRANCH  58  81
ATOM     81  C   UNL     1      -5.998  14.177 -13.454  1.00  0.00     0.064 A 
ATOM     82  C   UNL     1      -5.517  13.718 -14.689  1.00  0.00     0.173 A 
ATOM     83  C   UNL     1      -6.568  15.459 -13.405  1.00  0.00     0.173 A 
ATOM     84  F   UNL     1      -4.948  12.507 -14.783  1.00  0.00    -0.203 F 
ATOM     85  C   UNL     1      -5.587  14.519 -15.826  1.00  0.00     0.198 A 
ATOM     86  C   UNL     1      -6.662  16.245 -14.550  1.00  0.00     0.198 A 
ATOM     87  F   UNL     1      -7.048  15.942 -12.249  1.00  0.00    -0.203 F 
ATOM     88  F   UNL     1      -5.083  14.076 -16.986  1.00  0.00    -0.200 F 
ATOM     89  C   UNL     1      -6.167  15.777 -15.758  1.00  0.00     0.200 A 
ATOM     90  F   UNL     1      -7.234  17.455 -14.485  1.00  0.00    -0.200 F 
ATOM     91  F   UNL     1      -6.242  16.542 -16.855  1.00  0.00    -0.200 F 
ENDBRANCH  58  81
ENDBRANCH  32  33
ENDBRANCH  25  27
ENDBRANCH  24  25
ENDBRANCH  23  24
ENDBRANCH  22  23
ENDBRANCH  21  22
ENDBRANCH   1  21
TORSDOF 18
