REMARK SMILES O=C(C[C@H]1COCC[NH2+]1)Nc1cncc(C(=O)OCCOCCOC(=O)c2ccc(-c3c4nc(c(-c5c(F)c(F)c(F)c(F)c5F)c5ccc([nH]5)c(-c5c(F)c(F)c(F)c(F)c5F)c5nc(c(-c6c(F)c(F)c(F)c(F)c6F)c6ccc3[nH]6)C=C5)C=C4)cc2)c1
REMARK SMILES IDX 20 1 19 2 18 3 16 4 17 5 15 6 11 7 12 8 90 9 13 10 14 11
REMARK SMILES IDX 10 12 1 13 2 14 3 16 4 17 5 18 9 19 6 20 8 21 7 24 21 25
REMARK SMILES IDX 22 26 23 27 24 28 25 29 26 30 27 31 28 32 89 33 29 34 88 35
REMARK SMILES IDX 30 36 31 37 32 38 82 39 33 40 87 41 81 42 83 43 34 44 86 45
REMARK SMILES IDX 80 46 79 47 35 49 67 50 47 51 66 52 48 53 51 54 65 55 84 56
REMARK SMILES IDX 49 57 50 58 64 60 85 61 52 62 36 63 37 64 45 65 38 66 39 67
REMARK SMILES IDX 43 68 46 69 40 70 41 71 44 72 42 73 68 74 69 75 77 76 70 77
REMARK SMILES IDX 71 78 75 79 78 80 72 81 73 82 76 83 74 84 53 85 54 86 62 87
REMARK SMILES IDX 55 88 56 89 60 90 63 91 57 92 58 93 61 94 59 95
REMARK H PARENT 10 15 9 22 9 23 83 48 51 59
REMARK Flexibility Score: inf
ROOT
ATOM      1  C   UNL     1      12.026  -6.963  -0.828  1.00  0.00     0.202 C 
ENDROOT
BRANCH   1   2
ATOM      2  C   UNL     1      11.477  -6.279  -2.085  1.00  0.00     0.261 C 
BRANCH   2   3
ATOM      3  O   UNL     1      10.112  -5.872  -1.909  1.00  0.00    -0.460 OA
BRANCH   3   4
ATOM      4  C   UNL     1       9.199  -6.584  -2.611  1.00  0.00     0.339 C 
ATOM      5  O   UNL     1       9.422  -7.445  -3.449  1.00  0.00    -0.246 OA
BRANCH   4   6
ATOM      6  C   UNL     1       7.852  -6.310  -2.088  1.00  0.00     0.080 A 
ATOM      7  C   UNL     1       6.145  -4.880  -1.181  1.00  0.00     0.060 A 
ATOM      8  C   UNL     1       5.316  -6.005  -1.160  1.00  0.00     0.137 A 
ATOM      9  C   UNL     1       7.456  -5.057  -1.617  1.00  0.00     0.045 A 
ATOM     10  N   UNL     1       5.685  -7.242  -1.570  1.00  0.00    -0.262 NA
ATOM     11  C   UNL     1       6.943  -7.359  -2.052  1.00  0.00     0.126 A 
BRANCH   7  12
ATOM     12  N   UNL     1       5.578  -3.631  -0.859  1.00  0.00    -0.324 N 
ATOM     13  O   UNL     1       7.354  -2.183  -1.210  1.00  0.00    -0.274 OA
ATOM     14  C   UNL     1       6.162  -2.391  -1.000  1.00  0.00     0.230 C 
ATOM     15  H   UNL     1       4.665  -3.647  -0.492  1.00  0.00     0.169 HD
BRANCH  14  16
ATOM     16  C   UNL     1       5.207  -1.221  -0.810  1.00  0.00     0.167 C 
BRANCH  16  17
ATOM     17  C   UNL     1       3.778  -1.294  -1.409  1.00  0.00     0.218 C 
ATOM     18  C   UNL     1       3.437   0.004  -2.181  1.00  0.00     0.225 C 
ATOM     19  N   UNL     1       3.458  -2.489  -2.230  1.00  0.00    -0.340 N 
ATOM     20  O   UNL     1       4.147   0.071  -3.422  1.00  0.00    -0.369 OA
ATOM     21  C   UNL     1       4.102  -2.373  -3.563  1.00  0.00     0.289 C 
ATOM     22  H   UNL     1       2.447  -2.558  -2.347  1.00  0.00     0.346 HD
ATOM     23  H   UNL     1       3.807  -3.324  -1.759  1.00  0.00     0.346 HD
ATOM     24  C   UNL     1       3.805  -1.038  -4.261  1.00  0.00     0.221 C 
ENDBRANCH  16  17
ENDBRANCH  14  16
ENDBRANCH   7  12
ENDBRANCH   4   6
ENDBRANCH   3   4
ENDBRANCH   2   3
ENDBRANCH   1   2
BRANCH   1  25
ATOM     25  O   UNL     1      11.418  -8.193  -0.436  1.00  0.00    -0.374 OA
BRANCH  25  26
ATOM     26  C   UNL     1      10.158  -8.132   0.229  1.00  0.00     0.202 C 
BRANCH  26  27
ATOM     27  C   UNL     1      10.154  -7.737   1.711  1.00  0.00     0.261 C 
BRANCH  27  28
ATOM     28  O   UNL     1      10.679  -6.418   1.934  1.00  0.00    -0.460 OA
BRANCH  28  29
ATOM     29  C   UNL     1      11.913  -6.403   2.491  1.00  0.00     0.338 C 
ATOM     30  O   UNL     1      12.563  -7.360   2.880  1.00  0.00    -0.246 OA
BRANCH  29  31
ATOM     31  C   UNL     1      12.487  -5.048   2.432  1.00  0.00     0.060 A 
ATOM     32  C   UNL     1      13.765  -4.924   1.875  1.00  0.00     0.016 A 
ATOM     33  C   UNL     1      11.851  -3.946   3.008  1.00  0.00     0.016 A 
ATOM     34  C   UNL     1      14.450  -3.718   1.967  1.00  0.00     0.010 A 
ATOM     35  C   UNL     1      12.541  -2.732   3.100  1.00  0.00     0.010 A 
ATOM     36  C   UNL     1      13.863  -2.631   2.630  1.00  0.00    -0.014 A 
BRANCH  36  37
ATOM     37  C   UNL     1      14.716  -1.467   2.976  1.00  0.00     0.031 A 
ATOM     38  C   UNL     1      15.239  -1.336   4.381  1.00  0.00     0.074 A 
ATOM     39  C   UNL     1      15.082  -0.582   2.035  1.00  0.00     0.049 A 
ATOM     40  N   UNL     1      16.042  -0.436   4.891  1.00  0.00    -0.248 NA
ATOM     41  C   UNL     1      14.794  -2.356   5.342  1.00  0.00     0.031 C 
ATOM     42  C   UNL     1      14.662  -0.617   0.637  1.00  0.00     0.029 A 
ATOM     43  N   UNL     1      15.899   0.518   2.117  1.00  0.00    -0.354 N 
ATOM     44  C   UNL     1      16.190  -0.777   6.230  1.00  0.00     0.074 A 
ATOM     45  C   UNL     1      15.362  -1.940   6.463  1.00  0.00     0.031 C 
ATOM     46  C   UNL     1      15.226   0.415  -0.013  1.00  0.00     0.029 A 
ATOM     47  C   UNL     1      16.026   1.195   0.931  1.00  0.00     0.049 A 
ATOM     48  H   UNL     1      16.350   0.794   2.947  1.00  0.00     0.167 HD
ATOM     49  C   UNL     1      16.957  -0.182   7.176  1.00  0.00     0.037 A 
ATOM     50  C   UNL     1      16.704   2.322   0.643  1.00  0.00     0.037 A 
ATOM     51  C   UNL     1      17.782   0.974   6.938  1.00  0.00     0.049 A 
ATOM     52  C   UNL     1      17.521   2.987   1.719  1.00  0.00     0.074 A 
ATOM     53  C   UNL     1      18.618   1.636   7.821  1.00  0.00     0.029 A 
ATOM     54  N   UNL     1      17.867   1.649   5.728  1.00  0.00    -0.354 N 
ATOM     55  N   UNL     1      17.687   2.639   2.972  1.00  0.00    -0.248 NA
ATOM     56  C   UNL     1      18.261   4.196   1.332  1.00  0.00     0.031 C 
ATOM     57  C   UNL     1      19.159   2.747   7.164  1.00  0.00     0.029 A 
ATOM     58  C   UNL     1      18.719   2.737   5.849  1.00  0.00     0.049 A 
ATOM     59  H   UNL     1      17.392   1.393   4.905  1.00  0.00     0.167 HD
ATOM     60  C   UNL     1      18.572   3.563   3.515  1.00  0.00     0.074 A 
ATOM     61  C   UNL     1      18.919   4.478   2.447  1.00  0.00     0.031 C 
ATOM     62  C   UNL     1      19.055   3.644   4.780  1.00  0.00     0.037 A 
BRANCH  49  63
ATOM     63  C   UNL     1      16.906  -0.755   8.565  1.00  0.00     0.064 A 
ATOM     64  C   UNL     1      17.433  -2.021   8.869  1.00  0.00     0.173 A 
ATOM     65  C   UNL     1      16.324  -0.022   9.611  1.00  0.00     0.173 A 
ATOM     66  F   UNL     1      17.989  -2.771   7.906  1.00  0.00    -0.203 F 
ATOM     67  C   UNL     1      17.341  -2.546  10.156  1.00  0.00     0.198 A 
ATOM     68  C   UNL     1      16.267  -0.535  10.904  1.00  0.00     0.198 A 
ATOM     69  F   UNL     1      15.810   1.195   9.380  1.00  0.00    -0.203 F 
ATOM     70  F   UNL     1      17.793  -3.783  10.408  1.00  0.00    -0.200 F 
ATOM     71  C   UNL     1      16.764  -1.801  11.174  1.00  0.00     0.200 A 
ATOM     72  F   UNL     1      15.722   0.193  11.889  1.00  0.00    -0.200 F 
ATOM     73  F   UNL     1      16.678  -2.307  12.411  1.00  0.00    -0.200 F 
ENDBRANCH  49  63
BRANCH  50  74
ATOM     74  C   UNL     1      16.645   2.884  -0.731  1.00  0.00     0.064 A 
ATOM     75  C   UNL     1      17.767   2.875  -1.571  1.00  0.00     0.173 A 
ATOM     76  C   UNL     1      15.458   3.440  -1.233  1.00  0.00     0.173 A 
ATOM     77  F   UNL     1      18.930   2.376  -1.128  1.00  0.00    -0.203 F 
ATOM     78  C   UNL     1      17.709   3.414  -2.854  1.00  0.00     0.198 A 
ATOM     79  C   UNL     1      15.393   3.951  -2.527  1.00  0.00     0.198 A 
ATOM     80  F   UNL     1      14.357   3.474  -0.469  1.00  0.00    -0.203 F 
ATOM     81  F   UNL     1      18.808   3.433  -3.620  1.00  0.00    -0.200 F 
ATOM     82  C   UNL     1      16.520   3.944  -3.334  1.00  0.00     0.200 A 
ATOM     83  F   UNL     1      14.240   4.450  -2.991  1.00  0.00    -0.200 F 
ATOM     84  F   UNL     1      16.464   4.455  -4.572  1.00  0.00    -0.200 F 
ENDBRANCH  50  74
BRANCH  62  85
ATOM     85  C   UNL     1      20.050   4.736   5.066  1.00  0.00     0.064 A 
ATOM     86  C   UNL     1      19.687   6.092   5.069  1.00  0.00     0.173 A 
ATOM     87  C   UNL     1      21.388   4.418   5.349  1.00  0.00     0.173 A 
ATOM     88  F   UNL     1      18.424   6.454   4.795  1.00  0.00    -0.203 F 
ATOM     89  C   UNL     1      20.634   7.088   5.296  1.00  0.00     0.198 A 
ATOM     90  C   UNL     1      22.324   5.415   5.614  1.00  0.00     0.198 A 
ATOM     91  F   UNL     1      21.790   3.139   5.372  1.00  0.00    -0.203 F 
ATOM     92  F   UNL     1      20.277   8.378   5.222  1.00  0.00    -0.200 F 
ATOM     93  C   UNL     1      21.950   6.749   5.573  1.00  0.00     0.200 A 
ATOM     94  F   UNL     1      23.591   5.083   5.899  1.00  0.00    -0.200 F 
ATOM     95  F   UNL     1      22.860   7.708   5.788  1.00  0.00    -0.200 F 
ENDBRANCH  62  85
ENDBRANCH  36  37
ENDBRANCH  29  31
ENDBRANCH  28  29
ENDBRANCH  27  28
ENDBRANCH  26  27
ENDBRANCH  25  26
ENDBRANCH   1  25
TORSDOF 17
