REMARK SMILES O=C(COc1ccc(S(=O)(=O)N2CCC(O)CC2)cc1)OCCOCCOC(=O)c1ccc(-c2c3nc(c(-c4c(F)c(F)c(F)c(F)c4F)c4ccc([nH]4)c(-c4c(F)c(F)c(F)c(F)c4F)c4nc(c(-c5c(F)c(F)c(F)c(F)c5F)c5ccc2[nH]5)C=C4)C=C3)cc1
REMARK SMILES IDX 22 1 21 2 2 3 1 4 3 5 4 6 5 7 6 8 20 9 7 10 19 11 8 12 9 13
REMARK SMILES IDX 10 14 11 15 12 16 13 17 18 18 14 19 17 20 15 21 16 22 23 24
REMARK SMILES IDX 24 25 25 26 26 27 27 28 28 29 29 30 30 31 31 32 92 33 32 34
REMARK SMILES IDX 91 35 33 36 34 37 35 38 85 39 36 40 90 41 84 42 86 43 37 44
REMARK SMILES IDX 89 45 83 46 82 47 38 49 70 50 50 51 69 52 51 53 54 54 68 55
REMARK SMILES IDX 87 56 52 57 53 58 67 60 88 61 55 62 39 63 40 64 48 65 41 66
REMARK SMILES IDX 42 67 46 68 49 69 43 70 44 71 47 72 45 73 71 74 72 75 80 76
REMARK SMILES IDX 73 77 74 78 78 79 81 80 75 81 76 82 79 83 77 84 56 85 57 86
REMARK SMILES IDX 65 87 58 88 59 89 63 90 66 91 60 92 61 93 64 94 62 95
REMARK H PARENT 16 23 86 48 54 59
REMARK Flexibility Score: inf
ROOT
ATOM      1  C   UNL     1       4.258   0.555  -0.218  1.00  0.00     0.261 C 
ENDROOT
BRANCH   1   2
ATOM      2  O   UNL     1       2.822   0.568  -0.259  1.00  0.00    -0.461 OA
BRANCH   2   3
ATOM      3  C   UNL     1       2.067  -0.523  -0.547  1.00  0.00     0.344 C 
ATOM      4  O   UNL     1       0.844  -0.464  -0.420  1.00  0.00    -0.248 OA
BRANCH   3   5
ATOM      5  C   UNL     1       2.755  -1.800  -1.033  1.00  0.00     0.351 C 
BRANCH   5   6
ATOM      6  O   UNL     1       3.763  -1.752  -2.037  1.00  0.00    -0.482 OA
BRANCH   6   7
ATOM      7  C   UNL     1       3.281  -1.367  -3.254  1.00  0.00     0.120 A 
ATOM      8  C   UNL     1       3.448  -2.242  -4.323  1.00  0.00     0.048 A 
ATOM      9  C   UNL     1       2.686  -0.127  -3.457  1.00  0.00     0.048 A 
ATOM     10  C   UNL     1       2.895  -1.925  -5.567  1.00  0.00     0.025 A 
ATOM     11  C   UNL     1       2.126   0.185  -4.686  1.00  0.00     0.025 A 
ATOM     12  C   UNL     1       2.199  -0.721  -5.737  1.00  0.00     0.082 A 
BRANCH  12  13
ATOM     13  S   UNL     1       1.355  -0.435  -7.281  1.00  0.00     0.243 S 
ATOM     14  O   UNL     1       2.286   0.270  -8.135  1.00  0.00    -0.207 OA
ATOM     15  O   UNL     1       0.791  -1.712  -7.665  1.00  0.00    -0.207 OA
BRANCH  13  16
ATOM     16  N   UNL     1       0.034   0.602  -6.936  1.00  0.00    -0.198 NA
ATOM     17  C   UNL     1       0.306   2.061  -6.893  1.00  0.00     0.105 C 
ATOM     18  C   UNL     1      -0.984   0.074  -5.999  1.00  0.00     0.105 C 
ATOM     19  C   UNL     1      -0.978   2.876  -6.904  1.00  0.00     0.048 C 
ATOM     20  C   UNL     1      -2.252   0.918  -6.014  1.00  0.00     0.048 C 
ATOM     21  C   UNL     1      -1.962   2.405  -5.844  1.00  0.00     0.117 C 
BRANCH  21  22
ATOM     22  O   UNL     1      -1.463   2.726  -4.546  1.00  0.00    -0.393 OA
ATOM     23  H   UNL     1      -0.614   2.278  -4.407  1.00  0.00     0.210 HD
ENDBRANCH  21  22
ENDBRANCH  13  16
ENDBRANCH  12  13
ENDBRANCH   6   7
ENDBRANCH   5   6
ENDBRANCH   3   5
ENDBRANCH   2   3
ENDBRANCH   1   2
BRANCH   1  24
ATOM     24  C   UNL     1       4.793   0.224   1.167  1.00  0.00     0.202 C 
BRANCH  24  25
ATOM     25  O   UNL     1       4.235  -0.935   1.778  1.00  0.00    -0.374 OA
BRANCH  25  26
ATOM     26  C   UNL     1       3.030  -0.742   2.532  1.00  0.00     0.202 C 
BRANCH  26  27
ATOM     27  C   UNL     1       3.194  -0.121   3.923  1.00  0.00     0.261 C 
BRANCH  27  28
ATOM     28  O   UNL     1       3.486   1.285   3.833  1.00  0.00    -0.460 OA
BRANCH  28  29
ATOM     29  C   UNL     1       4.759   1.629   4.142  1.00  0.00     0.338 C 
ATOM     30  O   UNL     1       5.634   0.902   4.580  1.00  0.00    -0.246 OA
BRANCH  29  31
ATOM     31  C   UNL     1       5.030   3.001   3.666  1.00  0.00     0.060 A 
ATOM     32  C   UNL     1       6.244   3.222   2.998  1.00  0.00     0.016 A 
ATOM     33  C   UNL     1       4.148   4.058   3.902  1.00  0.00     0.016 A 
ATOM     34  C   UNL     1       6.616   4.513   2.636  1.00  0.00     0.010 A 
ATOM     35  C   UNL     1       4.527   5.355   3.549  1.00  0.00     0.010 A 
ATOM     36  C   UNL     1       5.783   5.590   2.962  1.00  0.00    -0.014 A 
BRANCH  36  37
ATOM     37  C   UNL     1       6.321   6.967   2.889  1.00  0.00     0.031 A 
ATOM     38  C   UNL     1       6.880   7.578   4.144  1.00  0.00     0.074 A 
ATOM     39  C   UNL     1       6.338   7.646   1.730  1.00  0.00     0.049 A 
ATOM     40  N   UNL     1       7.369   8.774   4.343  1.00  0.00    -0.248 NA
ATOM     41  C   UNL     1       6.885   6.719   5.340  1.00  0.00     0.031 C 
ATOM     42  C   UNL     1       5.863   7.136   0.446  1.00  0.00     0.029 A 
ATOM     43  N   UNL     1       6.769   8.917   1.452  1.00  0.00    -0.354 N 
ATOM     44  C   UNL     1       7.731   8.813   5.683  1.00  0.00     0.074 A 
ATOM     45  C   UNL     1       7.380   7.534   6.259  1.00  0.00     0.031 C 
ATOM     46  C   UNL     1       6.015   8.094  -0.484  1.00  0.00     0.029 A 
ATOM     47  C   UNL     1       6.571   9.290   0.146  1.00  0.00     0.049 A 
ATOM     48  H   UNL     1       7.182   9.506   2.125  1.00  0.00     0.167 HD
ATOM     49  C   UNL     1       8.312   9.825   6.369  1.00  0.00     0.037 A 
ATOM     50  C   UNL     1       6.796  10.472  -0.458  1.00  0.00     0.037 A 
ATOM     51  C   UNL     1       8.658  11.095   5.790  1.00  0.00     0.049 A 
ATOM     52  C   UNL     1       7.381  11.606   0.343  1.00  0.00     0.074 A 
ATOM     53  C   UNL     1       9.267  12.182   6.389  1.00  0.00     0.029 A 
ATOM     54  N   UNL     1       8.415  11.447   4.470  1.00  0.00    -0.354 N 
ATOM     55  N   UNL     1       7.744  11.630   1.604  1.00  0.00    -0.248 NA
ATOM     56  C   UNL     1       7.591  12.878  -0.364  1.00  0.00     0.031 C 
ATOM     57  C   UNL     1       9.349  13.210   5.444  1.00  0.00     0.029 A 
ATOM     58  C   UNL     1       8.838  12.745   4.242  1.00  0.00     0.049 A 
ATOM     59  H   UNL     1       8.003  10.860   3.795  1.00  0.00     0.167 HD
ATOM     60  C   UNL     1       8.245  12.905   1.835  1.00  0.00     0.074 A 
ATOM     61  C   UNL     1       8.153  13.621   0.579  1.00  0.00     0.031 C 
ATOM     62  C   UNL     1       8.739  13.435   2.981  1.00  0.00     0.037 A 
BRANCH  49  63
ATOM     63  C   UNL     1       8.582   9.604   7.829  1.00  0.00     0.064 A 
ATOM     64  C   UNL     1       9.588   8.731   8.270  1.00  0.00     0.173 A 
ATOM     65  C   UNL     1       7.832  10.286   8.799  1.00  0.00     0.173 A 
ATOM     66  F   UNL     1      10.320   8.041   7.382  1.00  0.00    -0.203 F 
ATOM     67  C   UNL     1       9.816   8.530   9.629  1.00  0.00     0.198 A 
ATOM     68  C   UNL     1       8.082  10.103  10.157  1.00  0.00     0.198 A 
ATOM     69  F   UNL     1       6.858  11.131   8.431  1.00  0.00    -0.203 F 
ATOM     70  F   UNL     1      10.749   7.654  10.027  1.00  0.00    -0.200 F 
ATOM     71  C   UNL     1       9.067   9.220  10.570  1.00  0.00     0.200 A 
ATOM     72  F   UNL     1       7.363  10.777  11.065  1.00  0.00    -0.200 F 
ATOM     73  F   UNL     1       9.290   9.027  11.878  1.00  0.00    -0.200 F 
ENDBRANCH  49  63
BRANCH  50  74
ATOM     74  C   UNL     1       6.457  10.647  -1.894  1.00  0.00     0.064 A 
ATOM     75  C   UNL     1       7.459  10.805  -2.860  1.00  0.00     0.173 A 
ATOM     76  C   UNL     1       5.123  10.666  -2.328  1.00  0.00     0.173 A 
ATOM     77  F   UNL     1       8.748  10.819  -2.491  1.00  0.00    -0.203 F 
ATOM     78  C   UNL     1       7.140  10.989  -4.205  1.00  0.00     0.198 A 
ATOM     79  C   UNL     1       4.806  10.823  -3.676  1.00  0.00     0.198 A 
ATOM     80  F   UNL     1       4.126  10.521  -1.443  1.00  0.00    -0.203 F 
ATOM     81  F   UNL     1       8.117  11.178  -5.102  1.00  0.00    -0.200 F 
ATOM     82  C   UNL     1       5.815  10.991  -4.612  1.00  0.00     0.200 A 
ATOM     83  F   UNL     1       3.524  10.813  -4.066  1.00  0.00    -0.200 F 
ATOM     84  F   UNL     1       5.509  11.162  -5.905  1.00  0.00    -0.200 F 
ENDBRANCH  50  74
BRANCH  62  85
ATOM     85  C   UNL     1       9.243  14.848   2.923  1.00  0.00     0.064 A 
ATOM     86  C   UNL     1       8.366  15.938   2.829  1.00  0.00     0.173 A 
ATOM     87  C   UNL     1      10.618  15.114   3.009  1.00  0.00     0.173 A 
ATOM     88  F   UNL     1       7.044  15.733   2.730  1.00  0.00    -0.203 F 
ATOM     89  C   UNL     1       8.849  17.243   2.800  1.00  0.00     0.198 A 
ATOM     90  C   UNL     1      11.095  16.421   3.010  1.00  0.00     0.198 A 
ATOM     91  F   UNL     1      11.497  14.106   3.109  1.00  0.00    -0.203 F 
ATOM     92  F   UNL     1       7.997  18.268   2.666  1.00  0.00    -0.200 F 
ATOM     93  C   UNL     1      10.212  17.484   2.898  1.00  0.00     0.200 A 
ATOM     94  F   UNL     1      12.411  16.652   3.118  1.00  0.00    -0.200 F 
ATOM     95  F   UNL     1      10.674  18.741   2.879  1.00  0.00    -0.200 F 
ENDBRANCH  62  85
ENDBRANCH  36  37
ENDBRANCH  29  31
ENDBRANCH  28  29
ENDBRANCH  27  28
ENDBRANCH  26  27
ENDBRANCH  25  26
ENDBRANCH  24  25
ENDBRANCH   1  24
TORSDOF 19
