REMARK SMILES Cc1noc(C)c1[C@@H](C)NC(=O)N[C@H](CO)C(=O)OCCOCCOC(=O)c1ccc(-c2c3nc(c(-c4c(F)c(F)c(F)c(F)c4F)c4ccc([nH]4)c(-c4c(F)c(F)c(F)c(F)c4F)c4nc(c(-c5c(F)c(F)c(F)c(F)c5F)c5ccc2[nH]5)C=C4)C=C3)cc1
REMARK SMILES IDX 21 1 20 2 19 3 17 4 18 5 14 6 13 7 10 8 11 9 12 11 8 13 9 14
REMARK SMILES IDX 7 15 1 16 2 17 3 18 4 19 5 20 6 21 15 22 16 23 22 25 23 26
REMARK SMILES IDX 24 27 25 28 26 29 27 30 28 31 29 32 90 33 30 34 89 35 31 36
REMARK SMILES IDX 32 37 33 38 83 39 34 40 88 41 82 42 84 43 35 44 87 45 81 46
REMARK SMILES IDX 80 47 36 49 68 50 48 51 67 52 49 53 52 54 66 55 85 56 50 57
REMARK SMILES IDX 51 58 65 60 86 61 53 62 37 63 38 64 46 65 39 66 40 67 44 68
REMARK SMILES IDX 47 69 41 70 42 71 45 72 43 73 69 74 70 75 78 76 71 77 72 78
REMARK SMILES IDX 76 79 79 80 73 81 74 82 77 83 75 84 54 85 55 86 63 87 56 88
REMARK SMILES IDX 57 89 61 90 64 91 58 92 59 93 62 94 60 95
REMARK H PARENT 10 10 13 12 16 24 84 48 52 59
REMARK Flexibility Score: inf
ROOT
ATOM      1  C   UNL     1       4.974   0.683   1.671  1.00  0.00     0.202 C 
ENDROOT
BRANCH   1   2
ATOM      2  C   UNL     1       5.052   1.537   0.383  1.00  0.00     0.261 C 
BRANCH   2   3
ATOM      3  O   UNL     1       4.303   2.775   0.382  1.00  0.00    -0.462 OA
BRANCH   3   4
ATOM      4  C   UNL     1       3.023   2.762  -0.075  1.00  0.00     0.331 C 
ATOM      5  O   UNL     1       2.432   1.746  -0.418  1.00  0.00    -0.250 OA
BRANCH   4   6
ATOM      6  C   UNL     1       2.356   4.163  -0.037  1.00  0.00     0.219 C 
BRANCH   6   7
ATOM      7  N   UNL     1       3.323   5.276   0.181  1.00  0.00    -0.323 N 
ATOM      8  N   UNL     1       2.777   6.795   1.913  1.00  0.00    -0.331 N 
ATOM      9  C   UNL     1       3.279   6.510   0.700  1.00  0.00     0.316 C 
ATOM     10  H   UNL     1       2.326   7.667   1.990  1.00  0.00     0.165 HD
ATOM     11  O   UNL     1       3.770   7.433   0.050  1.00  0.00    -0.249 OA
ATOM     12  H   UNL     1       4.226   5.045  -0.138  1.00  0.00     0.166 HD
BRANCH   8  13
ATOM     13  C   UNL     1       2.807   5.997   3.125  1.00  0.00     0.116 C 
ATOM     14  C   UNL     1       1.712   6.387   4.103  1.00  0.00     0.036 C 
BRANCH  13  15
ATOM     15  C   UNL     1       4.189   6.031   3.703  1.00  0.00     0.040 A 
ATOM     16  C   UNL     1       4.589   8.256   5.059  1.00  0.00     0.071 C 
ATOM     17  C   UNL     1       4.962   6.972   4.438  1.00  0.00     0.086 A 
ATOM     18  N   UNL     1       6.211   6.532   4.642  1.00  0.00    -0.085 NA
ATOM     19  O   UNL     1       6.231   5.234   4.199  1.00  0.00    -0.361 OA
ATOM     20  C   UNL     1       5.013   4.934   3.727  1.00  0.00     0.139 A 
ATOM     21  C   UNL     1       4.731   3.543   3.451  1.00  0.00     0.091 C 
ENDBRANCH  13  15
ENDBRANCH   8  13
ENDBRANCH   6   7
BRANCH   6  22
ATOM     22  C   UNL     1       1.109   4.067   0.848  1.00  0.00     0.193 C 
BRANCH  22  23
ATOM     23  O   UNL     1       0.336   5.262   0.858  1.00  0.00    -0.394 OA
ATOM     24  H   UNL     1       0.868   5.988   1.219  1.00  0.00     0.210 HD
ENDBRANCH  22  23
ENDBRANCH   6  22
ENDBRANCH   4   6
ENDBRANCH   3   4
ENDBRANCH   2   3
ENDBRANCH   1   2
BRANCH   1  25
ATOM     25  O   UNL     1       3.744  -0.003   1.878  1.00  0.00    -0.374 OA
BRANCH  25  26
ATOM     26  C   UNL     1       2.739   0.681   2.629  1.00  0.00     0.202 C 
BRANCH  26  27
ATOM     27  C   UNL     1       2.716   0.316   4.128  1.00  0.00     0.261 C 
BRANCH  27  28
ATOM     28  O   UNL     1       3.458   1.281   4.915  1.00  0.00    -0.460 OA
BRANCH  28  29
ATOM     29  C   UNL     1       4.428   0.810   5.744  1.00  0.00     0.338 C 
ATOM     30  O   UNL     1       4.710  -0.348   5.932  1.00  0.00    -0.246 OA
BRANCH  29  31
ATOM     31  C   UNL     1       5.235   1.944   6.298  1.00  0.00     0.060 A 
ATOM     32  C   UNL     1       6.627   1.791   6.310  1.00  0.00     0.016 A 
ATOM     33  C   UNL     1       4.679   3.137   6.779  1.00  0.00     0.016 A 
ATOM     34  C   UNL     1       7.459   2.798   6.823  1.00  0.00     0.010 A 
ATOM     35  C   UNL     1       5.519   4.155   7.279  1.00  0.00     0.010 A 
ATOM     36  C   UNL     1       6.918   3.980   7.344  1.00  0.00    -0.014 A 
BRANCH  36  37
ATOM     37  C   UNL     1       7.796   4.901   8.139  1.00  0.00     0.031 A 
ATOM     38  C   UNL     1       7.703   4.858   9.644  1.00  0.00     0.074 A 
ATOM     39  C   UNL     1       8.720   5.716   7.589  1.00  0.00     0.049 A 
ATOM     40  N   UNL     1       8.443   5.456  10.547  1.00  0.00    -0.248 NA
ATOM     41  C   UNL     1       6.636   4.018  10.209  1.00  0.00     0.031 C 
ATOM     42  C   UNL     1       8.974   5.878   6.163  1.00  0.00     0.029 A 
ATOM     43  N   UNL     1       9.621   6.578   8.182  1.00  0.00    -0.354 N 
ATOM     44  C   UNL     1       7.950   5.041  11.775  1.00  0.00     0.074 A 
ATOM     45  C   UNL     1       6.797   4.210  11.507  1.00  0.00     0.031 C 
ATOM     46  C   UNL     1       9.920   6.818   5.984  1.00  0.00     0.029 A 
ATOM     47  C   UNL     1      10.376   7.299   7.287  1.00  0.00     0.049 A 
ATOM     48  H   UNL     1       9.714   6.668   9.158  1.00  0.00     0.167 HD
ATOM     49  C   UNL     1       8.430   5.284  13.019  1.00  0.00     0.037 A 
ATOM     50  C   UNL     1      11.336   8.226   7.484  1.00  0.00     0.037 A 
ATOM     51  C   UNL     1       9.568   6.108  13.319  1.00  0.00     0.049 A 
ATOM     52  C   UNL     1      11.813   8.545   8.879  1.00  0.00     0.074 A 
ATOM     53  C   UNL     1      10.144   6.366  14.551  1.00  0.00     0.029 A 
ATOM     54  N   UNL     1      10.294   6.824  12.382  1.00  0.00    -0.354 N 
ATOM     55  N   UNL     1      11.411   8.055  10.025  1.00  0.00    -0.248 NA
ATOM     56  C   UNL     1      12.912   9.518   9.002  1.00  0.00     0.031 C 
ATOM     57  C   UNL     1      11.185   7.282  14.366  1.00  0.00     0.029 A 
ATOM     58  C   UNL     1      11.292   7.551  13.012  1.00  0.00     0.049 A 
ATOM     59  H   UNL     1      10.126   6.818  11.412  1.00  0.00     0.167 HD
ATOM     60  C   UNL     1      12.236   8.617  10.993  1.00  0.00     0.074 A 
ATOM     61  C   UNL     1      13.160   9.489  10.304  1.00  0.00     0.031 C 
ATOM     62  C   UNL     1      12.229   8.409  12.333  1.00  0.00     0.037 A 
BRANCH  49  63
ATOM     63  C   UNL     1       7.697   4.636  14.156  1.00  0.00     0.064 A 
ATOM     64  C   UNL     1       7.749   3.248  14.362  1.00  0.00     0.173 A 
ATOM     65  C   UNL     1       6.917   5.405  15.029  1.00  0.00     0.173 A 
ATOM     66  F   UNL     1       8.469   2.470  13.541  1.00  0.00    -0.203 F 
ATOM     67  C   UNL     1       7.004   2.649  15.373  1.00  0.00     0.198 A 
ATOM     68  C   UNL     1       6.199   4.805  16.059  1.00  0.00     0.198 A 
ATOM     69  F   UNL     1       6.839   6.735  14.876  1.00  0.00    -0.203 F 
ATOM     70  F   UNL     1       7.009   1.315  15.505  1.00  0.00    -0.200 F 
ATOM     71  C   UNL     1       6.232   3.427  16.221  1.00  0.00     0.200 A 
ATOM     72  F   UNL     1       5.459   5.558  16.884  1.00  0.00    -0.200 F 
ATOM     73  F   UNL     1       5.505   2.848  17.186  1.00  0.00    -0.200 F 
ENDBRANCH  49  63
BRANCH  50  74
ATOM     74  C   UNL     1      11.963   8.905   6.318  1.00  0.00     0.064 A 
ATOM     75  C   UNL     1      13.277   8.610   5.926  1.00  0.00     0.173 A 
ATOM     76  C   UNL     1      11.277   9.900   5.606  1.00  0.00     0.173 A 
ATOM     77  F   UNL     1      13.986   7.692   6.601  1.00  0.00    -0.203 F 
ATOM     78  C   UNL     1      13.888   9.297   4.879  1.00  0.00     0.198 A 
ATOM     79  C   UNL     1      11.882  10.572   4.545  1.00  0.00     0.198 A 
ATOM     80  F   UNL     1      10.026  10.233   5.954  1.00  0.00    -0.203 F 
ATOM     81  F   UNL     1      15.162   9.033   4.560  1.00  0.00    -0.200 F 
ATOM     82  C   UNL     1      13.189  10.275   4.187  1.00  0.00     0.200 A 
ATOM     83  F   UNL     1      11.207  11.521   3.882  1.00  0.00    -0.200 F 
ATOM     84  F   UNL     1      13.781  10.944   3.188  1.00  0.00    -0.200 F 
ENDBRANCH  50  74
BRANCH  62  85
ATOM     85  C   UNL     1      13.284   9.092  13.159  1.00  0.00     0.064 A 
ATOM     86  C   UNL     1      13.268  10.476  13.388  1.00  0.00     0.173 A 
ATOM     87  C   UNL     1      14.295   8.339  13.777  1.00  0.00     0.173 A 
ATOM     88  F   UNL     1      12.331  11.245  12.812  1.00  0.00    -0.203 F 
ATOM     89  C   UNL     1      14.235  11.082  14.188  1.00  0.00     0.198 A 
ATOM     90  C   UNL     1      15.243   8.944  14.600  1.00  0.00     0.198 A 
ATOM     91  F   UNL     1      14.355   7.011  13.598  1.00  0.00    -0.203 F 
ATOM     92  F   UNL     1      14.223  12.411  14.360  1.00  0.00    -0.200 F 
ATOM     93  C   UNL     1      15.216  10.315  14.800  1.00  0.00     0.200 A 
ATOM     94  F   UNL     1      16.180   8.199  15.202  1.00  0.00    -0.200 F 
ATOM     95  F   UNL     1      16.137  10.899  15.578  1.00  0.00    -0.200 F 
ENDBRANCH  62  85
ENDBRANCH  36  37
ENDBRANCH  29  31
ENDBRANCH  28  29
ENDBRANCH  27  28
ENDBRANCH  26  27
ENDBRANCH  25  26
ENDBRANCH   1  25
TORSDOF 19
