REMARK SMILES [NH3+][C@@]1(C(=O)OCCOCCOC(=O)c2ccc(-c3c4nc(c(-c5c(F)c(F)c(F)c(F)c5F)c5ccc([nH]5)c(-c5c(F)c(F)c(F)c(F)c5F)c5nc(c(-c6c(F)c(F)c(F)c(F)c6F)c6ccc3[nH]6)C=C5)C=C4)cc2)CC[C@H](Sc2ccc(Cl)cn2)C1
REMARK SMILES IDX 8 1 7 2 6 3 5 4 3 5 4 6 2 7 77 8 88 9 78 10 79 11 1 12 80 16
REMARK SMILES IDX 81 17 82 18 87 19 83 20 86 21 84 22 85 23 9 24 10 25 11 26
REMARK SMILES IDX 12 27 13 28 14 29 15 30 76 31 16 32 75 33 17 34 18 35 19 36
REMARK SMILES IDX 69 37 20 38 74 39 68 40 70 41 21 42 73 43 67 44 66 45 22 47
REMARK SMILES IDX 54 48 34 49 53 50 35 51 38 52 52 53 71 54 36 55 37 56 51 58
REMARK SMILES IDX 72 59 39 60 23 61 24 62 32 63 25 64 26 65 30 66 33 67 27 68
REMARK SMILES IDX 28 69 31 70 29 71 55 72 56 73 64 74 57 75 58 76 62 77 65 78
REMARK SMILES IDX 59 79 60 80 63 81 61 82 40 83 41 84 49 85 42 86 43 87 47 88
REMARK SMILES IDX 50 89 44 90 45 91 48 92 46 93
REMARK H PARENT 1 13 1 14 1 15 70 46 38 57
REMARK Flexibility Score: inf
ROOT
ATOM      1  O   UNL     1      -3.462   0.230   0.017  1.00  0.00    -0.374 OA
ENDROOT
BRANCH   1   2
ATOM      2  C   UNL     1      -3.670  -0.089   1.392  1.00  0.00     0.202 C 
BRANCH   2   3
ATOM      3  C   UNL     1      -2.631  -1.008   2.041  1.00  0.00     0.261 C 
BRANCH   3   4
ATOM      4  O   UNL     1      -1.343  -0.373   2.128  1.00  0.00    -0.459 OA
BRANCH   4   5
ATOM      5  C   UNL     1      -0.337  -0.975   1.433  1.00  0.00     0.368 C 
ATOM      6  O   UNL     1      -0.454  -2.043   0.843  1.00  0.00    -0.245 OA
BRANCH   5   7
ATOM      7  C   UNL     1       0.992  -0.153   1.482  1.00  0.00     0.193 C 
ATOM      8  C   UNL     1       1.851  -0.718   2.615  1.00  0.00     0.082 C 
ATOM      9  C   UNL     1       0.843   1.344   1.832  1.00  0.00     0.096 C 
ATOM     10  C   UNL     1       1.372   0.059   3.836  1.00  0.00     0.022 C 
ATOM     11  C   UNL     1       1.262   1.490   3.312  1.00  0.00     0.060 C 
BRANCH   7  12
ATOM     12  N   UNL     1       1.682  -0.315   0.185  1.00  0.00    -0.343 N 
ATOM     13  H   UNL     1       1.772  -1.308  -0.030  1.00  0.00     0.345 HD
ATOM     14  H   UNL     1       2.609   0.107   0.238  1.00  0.00     0.345 HD
ATOM     15  H   UNL     1       1.141   0.145  -0.547  1.00  0.00     0.345 HD
ENDBRANCH   7  12
BRANCH  11  16
ATOM     16  S   UNL     1       0.069   2.553   4.194  1.00  0.00    -0.103 SA
BRANCH  16  17
ATOM     17  C   UNL     1       0.694   2.682   5.853  1.00  0.00     0.096 A 
ATOM     18  C   UNL     1       1.974   2.316   6.260  1.00  0.00     0.037 A 
ATOM     19  N   UNL     1      -0.208   3.189   6.728  1.00  0.00    -0.248 NA
ATOM     20  C   UNL     1       2.321   2.422   7.610  1.00  0.00     0.025 A 
ATOM     21  C   UNL     1       0.158   3.305   8.028  1.00  0.00     0.132 A 
ATOM     22  C   UNL     1       1.396   2.925   8.512  1.00  0.00     0.059 A 
ATOM     23  Cl  UNL     1       1.784   3.071  10.175  1.00  0.00    -0.083 Cl
ENDBRANCH  16  17
ENDBRANCH  11  16
ENDBRANCH   5   7
ENDBRANCH   4   5
ENDBRANCH   3   4
ENDBRANCH   2   3
ENDBRANCH   1   2
BRANCH   1  24
ATOM     24  C   UNL     1      -2.458   1.194  -0.293  1.00  0.00     0.202 C 
BRANCH  24  25
ATOM     25  C   UNL     1      -2.810   2.662  -0.019  1.00  0.00     0.261 C 
BRANCH  25  26
ATOM     26  O   UNL     1      -3.035   2.924   1.379  1.00  0.00    -0.460 OA
BRANCH  26  27
ATOM     27  C   UNL     1      -4.298   3.304   1.685  1.00  0.00     0.338 C 
ATOM     28  O   UNL     1      -5.209   3.537   0.901  1.00  0.00    -0.246 OA
BRANCH  27  29
ATOM     29  C   UNL     1      -4.528   3.251   3.140  1.00  0.00     0.060 A 
ATOM     30  C   UNL     1      -5.634   2.514   3.584  1.00  0.00     0.016 A 
ATOM     31  C   UNL     1      -3.758   3.985   4.045  1.00  0.00     0.016 A 
ATOM     32  C   UNL     1      -6.013   2.561   4.923  1.00  0.00     0.010 A 
ATOM     33  C   UNL     1      -4.146   4.037   5.391  1.00  0.00     0.010 A 
ATOM     34  C   UNL     1      -5.301   3.361   5.826  1.00  0.00    -0.014 A 
BRANCH  34  35
ATOM     35  C   UNL     1      -5.873   3.600   7.175  1.00  0.00     0.031 A 
ATOM     36  C   UNL     1      -6.701   4.835   7.409  1.00  0.00     0.074 A 
ATOM     37  C   UNL     1      -5.730   2.691   8.155  1.00  0.00     0.049 A 
ATOM     38  N   UNL     1      -7.339   5.217   8.488  1.00  0.00    -0.248 NA
ATOM     39  C   UNL     1      -6.837   5.758   6.272  1.00  0.00     0.031 C 
ATOM     40  C   UNL     1      -4.993   1.435   8.039  1.00  0.00     0.029 A 
ATOM     41  N   UNL     1      -6.212   2.683   9.440  1.00  0.00    -0.354 N 
ATOM     42  C   UNL     1      -7.960   6.414   8.155  1.00  0.00     0.074 A 
ATOM     43  C   UNL     1      -7.594   6.716   6.788  1.00  0.00     0.031 C 
ATOM     44  C   UNL     1      -5.074   0.774   9.207  1.00  0.00     0.029 A 
ATOM     45  C   UNL     1      -5.848   1.571  10.158  1.00  0.00     0.049 A 
ATOM     46  H   UNL     1      -6.767   3.407   9.812  1.00  0.00     0.167 HD
ATOM     47  C   UNL     1      -8.776   7.184   8.914  1.00  0.00     0.037 A 
ATOM     48  C   UNL     1      -6.104   1.242  11.439  1.00  0.00     0.037 A 
ATOM     49  C   UNL     1      -9.133   6.896  10.278  1.00  0.00     0.049 A 
ATOM     50  C   UNL     1      -6.942   2.163  12.289  1.00  0.00     0.074 A 
ATOM     51  C   UNL     1      -9.939   7.627  11.135  1.00  0.00     0.029 A 
ATOM     52  N   UNL     1      -8.702   5.785  10.986  1.00  0.00    -0.354 N 
ATOM     53  N   UNL     1      -7.537   3.284  11.961  1.00  0.00    -0.248 NA
ATOM     54  C   UNL     1      -7.146   1.767  13.690  1.00  0.00     0.031 C 
ATOM     55  C   UNL     1      -9.963   6.978  12.374  1.00  0.00     0.029 A 
ATOM     56  C   UNL     1      -9.210   5.820  12.275  1.00  0.00     0.049 A 
ATOM     57  H   UNL     1      -8.120   5.076  10.627  1.00  0.00     0.167 HD
ATOM     58  C   UNL     1      -8.210   3.708  13.100  1.00  0.00     0.074 A 
ATOM     59  C   UNL     1      -7.961   2.717  14.126  1.00  0.00     0.031 C 
ATOM     60  C   UNL     1      -8.966   4.819  13.281  1.00  0.00     0.037 A 
BRANCH  47  61
ATOM     61  C   UNL     1      -9.333   8.428   8.286  1.00  0.00     0.064 A 
ATOM     62  C   UNL     1     -10.346   8.366   7.317  1.00  0.00     0.173 A 
ATOM     63  C   UNL     1      -8.880   9.694   8.685  1.00  0.00     0.173 A 
ATOM     64  F   UNL     1     -10.804   7.179   6.894  1.00  0.00    -0.203 F 
ATOM     65  C   UNL     1     -10.872   9.528   6.758  1.00  0.00     0.198 A 
ATOM     66  C   UNL     1      -9.426  10.853   8.141  1.00  0.00     0.198 A 
ATOM     67  F   UNL     1      -7.916   9.806   9.611  1.00  0.00    -0.203 F 
ATOM     68  F   UNL     1     -11.814   9.445   5.808  1.00  0.00    -0.200 F 
ATOM     69  C   UNL     1     -10.417  10.770   7.175  1.00  0.00     0.200 A 
ATOM     70  F   UNL     1      -8.993  12.053   8.553  1.00  0.00    -0.200 F 
ATOM     71  F   UNL     1     -10.930  11.887   6.641  1.00  0.00    -0.200 F 
ENDBRANCH  47  61
BRANCH  48  72
ATOM     72  C   UNL     1      -5.557  -0.016  12.010  1.00  0.00     0.064 A 
ATOM     73  C   UNL     1      -6.403  -1.071  12.378  1.00  0.00     0.173 A 
ATOM     74  C   UNL     1      -4.182  -0.171  12.239  1.00  0.00     0.173 A 
ATOM     75  F   UNL     1      -7.728  -0.959  12.205  1.00  0.00    -0.203 F 
ATOM     76  C   UNL     1      -5.897  -2.224  12.975  1.00  0.00     0.198 A 
ATOM     77  C   UNL     1      -3.675  -1.335  12.810  1.00  0.00     0.198 A 
ATOM     78  F   UNL     1      -3.331   0.812  11.910  1.00  0.00    -0.203 F 
ATOM     79  F   UNL     1      -6.733  -3.195  13.368  1.00  0.00    -0.200 F 
ATOM     80  C   UNL     1      -4.533  -2.357  13.187  1.00  0.00     0.200 A 
ATOM     81  F   UNL     1      -2.355  -1.462  13.006  1.00  0.00    -0.200 F 
ATOM     82  F   UNL     1      -4.047  -3.463  13.767  1.00  0.00    -0.200 F 
ENDBRANCH  48  72
BRANCH  60  83
ATOM     83  C   UNL     1      -9.612   5.001  14.623  1.00  0.00     0.064 A 
ATOM     84  C   UNL     1      -8.866   5.351  15.758  1.00  0.00     0.173 A 
ATOM     85  C   UNL     1     -11.000   4.854  14.769  1.00  0.00     0.173 A 
ATOM     86  F   UNL     1      -7.535   5.490  15.674  1.00  0.00    -0.203 F 
ATOM     87  C   UNL     1      -9.483   5.520  16.995  1.00  0.00     0.198 A 
ATOM     88  C   UNL     1     -11.617   5.050  16.001  1.00  0.00     0.198 A 
ATOM     89  F   UNL     1     -11.760   4.526  13.713  1.00  0.00    -0.203 F 
ATOM     90  F   UNL     1      -8.744   5.807  18.076  1.00  0.00    -0.200 F 
ATOM     91  C   UNL     1     -10.857   5.375  17.115  1.00  0.00     0.200 A 
ATOM     92  F   UNL     1     -12.946   4.922  16.112  1.00  0.00    -0.200 F 
ATOM     93  F   UNL     1     -11.449   5.541  18.306  1.00  0.00    -0.200 F 
ENDBRANCH  60  83
ENDBRANCH  34  35
ENDBRANCH  27  29
ENDBRANCH  26  27
ENDBRANCH  25  26
ENDBRANCH  24  25
ENDBRANCH   1  24
TORSDOF 17
