REMARK SMILES O=C(OCCOCCOC(=O)c1ccc2c(=O)n(CCc3c[nH]c4ccccc34)c(=O)[nH]c2c1)c1ccc(-c2c3nc(c(-c4c(F)c(F)c(F)c(F)c4F)c4ccc([nH]4)c(-c4c(F)c(F)c(F)c(F)c4F)c4nc(c(-c5c(F)c(F)c(F)c(F)c5F)c5ccc2[nH]5)C=C4)C=C3)cc1
REMARK SMILES IDX 7 1 6 2 5 3 4 4 3 5 2 6 1 7 35 8 36 9 97 10 37 11 96 12
REMARK SMILES IDX 38 13 39 14 40 15 90 16 41 17 95 18 89 19 91 20 42 21 94 22
REMARK SMILES IDX 88 23 87 24 43 26 75 27 55 28 74 29 56 30 59 31 73 32 92 33
REMARK SMILES IDX 57 34 58 35 72 37 93 38 60 39 44 40 45 41 53 42 46 43 47 44
REMARK SMILES IDX 51 45 54 46 48 47 49 48 52 49 50 50 76 51 77 52 85 53 78 54
REMARK SMILES IDX 79 55 83 56 86 57 80 58 81 59 84 60 82 61 61 62 62 63 70 64
REMARK SMILES IDX 63 65 64 66 68 67 71 68 65 69 66 70 69 71 67 72 8 73 9 74
REMARK SMILES IDX 10 75 11 76 12 77 13 78 34 79 14 80 33 81 15 82 32 83 16 84
REMARK SMILES IDX 30 85 17 87 18 88 31 89 19 90 20 91 21 92 22 93 29 94 23 95
REMARK SMILES IDX 24 96 28 97 25 99 27 100 26 101
REMARK H PARENT 91 25 59 36 32 86 23 98
REMARK Flexibility Score: inf
ROOT
ATOM      1  C   UNL     1       2.636  -1.364   0.795  1.00  0.00     0.202 C 
ENDROOT
BRANCH   1   2
ATOM      2  O   UNL     1       4.029  -1.215   0.517  1.00  0.00    -0.374 OA
BRANCH   2   3
ATOM      3  C   UNL     1       4.663   0.025   0.836  1.00  0.00     0.202 C 
BRANCH   3   4
ATOM      4  C   UNL     1       4.444   1.239  -0.075  1.00  0.00     0.261 C 
BRANCH   4   5
ATOM      5  O   UNL     1       3.083   1.430  -0.455  1.00  0.00    -0.460 OA
BRANCH   5   6
ATOM      6  C   UNL     1       2.428   0.830  -1.475  1.00  0.00     0.338 C 
ATOM      7  O   UNL     1       1.238   1.101  -1.632  1.00  0.00    -0.246 OA
BRANCH   6   8
ATOM      8  C   UNL     1       3.020  -0.231  -2.356  1.00  0.00     0.060 A 
ATOM      9  C   UNL     1       2.213  -0.674  -3.416  1.00  0.00     0.016 A 
ATOM     10  C   UNL     1       4.228  -0.899  -2.147  1.00  0.00     0.016 A 
ATOM     11  C   UNL     1       2.570  -1.790  -4.173  1.00  0.00     0.010 A 
ATOM     12  C   UNL     1       4.542  -2.067  -2.809  1.00  0.00     0.010 A 
ATOM     13  C   UNL     1       3.724  -2.502  -3.840  1.00  0.00    -0.014 A 
BRANCH  13  14
ATOM     14  C   UNL     1       4.317  -3.524  -4.699  1.00  0.00     0.031 A 
ATOM     15  C   UNL     1       4.314  -4.961  -4.302  1.00  0.00     0.074 A 
ATOM     16  C   UNL     1       5.082  -3.038  -5.691  1.00  0.00     0.049 A 
ATOM     17  N   UNL     1       4.872  -5.970  -4.911  1.00  0.00    -0.248 NA
ATOM     18  C   UNL     1       3.630  -5.314  -3.045  1.00  0.00     0.031 C 
ATOM     19  C   UNL     1       5.255  -1.609  -5.989  1.00  0.00     0.029 A 
ATOM     20  N   UNL     1       5.896  -3.664  -6.585  1.00  0.00    -0.354 N 
ATOM     21  C   UNL     1       4.562  -7.086  -4.149  1.00  0.00     0.074 A 
ATOM     22  C   UNL     1       3.841  -6.624  -2.983  1.00  0.00     0.031 C 
ATOM     23  C   UNL     1       6.113  -1.472  -7.006  1.00  0.00     0.029 A 
ATOM     24  C   UNL     1       6.546  -2.795  -7.422  1.00  0.00     0.049 A 
ATOM     25  H   UNL     1       6.006  -4.642  -6.626  1.00  0.00     0.167 HD
ATOM     26  C   UNL     1       4.834  -8.377  -4.446  1.00  0.00     0.037 A 
ATOM     27  C   UNL     1       7.387  -3.058  -8.433  1.00  0.00     0.037 A 
ATOM     28  C   UNL     1       5.604  -8.767  -5.602  1.00  0.00     0.049 A 
ATOM     29  C   UNL     1       7.662  -4.500  -8.735  1.00  0.00     0.074 A 
ATOM     30  C   UNL     1       5.912 -10.038  -6.048  1.00  0.00     0.029 A 
ATOM     31  N   UNL     1       6.197  -7.875  -6.488  1.00  0.00    -0.354 N 
ATOM     32  N   UNL     1       7.242  -5.571  -8.103  1.00  0.00    -0.248 NA
ATOM     33  C   UNL     1       8.495  -4.773  -9.907  1.00  0.00     0.031 C 
ATOM     34  C   UNL     1       6.731  -9.915  -7.174  1.00  0.00     0.029 A 
ATOM     35  C   UNL     1       6.875  -8.568  -7.475  1.00  0.00     0.049 A 
ATOM     36  H   UNL     1       6.144  -6.894  -6.422  1.00  0.00     0.167 HD
ATOM     37  C   UNL     1       7.716  -6.650  -8.830  1.00  0.00     0.074 A 
ATOM     38  C   UNL     1       8.437  -6.095  -9.961  1.00  0.00     0.031 C 
ATOM     39  C   UNL     1       7.571  -7.976  -8.591  1.00  0.00     0.037 A 
BRANCH  26  40
ATOM     40  C   UNL     1       4.246  -9.457  -3.585  1.00  0.00     0.064 A 
ATOM     41  C   UNL     1       2.862  -9.695  -3.588  1.00  0.00     0.173 A 
ATOM     42  C   UNL     1       5.061 -10.359  -2.885  1.00  0.00     0.173 A 
ATOM     43  F   UNL     1       2.034  -8.863  -4.237  1.00  0.00    -0.203 F 
ATOM     44  C   UNL     1       2.320 -10.800  -2.937  1.00  0.00     0.198 A 
ATOM     45  C   UNL     1       4.518 -11.479  -2.257  1.00  0.00     0.198 A 
ATOM     46  F   UNL     1       6.391 -10.184  -2.851  1.00  0.00    -0.203 F 
ATOM     47  F   UNL     1       0.995 -11.004  -2.956  1.00  0.00    -0.200 F 
ATOM     48  C   UNL     1       3.150 -11.701  -2.288  1.00  0.00     0.200 A 
ATOM     49  F   UNL     1       5.323 -12.360  -1.646  1.00  0.00    -0.200 F 
ATOM     50  F   UNL     1       2.631 -12.788  -1.700  1.00  0.00    -0.200 F 
ENDBRANCH  26  40
BRANCH  27  51
ATOM     51  C   UNL     1       7.886  -1.954  -9.285  1.00  0.00     0.064 A 
ATOM     52  C   UNL     1       7.443  -1.833 -10.610  1.00  0.00     0.173 A 
ATOM     53  C   UNL     1       8.766  -0.976  -8.799  1.00  0.00     0.173 A 
ATOM     54  F   UNL     1       6.584  -2.732 -11.113  1.00  0.00    -0.203 F 
ATOM     55  C   UNL     1       7.900  -0.807 -11.432  1.00  0.00     0.198 A 
ATOM     56  C   UNL     1       9.193   0.072  -9.611  1.00  0.00     0.198 A 
ATOM     57  F   UNL     1       9.185  -1.020  -7.526  1.00  0.00    -0.203 F 
ATOM     58  F   UNL     1       7.503  -0.752 -12.710  1.00  0.00    -0.200 F 
ATOM     59  C   UNL     1       8.773   0.146 -10.931  1.00  0.00     0.200 A 
ATOM     60  F   UNL     1      10.006   1.014  -9.114  1.00  0.00    -0.200 F 
ATOM     61  F   UNL     1       9.210   1.135 -11.722  1.00  0.00    -0.200 F 
ENDBRANCH  27  51
BRANCH  39  62
ATOM     62  C   UNL     1       8.165  -8.909  -9.605  1.00  0.00     0.064 A 
ATOM     63  C   UNL     1       9.551  -9.017  -9.787  1.00  0.00     0.173 A 
ATOM     64  C   UNL     1       7.331  -9.721 -10.388  1.00  0.00     0.173 A 
ATOM     65  F   UNL     1      10.389  -8.252  -9.070  1.00  0.00    -0.203 F 
ATOM     66  C   UNL     1      10.078  -9.867 -10.752  1.00  0.00     0.198 A 
ATOM     67  C   UNL     1       7.864 -10.607 -11.316  1.00  0.00     0.198 A 
ATOM     68  F   UNL     1       5.998  -9.664 -10.243  1.00  0.00    -0.203 F 
ATOM     69  F   UNL     1      11.401  -9.895 -10.965  1.00  0.00    -0.200 F 
ATOM     70  C   UNL     1       9.236 -10.668 -11.508  1.00  0.00     0.200 A 
ATOM     71  F   UNL     1       7.050 -11.399 -12.027  1.00  0.00    -0.200 F 
ATOM     72  F   UNL     1       9.747 -11.494 -12.431  1.00  0.00    -0.200 F 
ENDBRANCH  39  62
ENDBRANCH  13  14
ENDBRANCH   6   8
ENDBRANCH   5   6
ENDBRANCH   4   5
ENDBRANCH   3   4
ENDBRANCH   2   3
ENDBRANCH   1   2
BRANCH   1  73
ATOM     73  C   UNL     1       2.283  -1.861   2.190  1.00  0.00     0.261 C 
BRANCH  73  74
ATOM     74  O   UNL     1       2.520  -0.837   3.180  1.00  0.00    -0.460 OA
BRANCH  74  75
ATOM     75  C   UNL     1       3.786  -0.925   3.646  1.00  0.00     0.338 C 
ATOM     76  O   UNL     1       4.652  -1.621   3.104  1.00  0.00    -0.246 OA
BRANCH  75  77
ATOM     77  C   UNL     1       4.184  -0.150   4.996  1.00  0.00     0.062 A 
ATOM     78  C   UNL     1       4.145  -0.710   6.960  1.00  0.00     0.016 A 
ATOM     79  C   UNL     1       5.752   0.403   4.326  1.00  0.00     0.042 A 
ATOM     80  C   UNL     1       5.720  -0.799   7.849  1.00  0.00     0.017 A 
ATOM     81  C   UNL     1       7.145   0.291   5.290  1.00  0.00     0.056 A 
ATOM     82  C   UNL     1       7.154  -0.315   6.943  1.00  0.00     0.064 A 
ATOM     83  N   UNL     1       8.268   0.999   4.863  1.00  0.00    -0.307 N 
ATOM     84  C   UNL     1       8.441  -0.079   7.531  1.00  0.00     0.264 A 
ATOM     85  C   UNL     1       9.029   1.635   5.806  1.00  0.00     0.328 A 
ATOM     86  H   UNL     1       8.508   1.040   3.909  1.00  0.00     0.171 HD
ATOM     87  O   UNL     1       8.886  -0.781   8.422  1.00  0.00    -0.268 OA
ATOM     88  N   UNL     1       8.896   1.165   7.117  1.00  0.00    -0.260 N 
ATOM     89  O   UNL     1       9.619   2.671   5.501  1.00  0.00    -0.248 OA
BRANCH  88  90
ATOM     90  C   UNL     1       8.518   2.149   8.067  1.00  0.00     0.136 C 
BRANCH  90  91
ATOM     91  C   UNL     1       7.066   2.627   7.897  1.00  0.00     0.060 C 
BRANCH  91  92
ATOM     92  C   UNL     1       5.813   1.961   7.266  1.00  0.00    -0.021 A 
ATOM     93  C   UNL     1       4.617   2.396   7.894  1.00  0.00     0.087 A 
ATOM     94  C   UNL     1       5.236   0.725   6.399  1.00  0.00     0.003 A 
ATOM     95  N   UNL     1       3.703   2.579   6.864  1.00  0.00    -0.361 N 
ATOM     96  C   UNL     1       3.550   1.280   6.439  1.00  0.00     0.046 A 
ATOM     97  C   UNL     1       5.519  -1.200   5.799  1.00  0.00     0.010 A 
ATOM     98  H   UNL     1       3.283   3.405   6.533  1.00  0.00     0.166 HD
ATOM     99  C   UNL     1       2.246   0.191   6.095  1.00  0.00     0.026 A 
ATOM    100  C   UNL     1       4.046  -2.258   5.597  1.00  0.00     0.001 A 
ATOM    101  C   UNL     1       2.472  -1.507   5.739  1.00  0.00     0.002 A 
ENDBRANCH  91  92
ENDBRANCH  90  91
ENDBRANCH  88  90
ENDBRANCH  75  77
ENDBRANCH  74  75
ENDBRANCH  73  74
ENDBRANCH   1  73
TORSDOF 17
