REMARK SMILES O=C(OCCOCCOC(=O)c1cc2ccccc2cc1NS(=O)(=O)c1ccccc1Br)c1ccc(-c2c3nc(c(-c4c(F)c(F)c(F)c(F)c4F)c4ccc([nH]4)c(-c4c(F)c(F)c(F)c(F)c4F)c4nc(c(-c5c(F)c(F)c(F)c(F)c5F)c5ccc2[nH]5)C=C4)C=C3)cc1
REMARK SMILES IDX 7 1 6 2 5 3 4 4 3 5 2 6 1 7 33 8 34 9 95 10 35 11 94 12
REMARK SMILES IDX 36 13 37 14 38 15 88 16 39 17 93 18 87 19 89 20 40 21 92 22
REMARK SMILES IDX 86 23 85 24 41 26 73 27 53 28 72 29 54 30 57 31 71 32 90 33
REMARK SMILES IDX 55 34 56 35 70 37 91 38 58 39 42 40 43 41 51 42 44 43 45 44
REMARK SMILES IDX 49 45 52 46 46 47 47 48 50 49 48 50 74 51 75 52 83 53 76 54
REMARK SMILES IDX 77 55 81 56 84 57 78 58 79 59 82 60 80 61 59 62 60 63 68 64
REMARK SMILES IDX 61 65 62 66 66 67 69 68 63 69 64 70 67 71 65 72 8 73 9 74
REMARK SMILES IDX 10 75 11 76 12 77 13 78 21 79 14 80 20 81 15 82 19 83 16 84
REMARK SMILES IDX 18 85 17 86 22 87 23 89 24 90 25 91 26 92 27 93 31 94 28 95
REMARK SMILES IDX 30 96 32 97 29 98
REMARK H PARENT 89 25 57 36 22 88
REMARK Flexibility Score: inf
ROOT
ATOM      1  C   UNL     1       2.797  -0.257   2.150  1.00  0.00     0.202 C 
ENDROOT
BRANCH   1   2
ATOM      2  O   UNL     1       4.098   0.062   1.637  1.00  0.00    -0.374 OA
BRANCH   2   3
ATOM      3  C   UNL     1       4.215   1.308   0.951  1.00  0.00     0.202 C 
BRANCH   3   4
ATOM      4  C   UNL     1       3.860   1.250  -0.535  1.00  0.00     0.261 C 
BRANCH   4   5
ATOM      5  O   UNL     1       2.490   0.850  -0.700  1.00  0.00    -0.460 OA
BRANCH   5   6
ATOM      6  C   UNL     1       2.021  -0.292  -1.254  1.00  0.00     0.338 C 
ATOM      7  O   UNL     1       0.820  -0.393  -1.490  1.00  0.00    -0.246 OA
BRANCH   6   8
ATOM      8  C   UNL     1       2.896  -1.457  -1.576  1.00  0.00     0.060 A 
ATOM      9  C   UNL     1       4.052  -1.787  -0.868  1.00  0.00     0.016 A 
ATOM     10  C   UNL     1       2.458  -2.339  -2.576  1.00  0.00     0.016 A 
ATOM     11  C   UNL     1       4.787  -2.922  -1.165  1.00  0.00     0.010 A 
ATOM     12  C   UNL     1       3.162  -3.517  -2.847  1.00  0.00     0.010 A 
ATOM     13  C   UNL     1       4.331  -3.808  -2.136  1.00  0.00    -0.014 A 
BRANCH  13  14
ATOM     14  C   UNL     1       5.129  -5.019  -2.388  1.00  0.00     0.031 A 
ATOM     15  C   UNL     1       5.977  -5.080  -3.616  1.00  0.00     0.074 A 
ATOM     16  C   UNL     1       5.168  -5.980  -1.447  1.00  0.00     0.049 A 
ATOM     17  N   UNL     1       6.716  -6.059  -4.060  1.00  0.00    -0.248 NA
ATOM     18  C   UNL     1       6.011  -3.867  -4.451  1.00  0.00     0.031 C 
ATOM     19  C   UNL     1       4.459  -5.931  -0.165  1.00  0.00     0.029 A 
ATOM     20  N   UNL     1       5.850  -7.165  -1.403  1.00  0.00    -0.354 N 
ATOM     21  C   UNL     1       7.276  -5.596  -5.241  1.00  0.00     0.074 A 
ATOM     22  C   UNL     1       6.804  -4.244  -5.443  1.00  0.00     0.031 C 
ATOM     23  C   UNL     1       4.762  -7.027   0.548  1.00  0.00     0.029 A 
ATOM     24  C   UNL     1       5.618  -7.888  -0.257  1.00  0.00     0.049 A 
ATOM     25  H   UNL     1       6.449  -7.471  -2.122  1.00  0.00     0.167 HD
ATOM     26  C   UNL     1       8.100  -6.261  -6.082  1.00  0.00     0.037 A 
ATOM     27  C   UNL     1       6.022  -9.129   0.073  1.00  0.00     0.037 A 
ATOM     28  C   UNL     1       8.554  -7.604  -5.841  1.00  0.00     0.049 A 
ATOM     29  C   UNL     1       6.869  -9.874  -0.924  1.00  0.00     0.074 A 
ATOM     30  C   UNL     1       9.348  -8.406  -6.638  1.00  0.00     0.029 A 
ATOM     31  N   UNL     1       8.247  -8.341  -4.704  1.00  0.00    -0.354 N 
ATOM     32  N   UNL     1       7.349  -9.460  -2.074  1.00  0.00    -0.248 NA
ATOM     33  C   UNL     1       7.211 -11.263  -0.596  1.00  0.00     0.031 C 
ATOM     34  C   UNL     1       9.484  -9.645  -6.002  1.00  0.00     0.029 A 
ATOM     35  C   UNL     1       8.816  -9.598  -4.787  1.00  0.00     0.049 A 
ATOM     36  H   UNL     1       7.705  -8.015  -3.949  1.00  0.00     0.167 HD
ATOM     37  C   UNL     1       8.054 -10.530  -2.602  1.00  0.00     0.074 A 
ATOM     38  C   UNL     1       7.965 -11.603  -1.631  1.00  0.00     0.031 C 
ATOM     39  C   UNL     1       8.706 -10.630  -3.787  1.00  0.00     0.037 A 
BRANCH  26  40
ATOM     40  C   UNL     1       8.485  -5.576  -7.356  1.00  0.00     0.064 A 
ATOM     41  C   UNL     1       9.406  -4.519  -7.387  1.00  0.00     0.173 A 
ATOM     42  C   UNL     1       7.914  -5.985  -8.571  1.00  0.00     0.173 A 
ATOM     43  F   UNL     1       9.958  -4.071  -6.249  1.00  0.00    -0.203 F 
ATOM     44  C   UNL     1       9.728  -3.886  -8.586  1.00  0.00     0.198 A 
ATOM     45  C   UNL     1       8.255  -5.366  -9.770  1.00  0.00     0.198 A 
ATOM     46  F   UNL     1       7.019  -6.985  -8.593  1.00  0.00    -0.203 F 
ATOM     47  F   UNL     1      10.577  -2.849  -8.587  1.00  0.00    -0.200 F 
ATOM     48  C   UNL     1       9.157  -4.314  -9.776  1.00  0.00     0.200 A 
ATOM     49  F   UNL     1       7.702  -5.782 -10.918  1.00  0.00    -0.200 F 
ATOM     50  F   UNL     1       9.467  -3.703 -10.928  1.00  0.00    -0.200 F 
ENDBRANCH  26  40
BRANCH  27  51
ATOM     51  C   UNL     1       5.576  -9.763   1.343  1.00  0.00     0.064 A 
ATOM     52  C   UNL     1       6.493 -10.147   2.332  1.00  0.00     0.173 A 
ATOM     53  C   UNL     1       4.219 -10.038   1.580  1.00  0.00     0.173 A 
ATOM     54  F   UNL     1       7.804  -9.932   2.149  1.00  0.00    -0.203 F 
ATOM     55  C   UNL     1       6.074 -10.803   3.490  1.00  0.00     0.198 A 
ATOM     56  C   UNL     1       3.798 -10.661   2.753  1.00  0.00     0.198 A 
ATOM     57  F   UNL     1       3.295  -9.699   0.668  1.00  0.00    -0.203 F 
ATOM     58  F   UNL     1       6.980 -11.215   4.388  1.00  0.00    -0.200 F 
ATOM     59  C   UNL     1       4.727 -11.055   3.701  1.00  0.00     0.200 A 
ATOM     60  F   UNL     1       2.493 -10.889   2.957  1.00  0.00    -0.200 F 
ATOM     61  F   UNL     1       4.327 -11.690   4.811  1.00  0.00    -0.200 F 
ENDBRANCH  27  51
BRANCH  39  62
ATOM     62  C   UNL     1       9.383 -11.935  -4.074  1.00  0.00     0.064 A 
ATOM     63  C   UNL     1       8.647 -13.079  -4.414  1.00  0.00     0.173 A 
ATOM     64  C   UNL     1      10.782 -12.026  -4.054  1.00  0.00     0.173 A 
ATOM     65  F   UNL     1       7.306 -13.041  -4.427  1.00  0.00    -0.203 F 
ATOM     66  C   UNL     1       9.291 -14.277  -4.704  1.00  0.00     0.198 A 
ATOM     67  C   UNL     1      11.422 -13.217  -4.375  1.00  0.00     0.198 A 
ATOM     68  F   UNL     1      11.525 -10.954  -3.741  1.00  0.00    -0.203 F 
ATOM     69  F   UNL     1       8.570 -15.372  -4.984  1.00  0.00    -0.200 F 
ATOM     70  C   UNL     1      10.677 -14.343  -4.693  1.00  0.00     0.200 A 
ATOM     71  F   UNL     1      12.761 -13.276  -4.378  1.00  0.00    -0.200 F 
ATOM     72  F   UNL     1      11.295 -15.495  -4.984  1.00  0.00    -0.200 F 
ENDBRANCH  39  62
ENDBRANCH  13  14
ENDBRANCH   6   8
ENDBRANCH   5   6
ENDBRANCH   4   5
ENDBRANCH   3   4
ENDBRANCH   2   3
ENDBRANCH   1   2
BRANCH   1  73
ATOM     73  C   UNL     1       2.963  -1.000   3.483  1.00  0.00     0.261 C 
BRANCH  73  74
ATOM     74  O   UNL     1       3.573  -0.104   4.427  1.00  0.00    -0.460 OA
BRANCH  74  75
ATOM     75  C   UNL     1       4.927   0.011   4.317  1.00  0.00     0.340 C 
ATOM     76  O   UNL     1       5.704  -0.860   3.987  1.00  0.00    -0.246 OA
BRANCH  75  77
ATOM     77  C   UNL     1       5.261   1.457   4.423  1.00  0.00     0.084 A 
ATOM     78  C   UNL     1       6.321   1.914   3.619  1.00  0.00     0.026 A 
ATOM     79  C   UNL     1       4.493   2.355   5.183  1.00  0.00     0.064 A 
ATOM     80  C   UNL     1       6.632   3.278   3.547  1.00  0.00    -0.017 A 
ATOM     81  C   UNL     1       4.769   3.718   5.044  1.00  0.00     0.036 A 
ATOM     82  C   UNL     1       7.702   3.759   2.773  1.00  0.00     0.009 A 
ATOM     83  C   UNL     1       5.844   4.191   4.273  1.00  0.00    -0.016 A 
ATOM     84  C   UNL     1       8.012   5.121   2.755  1.00  0.00     0.001 A 
ATOM     85  C   UNL     1       6.169   5.557   4.246  1.00  0.00     0.009 A 
ATOM     86  C   UNL     1       7.254   6.018   3.501  1.00  0.00     0.001 A 
BRANCH  79  87
ATOM     87  N   UNL     1       3.691   1.833   6.257  1.00  0.00    -0.279 N 
ATOM     88  H   UNL     1       3.853   0.893   6.503  1.00  0.00     0.180 HD
BRANCH  87  89
ATOM     89  S   UNL     1       2.519   2.631   7.136  1.00  0.00     0.263 S 
ATOM     90  O   UNL     1       1.525   3.073   6.179  1.00  0.00    -0.201 OA
ATOM     91  O   UNL     1       2.147   1.762   8.232  1.00  0.00    -0.201 OA
BRANCH  89  92
ATOM     92  C   UNL     1       3.292   4.066   7.834  1.00  0.00     0.101 A 
ATOM     93  C   UNL     1       2.633   5.289   7.603  1.00  0.00     0.023 A 
ATOM     94  C   UNL     1       4.586   4.058   8.361  1.00  0.00     0.038 A 
ATOM     95  C   UNL     1       3.295   6.496   7.808  1.00  0.00     0.001 A 
ATOM     96  C   UNL     1       5.246   5.280   8.553  1.00  0.00     0.017 A 
ATOM     97  Br  UNL     1       5.556   2.494   8.821  1.00  0.00    -0.049 Br
ATOM     98  C   UNL     1       4.611   6.490   8.258  1.00  0.00     0.001 A 
ENDBRANCH  89  92
ENDBRANCH  87  89
ENDBRANCH  79  87
ENDBRANCH  75  77
ENDBRANCH  74  75
ENDBRANCH  73  74
ENDBRANCH   1  73
TORSDOF 17
