REMARK SMILES C[C@H](Oc1cc2oc(=O)cc(-c3ccccc3)c2cc1Cl)C(=O)OCCOCCOC(=O)c1ccc(-c2c3nc(c(-c4c(F)c(F)c(F)c(F)c4F)c4ccc([nH]4)c(-c4c(F)c(F)c(F)c(F)c4F)c4nc(c(-c5c(F)c(F)c(F)c(F)c5F)c5ccc2[nH]5)C=C4)C=C3)cc1
REMARK SMILES IDX 26 1 25 2 24 3 22 4 23 5 2 6 1 7 3 8 4 9 5 10 20 11 6 12
REMARK SMILES IDX 19 13 21 14 7 15 18 16 8 17 11 18 9 19 10 20 12 21 13 22
REMARK SMILES IDX 17 23 14 24 16 25 15 26 27 27 28 28 29 29 30 30 31 31 32 32
REMARK SMILES IDX 33 33 34 34 95 35 35 36 94 37 36 38 37 39 38 40 88 41 39 42
REMARK SMILES IDX 93 43 87 44 89 45 40 46 92 47 86 48 85 49 41 51 73 52 53 53
REMARK SMILES IDX 72 54 54 55 57 56 71 57 90 58 55 59 56 60 70 62 91 63 58 64
REMARK SMILES IDX 42 65 43 66 51 67 44 68 45 69 49 70 52 71 46 72 47 73 50 74
REMARK SMILES IDX 48 75 74 76 75 77 83 78 76 79 77 80 81 81 84 82 78 83 79 84
REMARK SMILES IDX 82 85 80 86 59 87 60 88 68 89 61 90 62 91 66 92 69 93 63 94
REMARK SMILES IDX 64 95 67 96 65 97
REMARK H PARENT 89 50 57 61
REMARK Flexibility Score: inf
ROOT
ATOM      1  C   UNL     1      -3.565  -0.097   0.888  1.00  0.00     0.202 C 
ENDROOT
BRANCH   1   2
ATOM      2  C   UNL     1      -2.922   0.977   1.766  1.00  0.00     0.261 C 
BRANCH   2   3
ATOM      3  O   UNL     1      -1.523   1.141   1.488  1.00  0.00    -0.461 OA
BRANCH   3   4
ATOM      4  C   UNL     1      -0.677   0.658   2.442  1.00  0.00     0.347 C 
ATOM      5  O   UNL     1      -1.026   0.145   3.499  1.00  0.00    -0.248 OA
BRANCH   4   6
ATOM      6  C   UNL     1       0.789   0.905   2.087  1.00  0.00     0.279 C 
ATOM      7  C   UNL     1       1.063   2.387   2.360  1.00  0.00     0.066 C 
BRANCH   6   8
ATOM      8  O   UNL     1       1.089   0.519   0.738  1.00  0.00    -0.477 OA
BRANCH   8   9
ATOM      9  C   UNL     1       2.393   0.580   0.312  1.00  0.00     0.142 A 
ATOM     10  C   UNL     1       3.479   0.739   1.168  1.00  0.00     0.096 A 
ATOM     11  C   UNL     1       2.647   0.516  -1.069  1.00  0.00     0.084 A 
ATOM     12  C   UNL     1       4.748   0.987   0.646  1.00  0.00     0.142 A 
ATOM     13  C   UNL     1       3.947   0.700  -1.580  1.00  0.00     0.037 A 
ATOM     14  Cl  UNL     1       1.365   0.248  -2.200  1.00  0.00    -0.080 Cl
ATOM     15  O   UNL     1       5.733   1.303   1.597  1.00  0.00    -0.423 OA
ATOM     16  C   UNL     1       5.014   0.991  -0.721  1.00  0.00     0.027 A 
ATOM     17  C   UNL     1       6.960   1.790   1.197  1.00  0.00     0.336 A 
ATOM     18  C   UNL     1       6.380   1.319  -1.174  1.00  0.00    -0.000 A 
ATOM     19  O   UNL     1       7.784   2.223   1.993  1.00  0.00    -0.246 OA
ATOM     20  C   UNL     1       7.256   1.731  -0.240  1.00  0.00     0.103 A 
BRANCH  18  21
ATOM     21  C   UNL     1       6.903   1.300  -2.558  1.00  0.00    -0.017 A 
ATOM     22  C   UNL     1       7.977   0.458  -2.890  1.00  0.00     0.009 A 
ATOM     23  C   UNL     1       6.381   2.151  -3.541  1.00  0.00     0.009 A 
ATOM     24  C   UNL     1       8.524   0.474  -4.174  1.00  0.00     0.001 A 
ATOM     25  C   UNL     1       6.923   2.156  -4.830  1.00  0.00     0.001 A 
ATOM     26  C   UNL     1       7.996   1.322  -5.143  1.00  0.00     0.000 A 
ENDBRANCH  18  21
ENDBRANCH   8   9
ENDBRANCH   6   8
ENDBRANCH   4   6
ENDBRANCH   3   4
ENDBRANCH   2   3
ENDBRANCH   1   2
BRANCH   1  27
ATOM     27  O   UNL     1      -3.048  -1.417   1.027  1.00  0.00    -0.374 OA
BRANCH  27  28
ATOM     28  C   UNL     1      -1.839  -1.719   0.326  1.00  0.00     0.202 C 
BRANCH  28  29
ATOM     29  C   UNL     1      -1.973  -1.940  -1.185  1.00  0.00     0.261 C 
BRANCH  29  30
ATOM     30  O   UNL     1      -2.265  -0.714  -1.883  1.00  0.00    -0.460 OA
BRANCH  30  31
ATOM     31  C   UNL     1      -3.460  -0.672  -2.513  1.00  0.00     0.338 C 
ATOM     32  O   UNL     1      -4.281  -1.573  -2.618  1.00  0.00    -0.246 OA
BRANCH  31  33
ATOM     33  C   UNL     1      -3.753   0.712  -2.927  1.00  0.00     0.060 A 
ATOM     34  C   UNL     1      -4.928   1.305  -2.447  1.00  0.00     0.016 A 
ATOM     35  C   UNL     1      -2.922   1.401  -3.812  1.00  0.00     0.016 A 
ATOM     36  C   UNL     1      -5.287   2.586  -2.865  1.00  0.00     0.010 A 
ATOM     37  C   UNL     1      -3.292   2.679  -4.243  1.00  0.00     0.010 A 
ATOM     38  C   UNL     1      -4.484   3.272  -3.785  1.00  0.00    -0.014 A 
BRANCH  38  39
ATOM     39  C   UNL     1      -4.921   4.582  -4.324  1.00  0.00     0.031 A 
ATOM     40  C   UNL     1      -5.584   4.645  -5.671  1.00  0.00     0.074 A 
ATOM     41  C   UNL     1      -4.716   5.708  -3.618  1.00  0.00     0.049 A 
ATOM     42  N   UNL     1      -5.959   5.692  -6.362  1.00  0.00    -0.248 NA
ATOM     43  C   UNL     1      -5.861   3.359  -6.329  1.00  0.00     0.031 C 
ATOM     44  C   UNL     1      -4.115   5.770  -2.287  1.00  0.00     0.029 A 
ATOM     45  N   UNL     1      -4.972   7.020  -3.933  1.00  0.00    -0.354 N 
ATOM     46  C   UNL     1      -6.506   5.194  -7.537  1.00  0.00     0.074 A 
ATOM     47  C   UNL     1      -6.402   3.752  -7.474  1.00  0.00     0.031 C 
ATOM     48  C   UNL     1      -4.021   7.056  -1.910  1.00  0.00     0.029 A 
ATOM     49  C   UNL     1      -4.521   7.908  -2.987  1.00  0.00     0.049 A 
ATOM     50  H   UNL     1      -5.435   7.297  -4.757  1.00  0.00     0.167 HD
ATOM     51  C   UNL     1      -7.046   5.882  -8.570  1.00  0.00     0.037 A 
ATOM     52  C   UNL     1      -4.480   9.255  -3.008  1.00  0.00     0.037 A 
ATOM     53  C   UNL     1      -7.158   7.316  -8.623  1.00  0.00     0.049 A 
ATOM     54  C   UNL     1      -5.018   9.992  -4.208  1.00  0.00     0.074 A 
ATOM     55  C   UNL     1      -7.745   8.098  -9.603  1.00  0.00     0.029 A 
ATOM     56  N   UNL     1      -6.662   8.183  -7.663  1.00  0.00    -0.354 N 
ATOM     57  N   UNL     1      -5.577   9.514  -5.293  1.00  0.00    -0.248 NA
ATOM     58  C   UNL     1      -4.912  11.459  -4.188  1.00  0.00     0.031 C 
ATOM     59  C   UNL     1      -7.553   9.441  -9.264  1.00  0.00     0.029 A 
ATOM     60  C   UNL     1      -6.891   9.494  -8.048  1.00  0.00     0.049 A 
ATOM     61  H   UNL     1      -6.214   7.908  -6.830  1.00  0.00     0.167 HD
ATOM     62  C   UNL     1      -5.904  10.616  -6.072  1.00  0.00     0.074 A 
ATOM     63  C   UNL     1      -5.502  11.790  -5.328  1.00  0.00     0.031 C 
ATOM     64  C   UNL     1      -6.482  10.652  -7.298  1.00  0.00     0.037 A 
BRANCH  51  65
ATOM     65  C   UNL     1      -7.544   5.103  -9.750  1.00  0.00     0.064 A 
ATOM     66  C   UNL     1      -8.745   4.381  -9.702  1.00  0.00     0.173 A 
ATOM     67  C   UNL     1      -6.854   5.155 -10.971  1.00  0.00     0.173 A 
ATOM     68  F   UNL     1      -9.436   4.295  -8.556  1.00  0.00    -0.203 F 
ATOM     69  C   UNL     1      -9.233   3.732 -10.834  1.00  0.00     0.198 A 
ATOM     70  C   UNL     1      -7.357   4.524 -12.105  1.00  0.00     0.198 A 
ATOM     71  F   UNL     1      -5.704   5.838 -11.069  1.00  0.00    -0.203 F 
ATOM     72  F   UNL     1     -10.373   3.030 -10.762  1.00  0.00    -0.200 F 
ATOM     73  C   UNL     1      -8.545   3.813 -12.036  1.00  0.00     0.200 A 
ATOM     74  F   UNL     1      -6.697   4.614 -13.268  1.00  0.00    -0.200 F 
ATOM     75  F   UNL     1      -9.028   3.205 -13.128  1.00  0.00    -0.200 F 
ENDBRANCH  51  65
BRANCH  52  76
ATOM     76  C   UNL     1      -3.861  10.002  -1.882  1.00  0.00     0.064 A 
ATOM     77  C   UNL     1      -4.627  10.832  -1.052  1.00  0.00     0.173 A 
ATOM     78  C   UNL     1      -2.480   9.937  -1.643  1.00  0.00     0.173 A 
ATOM     79  F   UNL     1      -5.947  10.951  -1.260  1.00  0.00    -0.203 F 
ATOM     80  C   UNL     1      -4.032  11.588  -0.044  1.00  0.00     0.198 A 
ATOM     81  C   UNL     1      -1.891  10.668  -0.614  1.00  0.00     0.198 A 
ATOM     82  F   UNL     1      -1.700   9.161  -2.411  1.00  0.00    -0.203 F 
ATOM     83  F   UNL     1      -4.779  12.418   0.697  1.00  0.00    -0.200 F 
ATOM     84  C   UNL     1      -2.665  11.502   0.177  1.00  0.00     0.200 A 
ATOM     85  F   UNL     1      -0.572  10.574  -0.399  1.00  0.00    -0.200 F 
ATOM     86  F   UNL     1      -2.093  12.232   1.144  1.00  0.00    -0.200 F 
ENDBRANCH  52  76
BRANCH  64  87
ATOM     87  C   UNL     1      -6.724  12.002  -7.907  1.00  0.00     0.064 A 
ATOM     88  C   UNL     1      -5.668  12.778  -8.408  1.00  0.00     0.173 A 
ATOM     89  C   UNL     1      -8.027  12.506  -8.034  1.00  0.00     0.173 A 
ATOM     90  F   UNL     1      -4.402  12.348  -8.295  1.00  0.00    -0.203 F 
ATOM     91  C   UNL     1      -5.907  14.018  -8.995  1.00  0.00     0.198 A 
ATOM     92  C   UNL     1      -8.265  13.733  -8.647  1.00  0.00     0.198 A 
ATOM     93  F   UNL     1      -9.072  11.800  -7.577  1.00  0.00    -0.203 F 
ATOM     94  F   UNL     1      -4.879  14.761  -9.428  1.00  0.00    -0.200 F 
ATOM     95  C   UNL     1      -7.205  14.490  -9.122  1.00  0.00     0.200 A 
ATOM     96  F   UNL     1      -9.521  14.181  -8.781  1.00  0.00    -0.200 F 
ATOM     97  F   UNL     1      -7.433  15.679  -9.696  1.00  0.00    -0.200 F 
ENDBRANCH  64  87
ENDBRANCH  38  39
ENDBRANCH  31  33
ENDBRANCH  30  31
ENDBRANCH  29  30
ENDBRANCH  28  29
ENDBRANCH  27  28
ENDBRANCH   1  27
TORSDOF 17
