REMARK SMILES C[C@@H](C(=O)OCCOCCOC(=O)c1ccc(-c2c3nc(c(-c4c(F)c(F)c(F)c(F)c4F)c4ccc([nH]4)c(-c4c(F)c(F)c(F)c(F)c4F)c4nc(c(-c5c(F)c(F)c(F)c(F)c5F)c5ccc2[nH]5)C=C4)C=C3)cc1)c1ccc(C[C@@H]2CCC[C@@H]2O)cc1F
REMARK SMILES IDX 7 1 6 2 5 3 3 4 4 5 2 6 1 7 77 8 78 9 89 10 79 11 88 12
REMARK SMILES IDX 90 13 80 14 81 15 82 16 83 17 86 18 84 19 85 20 87 21 8 23
REMARK SMILES IDX 9 24 10 25 11 26 12 27 13 28 14 29 15 30 76 31 16 32 75 33
REMARK SMILES IDX 17 34 18 35 19 36 69 37 20 38 74 39 68 40 70 41 21 42 73 43
REMARK SMILES IDX 67 44 66 45 22 47 54 48 34 49 53 50 35 51 38 52 52 53 71 54
REMARK SMILES IDX 36 55 37 56 51 58 72 59 39 60 23 61 24 62 32 63 25 64 26 65
REMARK SMILES IDX 30 66 33 67 27 68 28 69 31 70 29 71 55 72 56 73 64 74 57 75
REMARK SMILES IDX 58 76 62 77 65 78 59 79 60 80 63 81 61 82 40 83 41 84 49 85
REMARK SMILES IDX 42 86 43 87 47 88 50 89 44 90 45 91 48 92 46 93
REMARK H PARENT 87 22 70 46 38 57
REMARK Flexibility Score: inf
ROOT
ATOM      1  C   UNL     1      -9.196   5.654   5.526  1.00  0.00     0.202 C 
ENDROOT
BRANCH   1   2
ATOM      2  C   UNL     1     -10.483   4.826   5.604  1.00  0.00     0.261 C 
BRANCH   2   3
ATOM      3  O   UNL     1     -10.188   3.473   5.965  1.00  0.00    -0.463 OA
BRANCH   3   4
ATOM      4  C   UNL     1     -10.992   2.519   5.420  1.00  0.00     0.313 C 
ATOM      5  O   UNL     1     -12.061   2.752   4.870  1.00  0.00    -0.252 OA
BRANCH   4   6
ATOM      6  C   UNL     1     -10.395   1.118   5.580  1.00  0.00     0.129 C 
ATOM      7  C   UNL     1      -9.712   1.009   6.957  1.00  0.00     0.025 C 
BRANCH   6   8
ATOM      8  C   UNL     1      -9.522   0.623   4.421  1.00  0.00     0.002 A 
ATOM      9  C   UNL     1      -8.596  -0.419   4.614  1.00  0.00     0.008 A 
ATOM     10  C   UNL     1      -9.674   1.080   3.106  1.00  0.00     0.127 A 
ATOM     11  C   UNL     1      -7.845  -0.948   3.554  1.00  0.00     0.004 A 
ATOM     12  C   UNL     1      -8.921   0.560   2.045  1.00  0.00     0.043 A 
ATOM     13  F   UNL     1     -10.564   2.033   2.811  1.00  0.00    -0.207 F 
ATOM     14  C   UNL     1      -7.978  -0.451   2.257  1.00  0.00    -0.045 A 
BRANCH  14  15
ATOM     15  C   UNL     1      -7.189  -1.026   1.102  1.00  0.00     0.041 C 
BRANCH  15  16
ATOM     16  C   UNL     1      -5.672  -0.751   1.004  1.00  0.00     0.022 C 
ATOM     17  C   UNL     1      -4.814  -1.391   2.101  1.00  0.00     0.007 C 
ATOM     18  C   UNL     1      -5.214   0.710   1.026  1.00  0.00     0.117 C 
ATOM     19  C   UNL     1      -4.475  -0.282   3.101  1.00  0.00     0.003 C 
ATOM     20  C   UNL     1      -4.986   1.023   2.499  1.00  0.00     0.032 C 
BRANCH  18  21
ATOM     21  O   UNL     1      -6.112   1.598   0.396  1.00  0.00    -0.393 OA
ATOM     22  H   UNL     1      -6.973   1.559   0.842  1.00  0.00     0.210 HD
ENDBRANCH  18  21
ENDBRANCH  15  16
ENDBRANCH  14  15
ENDBRANCH   6   8
ENDBRANCH   4   6
ENDBRANCH   3   4
ENDBRANCH   2   3
ENDBRANCH   1   2
BRANCH   1  23
ATOM     23  O   UNL     1      -8.150   5.122   4.713  1.00  0.00    -0.374 OA
BRANCH  23  24
ATOM     24  C   UNL     1      -7.433   3.987   5.205  1.00  0.00     0.202 C 
BRANCH  24  25
ATOM     25  C   UNL     1      -6.515   4.221   6.412  1.00  0.00     0.261 C 
BRANCH  25  26
ATOM     26  O   UNL     1      -7.243   4.560   7.609  1.00  0.00    -0.460 OA
BRANCH  26  27
ATOM     27  C   UNL     1      -6.886   5.739   8.173  1.00  0.00     0.338 C 
ATOM     28  O   UNL     1      -5.980   6.484   7.827  1.00  0.00    -0.246 OA
BRANCH  27  29
ATOM     29  C   UNL     1      -7.852   6.130   9.214  1.00  0.00     0.060 A 
ATOM     30  C   UNL     1      -8.524   7.348   9.052  1.00  0.00     0.016 A 
ATOM     31  C   UNL     1      -8.004   5.387  10.386  1.00  0.00     0.016 A 
ATOM     32  C   UNL     1      -9.318   7.851  10.082  1.00  0.00     0.010 A 
ATOM     33  C   UNL     1      -8.794   5.898  11.423  1.00  0.00     0.010 A 
ATOM     34  C   UNL     1      -9.425   7.149  11.289  1.00  0.00    -0.014 A 
BRANCH  34  35
ATOM     35  C   UNL     1     -10.076   7.797  12.455  1.00  0.00     0.031 A 
ATOM     36  C   UNL     1      -9.220   8.473  13.490  1.00  0.00     0.074 A 
ATOM     37  C   UNL     1     -11.415   7.816  12.574  1.00  0.00     0.049 A 
ATOM     38  N   UNL     1      -9.573   9.084  14.593  1.00  0.00    -0.248 NA
ATOM     39  C   UNL     1      -7.769   8.461  13.247  1.00  0.00     0.031 C 
ATOM     40  C   UNL     1     -12.354   7.231  11.620  1.00  0.00     0.029 A 
ATOM     41  N   UNL     1     -12.216   8.348  13.554  1.00  0.00    -0.354 N 
ATOM     42  C   UNL     1      -8.392   9.528  15.173  1.00  0.00     0.074 A 
ATOM     43  C   UNL     1      -7.309   9.089  14.319  1.00  0.00     0.031 C 
ATOM     44  C   UNL     1     -13.606   7.424  12.068  1.00  0.00     0.029 A 
ATOM     45  C   UNL     1     -13.554   8.122  13.352  1.00  0.00     0.049 A 
ATOM     46  H   UNL     1     -11.863   8.843  14.329  1.00  0.00     0.167 HD
ATOM     47  C   UNL     1      -8.225  10.245  16.311  1.00  0.00     0.037 A 
ATOM     48  C   UNL     1     -14.614   8.428  14.126  1.00  0.00     0.037 A 
ATOM     49  C   UNL     1      -9.301  10.679  17.163  1.00  0.00     0.049 A 
ATOM     50  C   UNL     1     -14.398   9.166  15.422  1.00  0.00     0.074 A 
ATOM     51  C   UNL     1      -9.233  11.419  18.331  1.00  0.00     0.029 A 
ATOM     52  N   UNL     1     -10.642  10.405  16.940  1.00  0.00    -0.354 N 
ATOM     53  N   UNL     1     -13.280   9.599  15.952  1.00  0.00    -0.248 NA
ATOM     54  C   UNL     1     -15.594   9.461  16.224  1.00  0.00     0.031 C 
ATOM     55  C   UNL     1     -10.530  11.554  18.839  1.00  0.00     0.029 A 
ATOM     56  C   UNL     1     -11.410  10.941  17.962  1.00  0.00     0.049 A 
ATOM     57  H   UNL     1     -10.996   9.903  16.171  1.00  0.00     0.167 HD
ATOM     58  C   UNL     1     -13.639  10.237  17.133  1.00  0.00     0.074 A 
ATOM     59  C   UNL     1     -15.080  10.146  17.236  1.00  0.00     0.031 C 
ATOM     60  C   UNL     1     -12.845  10.845  18.049  1.00  0.00     0.037 A 
BRANCH  47  61
ATOM     61  C   UNL     1      -6.821  10.587  16.711  1.00  0.00     0.064 A 
ATOM     62  C   UNL     1      -6.072  11.549  16.017  1.00  0.00     0.173 A 
ATOM     63  C   UNL     1      -6.226   9.966  17.820  1.00  0.00     0.173 A 
ATOM     64  F   UNL     1      -6.590  12.161  14.941  1.00  0.00    -0.203 F 
ATOM     65  C   UNL     1      -4.770  11.859  16.404  1.00  0.00     0.198 A 
ATOM     66  C   UNL     1      -4.934  10.298  18.220  1.00  0.00     0.198 A 
ATOM     67  F   UNL     1      -6.901   9.042  18.520  1.00  0.00    -0.203 F 
ATOM     68  F   UNL     1      -4.058  12.749  15.700  1.00  0.00    -0.200 F 
ATOM     69  C   UNL     1      -4.205  11.238  17.508  1.00  0.00     0.200 A 
ATOM     70  F   UNL     1      -4.394   9.704  19.293  1.00  0.00    -0.200 F 
ATOM     71  F   UNL     1      -2.954  11.540  17.881  1.00  0.00    -0.200 F 
ENDBRANCH  47  61
BRANCH  48  72
ATOM     72  C   UNL     1     -15.979   8.023  13.703  1.00  0.00     0.064 A 
ATOM     73  C   UNL     1     -16.928   8.975  13.307  1.00  0.00     0.173 A 
ATOM     74  C   UNL     1     -16.365   6.674  13.697  1.00  0.00     0.173 A 
ATOM     75  F   UNL     1     -16.615  10.279  13.322  1.00  0.00    -0.203 F 
ATOM     76  C   UNL     1     -18.217   8.594  12.937  1.00  0.00     0.198 A 
ATOM     77  C   UNL     1     -17.645   6.293  13.302  1.00  0.00     0.198 A 
ATOM     78  F   UNL     1     -15.494   5.725  14.071  1.00  0.00    -0.203 F 
ATOM     79  F   UNL     1     -19.119   9.528  12.605  1.00  0.00    -0.200 F 
ATOM     80  C   UNL     1     -18.572   7.253  12.928  1.00  0.00     0.200 A 
ATOM     81  F   UNL     1     -17.980   4.996  13.286  1.00  0.00    -0.200 F 
ATOM     82  F   UNL     1     -19.810   6.888  12.569  1.00  0.00    -0.200 F 
ENDBRANCH  48  72
BRANCH  60  83
ATOM     83  C   UNL     1     -13.517  11.486  19.228  1.00  0.00     0.064 A 
ATOM     84  C   UNL     1     -14.071  10.721  20.264  1.00  0.00     0.173 A 
ATOM     85  C   UNL     1     -13.567  12.884  19.344  1.00  0.00     0.173 A 
ATOM     86  F   UNL     1     -14.060   9.381  20.194  1.00  0.00    -0.203 F 
ATOM     87  C   UNL     1     -14.671  11.331  21.363  1.00  0.00     0.198 A 
ATOM     88  C   UNL     1     -14.143  13.491  20.456  1.00  0.00     0.198 A 
ATOM     89  F   UNL     1     -13.045  13.661  18.383  1.00  0.00    -0.203 F 
ATOM     90  F   UNL     1     -15.231  10.581  22.321  1.00  0.00    -0.200 F 
ATOM     91  C   UNL     1     -14.700  12.715  21.462  1.00  0.00     0.200 A 
ATOM     92  F   UNL     1     -14.159  14.827  20.556  1.00  0.00    -0.200 F 
ATOM     93  F   UNL     1     -15.271  13.300  22.523  1.00  0.00    -0.200 F 
ENDBRANCH  60  83
ENDBRANCH  34  35
ENDBRANCH  27  29
ENDBRANCH  26  27
ENDBRANCH  25  26
ENDBRANCH  24  25
ENDBRANCH  23  24
ENDBRANCH   1  23
TORSDOF 18
