REMARK SMILES O=C(OCCOCCOC(=O)[C@H]1[C@H]2CC[C@H](C2)[C@@H]1C(=O)N1CC[NH+](C2CCCCC2)CC1)c1ccc(-c2c3nc(c(-c4c(F)c(F)c(F)c(F)c4F)c4ccc([nH]4)c(-c4c(F)c(F)c(F)c(F)c4F)c4nc(c(-c5c(F)c(F)c(F)c(F)c5F)c5ccc2[nH]5)C=C4)C=C3)cc1
REMARK SMILES IDX 6 1 5 2 4 3 3 4 2 5 1 6 33 7 34 8 95 9 35 10 94 11 36 12
REMARK SMILES IDX 37 13 38 14 88 15 39 16 93 17 87 18 89 19 40 20 92 21 86 22
REMARK SMILES IDX 85 23 41 25 73 26 53 27 72 28 54 29 57 30 71 31 90 32 55 33
REMARK SMILES IDX 56 34 70 36 91 37 58 38 42 39 43 40 51 41 44 42 45 43 49 44
REMARK SMILES IDX 52 45 46 46 47 47 50 48 48 49 74 50 75 51 83 52 76 53 77 54
REMARK SMILES IDX 81 55 84 56 78 57 79 58 82 59 80 60 59 61 60 62 68 63 61 64
REMARK SMILES IDX 62 65 66 66 69 67 63 68 64 69 67 70 65 71 7 72 8 73 9 74
REMARK SMILES IDX 10 75 11 76 12 77 13 78 18 79 14 80 17 81 16 82 15 83 19 84
REMARK SMILES IDX 20 85 21 86 22 87 32 88 23 89 31 90 24 91 25 93 26 94 30 95
REMARK SMILES IDX 27 96 29 97 28 98
REMARK H PARENT 89 24 57 35 24 92
REMARK Flexibility Score: inf
ROOT
ATOM      1  O   UNL     1       4.428  -1.300   2.526  1.00  0.00    -0.374 OA
ENDROOT
BRANCH   1   2
ATOM      2  C   UNL     1       3.705  -1.495   1.310  1.00  0.00     0.202 C 
BRANCH   2   3
ATOM      3  C   UNL     1       2.793  -0.330   0.920  1.00  0.00     0.261 C 
BRANCH   3   4
ATOM      4  O   UNL     1       3.541   0.887   0.815  1.00  0.00    -0.460 OA
BRANCH   4   5
ATOM      5  C   UNL     1       3.855   1.742   1.813  1.00  0.00     0.338 C 
ATOM      6  O   UNL     1       4.666   2.637   1.578  1.00  0.00    -0.246 OA
BRANCH   5   7
ATOM      7  C   UNL     1       3.267   1.687   3.191  1.00  0.00     0.060 A 
ATOM      8  C   UNL     1       2.771   0.548   3.834  1.00  0.00     0.016 A 
ATOM      9  C   UNL     1       3.315   2.883   3.927  1.00  0.00     0.016 A 
ATOM     10  C   UNL     1       2.359   0.567   5.152  1.00  0.00     0.010 A 
ATOM     11  C   UNL     1       2.878   2.926   5.250  1.00  0.00     0.010 A 
ATOM     12  C   UNL     1       2.397   1.761   5.854  1.00  0.00    -0.014 A 
BRANCH  12  13
ATOM     13  C   UNL     1       1.730   1.792   7.154  1.00  0.00     0.031 A 
ATOM     14  C   UNL     1       0.323   2.282   7.180  1.00  0.00     0.074 A 
ATOM     15  C   UNL     1       2.347   1.290   8.232  1.00  0.00     0.049 A 
ATOM     16  N   UNL     1      -0.444   2.548   8.198  1.00  0.00    -0.248 NA
ATOM     17  C   UNL     1      -0.311   2.498   5.867  1.00  0.00     0.031 C 
ATOM     18  C   UNL     1       3.659   0.641   8.224  1.00  0.00     0.029 A 
ATOM     19  N   UNL     1       1.952   1.244   9.537  1.00  0.00    -0.354 N 
ATOM     20  C   UNL     1      -1.632   3.008   7.650  1.00  0.00     0.074 A 
ATOM     21  C   UNL     1      -1.494   2.973   6.213  1.00  0.00     0.031 C 
ATOM     22  C   UNL     1       3.976   0.289   9.480  1.00  0.00     0.029 A 
ATOM     23  C   UNL     1       2.921   0.754  10.374  1.00  0.00     0.049 A 
ATOM     24  H   UNL     1       1.063   1.534   9.846  1.00  0.00     0.167 HD
ATOM     25  C   UNL     1      -2.725   3.445   8.313  1.00  0.00     0.037 A 
ATOM     26  C   UNL     1       2.960   0.756  11.719  1.00  0.00     0.037 A 
ATOM     27  C   UNL     1      -2.792   3.469   9.748  1.00  0.00     0.049 A 
ATOM     28  C   UNL     1       1.777   1.338  12.445  1.00  0.00     0.074 A 
ATOM     29  C   UNL     1      -3.802   3.935  10.564  1.00  0.00     0.029 A 
ATOM     30  N   UNL     1      -1.777   3.003  10.580  1.00  0.00    -0.354 N 
ATOM     31  N   UNL     1       0.676   1.853  11.945  1.00  0.00    -0.248 NA
ATOM     32  C   UNL     1       1.838   1.357  13.909  1.00  0.00     0.031 C 
ATOM     33  C   UNL     1      -3.372   3.805  11.890  1.00  0.00     0.029 A 
ATOM     34  C   UNL     1      -2.125   3.193  11.903  1.00  0.00     0.049 A 
ATOM     35  H   UNL     1      -0.935   2.597  10.271  1.00  0.00     0.167 HD
ATOM     36  C   UNL     1      -0.100   2.235  13.028  1.00  0.00     0.074 A 
ATOM     37  C   UNL     1       0.662   1.891  14.216  1.00  0.00     0.031 C 
ATOM     38  C   UNL     1      -1.327   2.812  13.047  1.00  0.00     0.037 A 
BRANCH  25  39
ATOM     39  C   UNL     1      -3.833   4.024   7.484  1.00  0.00     0.064 A 
ATOM     40  C   UNL     1      -4.607   3.243   6.611  1.00  0.00     0.173 A 
ATOM     41  C   UNL     1      -4.058   5.410   7.493  1.00  0.00     0.173 A 
ATOM     42  F   UNL     1      -4.411   1.918   6.536  1.00  0.00    -0.203 F 
ATOM     43  C   UNL     1      -5.523   3.833   5.742  1.00  0.00     0.198 A 
ATOM     44  C   UNL     1      -4.999   5.992   6.649  1.00  0.00     0.198 A 
ATOM     45  F   UNL     1      -3.341   6.207   8.299  1.00  0.00    -0.203 F 
ATOM     46  F   UNL     1      -6.183   3.078   4.853  1.00  0.00    -0.200 F 
ATOM     47  C   UNL     1      -5.718   5.206   5.762  1.00  0.00     0.200 A 
ATOM     48  F   UNL     1      -5.188   7.318   6.672  1.00  0.00    -0.200 F 
ATOM     49  F   UNL     1      -6.583   5.774   4.910  1.00  0.00    -0.200 F 
ENDBRANCH  25  39
BRANCH  26  50
ATOM     50  C   UNL     1       4.171   0.257  12.418  1.00  0.00     0.064 A 
ATOM     51  C   UNL     1       4.144  -0.918  13.180  1.00  0.00     0.173 A 
ATOM     52  C   UNL     1       5.404   0.920  12.291  1.00  0.00     0.173 A 
ATOM     53  F   UNL     1       2.991  -1.581  13.347  1.00  0.00    -0.203 F 
ATOM     54  C   UNL     1       5.301  -1.410  13.785  1.00  0.00     0.198 A 
ATOM     55  C   UNL     1       6.564   0.413  12.872  1.00  0.00     0.198 A 
ATOM     56  F   UNL     1       5.488   2.049  11.571  1.00  0.00    -0.203 F 
ATOM     57  F   UNL     1       5.243  -2.525  14.527  1.00  0.00    -0.200 F 
ATOM     58  C   UNL     1       6.511  -0.751  13.622  1.00  0.00     0.200 A 
ATOM     59  F   UNL     1       7.732   1.045  12.695  1.00  0.00    -0.200 F 
ATOM     60  F   UNL     1       7.624  -1.236  14.188  1.00  0.00    -0.200 F 
ENDBRANCH  26  50
BRANCH  38  61
ATOM     61  C   UNL     1      -1.944   3.058  14.389  1.00  0.00     0.064 A 
ATOM     62  C   UNL     1      -1.525   4.112  15.210  1.00  0.00     0.173 A 
ATOM     63  C   UNL     1      -3.048   2.293  14.798  1.00  0.00     0.173 A 
ATOM     64  F   UNL     1      -0.466   4.860  14.863  1.00  0.00    -0.203 F 
ATOM     65  C   UNL     1      -2.191   4.393  16.399  1.00  0.00     0.198 A 
ATOM     66  C   UNL     1      -3.729   2.596  15.970  1.00  0.00     0.198 A 
ATOM     67  F   UNL     1      -3.488   1.280  14.036  1.00  0.00    -0.203 F 
ATOM     68  F   UNL     1      -1.763   5.391  17.184  1.00  0.00    -0.200 F 
ATOM     69  C   UNL     1      -3.299   3.644  16.770  1.00  0.00     0.200 A 
ATOM     70  F   UNL     1      -4.811   1.886  16.317  1.00  0.00    -0.200 F 
ATOM     71  F   UNL     1      -3.957   3.936  17.900  1.00  0.00    -0.200 F 
ENDBRANCH  38  61
ENDBRANCH  12  13
ENDBRANCH   5   7
ENDBRANCH   4   5
ENDBRANCH   3   4
ENDBRANCH   2   3
ENDBRANCH   1   2
BRANCH   1  72
ATOM     72  C   UNL     1       5.733  -0.732   2.427  1.00  0.00     0.202 C 
BRANCH  72  73
ATOM     73  C   UNL     1       6.750  -1.724   2.983  1.00  0.00     0.261 C 
BRANCH  73  74
ATOM     74  O   UNL     1       6.807  -2.829   2.076  1.00  0.00    -0.463 OA
BRANCH  74  75
ATOM     75  C   UNL     1       5.828  -3.764   2.260  1.00  0.00     0.310 C 
ATOM     76  O   UNL     1       5.206  -3.962   3.289  1.00  0.00    -0.252 OA
BRANCH  75  77
ATOM     77  C   UNL     1       5.632  -4.485   0.949  1.00  0.00     0.115 C 
ATOM     78  C   UNL     1       6.860  -5.383   0.674  1.00  0.00     0.004 C 
ATOM     79  C   UNL     1       4.429  -5.457   0.927  1.00  0.00     0.096 C 
ATOM     80  C   UNL     1       7.125  -6.346   1.839  1.00  0.00     0.005 C 
ATOM     81  C   UNL     1       6.295  -6.344  -0.351  1.00  0.00     0.009 C 
ATOM     82  C   UNL     1       5.123  -6.778   0.543  1.00  0.00     0.003 C 
ATOM     83  C   UNL     1       5.901  -7.276   1.790  1.00  0.00     0.005 C 
BRANCH  79  84
ATOM     84  C   UNL     1       3.229  -4.896   0.122  1.00  0.00     0.227 C 
ATOM     85  O   UNL     1       2.271  -4.431   0.752  1.00  0.00    -0.275 OA
ATOM     86  N   UNL     1       3.275  -4.721  -1.243  1.00  0.00    -0.331 N 
ATOM     87  C   UNL     1       2.453  -3.671  -1.867  1.00  0.00     0.181 C 
ATOM     88  C   UNL     1       3.678  -5.743  -2.195  1.00  0.00     0.181 C 
ATOM     89  C   UNL     1       3.101  -3.101  -3.161  1.00  0.00     0.284 C 
ATOM     90  C   UNL     1       4.451  -5.097  -3.349  1.00  0.00     0.284 C 
ATOM     91  N   UNL     1       3.683  -4.088  -4.096  1.00  0.00    -0.330 N 
ATOM     92  H   UNL     1       4.365  -3.604  -4.681  1.00  0.00     0.348 HD
BRANCH  91  93
ATOM     93  C   UNL     1       2.792  -4.559  -5.178  1.00  0.00     0.184 C 
ATOM     94  C   UNL     1       3.504  -5.576  -6.103  1.00  0.00     0.065 C 
ATOM     95  C   UNL     1       1.394  -5.049  -4.746  1.00  0.00     0.065 C 
ATOM     96  C   UNL     1       2.618  -6.097  -7.228  1.00  0.00     0.006 C 
ATOM     97  C   UNL     1       0.567  -5.638  -5.888  1.00  0.00     0.006 C 
ATOM     98  C   UNL     1       1.344  -6.698  -6.655  1.00  0.00     0.000 C 
ENDBRANCH  91  93
ENDBRANCH  79  84
ENDBRANCH  75  77
ENDBRANCH  74  75
ENDBRANCH  73  74
ENDBRANCH  72  73
ENDBRANCH   1  72
TORSDOF 16
