REMARK SMILES COc1ccc(-n2c(SCc3cn(-c4ccc(C(=O)OCCOCCOC(=O)c5ccc(-c6c7nc(c(-c8c(F)c(F)c(F)c(F)c8F)c8ccc([nH]8)c(-c8c(F)c(F)c(F)c(F)c8F)c8nc(c(-c9c(F)c(F)c(F)c(F)c9F)c9ccc6[nH]9)C=C8)C=C7)cc5)cc4)nn3)nc3ccccc3c2=O)cc1
REMARK SMILES IDX 21 1 20 2 18 3 19 4 17 5 14 6 15 7 93 8 16 9 92 10 13 11
REMARK SMILES IDX 11 12 12 13 95 14 94 15 10 16 9 17 8 18 7 19 103 20 96 21
REMARK SMILES IDX 102 22 104 23 97 24 101 25 98 26 100 27 99 28 6 29 3 30 4 31
REMARK SMILES IDX 106 32 5 33 105 34 2 35 1 36 22 37 23 38 24 39 25 40 26 41
REMARK SMILES IDX 27 42 28 43 29 44 30 45 91 46 31 47 90 48 32 49 33 50 34 51
REMARK SMILES IDX 84 52 35 53 89 54 83 55 85 56 36 57 88 58 82 59 81 60 37 62
REMARK SMILES IDX 69 63 49 64 68 65 50 66 53 67 67 68 86 69 51 70 52 71 66 73
REMARK SMILES IDX 87 74 54 75 38 76 39 77 47 78 40 79 41 80 45 81 48 82 42 83
REMARK SMILES IDX 43 84 46 85 44 86 70 87 71 88 79 89 72 90 73 91 77 92 80 93
REMARK SMILES IDX 74 94 75 95 78 96 76 97 55 98 56 99 64 100 57 101 58 102
REMARK SMILES IDX 62 103 65 104 59 105 60 106 63 107 61 108
REMARK H PARENT 85 61 53 72
REMARK Flexibility Score: inf
ROOT
ATOM      1  C   UNL     1      -0.591  -8.258   5.269  1.00  0.00     0.261 C 
ENDROOT
BRANCH   1   2
ATOM      2  O   UNL     1      -0.042  -6.941   5.266  1.00  0.00    -0.460 OA
BRANCH   2   3
ATOM      3  C   UNL     1      -0.142  -6.306   4.085  1.00  0.00     0.338 C 
ATOM      4  O   UNL     1      -0.551  -6.755   3.014  1.00  0.00    -0.246 OA
BRANCH   3   5
ATOM      5  C   UNL     1       0.149  -4.889   4.287  1.00  0.00     0.060 A 
ATOM      6  C   UNL     1       0.859  -2.280   4.326  1.00  0.00     0.066 A 
ATOM      7  C   UNL     1      -0.307  -2.609   3.644  1.00  0.00     0.029 A 
ATOM      8  C   UNL     1       1.589  -3.185   5.106  1.00  0.00     0.029 A 
ATOM      9  C   UNL     1      -0.639  -3.948   3.597  1.00  0.00     0.018 A 
ATOM     10  C   UNL     1       1.212  -4.507   5.108  1.00  0.00     0.018 A 
BRANCH   6  11
ATOM     11  N   UNL     1       1.467  -1.071   4.051  1.00  0.00    -0.220 N 
ATOM     12  C   UNL     1       2.992   0.412   3.826  1.00  0.00     0.093 A 
ATOM     13  C   UNL     1       2.769  -0.924   3.671  1.00  0.00     0.141 A 
ATOM     14  N   UNL     1       1.816   1.013   4.172  1.00  0.00    -0.134 NA
ATOM     15  N   UNL     1       0.860   0.105   4.202  1.00  0.00    -0.062 NA
BRANCH  12  16
ATOM     16  C   UNL     1       4.264   1.133   3.778  1.00  0.00     0.138 C 
BRANCH  16  17
ATOM     17  S   UNL     1       4.624   1.832   5.377  1.00  0.00    -0.081 SA
BRANCH  17  18
ATOM     18  C   UNL     1       3.229   2.949   5.718  1.00  0.00     0.176 A 
ATOM     19  N   UNL     1       3.134   4.007   4.826  1.00  0.00    -0.255 N 
ATOM     20  C   UNL     1       3.812   5.167   5.177  1.00  0.00     0.266 A 
ATOM     21  N   UNL     1       3.081   3.192   6.989  1.00  0.00    -0.223 NA
ATOM     22  C   UNL     1       4.559   5.052   6.471  1.00  0.00     0.066 A 
ATOM     23  O   UNL     1       3.877   6.200   4.519  1.00  0.00    -0.268 OA
ATOM     24  C   UNL     1       4.090   4.094   7.394  1.00  0.00     0.079 A 
ATOM     25  C   UNL     1       5.807   5.643   6.642  1.00  0.00     0.016 A 
ATOM     26  C   UNL     1       4.833   3.795   8.534  1.00  0.00     0.029 A 
ATOM     27  C   UNL     1       6.586   5.267   7.741  1.00  0.00     0.001 A 
ATOM     28  C   UNL     1       6.094   4.366   8.694  1.00  0.00     0.002 A 
BRANCH  19  29
ATOM     29  C   UNL     1       2.295   3.918   3.680  1.00  0.00     0.052 A 
ATOM     30  C   UNL     1       0.863   2.789   1.555  1.00  0.00     0.119 A 
ATOM     31  C   UNL     1       0.203   3.092   2.743  1.00  0.00     0.048 A 
ATOM     32  C   UNL     1       2.175   3.220   1.363  1.00  0.00     0.048 A 
ATOM     33  C   UNL     1       0.927   3.631   3.818  1.00  0.00     0.030 A 
ATOM     34  C   UNL     1       2.879   3.826   2.413  1.00  0.00     0.030 A 
BRANCH  30  35
ATOM     35  O   UNL     1       0.187   2.096   0.586  1.00  0.00    -0.497 OA
ATOM     36  C   UNL     1       0.757   0.804   0.344  1.00  0.00     0.278 C 
ENDBRANCH  30  35
ENDBRANCH  19  29
ENDBRANCH  17  18
ENDBRANCH  16  17
ENDBRANCH  12  16
ENDBRANCH   6  11
ENDBRANCH   3   5
ENDBRANCH   2   3
ENDBRANCH   1   2
BRANCH   1  37
ATOM     37  C   UNL     1      -1.921  -8.302   6.016  1.00  0.00     0.202 C 
BRANCH  37  38
ATOM     38  O   UNL     1      -3.030  -7.566   5.499  1.00  0.00    -0.374 OA
BRANCH  38  39
ATOM     39  C   UNL     1      -3.062  -6.144   5.556  1.00  0.00     0.202 C 
BRANCH  39  40
ATOM     40  C   UNL     1      -3.243  -5.456   6.899  1.00  0.00     0.261 C 
BRANCH  40  41
ATOM     41  O   UNL     1      -2.224  -5.817   7.813  1.00  0.00    -0.460 OA
BRANCH  41  42
ATOM     42  C   UNL     1      -2.599  -6.782   8.673  1.00  0.00     0.338 C 
ATOM     43  O   UNL     1      -3.590  -7.506   8.601  1.00  0.00    -0.246 OA
BRANCH  42  44
ATOM     44  C   UNL     1      -1.720  -6.744   9.835  1.00  0.00     0.060 A 
ATOM     45  C   UNL     1      -2.044  -7.634  10.862  1.00  0.00     0.016 A 
ATOM     46  C   UNL     1      -0.928  -5.605  10.037  1.00  0.00     0.016 A 
ATOM     47  C   UNL     1      -1.817  -7.229  12.151  1.00  0.00     0.010 A 
ATOM     48  C   UNL     1      -0.735  -5.186  11.323  1.00  0.00     0.010 A 
ATOM     49  C   UNL     1      -1.264  -5.963  12.353  1.00  0.00    -0.014 A 
BRANCH  49  50
ATOM     50  C   UNL     1      -1.123  -5.492  13.708  1.00  0.00     0.031 A 
ATOM     51  C   UNL     1       0.008  -6.151  14.398  1.00  0.00     0.074 A 
ATOM     52  C   UNL     1      -1.875  -4.470  14.158  1.00  0.00     0.049 A 
ATOM     53  N   UNL     1      -0.025  -6.854  15.479  1.00  0.00    -0.248 NA
ATOM     54  C   UNL     1       1.306  -6.193  13.694  1.00  0.00     0.031 C 
ATOM     55  C   UNL     1      -2.826  -3.651  13.400  1.00  0.00     0.029 A 
ATOM     56  N   UNL     1      -1.852  -3.861  15.372  1.00  0.00    -0.354 N 
ATOM     57  C   UNL     1       1.292  -7.243  15.700  1.00  0.00     0.074 A 
ATOM     58  C   UNL     1       2.010  -7.002  14.481  1.00  0.00     0.031 C 
ATOM     59  C   UNL     1      -3.101  -2.525  14.098  1.00  0.00     0.029 A 
ATOM     60  C   UNL     1      -2.434  -2.598  15.384  1.00  0.00     0.049 A 
ATOM     61  H   UNL     1      -1.458  -4.277  16.172  1.00  0.00     0.167 HD
ATOM     62  C   UNL     1       1.748  -7.426  16.965  1.00  0.00     0.037 A 
ATOM     63  C   UNL     1      -2.257  -1.661  16.351  1.00  0.00     0.037 A 
ATOM     64  C   UNL     1       0.658  -7.705  17.866  1.00  0.00     0.049 A 
ATOM     65  C   UNL     1      -1.727  -2.364  17.551  1.00  0.00     0.074 A 
ATOM     66  C   UNL     1      -0.307  -8.693  17.927  1.00  0.00     0.029 A 
ATOM     67  N   UNL     1       0.202  -6.684  18.662  1.00  0.00    -0.354 N 
ATOM     68  N   UNL     1      -2.424  -3.212  18.258  1.00  0.00    -0.248 NA
ATOM     69  C   UNL     1      -0.281  -2.495  17.670  1.00  0.00     0.031 C 
ATOM     70  C   UNL     1      -1.489  -8.032  18.368  1.00  0.00     0.029 A 
ATOM     71  C   UNL     1      -1.168  -6.698  18.620  1.00  0.00     0.049 A 
ATOM     72  H   UNL     1       0.759  -6.053  19.172  1.00  0.00     0.167 HD
ATOM     73  C   UNL     1      -1.536  -4.236  18.556  1.00  0.00     0.074 A 
ATOM     74  C   UNL     1      -0.214  -3.705  18.231  1.00  0.00     0.031 C 
ATOM     75  C   UNL     1      -1.981  -5.512  18.750  1.00  0.00     0.037 A 
BRANCH  62  76
ATOM     76  C   UNL     1       3.090  -6.915  17.433  1.00  0.00     0.064 A 
ATOM     77  C   UNL     1       3.498  -7.208  18.746  1.00  0.00     0.173 A 
ATOM     78  C   UNL     1       3.838  -5.908  16.776  1.00  0.00     0.173 A 
ATOM     79  F   UNL     1       2.856  -8.139  19.468  1.00  0.00    -0.203 F 
ATOM     80  C   UNL     1       4.506  -6.482  19.384  1.00  0.00     0.198 A 
ATOM     81  C   UNL     1       4.878  -5.224  17.398  1.00  0.00     0.198 A 
ATOM     82  F   UNL     1       3.535  -5.459  15.554  1.00  0.00    -0.203 F 
ATOM     83  F   UNL     1       4.764  -6.704  20.680  1.00  0.00    -0.200 F 
ATOM     84  C   UNL     1       5.188  -5.484  18.713  1.00  0.00     0.200 A 
ATOM     85  F   UNL     1       5.515  -4.250  16.731  1.00  0.00    -0.200 F 
ATOM     86  F   UNL     1       6.106  -4.740  19.343  1.00  0.00    -0.200 F 
ENDBRANCH  62  76
BRANCH  63  87
ATOM     87  C   UNL     1      -2.172  -0.187  16.192  1.00  0.00     0.064 A 
ATOM     88  C   UNL     1      -2.253   0.666  17.306  1.00  0.00     0.173 A 
ATOM     89  C   UNL     1      -1.742   0.404  14.987  1.00  0.00     0.173 A 
ATOM     90  F   UNL     1      -2.605   0.178  18.504  1.00  0.00    -0.203 F 
ATOM     91  C   UNL     1      -1.906   2.020  17.222  1.00  0.00     0.198 A 
ATOM     92  C   UNL     1      -1.406   1.756  14.903  1.00  0.00     0.198 A 
ATOM     93  F   UNL     1      -1.543  -0.336  13.887  1.00  0.00    -0.203 F 
ATOM     94  F   UNL     1      -1.937   2.787  18.321  1.00  0.00    -0.200 F 
ATOM     95  C   UNL     1      -1.475   2.561  16.023  1.00  0.00     0.200 A 
ATOM     96  F   UNL     1      -0.954   2.256  13.744  1.00  0.00    -0.200 F 
ATOM     97  F   UNL     1      -1.086   3.842  15.956  1.00  0.00    -0.200 F 
ENDBRANCH  63  87
BRANCH  75  98
ATOM     98  C   UNL     1      -3.463  -5.720  18.886  1.00  0.00     0.064 A 
ATOM     99  C   UNL     1      -4.394  -5.449  17.867  1.00  0.00     0.173 A 
ATOM    100  C   UNL     1      -3.939  -6.355  20.040  1.00  0.00     0.173 A 
ATOM    101  F   UNL     1      -4.002  -4.940  16.693  1.00  0.00    -0.203 F 
ATOM    102  C   UNL     1      -5.745  -5.758  18.021  1.00  0.00     0.198 A 
ATOM    103  C   UNL     1      -5.280  -6.699  20.175  1.00  0.00     0.198 A 
ATOM    104  F   UNL     1      -3.086  -6.691  21.020  1.00  0.00    -0.203 F 
ATOM    105  F   UNL     1      -6.616  -5.477  17.040  1.00  0.00    -0.200 F 
ATOM    106  C   UNL     1      -6.185  -6.390  19.172  1.00  0.00     0.200 A 
ATOM    107  F   UNL     1      -5.691  -7.358  21.267  1.00  0.00    -0.200 F 
ATOM    108  F   UNL     1      -7.475  -6.728  19.304  1.00  0.00    -0.200 F 
ENDBRANCH  75  98
ENDBRANCH  49  50
ENDBRANCH  42  44
ENDBRANCH  41  42
ENDBRANCH  40  41
ENDBRANCH  39  40
ENDBRANCH  38  39
ENDBRANCH  37  38
ENDBRANCH   1  37
TORSDOF 20
