REMARK SMILES Cc1ccc(NC(=O)C[C@H]([NH2+]Cc2cccnc2)C(=O)OCCOCCOC(=O)c2ccc(-c3c4nc(c(-c5c(F)c(F)c(F)c(F)c5F)c5ccc([nH]5)c(-c5c(F)c(F)c(F)c(F)c5F)c5nc(c(-c6c(F)c(F)c(F)c(F)c6F)c6ccc3[nH]6)C=C5)C=C4)cc2)cc1Cl
REMARK SMILES IDX 23 1 22 2 21 3 19 4 20 5 10 6 9 7 7 8 6 9 8 11 5 12 1 13
REMARK SMILES IDX 2 14 3 15 94 16 4 17 93 18 95 19 11 20 12 23 13 24 14 25
REMARK SMILES IDX 18 26 15 27 17 28 16 29 24 30 25 31 26 32 27 33 28 34 29 35
REMARK SMILES IDX 30 36 31 37 92 38 32 39 91 40 33 41 34 42 35 43 85 44 36 45
REMARK SMILES IDX 90 46 84 47 86 48 37 49 89 50 83 51 82 52 38 54 70 55 50 56
REMARK SMILES IDX 69 57 51 58 54 59 68 60 87 61 52 62 53 63 67 65 88 66 55 67
REMARK SMILES IDX 39 68 40 69 48 70 41 71 42 72 46 73 49 74 43 75 44 76 47 77
REMARK SMILES IDX 45 78 71 79 72 80 80 81 73 82 74 83 78 84 81 85 75 86 76 87
REMARK SMILES IDX 79 88 77 89 56 90 57 91 65 92 58 93 59 94 63 95 66 96 60 97
REMARK SMILES IDX 61 98 64 99 62 100
REMARK H PARENT 6 10 11 21 11 22 86 53 54 64
REMARK Flexibility Score: inf
ROOT
ATOM      1  C   UNL     1       3.926  -3.611  -1.006  1.00  0.00     0.202 C 
ENDROOT
BRANCH   1   2
ATOM      2  C   UNL     1       3.118  -2.476  -1.630  1.00  0.00     0.261 C 
BRANCH   2   3
ATOM      3  O   UNL     1       1.767  -2.444  -1.132  1.00  0.00    -0.459 OA
BRANCH   3   4
ATOM      4  C   UNL     1       0.762  -2.800  -1.968  1.00  0.00     0.365 C 
ATOM      5  O   UNL     1       0.914  -3.394  -3.030  1.00  0.00    -0.245 OA
BRANCH   4   6
ATOM      6  C   UNL     1      -0.629  -2.411  -1.421  1.00  0.00     0.303 C 
BRANCH   6   7
ATOM      7  C   UNL     1      -0.615  -1.141  -0.566  1.00  0.00     0.177 C 
BRANCH   7   8
ATOM      8  C   UNL     1       0.427  -0.787   0.488  1.00  0.00     0.231 C 
ATOM      9  N   UNL     1       0.528  -1.341   1.723  1.00  0.00    -0.326 N 
ATOM     10  H   UNL     1       0.850  -0.689   2.386  1.00  0.00     0.169 HD
ATOM     11  O   UNL     1       1.091   0.248   0.315  1.00  0.00    -0.274 OA
BRANCH   9  12
ATOM     12  C   UNL     1       0.296  -2.595   2.308  1.00  0.00     0.042 A 
ATOM     13  C   UNL     1      -0.202  -6.338   4.454  1.00  0.00     0.046 C 
ATOM     14  C   UNL     1      -0.031  -5.051   3.699  1.00  0.00    -0.032 A 
ATOM     15  C   UNL     1       0.004  -3.836   4.390  1.00  0.00     0.007 A 
ATOM     16  C   UNL     1       0.106  -5.018   2.307  1.00  0.00     0.046 A 
ATOM     17  C   UNL     1       0.169  -2.627   3.701  1.00  0.00     0.026 A 
ATOM     18  C   UNL     1       0.317  -3.805   1.633  1.00  0.00     0.047 A 
ATOM     19  Cl  UNL     1       0.027  -6.470   1.371  1.00  0.00    -0.084 Cl
ENDBRANCH   9  12
ENDBRANCH   7   8
ENDBRANCH   6   7
BRANCH   6  20
ATOM     20  N   UNL     1      -1.317  -3.577  -0.824  1.00  0.00    -0.330 N 
ATOM     21  H   UNL     1      -0.858  -3.797   0.059  1.00  0.00     0.347 HD
ATOM     22  H   UNL     1      -1.254  -4.328  -1.512  1.00  0.00     0.347 HD
BRANCH  20  23
ATOM     23  C   UNL     1      -2.744  -3.383  -0.559  1.00  0.00     0.299 C 
BRANCH  23  24
ATOM     24  C   UNL     1      -3.148  -4.016   0.746  1.00  0.00     0.024 A 
ATOM     25  C   UNL     1      -3.433  -5.379   0.849  1.00  0.00     0.013 A 
ATOM     26  C   UNL     1      -3.221  -3.265   1.919  1.00  0.00     0.120 A 
ATOM     27  C   UNL     1      -3.778  -5.924   2.085  1.00  0.00     0.021 A 
ATOM     28  N   UNL     1      -3.563  -3.763   3.131  1.00  0.00    -0.264 NA
ATOM     29  C   UNL     1      -3.830  -5.084   3.184  1.00  0.00     0.111 A 
ENDBRANCH  23  24
ENDBRANCH  20  23
ENDBRANCH   6  20
ENDBRANCH   4   6
ENDBRANCH   3   4
ENDBRANCH   2   3
ENDBRANCH   1   2
BRANCH   1  30
ATOM     30  O   UNL     1       3.801  -4.826  -1.745  1.00  0.00    -0.374 OA
BRANCH  30  31
ATOM     31  C   UNL     1       2.741  -5.688  -1.323  1.00  0.00     0.202 C 
BRANCH  31  32
ATOM     32  C   UNL     1       3.198  -6.623  -0.203  1.00  0.00     0.261 C 
BRANCH  32  33
ATOM     33  O   UNL     1       3.324  -5.871   1.019  1.00  0.00    -0.460 OA
BRANCH  33  34
ATOM     34  C   UNL     1       4.367  -6.227   1.792  1.00  0.00     0.338 C 
ATOM     35  O   UNL     1       5.108  -7.190   1.649  1.00  0.00    -0.246 OA
BRANCH  34  36
ATOM     36  C   UNL     1       4.606  -5.193   2.810  1.00  0.00     0.060 A 
ATOM     37  C   UNL     1       5.849  -4.555   2.805  1.00  0.00     0.016 A 
ATOM     38  C   UNL     1       3.691  -4.956   3.837  1.00  0.00     0.016 A 
ATOM     39  C   UNL     1       6.215  -3.748   3.880  1.00  0.00     0.010 A 
ATOM     40  C   UNL     1       4.050  -4.124   4.905  1.00  0.00     0.010 A 
ATOM     41  C   UNL     1       5.341  -3.572   4.964  1.00  0.00    -0.014 A 
BRANCH  41  42
ATOM     42  C   UNL     1       5.873  -2.985   6.222  1.00  0.00     0.031 A 
ATOM     43  C   UNL     1       6.217  -3.900   7.371  1.00  0.00     0.074 A 
ATOM     44  C   UNL     1       6.136  -1.669   6.316  1.00  0.00     0.049 A 
ATOM     45  N   UNL     1       6.791  -3.621   8.515  1.00  0.00    -0.248 NA
ATOM     46  C   UNL     1       5.863  -5.320   7.212  1.00  0.00     0.031 C 
ATOM     47  C   UNL     1       5.856  -0.676   5.282  1.00  0.00     0.029 A 
ATOM     48  N   UNL     1       6.715  -0.948   7.331  1.00  0.00    -0.354 N 
ATOM     49  C   UNL     1       6.865  -4.824   9.205  1.00  0.00     0.074 A 
ATOM     50  C   UNL     1       6.236  -5.828   8.377  1.00  0.00     0.031 C 
ATOM     51  C   UNL     1       6.283   0.526   5.708  1.00  0.00     0.029 A 
ATOM     52  C   UNL     1       6.856   0.387   7.046  1.00  0.00     0.049 A 
ATOM     53  H   UNL     1       7.003  -1.350   8.182  1.00  0.00     0.167 HD
ATOM     54  C   UNL     1       7.429  -5.079  10.410  1.00  0.00     0.037 A 
ATOM     55  C   UNL     1       7.398   1.381   7.776  1.00  0.00     0.037 A 
ATOM     56  C   UNL     1       8.082  -4.095  11.230  1.00  0.00     0.049 A 
ATOM     57  C   UNL     1       8.012   1.074   9.117  1.00  0.00     0.074 A 
ATOM     58  C   UNL     1       8.711  -4.266  12.451  1.00  0.00     0.029 A 
ATOM     59  N   UNL     1       8.191  -2.751  10.909  1.00  0.00    -0.354 N 
ATOM     60  N   UNL     1       8.121  -0.076   9.736  1.00  0.00    -0.248 NA
ATOM     61  C   UNL     1       8.594   2.206   9.854  1.00  0.00     0.031 C 
ATOM     62  C   UNL     1       9.171  -3.019  12.886  1.00  0.00     0.029 A 
ATOM     63  C   UNL     1       8.864  -2.078  11.916  1.00  0.00     0.049 A 
ATOM     64  H   UNL     1       7.842  -2.336  10.088  1.00  0.00     0.167 HD
ATOM     65  C   UNL     1       8.805   0.187  10.915  1.00  0.00     0.074 A 
ATOM     66  C   UNL     1       9.099   1.604  10.922  1.00  0.00     0.031 C 
ATOM     67  C   UNL     1       9.160  -0.670  11.904  1.00  0.00     0.037 A 
BRANCH  54  68
ATOM     68  C   UNL     1       7.363  -6.489  10.918  1.00  0.00     0.064 A 
ATOM     69  C   UNL     1       8.152  -7.507  10.361  1.00  0.00     0.173 A 
ATOM     70  C   UNL     1       6.524  -6.820  11.992  1.00  0.00     0.173 A 
ATOM     71  F   UNL     1       8.960  -7.244   9.323  1.00  0.00    -0.203 F 
ATOM     72  C   UNL     1       8.085  -8.811  10.847  1.00  0.00     0.198 A 
ATOM     73  C   UNL     1       6.479  -8.118  12.492  1.00  0.00     0.198 A 
ATOM     74  F   UNL     1       5.752  -5.882  12.561  1.00  0.00    -0.203 F 
ATOM     75  F   UNL     1       8.816  -9.777  10.273  1.00  0.00    -0.200 F 
ATOM     76  C   UNL     1       7.254  -9.114  11.915  1.00  0.00     0.200 A 
ATOM     77  F   UNL     1       5.682  -8.408  13.530  1.00  0.00    -0.200 F 
ATOM     78  F   UNL     1       7.194 -10.367  12.385  1.00  0.00    -0.200 F 
ENDBRANCH  54  68
BRANCH  55  79
ATOM     79  C   UNL     1       7.412   2.767   7.241  1.00  0.00     0.064 A 
ATOM     80  C   UNL     1       8.607   3.371   6.828  1.00  0.00     0.173 A 
ATOM     81  C   UNL     1       6.232   3.518   7.149  1.00  0.00     0.173 A 
ATOM     82  F   UNL     1       9.764   2.699   6.923  1.00  0.00    -0.203 F 
ATOM     83  C   UNL     1       8.624   4.683   6.359  1.00  0.00     0.198 A 
ATOM     84  C   UNL     1       6.247   4.822   6.657  1.00  0.00     0.198 A 
ATOM     85  F   UNL     1       5.064   2.985   7.535  1.00  0.00    -0.203 F 
ATOM     86  F   UNL     1       9.786   5.252   6.012  1.00  0.00    -0.200 F 
ATOM     87  C   UNL     1       7.444   5.405   6.269  1.00  0.00     0.200 A 
ATOM     88  F   UNL     1       5.103   5.514   6.566  1.00  0.00    -0.200 F 
ATOM     89  F   UNL     1       7.461   6.667   5.818  1.00  0.00    -0.200 F 
ENDBRANCH  55  79
BRANCH  67  90
ATOM     90  C   UNL     1       9.932  -0.108  13.061  1.00  0.00     0.064 A 
ATOM     91  C   UNL     1       9.320   0.697  14.032  1.00  0.00     0.173 A 
ATOM     92  C   UNL     1      11.293  -0.412  13.221  1.00  0.00     0.173 A 
ATOM     93  F   UNL     1       8.024   1.026  13.916  1.00  0.00    -0.203 F 
ATOM     94  C   UNL     1      10.047   1.199  15.108  1.00  0.00     0.198 A 
ATOM     95  C   UNL     1      12.011   0.070  14.312  1.00  0.00     0.198 A 
ATOM     96  F   UNL     1      11.923  -1.185  12.324  1.00  0.00    -0.203 F 
ATOM     97  F   UNL     1       9.452   2.001  16.001  1.00  0.00    -0.200 F 
ATOM     98  C   UNL     1      11.390   0.880  15.250  1.00  0.00     0.200 A 
ATOM     99  F   UNL     1      13.306  -0.247  14.454  1.00  0.00    -0.200 F 
ATOM    100  F   UNL     1      12.088   1.361  16.289  1.00  0.00    -0.200 F 
ENDBRANCH  67  90
ENDBRANCH  41  42
ENDBRANCH  34  36
ENDBRANCH  33  34
ENDBRANCH  32  33
ENDBRANCH  31  32
ENDBRANCH  30  31
ENDBRANCH   1  30
TORSDOF 20
