REMARK SMILES C=C1C(=O)O[C@H]2[C@@H]1[C@@H](OC(=O)[C@]1(C)O[C@@H]1C)[C@@H](OC(C)=O)/C(C(=O)OCCOCCOC(=O)c1ccc(-c3c4nc(c(-c5c(F)c(F)c(F)c(F)c5F)c5ccc([nH]5)c(-c5c(F)c(F)c(F)c(F)c5F)c5nc(c(-c6c(F)c(F)c(F)c(F)c6F)c6ccc3[nH]6)C=C5)C=C4)cc1)=C/[C@@H]1O[C@@H]1[C@]1(C)O[C@H]21
REMARK SMILES IDX 26 1 25 2 23 3 24 4 22 5 97 6 17 7 8 8 7 9 1 10 2 11 3 12
REMARK SMILES IDX 5 13 4 14 6 15 104 16 101 17 103 18 102 19 9 21 10 22 11 23
REMARK SMILES IDX 12 24 14 25 15 26 13 27 16 28 18 29 19 30 20 31 21 32 98 33
REMARK SMILES IDX 99 34 100 35 27 37 28 38 29 39 30 40 31 41 32 42 33 43 34 44
REMARK SMILES IDX 35 45 96 46 36 47 95 48 37 49 38 50 39 51 89 52 40 53 94 54
REMARK SMILES IDX 88 55 90 56 41 57 93 58 87 59 86 60 42 62 74 63 54 64 73 65
REMARK SMILES IDX 55 66 58 67 72 68 91 69 56 70 57 71 71 73 92 74 59 75 43 76
REMARK SMILES IDX 44 77 52 78 45 79 46 80 50 81 53 82 47 83 48 84 51 85 49 86
REMARK SMILES IDX 75 87 76 88 84 89 77 90 78 91 82 92 85 93 79 94 80 95 83 96
REMARK SMILES IDX 81 97 60 98 61 99 69 100 62 101 63 102 67 103 70 104 64 105
REMARK SMILES IDX 65 106 68 107 66 108
REMARK H PARENT 90 61 58 72
REMARK Flexibility Score: 90.00
ROOT
ATOM      1  C   UNL     1      -5.744  -0.300   1.867  1.00  0.00     0.261 C 
ENDROOT
BRANCH   1   2
ATOM      2  O   UNL     1      -5.829  -1.291   0.825  1.00  0.00    -0.460 OA
BRANCH   2   3
ATOM      3  C   UNL     1      -6.625  -0.933  -0.194  1.00  0.00     0.337 C 
ATOM      4  O   UNL     1      -7.373   0.029  -0.198  1.00  0.00    -0.246 OA
BRANCH   3   5
ATOM      5  C   UNL     1      -6.467  -1.844  -1.340  1.00  0.00     0.080 C 
ATOM      6  C   UNL     1      -7.404  -2.781  -1.560  1.00  0.00     0.022 C 
BRANCH   5   7
ATOM      7  C   UNL     1      -5.388  -1.512  -2.339  1.00  0.00     0.255 C 
BRANCH   7   8
ATOM      8  C   UNL     1      -5.712  -0.176  -3.097  1.00  0.00     0.234 C 
BRANCH   8   9
ATOM      9  C   UNL     1      -6.816  -0.343  -4.185  1.00  0.00     0.115 C 
ATOM     10  C   UNL     1      -6.461   2.020  -5.213  1.00  0.00     0.021 C 
ATOM     11  C   UNL     1      -7.070   0.836  -5.080  1.00  0.00     0.041 C 
ATOM     12  C   UNL     1      -8.313   0.526  -5.829  1.00  0.00     0.334 C 
ATOM     13  O   UNL     1      -8.941  -0.472  -5.149  1.00  0.00    -0.455 OA
ATOM     14  O   UNL     1      -8.671   1.029  -6.874  1.00  0.00    -0.247 OA
ATOM     15  C   UNL     1      -8.287  -0.702  -3.867  1.00  0.00     0.220 C 
BRANCH  15  16
ATOM     16  C   UNL     1      -9.041   0.098  -2.829  1.00  0.00     0.195 C 
ATOM     17  C   UNL     1      -9.725  -0.379  -1.513  1.00  0.00     0.125 CG0
ATOM     18  O   UNL     1     -10.425  -0.303  -2.757  1.00  0.00    -0.359 OA
ATOM     19  C   UNL     1     -10.157   0.737  -0.568  1.00  0.00     0.048 C 
ATOM     20  G   UNL     1      -9.714  -1.782  -0.851  1.00  0.00     0.000 G0
ENDBRANCH  15  16
ENDBRANCH   8   9
BRANCH   8  21
ATOM     21  O   UNL     1      -6.141   0.887  -2.220  1.00  0.00    -0.455 OA
BRANCH  21  22
ATOM     22  C   UNL     1      -5.241   1.688  -1.567  1.00  0.00     0.341 C 
ATOM     23  O   UNL     1      -4.037   1.530  -1.648  1.00  0.00    -0.249 OA
BRANCH  22  24
ATOM     24  C   UNL     1      -5.956   2.914  -1.050  1.00  0.00     0.188 C 
ATOM     25  O   UNL     1      -5.104   3.961  -0.572  1.00  0.00    -0.354 OA
ATOM     26  C   UNL     1      -6.074   3.497   0.382  1.00  0.00     0.160 C 
ATOM     27  C   UNL     1      -6.985   3.482  -2.003  1.00  0.00     0.058 C 
ATOM     28  C   UNL     1      -5.444   3.372   1.719  1.00  0.00     0.042 C 
ENDBRANCH  22  24
ENDBRANCH  21  22
ENDBRANCH   8  21
ENDBRANCH   7   8
BRANCH   7  29
ATOM     29  O   UNL     1      -4.133  -1.473  -1.627  1.00  0.00    -0.453 OA
BRANCH  29  30
ATOM     30  C   UNL     1      -3.026  -2.059  -2.152  1.00  0.00     0.303 C 
ATOM     31  C   UNL     1      -2.591  -1.541  -3.491  1.00  0.00     0.139 C 
ATOM     32  O   UNL     1      -2.354  -2.859  -1.511  1.00  0.00    -0.253 OA
ENDBRANCH  29  30
ENDBRANCH   7  29
ENDBRANCH   5   7
BRANCH   6  33
ATOM     33  C   UNL     1      -8.704  -2.928  -0.905  1.00  0.00     0.174 C 
ATOM     34  O   UNL     1      -9.885  -2.911  -1.720  1.00  0.00    -0.362 OA
ATOM     35  C   UNL     1      -9.714  -1.782  -0.851  1.00  0.00     0.186 CG0
ATOM     36  G   UNL     1      -9.725  -0.379  -1.513  1.00  0.00     0.000 G0
ENDBRANCH   6  33
ENDBRANCH   3   5
ENDBRANCH   2   3
ENDBRANCH   1   2
BRANCH   1  37
ATOM     37  C   UNL     1      -4.287   0.117   1.985  1.00  0.00     0.202 C 
BRANCH  37  38
ATOM     38  O   UNL     1      -3.945   1.046   0.967  1.00  0.00    -0.374 OA
BRANCH  38  39
ATOM     39  C   UNL     1      -2.574   1.484   0.919  1.00  0.00     0.202 C 
BRANCH  39  40
ATOM     40  C   UNL     1      -1.593   0.374   0.512  1.00  0.00     0.261 C 
BRANCH  40  41
ATOM     41  O   UNL     1      -1.460  -0.648   1.512  1.00  0.00    -0.460 OA
BRANCH  41  42
ATOM     42  C   UNL     1      -1.156  -0.212   2.753  1.00  0.00     0.338 C 
ATOM     43  O   UNL     1      -0.610   0.834   3.057  1.00  0.00    -0.246 OA
BRANCH  42  44
ATOM     44  C   UNL     1      -1.877  -1.073   3.713  1.00  0.00     0.060 A 
ATOM     45  C   UNL     1      -2.478  -0.447   4.815  1.00  0.00     0.016 A 
ATOM     46  C   UNL     1      -2.034  -2.449   3.498  1.00  0.00     0.016 A 
ATOM     47  C   UNL     1      -3.126  -1.212   5.772  1.00  0.00     0.010 A 
ATOM     48  C   UNL     1      -2.666  -3.222   4.467  1.00  0.00     0.010 A 
ATOM     49  C   UNL     1      -3.123  -2.605   5.644  1.00  0.00    -0.014 A 
BRANCH  49  50
ATOM     50  C   UNL     1      -3.197  -3.392   6.889  1.00  0.00     0.031 A 
ATOM     51  C   UNL     1      -1.886  -3.728   7.551  1.00  0.00     0.074 A 
ATOM     52  C   UNL     1      -4.373  -3.695   7.456  1.00  0.00     0.049 A 
ATOM     53  N   UNL     1      -1.651  -4.385   8.655  1.00  0.00    -0.248 NA
ATOM     54  C   UNL     1      -0.667  -3.248   6.873  1.00  0.00     0.031 C 
ATOM     55  C   UNL     1      -5.686  -3.344   6.920  1.00  0.00     0.029 A 
ATOM     56  N   UNL     1      -4.645  -4.363   8.619  1.00  0.00    -0.354 N 
ATOM     57  C   UNL     1      -0.268  -4.402   8.790  1.00  0.00     0.074 A 
ATOM     58  C   UNL     1       0.291  -3.727   7.646  1.00  0.00     0.031 C 
ATOM     59  C   UNL     1      -6.631  -3.808   7.756  1.00  0.00     0.029 A 
ATOM     60  C   UNL     1      -5.986  -4.515   8.860  1.00  0.00     0.049 A 
ATOM     61  H   UNL     1      -3.945  -4.702   9.223  1.00  0.00     0.167 HD
ATOM     62  C   UNL     1       0.471  -4.926   9.793  1.00  0.00     0.037 A 
ATOM     63  C   UNL     1      -6.604  -5.175   9.857  1.00  0.00     0.037 A 
ATOM     64  C   UNL     1      -0.107  -5.595  10.925  1.00  0.00     0.049 A 
ATOM     65  C   UNL     1      -5.757  -5.824  10.923  1.00  0.00     0.074 A 
ATOM     66  C   UNL     1       0.530  -6.177  12.002  1.00  0.00     0.029 A 
ATOM     67  N   UNL     1      -1.471  -5.774  11.113  1.00  0.00    -0.354 N 
ATOM     68  N   UNL     1      -4.450  -5.839  11.051  1.00  0.00    -0.248 NA
ATOM     69  C   UNL     1      -6.470  -6.541  11.987  1.00  0.00     0.031 C 
ATOM     70  C   UNL     1      -0.447  -6.765  12.812  1.00  0.00     0.029 A 
ATOM     71  C   UNL     1      -1.696  -6.482  12.278  1.00  0.00     0.049 A 
ATOM     72  H   UNL     1      -2.174  -5.445  10.506  1.00  0.00     0.167 HD
ATOM     73  C   UNL     1      -4.186  -6.533  12.224  1.00  0.00     0.074 A 
ATOM     74  C   UNL     1      -5.472  -6.912  12.775  1.00  0.00     0.031 C 
ATOM     75  C   UNL     1      -2.994  -6.831  12.800  1.00  0.00     0.037 A 
BRANCH  62  76
ATOM     76  C   UNL     1       1.965  -4.837   9.678  1.00  0.00     0.064 A 
ATOM     77  C   UNL     1       2.650  -3.614   9.770  1.00  0.00     0.173 A 
ATOM     78  C   UNL     1       2.725  -5.997   9.469  1.00  0.00     0.173 A 
ATOM     79  F   UNL     1       1.971  -2.470   9.942  1.00  0.00    -0.203 F 
ATOM     80  C   UNL     1       4.035  -3.556   9.632  1.00  0.00     0.198 A 
ATOM     81  C   UNL     1       4.112  -5.939   9.367  1.00  0.00     0.198 A 
ATOM     82  F   UNL     1       2.122  -7.191   9.364  1.00  0.00    -0.203 F 
ATOM     83  F   UNL     1       4.661  -2.371   9.666  1.00  0.00    -0.200 F 
ATOM     84  C   UNL     1       4.766  -4.719   9.440  1.00  0.00     0.200 A 
ATOM     85  F   UNL     1       4.816  -7.066   9.191  1.00  0.00    -0.200 F 
ATOM     86  F   UNL     1       6.099  -4.662   9.315  1.00  0.00    -0.200 F 
ENDBRANCH  62  76
BRANCH  63  87
ATOM     87  C   UNL     1      -8.087  -5.264   9.883  1.00  0.00     0.064 A 
ATOM     88  C   UNL     1      -8.839  -4.653  10.895  1.00  0.00     0.173 A 
ATOM     89  C   UNL     1      -8.786  -5.973   8.893  1.00  0.00     0.173 A 
ATOM     90  F   UNL     1      -8.219  -3.978  11.874  1.00  0.00    -0.203 F 
ATOM     91  C   UNL     1     -10.228  -4.766  10.930  1.00  0.00     0.198 A 
ATOM     92  C   UNL     1     -10.176  -6.058   8.910  1.00  0.00     0.198 A 
ATOM     93  F   UNL     1      -8.117  -6.575   7.898  1.00  0.00    -0.203 F 
ATOM     94  F   UNL     1     -10.917  -4.213  11.937  1.00  0.00    -0.200 F 
ATOM     95  C   UNL     1     -10.896  -5.463   9.934  1.00  0.00     0.200 A 
ATOM     96  F   UNL     1     -10.817  -6.716   7.935  1.00  0.00    -0.200 F 
ATOM     97  F   UNL     1     -12.231  -5.565   9.965  1.00  0.00    -0.200 F 
ENDBRANCH  63  87
BRANCH  75  98
ATOM     98  C   UNL     1      -3.028  -7.552  14.117  1.00  0.00     0.064 A 
ATOM     99  C   UNL     1      -3.425  -8.892  14.218  1.00  0.00     0.173 A 
ATOM    100  C   UNL     1      -2.610  -6.898  15.287  1.00  0.00     0.173 A 
ATOM    101  F   UNL     1      -3.842  -9.558  13.130  1.00  0.00    -0.203 F 
ATOM    102  C   UNL     1      -3.436  -9.542  15.449  1.00  0.00     0.198 A 
ATOM    103  C   UNL     1      -2.584  -7.563  16.508  1.00  0.00     0.198 A 
ATOM    104  F   UNL     1      -2.207  -5.619  15.241  1.00  0.00    -0.203 F 
ATOM    105  F   UNL     1      -3.876 -10.805  15.533  1.00  0.00    -0.200 F 
ATOM    106  C   UNL     1      -3.008  -8.880  16.590  1.00  0.00     0.200 A 
ATOM    107  F   UNL     1      -2.150  -6.928  17.605  1.00  0.00    -0.200 F 
ATOM    108  F   UNL     1      -3.011  -9.511  17.773  1.00  0.00    -0.200 F 
ENDBRANCH  75  98
ENDBRANCH  49  50
ENDBRANCH  42  44
ENDBRANCH  41  42
ENDBRANCH  40  41
ENDBRANCH  39  40
ENDBRANCH  38  39
ENDBRANCH  37  38
ENDBRANCH   1  37
TORSDOF 19
