REMARK SMILES O=C(OCCOCCOC(=O)[C@@H](F)Oc1ccc(F)c(Cl)c1)c1ccc(-c2c3nc(c(-c4c(F)c(F)c(F)c(F)c4F)c4ccc([nH]4)c(-c4c(F)c(F)c(F)c(F)c4F)c4nc(c(-c5c(F)c(F)c(F)c(F)c5F)c5ccc2[nH]5)C=C4)C=C3)cc1
REMARK SMILES IDX 6 1 5 2 4 3 3 4 2 5 1 6 23 7 24 8 85 9 25 10 84 11 26 12
REMARK SMILES IDX 27 13 28 14 78 15 29 16 83 17 77 18 79 19 30 20 82 21 76 22
REMARK SMILES IDX 75 23 31 25 63 26 43 27 62 28 44 29 47 30 61 31 80 32 45 33
REMARK SMILES IDX 46 34 60 36 81 37 48 38 32 39 33 40 41 41 34 42 35 43 39 44
REMARK SMILES IDX 42 45 36 46 37 47 40 48 38 49 64 50 65 51 73 52 66 53 67 54
REMARK SMILES IDX 71 55 74 56 68 57 69 58 72 59 70 60 49 61 50 62 58 63 51 64
REMARK SMILES IDX 52 65 56 66 59 67 53 68 54 69 57 70 55 71 7 72 8 73 9 74
REMARK SMILES IDX 10 75 11 76 12 77 13 78 14 79 15 80 16 81 22 82 17 83 20 84
REMARK SMILES IDX 18 85 21 86 19 87
REMARK H PARENT 79 24 47 35
REMARK Flexibility Score: inf
ROOT
ATOM      1  O   UNL     1       4.332   0.847   1.189  1.00  0.00    -0.374 OA
ENDROOT
BRANCH   1   2
ATOM      2  C   UNL     1       4.542   1.397  -0.117  1.00  0.00     0.202 C 
BRANCH   2   3
ATOM      3  C   UNL     1       4.174   0.472  -1.292  1.00  0.00     0.261 C 
BRANCH   3   4
ATOM      4  O   UNL     1       2.813   0.003  -1.224  1.00  0.00    -0.460 OA
BRANCH   4   5
ATOM      5  C   UNL     1       2.323  -1.163  -0.738  1.00  0.00     0.338 C 
ATOM      6  O   UNL     1       1.128  -1.406  -0.901  1.00  0.00    -0.246 OA
BRANCH   5   7
ATOM      7  C   UNL     1       3.125  -2.147   0.058  1.00  0.00     0.060 A 
ATOM      8  C   UNL     1       4.412  -1.917   0.533  1.00  0.00     0.016 A 
ATOM      9  C   UNL     1       2.503  -3.355   0.433  1.00  0.00     0.016 A 
ATOM     10  C   UNL     1       5.052  -2.798   1.376  1.00  0.00     0.010 A 
ATOM     11  C   UNL     1       3.148  -4.272   1.275  1.00  0.00     0.010 A 
ATOM     12  C   UNL     1       4.424  -3.975   1.754  1.00  0.00    -0.014 A 
BRANCH  12  13
ATOM     13  C   UNL     1       5.271  -4.891   2.525  1.00  0.00     0.031 A 
ATOM     14  C   UNL     1       6.045  -5.915   1.760  1.00  0.00     0.074 A 
ATOM     15  C   UNL     1       5.557  -4.575   3.801  1.00  0.00     0.049 A 
ATOM     16  N   UNL     1       6.947  -6.755   2.181  1.00  0.00    -0.248 NA
ATOM     17  C   UNL     1       5.804  -5.964   0.305  1.00  0.00     0.031 C 
ATOM     18  C   UNL     1       4.984  -3.442   4.535  1.00  0.00     0.029 A 
ATOM     19  N   UNL     1       6.446  -5.126   4.681  1.00  0.00    -0.354 N 
ATOM     20  C   UNL     1       7.374  -7.436   1.051  1.00  0.00     0.074 A 
ATOM     21  C   UNL     1       6.637  -6.918  -0.077  1.00  0.00     0.031 C 
ATOM     22  C   UNL     1       5.548  -3.377   5.752  1.00  0.00     0.029 A 
ATOM     23  C   UNL     1       6.465  -4.499   5.903  1.00  0.00     0.049 A 
ATOM     24  H   UNL     1       7.017  -5.897   4.460  1.00  0.00     0.167 HD
ATOM     25  C   UNL     1       8.303  -8.415   0.980  1.00  0.00     0.037 A 
ATOM     26  C   UNL     1       7.126  -4.839   7.024  1.00  0.00     0.037 A 
ATOM     27  C   UNL     1       8.998  -8.912   2.135  1.00  0.00     0.049 A 
ATOM     28  C   UNL     1       8.030  -6.042   6.949  1.00  0.00     0.074 A 
ATOM     29  C   UNL     1       9.864  -9.982   2.234  1.00  0.00     0.029 A 
ATOM     30  N   UNL     1       8.894  -8.354   3.404  1.00  0.00    -0.354 N 
ATOM     31  N   UNL     1       8.354  -6.770   5.905  1.00  0.00    -0.248 NA
ATOM     32  C   UNL     1       8.650  -6.482   8.203  1.00  0.00     0.031 C 
ATOM     33  C   UNL     1      10.245 -10.102   3.575  1.00  0.00     0.029 A 
ATOM     34  C   UNL     1       9.666  -9.069   4.300  1.00  0.00     0.049 A 
ATOM     35  H   UNL     1       8.350  -7.565   3.632  1.00  0.00     0.167 HD
ATOM     36  C   UNL     1       9.225  -7.743   6.370  1.00  0.00     0.074 A 
ATOM     37  C   UNL     1       9.406  -7.487   7.786  1.00  0.00     0.031 C 
ATOM     38  C   UNL     1       9.815  -8.765   5.701  1.00  0.00     0.037 A 
BRANCH  25  39
ATOM     39  C   UNL     1       8.525  -9.049  -0.358  1.00  0.00     0.064 A 
ATOM     40  C   UNL     1       9.193  -8.384  -1.397  1.00  0.00     0.173 A 
ATOM     41  C   UNL     1       8.023 -10.334  -0.617  1.00  0.00     0.173 A 
ATOM     42  F   UNL     1       9.655  -7.138  -1.214  1.00  0.00    -0.203 F 
ATOM     43  C   UNL     1       9.332  -8.975  -2.652  1.00  0.00     0.198 A 
ATOM     44  C   UNL     1       8.187 -10.931  -1.863  1.00  0.00     0.198 A 
ATOM     45  F   UNL     1       7.359 -11.004   0.337  1.00  0.00    -0.203 F 
ATOM     46  F   UNL     1       9.923  -8.300  -3.647  1.00  0.00    -0.200 F 
ATOM     47  C   UNL     1       8.835 -10.249  -2.881  1.00  0.00     0.200 A 
ATOM     48  F   UNL     1       7.703 -12.161  -2.083  1.00  0.00    -0.200 F 
ATOM     49  F   UNL     1       8.965 -10.814  -4.090  1.00  0.00    -0.200 F 
ENDBRANCH  25  39
BRANCH  26  50
ATOM     50  C   UNL     1       6.889  -4.116   8.305  1.00  0.00     0.064 A 
ATOM     51  C   UNL     1       7.927  -3.486   9.004  1.00  0.00     0.173 A 
ATOM     52  C   UNL     1       5.614  -4.106   8.899  1.00  0.00     0.173 A 
ATOM     53  F   UNL     1       9.169  -3.480   8.497  1.00  0.00    -0.203 F 
ATOM     54  C   UNL     1       7.711  -2.912  10.258  1.00  0.00     0.198 A 
ATOM     55  C   UNL     1       5.391  -3.498  10.132  1.00  0.00     0.198 A 
ATOM     56  F   UNL     1       4.579  -4.696   8.283  1.00  0.00    -0.203 F 
ATOM     57  F   UNL     1       8.739  -2.383  10.936  1.00  0.00    -0.200 F 
ATOM     58  C   UNL     1       6.443  -2.917  10.819  1.00  0.00     0.200 A 
ATOM     59  F   UNL     1       4.160  -3.495  10.661  1.00  0.00    -0.200 F 
ATOM     60  F   UNL     1       6.240  -2.378  12.029  1.00  0.00    -0.200 F 
ENDBRANCH  26  50
BRANCH  38  61
ATOM     61  C   UNL     1      10.728  -9.647   6.499  1.00  0.00     0.064 A 
ATOM     62  C   UNL     1      10.234 -10.531   7.469  1.00  0.00     0.173 A 
ATOM     63  C   UNL     1      12.111  -9.624   6.265  1.00  0.00     0.173 A 
ATOM     64  F   UNL     1       8.920 -10.575   7.737  1.00  0.00    -0.203 F 
ATOM     65  C   UNL     1      11.098 -11.334   8.205  1.00  0.00     0.198 A 
ATOM     66  C   UNL     1      12.967 -10.458   6.975  1.00  0.00     0.198 A 
ATOM     67  F   UNL     1      12.629  -8.803   5.340  1.00  0.00    -0.203 F 
ATOM     68  F   UNL     1      10.613 -12.124   9.172  1.00  0.00    -0.200 F 
ATOM     69  C   UNL     1      12.462 -11.303   7.952  1.00  0.00     0.200 A 
ATOM     70  F   UNL     1      14.282 -10.442   6.716  1.00  0.00    -0.200 F 
ATOM     71  F   UNL     1      13.292 -12.083   8.657  1.00  0.00    -0.200 F 
ENDBRANCH  38  61
ENDBRANCH  12  13
ENDBRANCH   5   7
ENDBRANCH   4   5
ENDBRANCH   3   4
ENDBRANCH   2   3
ENDBRANCH   1   2
BRANCH   1  72
ATOM     72  C   UNL     1       2.990   0.933   1.682  1.00  0.00     0.202 C 
BRANCH  72  73
ATOM     73  C   UNL     1       2.897   2.027   2.726  1.00  0.00     0.261 C 
BRANCH  73  74
ATOM     74  O   UNL     1       3.227   3.249   2.061  1.00  0.00    -0.458 OA
BRANCH  74  75
ATOM     75  C   UNL     1       4.434   3.819   2.333  1.00  0.00     0.381 C 
ATOM     76  O   UNL     1       5.227   3.429   3.183  1.00  0.00    -0.244 OA
BRANCH  75  77
ATOM     77  C   UNL     1       4.623   5.060   1.455  1.00  0.00     0.461 C 
ATOM     78  F   UNL     1       4.175   4.865   0.173  1.00  0.00    -0.189 F 
BRANCH  77  79
ATOM     79  O   UNL     1       4.043   6.266   1.967  1.00  0.00    -0.451 OA
BRANCH  79  80
ATOM     80  C   UNL     1       2.684   6.308   1.804  1.00  0.00     0.125 A 
ATOM     81  C   UNL     1       1.833   5.595   2.654  1.00  0.00     0.050 A 
ATOM     82  C   UNL     1       2.155   7.133   0.814  1.00  0.00     0.070 A 
ATOM     83  C   UNL     1       0.461   5.580   2.416  1.00  0.00     0.044 A 
ATOM     84  C   UNL     1       0.772   7.170   0.622  1.00  0.00     0.080 A 
ATOM     85  C   UNL     1      -0.064   6.369   1.399  1.00  0.00     0.142 A 
ATOM     86  Cl  UNL     1       0.112   8.220  -0.572  1.00  0.00    -0.081 Cl
ATOM     87  F   UNL     1      -1.389   6.355   1.197  1.00  0.00    -0.205 F 
ENDBRANCH  79  80
ENDBRANCH  77  79
ENDBRANCH  75  77
ENDBRANCH  74  75
ENDBRANCH  73  74
ENDBRANCH  72  73
ENDBRANCH   1  72
TORSDOF 16
