REMARK SMILES O=C(OCCOCCOC(=O)c1ccccc1Nc1nc(Cl)nc(Nc2ccc(N3CCOCC3=O)cc2)n1)c1ccc(-c2c3nc(c(-c4c(F)c(F)c(F)c(F)c4F)c4ccc([nH]4)c(-c4c(F)c(F)c(F)c(F)c4F)c4nc(c(-c5c(F)c(F)c(F)c(F)c5F)c5ccc2[nH]5)C=C4)C=C3)cc1
REMARK SMILES IDX 7 1 6 2 5 3 4 4 3 5 2 6 1 7 40 8 41 9 102 10 42 11 101 12
REMARK SMILES IDX 43 13 44 14 45 15 95 16 46 17 100 18 94 19 96 20 47 21 99 22
REMARK SMILES IDX 93 23 92 24 48 26 80 27 60 28 79 29 61 30 64 31 78 32 97 33
REMARK SMILES IDX 62 34 63 35 77 37 98 38 65 39 49 40 50 41 58 42 51 43 52 44
REMARK SMILES IDX 56 45 59 46 53 47 54 48 57 49 55 50 81 51 82 52 90 53 83 54
REMARK SMILES IDX 84 55 88 56 91 57 85 58 86 59 89 60 87 61 66 62 67 63 75 64
REMARK SMILES IDX 68 65 69 66 73 67 76 68 70 69 71 70 74 71 72 72 8 73 9 74
REMARK SMILES IDX 10 75 11 76 12 77 13 78 17 79 14 80 16 81 15 82 18 83 19 85
REMARK SMILES IDX 20 86 39 87 21 88 24 89 22 90 23 91 25 92 26 94 27 95 38 96
REMARK SMILES IDX 28 97 37 98 29 99 30 100 31 101 35 102 32 103 34 104 36 105
REMARK SMILES IDX 33 106
REMARK H PARENT 96 25 64 36 18 84 25 93
REMARK Flexibility Score: inf
ROOT
ATOM      1  C   UNL     1       2.895   0.892   1.998  1.00  0.00     0.202 C 
ENDROOT
BRANCH   1   2
ATOM      2  O   UNL     1       4.181   0.877   1.373  1.00  0.00    -0.374 OA
BRANCH   2   3
ATOM      3  C   UNL     1       4.350   1.734   0.246  1.00  0.00     0.202 C 
BRANCH   3   4
ATOM      4  C   UNL     1       4.025   1.058  -1.087  1.00  0.00     0.261 C 
BRANCH   4   5
ATOM      5  O   UNL     1       2.651   0.636  -1.105  1.00  0.00    -0.460 OA
BRANCH   5   6
ATOM      6  C   UNL     1       2.146  -0.607  -0.946  1.00  0.00     0.338 C 
ATOM      7  O   UNL     1       0.930  -0.765  -1.056  1.00  0.00    -0.246 OA
BRANCH   6   8
ATOM      8  C   UNL     1       2.971  -1.815  -0.634  1.00  0.00     0.060 A 
ATOM      9  C   UNL     1       4.196  -1.799   0.034  1.00  0.00     0.016 A 
ATOM     10  C   UNL     1       2.413  -3.067  -0.947  1.00  0.00     0.016 A 
ATOM     11  C   UNL     1       4.863  -2.966   0.365  1.00  0.00     0.010 A 
ATOM     12  C   UNL     1       3.064  -4.254  -0.597  1.00  0.00     0.010 A 
ATOM     13  C   UNL     1       4.296  -4.198   0.060  1.00  0.00    -0.014 A 
BRANCH  13  14
ATOM     14  C   UNL     1       5.089  -5.397   0.367  1.00  0.00     0.031 A 
ATOM     15  C   UNL     1       5.852  -6.041  -0.745  1.00  0.00     0.074 A 
ATOM     16  C   UNL     1       5.238  -5.774   1.648  1.00  0.00     0.049 A 
ATOM     17  N   UNL     1       6.614  -7.099  -0.721  1.00  0.00    -0.248 NA
ATOM     18  C   UNL     1       5.760  -5.389  -2.062  1.00  0.00     0.031 C 
ATOM     19  C   UNL     1       4.635  -5.097   2.799  1.00  0.00     0.029 A 
ATOM     20  N   UNL     1       5.969  -6.788   2.203  1.00  0.00    -0.354 N 
ATOM     21  C   UNL     1       7.074  -7.254  -2.021  1.00  0.00     0.074 A 
ATOM     22  C   UNL     1       6.508  -6.184  -2.811  1.00  0.00     0.031 C 
ATOM     23  C   UNL     1       5.039  -5.704   3.926  1.00  0.00     0.029 A 
ATOM     24  C   UNL     1       5.869  -6.849   3.572  1.00  0.00     0.049 A 
ATOM     25  H   UNL     1       6.514  -7.414   1.673  1.00  0.00     0.167 HD
ATOM     26  C   UNL     1       7.889  -8.219  -2.501  1.00  0.00     0.037 A 
ATOM     27  C   UNL     1       6.368  -7.760   4.427  1.00  0.00     0.037 A 
ATOM     28  C   UNL     1       8.425  -9.272  -1.682  1.00  0.00     0.049 A 
ATOM     29  C   UNL     1       7.184  -8.886   3.848  1.00  0.00     0.074 A 
ATOM     30  C   UNL     1       9.196 -10.355  -2.054  1.00  0.00     0.029 A 
ATOM     31  N   UNL     1       8.234  -9.363  -0.307  1.00  0.00    -0.354 N 
ATOM     32  N   UNL     1       7.555  -9.082   2.604  1.00  0.00    -0.248 NA
ATOM     33  C   UNL     1       7.634  -9.925   4.781  1.00  0.00     0.031 C 
ATOM     34  C   UNL     1       9.432 -11.128  -0.911  1.00  0.00     0.029 A 
ATOM     35  C   UNL     1       8.856 -10.497   0.183  1.00  0.00     0.049 A 
ATOM     36  H   UNL     1       7.729  -8.716   0.237  1.00  0.00     0.167 HD
ATOM     37  C   UNL     1       8.293 -10.256   2.604  1.00  0.00     0.074 A 
ATOM     38  C   UNL     1       8.336 -10.714   3.980  1.00  0.00     0.031 C 
ATOM     39  C   UNL     1       8.877 -10.906   1.566  1.00  0.00     0.037 A 
BRANCH  26  40
ATOM     40  C   UNL     1       8.159  -8.211  -3.976  1.00  0.00     0.064 A 
ATOM     41  C   UNL     1       8.971  -7.239  -4.580  1.00  0.00     0.173 A 
ATOM     42  C   UNL     1       7.554  -9.167  -4.805  1.00  0.00     0.173 A 
ATOM     43  F   UNL     1       9.546  -6.282  -3.837  1.00  0.00    -0.203 F 
ATOM     44  C   UNL     1       9.139  -7.206  -5.963  1.00  0.00     0.198 A 
ATOM     45  C   UNL     1       7.746  -9.147  -6.184  1.00  0.00     0.198 A 
ATOM     46  F   UNL     1       6.760 -10.112  -4.279  1.00  0.00    -0.203 F 
ATOM     47  F   UNL     1       9.865  -6.230  -6.526  1.00  0.00    -0.200 F 
ATOM     48  C   UNL     1       8.529  -8.161  -6.763  1.00  0.00     0.200 A 
ATOM     49  F   UNL     1       7.156 -10.072  -6.954  1.00  0.00    -0.200 F 
ATOM     50  F   UNL     1       8.682  -8.121  -8.094  1.00  0.00    -0.200 F 
ENDBRANCH  26  40
BRANCH  27  51
ATOM     51  C   UNL     1       6.065  -7.679   5.881  1.00  0.00     0.064 A 
ATOM     52  C   UNL     1       7.077  -7.484   6.831  1.00  0.00     0.173 A 
ATOM     53  C   UNL     1       4.750  -7.813   6.357  1.00  0.00     0.173 A 
ATOM     54  F   UNL     1       8.354  -7.372   6.436  1.00  0.00    -0.203 F 
ATOM     55  C   UNL     1       6.790  -7.445   8.196  1.00  0.00     0.198 A 
ATOM     56  C   UNL     1       4.460  -7.740   7.718  1.00  0.00     0.198 A 
ATOM     57  F   UNL     1       3.740  -8.006   5.496  1.00  0.00    -0.203 F 
ATOM     58  F   UNL     1       7.784  -7.308   9.084  1.00  0.00    -0.200 F 
ATOM     59  C   UNL     1       5.481  -7.566   8.637  1.00  0.00     0.200 A 
ATOM     60  F   UNL     1       3.191  -7.845   8.136  1.00  0.00    -0.200 F 
ATOM     61  F   UNL     1       5.205  -7.527   9.948  1.00  0.00    -0.200 F 
ENDBRANCH  27  51
BRANCH  39  62
ATOM     62  C   UNL     1       9.632 -12.158   1.894  1.00  0.00     0.064 A 
ATOM     63  C   UNL     1       8.970 -13.345   2.235  1.00  0.00     0.173 A 
ATOM     64  C   UNL     1      11.032 -12.177   1.815  1.00  0.00     0.173 A 
ATOM     65  F   UNL     1       7.633 -13.368   2.339  1.00  0.00    -0.203 F 
ATOM     66  C   UNL     1       9.687 -14.506   2.508  1.00  0.00     0.198 A 
ATOM     67  C   UNL     1      11.743 -13.347   2.057  1.00  0.00     0.198 A 
ATOM     68  F   UNL     1      11.707 -11.066   1.486  1.00  0.00    -0.203 F 
ATOM     69  F   UNL     1       9.039 -15.620   2.876  1.00  0.00    -0.200 F 
ATOM     70  C   UNL     1      11.071 -14.508   2.410  1.00  0.00     0.200 A 
ATOM     71  F   UNL     1      13.078 -13.352   1.948  1.00  0.00    -0.200 F 
ATOM     72  F   UNL     1      11.759 -15.630   2.661  1.00  0.00    -0.200 F 
ENDBRANCH  39  62
ENDBRANCH  13  14
ENDBRANCH   6   8
ENDBRANCH   5   6
ENDBRANCH   4   5
ENDBRANCH   3   4
ENDBRANCH   2   3
ENDBRANCH   1   2
BRANCH   1  73
ATOM     73  C   UNL     1       3.101   1.024   3.509  1.00  0.00     0.261 C 
BRANCH  73  74
ATOM     74  O   UNL     1       3.688   2.311   3.764  1.00  0.00    -0.460 OA
BRANCH  74  75
ATOM     75  C   UNL     1       5.029   2.409   3.564  1.00  0.00     0.340 C 
ATOM     76  O   UNL     1       5.841   1.510   3.712  1.00  0.00    -0.246 OA
BRANCH  75  77
ATOM     77  C   UNL     1       5.348   3.750   2.976  1.00  0.00     0.083 A 
ATOM     78  C   UNL     1       6.545   3.840   2.249  1.00  0.00     0.018 A 
ATOM     79  C   UNL     1       4.496   4.878   3.095  1.00  0.00     0.055 A 
ATOM     80  C   UNL     1       6.902   5.035   1.630  1.00  0.00     0.001 A 
ATOM     81  C   UNL     1       4.883   6.070   2.472  1.00  0.00     0.027 A 
ATOM     82  C   UNL     1       6.074   6.148   1.745  1.00  0.00     0.002 A 
BRANCH  79  83
ATOM     83  N   UNL     1       3.316   4.782   3.843  1.00  0.00    -0.323 N 
ATOM     84  H   UNL     1       2.986   3.858   3.926  1.00  0.00     0.170 HD
BRANCH  83  85
ATOM     85  C   UNL     1       2.518   5.703   4.489  1.00  0.00     0.233 A 
ATOM     86  N   UNL     1       2.073   6.801   3.912  1.00  0.00    -0.182 NA
ATOM     87  N   UNL     1       2.239   5.337   5.734  1.00  0.00    -0.176 NA
ATOM     88  C   UNL     1       1.259   7.493   4.694  1.00  0.00     0.228 A 
ATOM     89  C   UNL     1       1.497   6.161   6.449  1.00  0.00     0.233 A 
ATOM     90  Cl  UNL     1       0.563   8.891   4.000  1.00  0.00    -0.041 Cl
ATOM     91  N   UNL     1       0.932   7.248   5.953  1.00  0.00    -0.182 NA
BRANCH  89  92
ATOM     92  N   UNL     1       1.449   5.862   7.803  1.00  0.00    -0.324 N 
ATOM     93  H   UNL     1       1.996   5.095   8.090  1.00  0.00     0.170 HD
BRANCH  92  94
ATOM     94  C   UNL     1       0.733   6.500   8.809  1.00  0.00     0.041 A 
ATOM     95  C   UNL     1       1.395   6.958   9.952  1.00  0.00     0.028 A 
ATOM     96  C   UNL     1      -0.623   6.784   8.649  1.00  0.00     0.028 A 
ATOM     97  C   UNL     1       0.716   7.721  10.904  1.00  0.00     0.028 A 
ATOM     98  C   UNL     1      -1.317   7.490   9.625  1.00  0.00     0.028 A 
ATOM     99  C   UNL     1      -0.647   7.984  10.748  1.00  0.00     0.044 A 
BRANCH  99 100
ATOM    100  N   UNL     1      -1.338   8.815  11.668  1.00  0.00    -0.308 N 
ATOM    101  C   UNL     1      -0.809  10.174  11.835  1.00  0.00     0.154 C 
ATOM    102  C   UNL     1      -2.639   8.493  12.066  1.00  0.00     0.253 C 
ATOM    103  C   UNL     1      -1.504  10.958  12.939  1.00  0.00     0.183 C 
ATOM    104  C   UNL     1      -3.378   9.579  12.858  1.00  0.00     0.260 C 
ATOM    105  O   UNL     1      -3.169   7.394  11.892  1.00  0.00    -0.272 OA
ATOM    106  O   UNL     1      -2.914  10.915  12.737  1.00  0.00    -0.370 OA
ENDBRANCH  99 100
ENDBRANCH  92  94
ENDBRANCH  89  92
ENDBRANCH  83  85
ENDBRANCH  79  83
ENDBRANCH  75  77
ENDBRANCH  74  75
ENDBRANCH  73  74
ENDBRANCH   1  73
TORSDOF 19
