REMARK SMILES COC(=O)c1c(-c2ccccc2Cl)csc1NC(=O)[C@@H]1[C@@H]2CC[C@@H](C2)[C@@H]1C(=O)OCCOCCOC(=O)c1ccc(-c2c3nc(c(-c4c(F)c(F)c(F)c(F)c4F)c4ccc([nH]4)c(-c4c(F)c(F)c(F)c(F)c4F)c4nc(c(-c5c(F)c(F)c(F)c(F)c5F)c5ccc2[nH]5)C=C4)C=C3)cc1
REMARK SMILES IDX 31 1 30 2 29 3 27 4 28 5 26 6 20 7 21 8 22 9 25 10 24 11
REMARK SMILES IDX 23 12 18 13 17 14 19 16 16 17 5 18 6 19 14 20 15 21 3 22
REMARK SMILES IDX 4 23 2 24 1 25 7 26 8 27 12 28 9 29 11 30 13 31 10 32 32 33
REMARK SMILES IDX 33 34 34 35 35 36 36 37 37 38 38 39 39 40 100 41 40 42 99 43
REMARK SMILES IDX 41 44 42 45 43 46 93 47 44 48 98 49 92 50 94 51 45 52 97 53
REMARK SMILES IDX 91 54 90 55 46 57 78 58 58 59 77 60 59 61 62 62 76 63 95 64
REMARK SMILES IDX 60 65 61 66 75 68 96 69 63 70 47 71 48 72 56 73 49 74 50 75
REMARK SMILES IDX 54 76 57 77 51 78 52 79 55 80 53 81 79 82 80 83 88 84 81 85
REMARK SMILES IDX 82 86 86 87 89 88 83 89 84 90 87 91 85 92 64 93 65 94 73 95
REMARK SMILES IDX 66 96 67 97 71 98 74 99 68 100 69 101 72 102 70 103
REMARK H PARENT 17 15 94 56 62 67
REMARK Flexibility Score: inf
ROOT
ATOM      1  C   UNL     1      -0.615  -5.727  -7.474  1.00  0.00     0.202 C 
ENDROOT
BRANCH   1   2
ATOM      2  C   UNL     1      -0.177  -5.186  -8.833  1.00  0.00     0.261 C 
BRANCH   2   3
ATOM      3  O   UNL     1       1.110  -4.570  -8.737  1.00  0.00    -0.463 OA
BRANCH   3   4
ATOM      4  C   UNL     1       1.058  -3.232  -8.467  1.00  0.00     0.310 C 
ATOM      5  O   UNL     1       0.061  -2.537  -8.569  1.00  0.00    -0.252 OA
BRANCH   4   6
ATOM      6  C   UNL     1       2.414  -2.772  -7.965  1.00  0.00     0.115 C 
ATOM      7  C   UNL     1       2.455  -1.376  -7.286  1.00  0.00     0.096 C 
ATOM      8  C   UNL     1       3.288  -0.606  -8.361  1.00  0.00     0.003 C 
ATOM      9  C   UNL     1       2.611  -0.580  -9.761  1.00  0.00     0.005 C 
ATOM     10  C   UNL     1       4.414  -1.623  -8.606  1.00  0.00     0.009 C 
ATOM     11  C   UNL     1       3.453  -2.698  -9.112  1.00  0.00     0.004 C 
ATOM     12  C   UNL     1       2.852  -1.987 -10.323  1.00  0.00     0.005 C 
BRANCH   7  13
ATOM     13  C   UNL     1       1.147  -0.687  -6.825  1.00  0.00     0.229 C 
ATOM     14  N   UNL     1       0.387  -1.080  -5.746  1.00  0.00    -0.317 N 
ATOM     15  H   UNL     1      -0.561  -0.836  -5.851  1.00  0.00     0.170 HD
ATOM     16  O   UNL     1       0.702   0.260  -7.488  1.00  0.00    -0.274 OA
BRANCH  14  17
ATOM     17  C   UNL     1       0.629  -1.740  -4.539  1.00  0.00     0.110 A 
ATOM     18  C   UNL     1      -0.314  -2.335  -3.674  1.00  0.00     0.102 A 
ATOM     19  C   UNL     1       0.358  -3.132  -2.608  1.00  0.00     0.011 A 
ATOM     20  C   UNL     1       1.729  -2.930  -2.705  1.00  0.00     0.076 A 
ATOM     21  S   UNL     1       2.200  -1.836  -3.924  1.00  0.00    -0.125 S 
BRANCH  18  22
ATOM     22  C   UNL     1      -1.752  -2.268  -3.990  1.00  0.00     0.341 C 
ATOM     23  O   UNL     1      -2.179  -1.810  -5.046  1.00  0.00    -0.246 OA
BRANCH  22  24
ATOM     24  O   UNL     1      -2.566  -2.763  -3.014  1.00  0.00    -0.465 OA
ATOM     25  C   UNL     1      -3.894  -3.062  -3.453  1.00  0.00     0.282 C 
ENDBRANCH  22  24
ENDBRANCH  18  22
BRANCH  19  26
ATOM     26  C   UNL     1      -0.151  -4.254  -1.734  1.00  0.00     0.002 A 
ATOM     27  C   UNL     1      -1.174  -5.092  -2.219  1.00  0.00     0.010 A 
ATOM     28  C   UNL     1       0.446  -4.679  -0.525  1.00  0.00     0.048 A 
ATOM     29  C   UNL     1      -1.536  -6.306  -1.606  1.00  0.00     0.001 A 
ATOM     30  C   UNL     1       0.118  -5.922   0.066  1.00  0.00     0.021 A 
ATOM     31  Cl  UNL     1       1.599  -3.735   0.361  1.00  0.00    -0.084 Cl
ATOM     32  C   UNL     1      -0.859  -6.744  -0.484  1.00  0.00     0.002 A 
ENDBRANCH  19  26
ENDBRANCH  14  17
ENDBRANCH   7  13
ENDBRANCH   4   6
ENDBRANCH   3   4
ENDBRANCH   2   3
ENDBRANCH   1   2
BRANCH   1  33
ATOM     33  O   UNL     1      -0.482  -4.835  -6.386  1.00  0.00    -0.374 OA
BRANCH  33  34
ATOM     34  C   UNL     1       0.780  -4.661  -5.752  1.00  0.00     0.202 C 
BRANCH  34  35
ATOM     35  C   UNL     1       1.953  -5.627  -5.892  1.00  0.00     0.261 C 
BRANCH  35  36
ATOM     36  O   UNL     1       1.785  -6.946  -5.387  1.00  0.00    -0.460 OA
BRANCH  36  37
ATOM     37  C   UNL     1       0.674  -7.261  -4.702  1.00  0.00     0.338 C 
ATOM     38  O   UNL     1      -0.137  -6.561  -4.148  1.00  0.00    -0.246 OA
BRANCH  37  39
ATOM     39  C   UNL     1       0.366  -8.616  -5.078  1.00  0.00     0.060 A 
ATOM     40  C   UNL     1      -0.935  -8.847  -5.548  1.00  0.00     0.016 A 
ATOM     41  C   UNL     1       1.397  -9.547  -5.145  1.00  0.00     0.016 A 
ATOM     42  C   UNL     1      -1.206 -10.050  -6.147  1.00  0.00     0.010 A 
ATOM     43  C   UNL     1       1.133 -10.736  -5.768  1.00  0.00     0.010 A 
ATOM     44  C   UNL     1      -0.163 -10.972  -6.256  1.00  0.00    -0.014 A 
BRANCH  44  45
ATOM     45  C   UNL     1      -0.433 -12.294  -6.788  1.00  0.00     0.031 A 
ATOM     46  C   UNL     1      -0.560 -13.392  -5.797  1.00  0.00     0.074 A 
ATOM     47  C   UNL     1      -0.450 -12.440  -8.117  1.00  0.00     0.049 A 
ATOM     48  N   UNL     1      -0.634 -14.673  -5.999  1.00  0.00    -0.248 NA
ATOM     49  C   UNL     1      -0.558 -12.993  -4.376  1.00  0.00     0.031 C 
ATOM     50  C   UNL     1      -0.319 -11.353  -9.092  1.00  0.00     0.029 A 
ATOM     51  N   UNL     1      -0.561 -13.564  -8.872  1.00  0.00    -0.354 N 
ATOM     52  C   UNL     1      -0.661 -15.236  -4.734  1.00  0.00     0.074 A 
ATOM     53  C   UNL     1      -0.545 -14.168  -3.771  1.00  0.00     0.031 C 
ATOM     54  C   UNL     1      -0.364 -11.872 -10.329  1.00  0.00     0.029 A 
ATOM     55  C   UNL     1      -0.482 -13.320 -10.217  1.00  0.00     0.049 A 
ATOM     56  H   UNL     1      -0.685 -14.463  -8.491  1.00  0.00     0.167 HD
ATOM     57  C   UNL     1      -0.782 -16.545  -4.430  1.00  0.00     0.037 A 
ATOM     58  C   UNL     1      -0.493 -14.204 -11.227  1.00  0.00     0.037 A 
ATOM     59  C   UNL     1      -0.882 -17.555  -5.447  1.00  0.00     0.049 A 
ATOM     60  C   UNL     1      -0.607 -15.657 -10.859  1.00  0.00     0.074 A 
ATOM     61  C   UNL     1      -1.043 -18.917  -5.308  1.00  0.00     0.029 A 
ATOM     62  N   UNL     1      -0.820 -17.289  -6.814  1.00  0.00    -0.354 N 
ATOM     63  N   UNL     1      -0.682 -16.204  -9.666  1.00  0.00    -0.248 NA
ATOM     64  C   UNL     1      -0.638 -16.613 -11.967  1.00  0.00     0.031 C 
ATOM     65  C   UNL     1      -1.027 -19.480  -6.589  1.00  0.00     0.029 A 
ATOM     66  C   UNL     1      -0.915 -18.465  -7.532  1.00  0.00     0.049 A 
ATOM     67  H   UNL     1      -0.723 -16.393  -7.210  1.00  0.00     0.167 HD
ATOM     68  C   UNL     1      -0.798 -17.568  -9.875  1.00  0.00     0.074 A 
ATOM     69  C   UNL     1      -0.793 -17.758 -11.316  1.00  0.00     0.031 C 
ATOM     70  C   UNL     1      -0.902 -18.578  -8.972  1.00  0.00     0.037 A 
BRANCH  57  71
ATOM     71  C   UNL     1      -0.761 -16.910  -2.977  1.00  0.00     0.064 A 
ATOM     72  C   UNL     1      -1.775 -16.502  -2.093  1.00  0.00     0.173 A 
ATOM     73  C   UNL     1       0.326 -17.613  -2.440  1.00  0.00     0.173 A 
ATOM     74  F   UNL     1      -2.822 -15.794  -2.546  1.00  0.00    -0.203 F 
ATOM     75  C   UNL     1      -1.677 -16.741  -0.725  1.00  0.00     0.198 A 
ATOM     76  C   UNL     1       0.404 -17.883  -1.075  1.00  0.00     0.198 A 
ATOM     77  F   UNL     1       1.331 -18.013  -3.233  1.00  0.00    -0.203 F 
ATOM     78  F   UNL     1      -2.614 -16.264   0.107  1.00  0.00    -0.200 F 
ATOM     79  C   UNL     1      -0.589 -17.435  -0.218  1.00  0.00     0.200 A 
ATOM     80  F   UNL     1       1.455 -18.555  -0.587  1.00  0.00    -0.200 F 
ATOM     81  F   UNL     1      -0.488 -17.653   1.101  1.00  0.00    -0.200 F 
ENDBRANCH  57  71
BRANCH  58  82
ATOM     82  C   UNL     1      -0.454 -13.725 -12.628  1.00  0.00     0.064 A 
ATOM     83  C   UNL     1      -1.595 -13.809 -13.437  1.00  0.00     0.173 A 
ATOM     84  C   UNL     1       0.687 -13.115 -13.170  1.00  0.00     0.173 A 
ATOM     85  F   UNL     1      -2.710 -14.382 -12.961  1.00  0.00    -0.203 F 
ATOM     86  C   UNL     1      -1.593 -13.315 -14.739  1.00  0.00     0.198 A 
ATOM     87  C   UNL     1       0.681 -12.600 -14.465  1.00  0.00     0.198 A 
ATOM     88  F   UNL     1       1.798 -12.989 -12.430  1.00  0.00    -0.203 F 
ATOM     89  F   UNL     1      -2.692 -13.428 -15.497  1.00  0.00    -0.200 F 
ATOM     90  C   UNL     1      -0.457 -12.705 -15.251  1.00  0.00     0.200 A 
ATOM     91  F   UNL     1       1.773 -11.991 -14.948  1.00  0.00    -0.200 F 
ATOM     92  F   UNL     1      -0.461 -12.217 -16.498  1.00  0.00    -0.200 F 
ENDBRANCH  58  82
BRANCH  70  93
ATOM     93  C   UNL     1      -1.050 -19.957  -9.537  1.00  0.00     0.064 A 
ATOM     94  C   UNL     1       0.025 -20.620 -10.144  1.00  0.00     0.173 A 
ATOM     95  C   UNL     1      -2.272 -20.634  -9.424  1.00  0.00     0.173 A 
ATOM     96  F   UNL     1       1.207 -20.001 -10.288  1.00  0.00    -0.203 F 
ATOM     97  C   UNL     1      -0.128 -21.907 -10.645  1.00  0.00     0.198 A 
ATOM     98  C   UNL     1      -2.410 -21.935  -9.893  1.00  0.00     0.198 A 
ATOM     99  F   UNL     1      -3.324 -20.040  -8.841  1.00  0.00    -0.203 F 
ATOM    100  F   UNL     1       0.896 -22.506 -11.270  1.00  0.00    -0.200 F 
ATOM    101  C   UNL     1      -1.341 -22.567 -10.511  1.00  0.00     0.200 A 
ATOM    102  F   UNL     1      -3.577 -22.577  -9.746  1.00  0.00    -0.200 F 
ATOM    103  F   UNL     1      -1.482 -23.812 -10.984  1.00  0.00    -0.200 F 
ENDBRANCH  70  93
ENDBRANCH  44  45
ENDBRANCH  37  39
ENDBRANCH  36  37
ENDBRANCH  35  36
ENDBRANCH  34  35
ENDBRANCH  33  34
ENDBRANCH   1  33
TORSDOF 19
