REMARK SMILES CCCC[C@@H](NS(=O)(=O)c1cc2c3c(c1)c(C)cc(=O)n3CC2)C(=O)OCCOCCOC(=O)c1ccc(-c2c3nc(c(-c4c(F)c(F)c(F)c(F)c4F)c4ccc([nH]4)c(-c4c(F)c(F)c(F)c(F)c4F)c4nc(c(-c5c(F)c(F)c(F)c(F)c5F)c5ccc2[nH]5)C=C4)C=C3)cc1
REMARK SMILES IDX 28 1 27 2 26 3 24 4 25 5 5 6 4 7 3 8 2 9 1 10 6 11 7 13 8 14
REMARK SMILES IDX 9 15 10 16 11 17 15 18 12 19 14 20 13 21 23 22 16 23 21 24
REMARK SMILES IDX 22 25 17 26 18 27 19 28 20 29 29 30 30 31 31 32 32 33 33 34
REMARK SMILES IDX 34 35 35 36 36 37 97 38 37 39 96 40 38 41 39 42 40 43 90 44
REMARK SMILES IDX 41 45 95 46 89 47 91 48 42 49 94 50 88 51 87 52 43 54 75 55
REMARK SMILES IDX 55 56 74 57 56 58 59 59 73 60 92 61 57 62 58 63 72 65 93 66
REMARK SMILES IDX 60 67 44 68 45 69 53 70 46 71 47 72 51 73 54 74 48 75 49 76
REMARK SMILES IDX 52 77 50 78 76 79 77 80 85 81 78 82 79 83 83 84 86 85 80 86
REMARK SMILES IDX 81 87 84 88 82 89 61 90 62 91 70 92 63 93 64 94 68 95 71 96
REMARK SMILES IDX 65 97 66 98 69 99 67 100
REMARK H PARENT 6 12 91 53 59 64
REMARK Flexibility Score: inf
ROOT
ATOM      1  C   UNL     1      -1.344  -0.530   6.128  1.00  0.00     0.202 C 
ENDROOT
BRANCH   1   2
ATOM      2  C   UNL     1      -1.681  -1.884   5.500  1.00  0.00     0.261 C 
BRANCH   2   3
ATOM      3  O   UNL     1      -1.095  -2.228   4.249  1.00  0.00    -0.462 OA
BRANCH   3   4
ATOM      4  C   UNL     1      -1.671  -1.647   3.155  1.00  0.00     0.324 C 
ATOM      5  O   UNL     1      -2.404  -0.668   3.175  1.00  0.00    -0.250 OA
BRANCH   4   6
ATOM      6  C   UNL     1      -1.336  -2.392   1.881  1.00  0.00     0.179 C 
BRANCH   6   7
ATOM      7  C   UNL     1       0.185  -2.644   1.843  1.00  0.00     0.032 C 
BRANCH   7   8
ATOM      8  C   UNL     1       0.822  -2.741   0.452  1.00  0.00     0.002 C 
BRANCH   8   9
ATOM      9  C   UNL     1       0.570  -1.567  -0.501  1.00  0.00    -0.003 C 
ATOM     10  C   UNL     1       1.024  -0.213   0.027  1.00  0.00     0.004 C 
ENDBRANCH   8   9
ENDBRANCH   7   8
ENDBRANCH   6   7
BRANCH   6  11
ATOM     11  N   UNL     1      -2.128  -3.651   1.832  1.00  0.00    -0.197 NA
ATOM     12  H   UNL     1      -1.993  -4.129   2.723  1.00  0.00     0.142 HD
BRANCH  11  13
ATOM     13  S   UNL     1      -3.809  -3.537   1.571  1.00  0.00     0.241 S 
ATOM     14  O   UNL     1      -4.033  -2.447   0.653  1.00  0.00    -0.207 OA
ATOM     15  O   UNL     1      -4.233  -4.886   1.254  1.00  0.00    -0.207 OA
BRANCH  13  16
ATOM     16  C   UNL     1      -4.528  -3.127   3.156  1.00  0.00     0.083 A 
ATOM     17  C   UNL     1      -4.882  -1.788   3.418  1.00  0.00     0.027 A 
ATOM     18  C   UNL     1      -4.692  -4.137   4.135  1.00  0.00     0.032 A 
ATOM     19  C   UNL     1      -5.190  -1.444   4.721  1.00  0.00    -0.020 A 
ATOM     20  C   UNL     1      -5.105  -3.794   5.428  1.00  0.00     0.003 A 
ATOM     21  C   UNL     1      -5.292  -2.442   5.675  1.00  0.00     0.055 A 
ATOM     22  C   UNL     1      -5.244  -0.091   5.373  1.00  0.00     0.060 C 
ATOM     23  C   UNL     1      -5.282  -4.698   6.582  1.00  0.00    -0.036 A 
ATOM     24  N   UNL     1      -5.445  -1.908   6.945  1.00  0.00    -0.308 N 
ATOM     25  C   UNL     1      -5.402  -0.447   6.872  1.00  0.00     0.131 C 
ATOM     26  C   UNL     1      -5.283  -6.177   6.354  1.00  0.00     0.045 C 
ATOM     27  C   UNL     1      -5.471  -4.162   7.807  1.00  0.00     0.075 A 
ATOM     28  C   UNL     1      -5.499  -2.686   8.067  1.00  0.00     0.251 A 
ATOM     29  O   UNL     1      -5.556  -2.259   9.214  1.00  0.00    -0.269 OA
ENDBRANCH  13  16
ENDBRANCH  11  13
ENDBRANCH   6  11
ENDBRANCH   4   6
ENDBRANCH   3   4
ENDBRANCH   2   3
ENDBRANCH   1   2
BRANCH   1  30
ATOM     30  O   UNL     1      -1.216   0.626   5.321  1.00  0.00    -0.374 OA
BRANCH  30  31
ATOM     31  C   UNL     1      -0.079   0.742   4.467  1.00  0.00     0.202 C 
BRANCH  31  32
ATOM     32  C   UNL     1       1.293   0.899   5.122  1.00  0.00     0.261 C 
BRANCH  32  33
ATOM     33  O   UNL     1       1.721  -0.328   5.741  1.00  0.00    -0.460 OA
BRANCH  33  34
ATOM     34  C   UNL     1       1.805  -0.290   7.093  1.00  0.00     0.338 C 
ATOM     35  O   UNL     1       1.622   0.666   7.825  1.00  0.00    -0.246 OA
BRANCH  34  36
ATOM     36  C   UNL     1       1.932  -1.669   7.595  1.00  0.00     0.060 A 
ATOM     37  C   UNL     1       0.943  -2.156   8.463  1.00  0.00     0.016 A 
ATOM     38  C   UNL     1       3.043  -2.446   7.268  1.00  0.00     0.016 A 
ATOM     39  C   UNL     1       1.078  -3.417   9.031  1.00  0.00     0.010 A 
ATOM     40  C   UNL     1       3.193  -3.698   7.863  1.00  0.00     0.010 A 
ATOM     41  C   UNL     1       2.229  -4.170   8.771  1.00  0.00    -0.014 A 
BRANCH  41  42
ATOM     42  C   UNL     1       2.512  -5.355   9.608  1.00  0.00     0.031 A 
ATOM     43  C   UNL     1       3.373  -5.174  10.826  1.00  0.00     0.074 A 
ATOM     44  C   UNL     1       1.968  -6.549   9.318  1.00  0.00     0.049 A 
ATOM     45  N   UNL     1       3.746  -6.057  11.716  1.00  0.00    -0.248 NA
ATOM     46  C   UNL     1       3.876  -3.812  11.082  1.00  0.00     0.031 C 
ATOM     47  C   UNL     1       1.076  -6.817   8.192  1.00  0.00     0.029 A 
ATOM     48  N   UNL     1       2.082  -7.758   9.954  1.00  0.00    -0.354 N 
ATOM     49  C   UNL     1       4.505  -5.355  12.642  1.00  0.00     0.074 A 
ATOM     50  C   UNL     1       4.588  -3.987  12.186  1.00  0.00     0.031 C 
ATOM     51  C   UNL     1       0.719  -8.113   8.220  1.00  0.00     0.029 A 
ATOM     52  C   UNL     1       1.378  -8.768   9.348  1.00  0.00     0.049 A 
ATOM     53  H   UNL     1       2.619  -7.889  10.769  1.00  0.00     0.167 HD
ATOM     54  C   UNL     1       5.059  -5.812  13.788  1.00  0.00     0.037 A 
ATOM     55  C   UNL     1       1.286 -10.073   9.673  1.00  0.00     0.037 A 
ATOM     56  C   UNL     1       4.978  -7.176  14.231  1.00  0.00     0.049 A 
ATOM     57  C   UNL     1       2.020 -10.579  10.891  1.00  0.00     0.074 A 
ATOM     58  C   UNL     1       5.521  -7.744  15.368  1.00  0.00     0.029 A 
ATOM     59  N   UNL     1       4.309  -8.186  13.554  1.00  0.00    -0.354 N 
ATOM     60  N   UNL     1       2.717  -9.906  11.775  1.00  0.00    -0.248 NA
ATOM     61  C   UNL     1       1.955 -12.024  11.158  1.00  0.00     0.031 C 
ATOM     62  C   UNL     1       5.224  -9.107  15.357  1.00  0.00     0.029 A 
ATOM     63  C   UNL     1       4.447  -9.379  14.241  1.00  0.00     0.049 A 
ATOM     64  H   UNL     1       3.812  -8.071  12.713  1.00  0.00     0.167 HD
ATOM     65  C   UNL     1       3.134 -10.835  12.720  1.00  0.00     0.074 A 
ATOM     66  C   UNL     1       2.611 -12.118  12.306  1.00  0.00     0.031 C 
ATOM     67  C   UNL     1       3.885 -10.640  13.831  1.00  0.00     0.037 A 
BRANCH  54  68
ATOM     68  C   UNL     1       5.791  -4.836  14.659  1.00  0.00     0.064 A 
ATOM     69  C   UNL     1       5.098  -3.877  15.412  1.00  0.00     0.173 A 
ATOM     70  C   UNL     1       7.180  -4.927  14.826  1.00  0.00     0.173 A 
ATOM     71  F   UNL     1       3.770  -3.742  15.276  1.00  0.00    -0.203 F 
ATOM     72  C   UNL     1       5.770  -3.046  16.303  1.00  0.00     0.198 A 
ATOM     73  C   UNL     1       7.845  -4.114  15.738  1.00  0.00     0.198 A 
ATOM     74  F   UNL     1       7.887  -5.831  14.130  1.00  0.00    -0.203 F 
ATOM     75  F   UNL     1       5.091  -2.125  17.001  1.00  0.00    -0.200 F 
ATOM     76  C   UNL     1       7.140  -3.175  16.477  1.00  0.00     0.200 A 
ATOM     77  F   UNL     1       9.167  -4.250  15.916  1.00  0.00    -0.200 F 
ATOM     78  F   UNL     1       7.782  -2.396  17.358  1.00  0.00    -0.200 F 
ENDBRANCH  54  68
BRANCH  55  79
ATOM     79  C   UNL     1       0.456 -10.994   8.852  1.00  0.00     0.064 A 
ATOM     80  C   UNL     1      -0.692 -11.595   9.387  1.00  0.00     0.173 A 
ATOM     81  C   UNL     1       0.798 -11.311   7.529  1.00  0.00     0.173 A 
ATOM     82  F   UNL     1      -1.051 -11.341  10.654  1.00  0.00    -0.203 F 
ATOM     83  C   UNL     1      -1.452 -12.493   8.640  1.00  0.00     0.198 A 
ATOM     84  C   UNL     1       0.019 -12.185   6.772  1.00  0.00     0.198 A 
ATOM     85  F   UNL     1       1.886 -10.765   6.966  1.00  0.00    -0.203 F 
ATOM     86  F   UNL     1      -2.516 -13.089   9.195  1.00  0.00    -0.200 F 
ATOM     87  C   UNL     1      -1.099 -12.783   7.331  1.00  0.00     0.200 A 
ATOM     88  F   UNL     1       0.356 -12.450   5.502  1.00  0.00    -0.200 F 
ATOM     89  F   UNL     1      -1.832 -13.643   6.612  1.00  0.00    -0.200 F 
ENDBRANCH  55  79
BRANCH  67  90
ATOM     90  C   UNL     1       4.164 -11.819  14.717  1.00  0.00     0.064 A 
ATOM     91  C   UNL     1       5.089 -12.805  14.350  1.00  0.00     0.173 A 
ATOM     92  C   UNL     1       3.607 -11.881  16.005  1.00  0.00     0.173 A 
ATOM     93  F   UNL     1       5.640 -12.793  13.127  1.00  0.00    -0.203 F 
ATOM     94  C   UNL     1       5.451 -13.810  15.243  1.00  0.00     0.198 A 
ATOM     95  C   UNL     1       3.994 -12.869  16.904  1.00  0.00     0.198 A 
ATOM     96  F   UNL     1       2.727 -10.952  16.407  1.00  0.00    -0.203 F 
ATOM     97  F   UNL     1       6.327 -14.752  14.868  1.00  0.00    -0.200 F 
ATOM     98  C   UNL     1       4.916 -13.832  16.523  1.00  0.00     0.200 A 
ATOM     99  F   UNL     1       3.495 -12.875  18.148  1.00  0.00    -0.200 F 
ATOM    100  F   UNL     1       5.296 -14.778  17.393  1.00  0.00    -0.200 F 
ENDBRANCH  67  90
ENDBRANCH  41  42
ENDBRANCH  34  36
ENDBRANCH  33  34
ENDBRANCH  32  33
ENDBRANCH  31  32
ENDBRANCH  30  31
ENDBRANCH   1  30
TORSDOF 20
