REMARK SMILES NS(=O)(=O)c1ccc(-n2nc(C(F)F)cc2-c2ccc(C(=O)OCCOCCOC(=O)c3ccc(-c4c5nc(c(-c6c(F)c(F)c(F)c(F)c6F)c6ccc([nH]6)c(-c6c(F)c(F)c(F)c(F)c6F)c6nc(c(-c7c(F)c(F)c(F)c(F)c7F)c7ccc4[nH]7)C=C6)C=C5)cc3)cc2)cc1
REMARK SMILES IDX 25 1 24 2 23 3 21 4 22 5 20 6 17 7 18 8 96 9 19 10 95 11
REMARK SMILES IDX 16 12 9 13 10 14 11 15 15 16 8 17 5 18 6 19 98 20 7 21 97 22
REMARK SMILES IDX 2 23 3 24 4 25 1 26 12 29 13 30 14 31 26 32 27 33 28 34
REMARK SMILES IDX 29 35 30 36 31 37 32 38 33 39 94 40 34 41 93 42 35 43 36 44
REMARK SMILES IDX 37 45 87 46 38 47 92 48 86 49 88 50 39 51 91 52 85 53 84 54
REMARK SMILES IDX 40 56 72 57 52 58 71 59 53 60 56 61 70 62 89 63 54 64 55 65
REMARK SMILES IDX 69 67 90 68 57 69 41 70 42 71 50 72 43 73 44 74 48 75 51 76
REMARK SMILES IDX 45 77 46 78 49 79 47 80 73 81 74 82 82 83 75 84 76 85 80 86
REMARK SMILES IDX 83 87 77 88 78 89 81 90 79 91 58 92 59 93 67 94 60 95 61 96
REMARK SMILES IDX 65 97 68 98 62 99 63 100 66 101 64 102
REMARK H PARENT 1 27 1 28 88 55 56 66
REMARK Flexibility Score: inf
ROOT
ATOM      1  C   UNL     1       2.334   1.000 -11.567  1.00  0.00     0.202 C 
ENDROOT
BRANCH   1   2
ATOM      2  C   UNL     1       2.409   2.525 -11.659  1.00  0.00     0.261 C 
BRANCH   2   3
ATOM      3  O   UNL     1       2.724   3.142 -10.402  1.00  0.00    -0.460 OA
BRANCH   3   4
ATOM      4  C   UNL     1       1.684   3.803  -9.837  1.00  0.00     0.338 C 
ATOM      5  O   UNL     1       0.568   3.952 -10.307  1.00  0.00    -0.246 OA
BRANCH   4   6
ATOM      6  C   UNL     1       2.015   4.210  -8.456  1.00  0.00     0.060 A 
ATOM      7  C   UNL     1       2.406   5.266  -5.897  1.00  0.00     0.000 A 
ATOM      8  C   UNL     1       1.180   4.679  -6.235  1.00  0.00     0.011 A 
ATOM      9  C   UNL     1       3.460   5.239  -6.823  1.00  0.00     0.011 A 
ATOM     10  C   UNL     1       0.984   4.157  -7.511  1.00  0.00     0.016 A 
ATOM     11  C   UNL     1       3.271   4.703  -8.101  1.00  0.00     0.016 A 
BRANCH   7  12
ATOM     12  C   UNL     1       2.524   6.055  -4.670  1.00  0.00     0.075 A 
ATOM     13  N   UNL     1       2.106   5.686  -3.397  1.00  0.00    -0.233 N 
ATOM     14  N   UNL     1       2.014   6.756  -2.566  1.00  0.00    -0.166 NA
ATOM     15  C   UNL     1       2.545   7.780  -3.254  1.00  0.00     0.129 A 
ATOM     16  C   UNL     1       2.848   7.395  -4.577  1.00  0.00     0.060 A 
BRANCH  13  17
ATOM     17  C   UNL     1       1.782   4.388  -2.926  1.00  0.00     0.065 A 
ATOM     18  C   UNL     1       1.062   1.833  -2.095  1.00  0.00     0.082 A 
ATOM     19  C   UNL     1       2.173   2.001  -2.927  1.00  0.00     0.024 A 
ATOM     20  C   UNL     1       0.317   2.936  -1.662  1.00  0.00     0.024 A 
ATOM     21  C   UNL     1       2.527   3.280  -3.354  1.00  0.00     0.030 A 
ATOM     22  C   UNL     1       0.700   4.222  -2.051  1.00  0.00     0.030 A 
BRANCH  18  23
ATOM     23  S   UNL     1       0.555   0.199  -1.645  1.00  0.00     0.238 S 
ATOM     24  O   UNL     1       1.265  -0.757  -2.472  1.00  0.00    -0.207 OA
ATOM     25  O   UNL     1      -0.875   0.173  -1.490  1.00  0.00    -0.207 OA
BRANCH  23  26
ATOM     26  N   UNL     1       1.207   0.042  -0.108  1.00  0.00    -0.225 NA
ATOM     27  H   UNL     1       0.978  -0.879   0.266  1.00  0.00     0.137 HD
ATOM     28  H   UNL     1       0.819   0.762   0.501  1.00  0.00     0.137 HD
ENDBRANCH  23  26
ENDBRANCH  18  23
ENDBRANCH  13  17
BRANCH  15  29
ATOM     29  C   UNL     1       2.740   9.148  -2.670  1.00  0.00     0.393 C 
ATOM     30  F   UNL     1       1.700   9.541  -1.887  1.00  0.00    -0.203 F 
ATOM     31  F   UNL     1       3.857   9.198  -1.892  1.00  0.00    -0.203 F 
ENDBRANCH  15  29
ENDBRANCH   7  12
ENDBRANCH   4   6
ENDBRANCH   3   4
ENDBRANCH   2   3
ENDBRANCH   1   2
BRANCH   1  32
ATOM     32  O   UNL     1       1.341   0.413 -10.727  1.00  0.00    -0.374 OA
BRANCH  32  33
ATOM     33  C   UNL     1       1.420   0.552  -9.315  1.00  0.00     0.202 C 
BRANCH  33  34
ATOM     34  C   UNL     1       2.535  -0.165  -8.569  1.00  0.00     0.261 C 
BRANCH  34  35
ATOM     35  O   UNL     1       3.825   0.178  -9.049  1.00  0.00    -0.460 OA
BRANCH  35  36
ATOM     36  C   UNL     1       4.361  -0.764  -9.858  1.00  0.00     0.338 C 
ATOM     37  O   UNL     1       3.776  -1.647 -10.461  1.00  0.00    -0.246 OA
BRANCH  36  38
ATOM     38  C   UNL     1       5.818  -0.697  -9.744  1.00  0.00     0.060 A 
ATOM     39  C   UNL     1       6.535  -1.652 -10.467  1.00  0.00     0.016 A 
ATOM     40  C   UNL     1       6.387   0.031  -8.690  1.00  0.00     0.016 A 
ATOM     41  C   UNL     1       7.754  -2.051  -9.973  1.00  0.00     0.010 A 
ATOM     42  C   UNL     1       7.588  -0.387  -8.182  1.00  0.00     0.010 A 
ATOM     43  C   UNL     1       8.213  -1.477  -8.781  1.00  0.00    -0.014 A 
BRANCH  43  44
ATOM     44  C   UNL     1       9.491  -1.909  -8.264  1.00  0.00     0.031 A 
ATOM     45  C   UNL     1      10.586  -1.357  -9.088  1.00  0.00     0.074 A 
ATOM     46  C   UNL     1       9.611  -2.628  -7.130  1.00  0.00     0.049 A 
ATOM     47  N   UNL     1      11.325  -2.004  -9.924  1.00  0.00    -0.248 NA
ATOM     48  C   UNL     1      10.705   0.108  -9.201  1.00  0.00     0.031 C 
ATOM     49  C   UNL     1       8.556  -2.969  -6.170  1.00  0.00     0.029 A 
ATOM     50  N   UNL     1      10.734  -3.135  -6.544  1.00  0.00    -0.354 N 
ATOM     51  C   UNL     1      12.181  -1.051 -10.466  1.00  0.00     0.074 A 
ATOM     52  C   UNL     1      11.588   0.225 -10.194  1.00  0.00     0.031 C 
ATOM     53  C   UNL     1       9.117  -3.420  -5.024  1.00  0.00     0.029 A 
ATOM     54  C   UNL     1      10.552  -3.532  -5.218  1.00  0.00     0.049 A 
ATOM     55  H   UNL     1      11.595  -3.215  -7.014  1.00  0.00     0.167 HD
ATOM     56  C   UNL     1      13.469  -1.393 -10.737  1.00  0.00     0.037 A 
ATOM     57  C   UNL     1      11.537  -3.873  -4.349  1.00  0.00     0.037 A 
ATOM     58  C   UNL     1      13.593  -2.830 -10.780  1.00  0.00     0.049 A 
ATOM     59  C   UNL     1      12.727  -4.225  -5.158  1.00  0.00     0.074 A 
ATOM     60  C   UNL     1      13.208  -3.836 -11.639  1.00  0.00     0.029 A 
ATOM     61  N   UNL     1      13.809  -3.397  -9.551  1.00  0.00    -0.354 N 
ATOM     62  N   UNL     1      12.786  -5.286  -5.914  1.00  0.00    -0.248 NA
ATOM     63  C   UNL     1      13.709  -3.189  -5.457  1.00  0.00     0.031 C 
ATOM     64  C   UNL     1      13.033  -4.998 -10.830  1.00  0.00     0.029 A 
ATOM     65  C   UNL     1      13.382  -4.694  -9.515  1.00  0.00     0.049 A 
ATOM     66  H   UNL     1      14.219  -2.928  -8.789  1.00  0.00     0.167 HD
ATOM     67  C   UNL     1      13.487  -4.871  -7.031  1.00  0.00     0.074 A 
ATOM     68  C   UNL     1      14.166  -3.645  -6.626  1.00  0.00     0.031 C 
ATOM     69  C   UNL     1      13.180  -5.380  -8.259  1.00  0.00     0.037 A 
BRANCH  56  70
ATOM     70  C   UNL     1      14.669  -0.522 -10.398  1.00  0.00     0.064 A 
ATOM     71  C   UNL     1      15.956  -1.016 -10.698  1.00  0.00     0.173 A 
ATOM     72  C   UNL     1      14.645   0.589  -9.525  1.00  0.00     0.173 A 
ATOM     73  F   UNL     1      16.110  -2.075 -11.508  1.00  0.00    -0.203 F 
ATOM     74  C   UNL     1      17.109  -0.497 -10.102  1.00  0.00     0.198 A 
ATOM     75  C   UNL     1      15.801   1.133  -8.967  1.00  0.00     0.198 A 
ATOM     76  F   UNL     1      13.513   1.140  -9.079  1.00  0.00    -0.203 F 
ATOM     77  F   UNL     1      18.294  -1.081 -10.324  1.00  0.00    -0.200 F 
ATOM     78  C   UNL     1      17.030   0.572  -9.230  1.00  0.00     0.200 A 
ATOM     79  F   UNL     1      15.695   2.155  -8.106  1.00  0.00    -0.200 F 
ATOM     80  F   UNL     1      18.123   1.033  -8.609  1.00  0.00    -0.200 F 
ENDBRANCH  56  70
BRANCH  57  81
ATOM     81  C   UNL     1      11.621  -3.669  -2.883  1.00  0.00     0.064 A 
ATOM     82  C   UNL     1      12.522  -4.398  -2.087  1.00  0.00     0.173 A 
ATOM     83  C   UNL     1      11.029  -2.542  -2.283  1.00  0.00     0.173 A 
ATOM     84  F   UNL     1      13.169  -5.456  -2.597  1.00  0.00    -0.203 F 
ATOM     85  C   UNL     1      12.828  -4.009  -0.777  1.00  0.00     0.198 A 
ATOM     86  C   UNL     1      11.335  -2.155  -0.977  1.00  0.00     0.198 A 
ATOM     87  F   UNL     1      10.220  -1.740  -2.989  1.00  0.00    -0.203 F 
ATOM     88  F   UNL     1      13.738  -4.694  -0.069  1.00  0.00    -0.200 F 
ATOM     89  C   UNL     1      12.243  -2.880  -0.228  1.00  0.00     0.200 A 
ATOM     90  F   UNL     1      10.796  -1.035  -0.473  1.00  0.00    -0.200 F 
ATOM     91  F   UNL     1      12.585  -2.468   1.001  1.00  0.00    -0.200 F 
ENDBRANCH  57  81
BRANCH  69  92
ATOM     92  C   UNL     1      12.457  -6.691  -8.298  1.00  0.00     0.064 A 
ATOM     93  C   UNL     1      11.139  -6.894  -7.857  1.00  0.00     0.173 A 
ATOM     94  C   UNL     1      13.113  -7.767  -8.908  1.00  0.00     0.173 A 
ATOM     95  F   UNL     1      10.423  -5.890  -7.334  1.00  0.00    -0.203 F 
ATOM     96  C   UNL     1      10.523  -8.138  -7.996  1.00  0.00     0.198 A 
ATOM     97  C   UNL     1      12.482  -8.993  -9.082  1.00  0.00     0.198 A 
ATOM     98  F   UNL     1      14.359  -7.611  -9.383  1.00  0.00    -0.203 F 
ATOM     99  F   UNL     1       9.269  -8.320  -7.556  1.00  0.00    -0.200 F 
ATOM    100  C   UNL     1      11.192  -9.182  -8.616  1.00  0.00     0.200 A 
ATOM    101  F   UNL     1      13.119  -9.981  -9.724  1.00  0.00    -0.200 F 
ATOM    102  F   UNL     1      10.586 -10.365  -8.787  1.00  0.00    -0.200 F 
ENDBRANCH  69  92
ENDBRANCH  43  44
ENDBRANCH  36  38
ENDBRANCH  35  36
ENDBRANCH  34  35
ENDBRANCH  33  34
ENDBRANCH  32  33
ENDBRANCH   1  32
TORSDOF 19
