REMARK SMILES Cc1cc(C)c(NC(=O)C2(C)CCCC2)c(C(=O)OCCOCCOC(=O)c2ccc(-c3c4nc(c(-c5c(F)c(F)c(F)c(F)c5F)c5ccc([nH]5)c(-c5c(F)c(F)c(F)c(F)c5F)c5nc(c(-c6c(F)c(F)c(F)c(F)c6F)c6ccc3[nH]6)C=C5)C=C4)cc2)c1
REMARK SMILES IDX 22 1 21 2 20 3 19 4 17 5 18 6 16 7 1 8 2 9 3 10 91 11 4 12
REMARK SMILES IDX 5 13 6 14 7 15 8 16 9 18 10 19 11 20 12 21 15 22 13 23 14 24
REMARK SMILES IDX 23 25 24 26 25 27 26 28 27 29 28 30 29 31 90 32 30 33 89 34
REMARK SMILES IDX 31 35 32 36 33 37 83 38 34 39 88 40 82 41 84 42 35 43 87 44
REMARK SMILES IDX 81 45 80 46 36 48 68 49 48 50 67 51 49 52 52 53 66 54 85 55
REMARK SMILES IDX 50 56 51 57 65 59 86 60 53 61 37 62 38 63 46 64 39 65 40 66
REMARK SMILES IDX 44 67 47 68 41 69 42 70 45 71 43 72 69 73 70 74 78 75 71 76
REMARK SMILES IDX 72 77 76 78 79 79 73 80 74 81 77 82 75 83 54 84 55 85 63 86
REMARK SMILES IDX 56 87 57 88 61 89 64 90 58 91 59 92 62 93 60 94
REMARK H PARENT 7 17 84 47 52 58
REMARK Flexibility Score: inf
ROOT
ATOM      1  O   UNL     1      -0.987  -5.396   1.150  1.00  0.00    -0.374 OA
ENDROOT
BRANCH   1   2
ATOM      2  C   UNL     1       0.190  -5.821   0.469  1.00  0.00     0.202 C 
BRANCH   2   3
ATOM      3  C   UNL     1       0.467  -5.183  -0.899  1.00  0.00     0.261 C 
BRANCH   3   4
ATOM      4  O   UNL     1       0.759  -3.778  -0.790  1.00  0.00    -0.460 OA
BRANCH   4   5
ATOM      5  C   UNL     1      -0.171  -2.927  -1.296  1.00  0.00     0.340 C 
ATOM      6  O   UNL     1      -1.175  -3.222  -1.928  1.00  0.00    -0.246 OA
BRANCH   5   7
ATOM      7  C   UNL     1       0.084  -1.566  -0.757  1.00  0.00     0.084 A 
ATOM      8  C   UNL     1       3.089   0.693  -0.147  1.00  0.00     0.044 C 
ATOM      9  C   UNL     1       1.704   0.120  -0.116  1.00  0.00    -0.050 A 
ATOM     10  C   UNL     1       0.678   0.800   0.543  1.00  0.00     0.009 A 
ATOM     11  C   UNL     1       1.408  -1.093  -0.731  1.00  0.00     0.021 A 
ATOM     12  C   UNL     1      -0.639   0.297   0.598  1.00  0.00    -0.026 A 
ATOM     13  C   UNL     1      -1.554   0.981   1.573  1.00  0.00     0.046 C 
ATOM     14  C   UNL     1      -0.980  -0.826  -0.175  1.00  0.00     0.058 A 
BRANCH  14  15
ATOM     15  N   UNL     1      -2.310  -1.269  -0.416  1.00  0.00    -0.325 N 
ATOM     16  C   UNL     1      -3.498  -0.663  -0.091  1.00  0.00     0.230 C 
ATOM     17  H   UNL     1      -2.389  -2.132  -0.882  1.00  0.00     0.169 HD
ATOM     18  O   UNL     1      -4.051  -0.930   0.976  1.00  0.00    -0.274 OA
BRANCH  16  19
ATOM     19  C   UNL     1      -4.161   0.249  -1.172  1.00  0.00     0.047 C 
ATOM     20  C   UNL     1      -3.856  -0.233  -2.594  1.00  0.00     0.022 C 
ATOM     21  C   UNL     1      -5.686   0.335  -0.950  1.00  0.00     0.016 C 
ATOM     22  C   UNL     1      -3.785   1.732  -1.018  1.00  0.00     0.016 C 
ATOM     23  C   UNL     1      -5.877   1.349   0.177  1.00  0.00     0.001 C 
ATOM     24  C   UNL     1      -4.661   2.267   0.118  1.00  0.00     0.001 C 
ENDBRANCH  16  19
ENDBRANCH  14  15
ENDBRANCH   5   7
ENDBRANCH   4   5
ENDBRANCH   3   4
ENDBRANCH   2   3
ENDBRANCH   1   2
BRANCH   1  25
ATOM     25  C   UNL     1      -0.940  -4.137   1.823  1.00  0.00     0.202 C 
BRANCH  25  26
ATOM     26  C   UNL     1      -0.228  -4.096   3.181  1.00  0.00     0.261 C 
BRANCH  26  27
ATOM     27  O   UNL     1       1.172  -4.417   3.082  1.00  0.00    -0.460 OA
BRANCH  27  28
ATOM     28  C   UNL     1       1.516  -5.617   3.602  1.00  0.00     0.338 C 
ATOM     29  O   UNL     1       0.793  -6.413   4.188  1.00  0.00    -0.246 OA
BRANCH  28  30
ATOM     30  C   UNL     1       2.901  -5.950   3.230  1.00  0.00     0.060 A 
ATOM     31  C   UNL     1       3.121  -7.160   2.561  1.00  0.00     0.016 A 
ATOM     32  C   UNL     1       3.974  -5.139   3.605  1.00  0.00     0.016 A 
ATOM     33  C   UNL     1       4.421  -7.588   2.303  1.00  0.00     0.010 A 
ATOM     34  C   UNL     1       5.279  -5.573   3.350  1.00  0.00     0.010 A 
ATOM     35  C   UNL     1       5.509  -6.815   2.729  1.00  0.00    -0.014 A 
BRANCH  35  36
ATOM     36  C   UNL     1       6.883  -7.367   2.641  1.00  0.00     0.031 A 
ATOM     37  C   UNL     1       7.533  -7.918   3.879  1.00  0.00     0.074 A 
ATOM     38  C   UNL     1       7.536  -7.395   1.466  1.00  0.00     0.049 A 
ATOM     39  N   UNL     1       8.738  -8.403   4.042  1.00  0.00    -0.248 NA
ATOM     40  C   UNL     1       6.714  -7.916   5.101  1.00  0.00     0.031 C 
ATOM     41  C   UNL     1       6.998  -6.924   0.193  1.00  0.00     0.029 A 
ATOM     42  N   UNL     1       8.801  -7.831   1.160  1.00  0.00    -0.354 N 
ATOM     43  C   UNL     1       8.823  -8.758   5.382  1.00  0.00     0.074 A 
ATOM     44  C   UNL     1       7.563  -8.399   5.996  1.00  0.00     0.031 C 
ATOM     45  C   UNL     1       7.932  -7.085  -0.760  1.00  0.00     0.029 A 
ATOM     46  C   UNL     1       9.143  -7.636  -0.155  1.00  0.00     0.049 A 
ATOM     47  H   UNL     1       9.405  -8.243   1.819  1.00  0.00     0.167 HD
ATOM     48  C   UNL     1       9.856  -9.341   6.038  1.00  0.00     0.037 A 
ATOM     49  C   UNL     1      10.311  -7.854  -0.791  1.00  0.00     0.037 A 
ATOM     50  C   UNL     1      11.110  -9.693   5.422  1.00  0.00     0.049 A 
ATOM     51  C   UNL     1      11.471  -8.436  -0.025  1.00  0.00     0.074 A 
ATOM     52  C   UNL     1      12.212 -10.304   5.994  1.00  0.00     0.029 A 
ATOM     53  N   UNL     1      11.431  -9.455   4.093  1.00  0.00    -0.354 N 
ATOM     54  N   UNL     1      11.537  -8.793   1.235  1.00  0.00    -0.248 NA
ATOM     55  C   UNL     1      12.718  -8.649  -0.773  1.00  0.00     0.031 C 
ATOM     56  C   UNL     1      13.220 -10.381   5.028  1.00  0.00     0.029 A 
ATOM     57  C   UNL     1      12.725  -9.879   3.835  1.00  0.00     0.049 A 
ATOM     58  H   UNL     1      10.828  -9.046   3.431  1.00  0.00     0.167 HD
ATOM     59  C   UNL     1      12.817  -9.299   1.424  1.00  0.00     0.074 A 
ATOM     60  C   UNL     1      13.490  -9.214   0.145  1.00  0.00     0.031 C 
ATOM     61  C   UNL     1      13.383  -9.791   2.554  1.00  0.00     0.037 A 
BRANCH  48  62
ATOM     62  C   UNL     1       9.683  -9.604   7.507  1.00  0.00     0.064 A 
ATOM     63  C   UNL     1       8.791 -10.577   7.985  1.00  0.00     0.173 A 
ATOM     64  C   UNL     1      10.434  -8.887   8.450  1.00  0.00     0.173 A 
ATOM     65  F   UNL     1       8.039 -11.284   7.127  1.00  0.00    -0.203 F 
ATOM     66  C   UNL     1       8.633 -10.796   9.351  1.00  0.00     0.198 A 
ATOM     67  C   UNL     1      10.298  -9.132   9.814  1.00  0.00     0.198 A 
ATOM     68  F   UNL     1      11.306  -7.949   8.050  1.00  0.00    -0.203 F 
ATOM     69  F   UNL     1       7.734 -11.691   9.785  1.00  0.00    -0.200 F 
ATOM     70  C   UNL     1       9.390 -10.079  10.264  1.00  0.00     0.200 A 
ATOM     71  F   UNL     1      11.042  -8.447  10.694  1.00  0.00    -0.200 F 
ATOM     72  F   UNL     1       9.240 -10.293  11.578  1.00  0.00    -0.200 F 
ENDBRANCH  48  62
BRANCH  49  73
ATOM     73  C   UNL     1      10.443  -7.509  -2.231  1.00  0.00     0.064 A 
ATOM     74  C   UNL     1      10.592  -8.506  -3.204  1.00  0.00     0.173 A 
ATOM     75  C   UNL     1      10.423  -6.174  -2.662  1.00  0.00     0.173 A 
ATOM     76  F   UNL     1      10.642  -9.796  -2.840  1.00  0.00    -0.203 F 
ATOM     77  C   UNL     1      10.732  -8.180  -4.552  1.00  0.00     0.198 A 
ATOM     78  C   UNL     1      10.532  -5.851  -4.012  1.00  0.00     0.198 A 
ATOM     79  F   UNL     1      10.282  -5.182  -1.770  1.00  0.00    -0.203 F 
ATOM     80  F   UNL     1      10.917  -9.150  -5.457  1.00  0.00    -0.200 F 
ATOM     81  C   UNL     1      10.694  -6.854  -4.956  1.00  0.00     0.200 A 
ATOM     82  F   UNL     1      10.479  -4.569  -4.399  1.00  0.00    -0.200 F 
ATOM     83  F   UNL     1      10.819  -6.542  -6.253  1.00  0.00    -0.200 F 
ENDBRANCH  49  73
BRANCH  61  84
ATOM     84  C   UNL     1      14.788 -10.314   2.454  1.00  0.00     0.064 A 
ATOM     85  C   UNL     1      15.885  -9.458   2.274  1.00  0.00     0.173 A 
ATOM     86  C   UNL     1      15.044 -11.688   2.581  1.00  0.00     0.173 A 
ATOM     87  F   UNL     1      15.695  -8.137   2.132  1.00  0.00    -0.203 F 
ATOM     88  C   UNL     1      17.182  -9.961   2.197  1.00  0.00     0.198 A 
ATOM     89  C   UNL     1      16.344 -12.184   2.538  1.00  0.00     0.198 A 
ATOM     90  F   UNL     1      14.033 -12.551   2.762  1.00  0.00    -0.203 F 
ATOM     91  F   UNL     1      18.209  -9.130   1.974  1.00  0.00    -0.200 F 
ATOM     92  C   UNL     1      17.411 -11.322   2.337  1.00  0.00     0.200 A 
ATOM     93  F   UNL     1      16.564 -13.498   2.689  1.00  0.00    -0.200 F 
ATOM     94  F   UNL     1      18.660 -11.803   2.272  1.00  0.00    -0.200 F 
ENDBRANCH  61  84
ENDBRANCH  35  36
ENDBRANCH  28  30
ENDBRANCH  27  28
ENDBRANCH  26  27
ENDBRANCH  25  26
ENDBRANCH   1  25
TORSDOF 16
