REMARK SMILES Cc1ccc(-c2csc(NC(=O)[C@H]3[C@@H](C(=O)OCCOCCOC(=O)c4ccc(-c5c6nc(c(-c7c(F)c(F)c(F)c(F)c7F)c7ccc([nH]7)c(-c7c(F)c(F)c(F)c(F)c7F)c7nc(c(-c8c(F)c(F)c(F)c(F)c8F)c8ccc5[nH]8)C=C7)C=C6)cc4)[C@H]4C=C[C@@H]3C4)c2C(=O)NC2CC2)cc1
REMARK SMILES IDX 19 1 18 2 17 3 15 4 16 5 14 6 13 7 92 8 89 9 91 10 93 11
REMARK SMILES IDX 90 12 11 13 10 14 12 16 9 17 6 18 7 19 94 20 8 21 5 22 1 23
REMARK SMILES IDX 2 24 3 25 102 26 4 27 101 28 95 29 96 30 97 31 98 33 99 34
REMARK SMILES IDX 100 35 20 36 21 37 22 38 23 39 24 40 25 41 26 42 27 43 88 44
REMARK SMILES IDX 28 45 87 46 29 47 30 48 31 49 81 50 32 51 86 52 80 53 82 54
REMARK SMILES IDX 33 55 85 56 79 57 78 58 34 60 66 61 46 62 65 63 47 64 50 65
REMARK SMILES IDX 64 66 83 67 48 68 49 69 63 71 84 72 51 73 35 74 36 75 44 76
REMARK SMILES IDX 37 77 38 78 42 79 45 80 39 81 40 82 43 83 41 84 67 85 68 86
REMARK SMILES IDX 76 87 69 88 70 89 74 90 77 91 71 92 72 93 75 94 73 95 52 96
REMARK SMILES IDX 53 97 61 98 54 99 55 100 59 101 62 102 56 103 57 104 60 105
REMARK SMILES IDX 58 106
REMARK H PARENT 10 15 97 32 82 59 50 70
REMARK Flexibility Score: inf
ROOT
ATOM      1  C   UNL     1      -4.679  -1.094  -1.161  1.00  0.00     0.202 C 
ENDROOT
BRANCH   1   2
ATOM      2  C   UNL     1      -4.800   0.364  -0.864  1.00  0.00     0.261 C 
BRANCH   2   3
ATOM      3  O   UNL     1      -5.900   0.699   0.006  1.00  0.00    -0.463 OA
BRANCH   3   4
ATOM      4  C   UNL     1      -7.141   0.865  -0.558  1.00  0.00     0.310 C 
ATOM      5  O   UNL     1      -7.398   0.780  -1.738  1.00  0.00    -0.252 OA
BRANCH   4   6
ATOM      6  C   UNL     1      -8.123   1.284   0.520  1.00  0.00     0.119 C 
ATOM      7  C   UNL     1      -9.270   0.253   0.773  1.00  0.00     0.100 C 
ATOM      8  C   UNL     1     -10.526   1.122   0.464  1.00  0.00     0.025 C 
ATOM      9  C   UNL     1      -8.886   2.595   0.182  1.00  0.00     0.027 C 
ATOM     10  C   UNL     1     -10.572   1.559  -0.977  1.00  0.00    -0.027 C 
ATOM     11  C   UNL     1     -10.098   2.453   1.096  1.00  0.00     0.017 C 
ATOM     12  C   UNL     1      -9.611   2.477  -1.137  1.00  0.00    -0.027 C 
BRANCH   7  13
ATOM     13  C   UNL     1      -8.987  -1.083   0.073  1.00  0.00     0.229 C 
ATOM     14  N   UNL     1      -9.936  -1.674  -0.701  1.00  0.00    -0.317 N 
ATOM     15  H   UNL     1      -9.651  -2.046  -1.567  1.00  0.00     0.170 HD
ATOM     16  O   UNL     1      -7.884  -1.625   0.197  1.00  0.00    -0.274 OA
BRANCH  14  17
ATOM     17  C   UNL     1     -11.264  -1.791  -0.365  1.00  0.00     0.108 A 
ATOM     18  C   UNL     1     -13.560  -1.808  -0.363  1.00  0.00     0.007 A 
ATOM     19  C   UNL     1     -13.239  -1.455   0.942  1.00  0.00     0.076 A 
ATOM     20  C   UNL     1     -12.363  -2.054  -1.185  1.00  0.00     0.082 A 
ATOM     21  S   UNL     1     -11.636  -1.835   1.298  1.00  0.00    -0.125 S 
BRANCH  18  22
ATOM     22  C   UNL     1     -14.986  -2.020  -0.544  1.00  0.00    -0.017 A 
ATOM     23  C   UNL     1     -18.910  -3.430  -1.447  1.00  0.00     0.044 C 
ATOM     24  C   UNL     1     -17.630  -2.813  -0.970  1.00  0.00    -0.051 A 
ATOM     25  C   UNL     1     -16.823  -3.550  -0.106  1.00  0.00     0.004 A 
ATOM     26  C   UNL     1     -17.155  -1.596  -1.493  1.00  0.00     0.004 A 
ATOM     27  C   UNL     1     -15.523  -3.136   0.126  1.00  0.00     0.009 A 
ATOM     28  C   UNL     1     -15.829  -1.189  -1.277  1.00  0.00     0.009 A 
ENDBRANCH  18  22
BRANCH  20  29
ATOM     29  C   UNL     1     -12.078  -2.331  -2.613  1.00  0.00     0.255 C 
ATOM     30  O   UNL     1     -11.176  -1.695  -3.179  1.00  0.00    -0.269 OA
ATOM     31  N   UNL     1     -12.581  -3.341  -3.403  1.00  0.00    -0.349 N 
ATOM     32  H   UNL     1     -12.195  -3.311  -4.309  1.00  0.00     0.164 HD
BRANCH  31  33
ATOM     33  C   UNL     1     -13.501  -4.412  -3.273  1.00  0.00     0.082 C 
ATOM     34  C   UNL     1     -14.041  -4.917  -1.988  1.00  0.00     0.027 C 
ATOM     35  C   UNL     1     -14.921  -4.129  -2.934  1.00  0.00     0.027 C 
ENDBRANCH  31  33
ENDBRANCH  20  29
ENDBRANCH  14  17
ENDBRANCH   7  13
ENDBRANCH   4   6
ENDBRANCH   3   4
ENDBRANCH   2   3
ENDBRANCH   1   2
BRANCH   1  36
ATOM     36  O   UNL     1      -5.657  -1.282  -2.164  1.00  0.00    -0.374 OA
BRANCH  36  37
ATOM     37  C   UNL     1      -6.142  -2.587  -2.335  1.00  0.00     0.202 C 
BRANCH  37  38
ATOM     38  C   UNL     1      -5.069  -3.502  -2.916  1.00  0.00     0.261 C 
BRANCH  38  39
ATOM     39  O   UNL     1      -4.656  -3.027  -4.219  1.00  0.00    -0.460 OA
BRANCH  39  40
ATOM     40  C   UNL     1      -3.564  -2.209  -4.228  1.00  0.00     0.338 C 
ATOM     41  O   UNL     1      -2.468  -2.502  -3.770  1.00  0.00    -0.246 OA
BRANCH  40  42
ATOM     42  C   UNL     1      -3.957  -0.822  -4.621  1.00  0.00     0.060 A 
ATOM     43  C   UNL     1      -3.103   0.259  -4.324  1.00  0.00     0.016 A 
ATOM     44  C   UNL     1      -5.297  -0.587  -4.910  1.00  0.00     0.016 A 
ATOM     45  C   UNL     1      -3.631   1.548  -4.149  1.00  0.00     0.010 A 
ATOM     46  C   UNL     1      -5.827   0.640  -4.573  1.00  0.00     0.010 A 
ATOM     47  C   UNL     1      -5.015   1.719  -4.196  1.00  0.00    -0.014 A 
BRANCH  47  48
ATOM     48  C   UNL     1      -5.740   2.951  -3.875  1.00  0.00     0.031 A 
ATOM     49  C   UNL     1      -6.428   3.620  -5.001  1.00  0.00     0.074 A 
ATOM     50  C   UNL     1      -5.881   3.472  -2.630  1.00  0.00     0.049 A 
ATOM     51  N   UNL     1      -6.460   4.903  -5.136  1.00  0.00    -0.248 NA
ATOM     52  C   UNL     1      -7.071   2.915  -6.113  1.00  0.00     0.031 C 
ATOM     53  C   UNL     1      -6.843   4.485  -2.204  1.00  0.00     0.029 A 
ATOM     54  N   UNL     1      -5.197   3.174  -1.445  1.00  0.00    -0.354 N 
ATOM     55  C   UNL     1      -7.370   5.167  -6.129  1.00  0.00     0.074 A 
ATOM     56  C   UNL     1      -7.588   3.922  -6.816  1.00  0.00     0.031 C 
ATOM     57  C   UNL     1      -6.556   4.887  -0.953  1.00  0.00     0.029 A 
ATOM     58  C   UNL     1      -5.338   4.217  -0.529  1.00  0.00     0.049 A 
ATOM     59  H   UNL     1      -4.689   2.346  -1.281  1.00  0.00     0.167 HD
ATOM     60  C   UNL     1      -8.042   6.349  -6.141  1.00  0.00     0.037 A 
ATOM     61  C   UNL     1      -4.263   4.767   0.093  1.00  0.00     0.037 A 
ATOM     62  C   UNL     1      -7.779   7.098  -4.912  1.00  0.00     0.049 A 
ATOM     63  C   UNL     1      -4.119   6.162  -0.436  1.00  0.00     0.074 A 
ATOM     64  C   UNL     1      -8.514   7.237  -3.744  1.00  0.00     0.029 A 
ATOM     65  N   UNL     1      -6.478   7.489  -4.595  1.00  0.00    -0.354 N 
ATOM     66  N   UNL     1      -4.663   6.519  -1.568  1.00  0.00    -0.248 NA
ATOM     67  C   UNL     1      -3.476   7.270   0.254  1.00  0.00     0.031 C 
ATOM     68  C   UNL     1      -7.652   7.732  -2.731  1.00  0.00     0.029 A 
ATOM     69  C   UNL     1      -6.389   7.897  -3.276  1.00  0.00     0.049 A 
ATOM     70  H   UNL     1      -5.723   7.475  -5.226  1.00  0.00     0.167 HD
ATOM     71  C   UNL     1      -4.567   7.862  -1.713  1.00  0.00     0.074 A 
ATOM     72  C   UNL     1      -3.768   8.289  -0.577  1.00  0.00     0.031 C 
ATOM     73  C   UNL     1      -5.172   8.504  -2.750  1.00  0.00     0.037 A 
BRANCH  60  74
ATOM     74  C   UNL     1      -9.184   6.600  -7.096  1.00  0.00     0.064 A 
ATOM     75  C   UNL     1     -10.318   7.342  -6.718  1.00  0.00     0.173 A 
ATOM     76  C   UNL     1      -9.200   6.116  -8.422  1.00  0.00     0.173 A 
ATOM     77  F   UNL     1     -10.405   7.928  -5.519  1.00  0.00    -0.203 F 
ATOM     78  C   UNL     1     -11.417   7.509  -7.566  1.00  0.00     0.198 A 
ATOM     79  C   UNL     1     -10.321   6.236  -9.250  1.00  0.00     0.198 A 
ATOM     80  F   UNL     1      -8.118   5.530  -8.957  1.00  0.00    -0.203 F 
ATOM     81  F   UNL     1     -12.469   8.230  -7.152  1.00  0.00    -0.200 F 
ATOM     82  C   UNL     1     -11.431   6.933  -8.819  1.00  0.00     0.200 A 
ATOM     83  F   UNL     1     -10.316   5.673 -10.467  1.00  0.00    -0.200 F 
ATOM     84  F   UNL     1     -12.500   7.068  -9.616  1.00  0.00    -0.200 F 
ENDBRANCH  60  74
BRANCH  61  85
ATOM     85  C   UNL     1      -3.201   3.790   0.466  1.00  0.00     0.064 A 
ATOM     86  C   UNL     1      -3.464   2.919   1.548  1.00  0.00     0.173 A 
ATOM     87  C   UNL     1      -2.167   3.423  -0.406  1.00  0.00     0.173 A 
ATOM     88  F   UNL     1      -4.478   3.185   2.388  1.00  0.00    -0.203 F 
ATOM     89  C   UNL     1      -2.785   1.706   1.702  1.00  0.00     0.198 A 
ATOM     90  C   UNL     1      -1.501   2.197  -0.262  1.00  0.00     0.198 A 
ATOM     91  F   UNL     1      -1.881   4.186  -1.470  1.00  0.00    -0.203 F 
ATOM     92  F   UNL     1      -3.178   0.832   2.642  1.00  0.00    -0.200 F 
ATOM     93  C   UNL     1      -1.821   1.334   0.779  1.00  0.00     0.200 A 
ATOM     94  F   UNL     1      -0.634   1.795  -1.203  1.00  0.00    -0.200 F 
ATOM     95  F   UNL     1      -1.312   0.092   0.807  1.00  0.00    -0.200 F 
ENDBRANCH  61  85
BRANCH  73  96
ATOM     96  C   UNL     1      -4.728   9.829  -3.288  1.00  0.00     0.064 A 
ATOM     97  C   UNL     1      -3.428  10.325  -3.108  1.00  0.00     0.173 A 
ATOM     98  C   UNL     1      -5.550  10.557  -4.178  1.00  0.00     0.173 A 
ATOM     99  F   UNL     1      -2.508   9.653  -2.401  1.00  0.00    -0.203 F 
ATOM    100  C   UNL     1      -3.007  11.507  -3.708  1.00  0.00     0.198 A 
ATOM    101  C   UNL     1      -5.097  11.691  -4.840  1.00  0.00     0.198 A 
ATOM    102  F   UNL     1      -6.802  10.175  -4.467  1.00  0.00    -0.203 F 
ATOM    103  F   UNL     1      -1.776  11.972  -3.454  1.00  0.00    -0.200 F 
ATOM    104  C   UNL     1      -3.834  12.181  -4.585  1.00  0.00     0.200 A 
ATOM    105  F   UNL     1      -5.885  12.289  -5.744  1.00  0.00    -0.200 F 
ATOM    106  F   UNL     1      -3.406  13.289  -5.200  1.00  0.00    -0.200 F 
ENDBRANCH  73  96
ENDBRANCH  47  48
ENDBRANCH  40  42
ENDBRANCH  39  40
ENDBRANCH  38  39
ENDBRANCH  37  38
ENDBRANCH  36  37
ENDBRANCH   1  36
TORSDOF 19
