REMARK SMILES Cc1ccc(S(=O)(=O)Nc2cc(C(=O)OCCOCCOC(=O)c3ccc(-c4c5nc(c(-c6c(F)c(F)c(F)c(F)c6F)c6ccc([nH]6)c(-c6c(F)c(F)c(F)c(F)c6F)c6nc(c(-c7c(F)c(F)c(F)c(F)c7F)c7ccc4[nH]7)C=C6)C=C5)cc3)ccc2C)c(Br)c1
REMARK SMILES IDX 17 1 16 2 15 3 13 4 14 5 12 6 10 7 11 8 89 9 88 10 90 11
REMARK SMILES IDX 87 12 9 13 6 15 7 16 8 17 5 18 1 19 2 20 3 21 93 22 4 23
REMARK SMILES IDX 91 24 92 25 18 26 19 27 20 28 21 29 22 30 23 31 24 32 25 33
REMARK SMILES IDX 86 34 26 35 85 36 27 37 28 38 29 39 79 40 30 41 84 42 78 43
REMARK SMILES IDX 80 44 31 45 83 46 77 47 76 48 32 50 64 51 44 52 63 53 45 54
REMARK SMILES IDX 48 55 62 56 81 57 46 58 47 59 61 61 82 62 49 63 33 64 34 65
REMARK SMILES IDX 42 66 35 67 36 68 40 69 43 70 37 71 38 72 41 73 39 74 65 75
REMARK SMILES IDX 66 76 74 77 67 78 68 79 72 80 75 81 69 82 70 83 73 84 71 85
REMARK SMILES IDX 50 86 51 87 59 88 52 89 53 90 57 91 60 92 54 93 55 94 58 95
REMARK SMILES IDX 56 96
REMARK H PARENT 9 14 80 49 48 60
REMARK Flexibility Score: inf
ROOT
ATOM      1  C   UNL     1      -4.061   3.407   3.780  1.00  0.00     0.202 C 
ENDROOT
BRANCH   1   2
ATOM      2  C   UNL     1      -3.671   2.188   2.996  1.00  0.00     0.261 C 
BRANCH   2   3
ATOM      3  O   UNL     1      -3.287   2.408   1.653  1.00  0.00    -0.460 OA
BRANCH   3   4
ATOM      4  C   UNL     1      -4.197   3.121   0.944  1.00  0.00     0.338 C 
ATOM      5  O   UNL     1      -5.306   2.766   0.627  1.00  0.00    -0.246 OA
BRANCH   4   6
ATOM      6  C   UNL     1      -3.511   4.366   0.514  1.00  0.00     0.062 A 
ATOM      7  C   UNL     1      -1.383   5.238  -0.147  1.00  0.00     0.053 A 
ATOM      8  C   UNL     1      -2.136   4.505   0.751  1.00  0.00     0.042 A 
ATOM      9  C   UNL     1      -2.026   6.102  -1.053  1.00  0.00    -0.027 A 
ATOM     10  C   UNL     1      -3.435   6.138  -1.091  1.00  0.00     0.006 A 
ATOM     11  C   UNL     1      -1.295   6.856  -2.128  1.00  0.00     0.046 C 
ATOM     12  C   UNL     1      -4.180   5.226  -0.351  1.00  0.00     0.016 A 
BRANCH   7  13
ATOM     13  N   UNL     1      -0.021   4.884  -0.341  1.00  0.00    -0.279 N 
ATOM     14  H   UNL     1       0.627   5.617  -0.451  1.00  0.00     0.180 HD
BRANCH  13  15
ATOM     15  S   UNL     1       0.573   3.300  -0.398  1.00  0.00     0.263 S 
ATOM     16  O   UNL     1       0.548   2.782   0.955  1.00  0.00    -0.201 OA
ATOM     17  O   UNL     1       1.817   3.454  -1.124  1.00  0.00    -0.201 OA
BRANCH  15  18
ATOM     18  C   UNL     1      -0.469   2.222  -1.369  1.00  0.00     0.101 A 
ATOM     19  C   UNL     1      -3.331  -0.655  -2.812  1.00  0.00     0.044 C 
ATOM     20  C   UNL     1      -2.312   0.343  -2.375  1.00  0.00    -0.050 A 
ATOM     21  C   UNL     1      -2.698   1.657  -2.181  1.00  0.00     0.005 A 
ATOM     22  C   UNL     1      -0.981  -0.018  -2.148  1.00  0.00     0.020 A 
ATOM     23  C   UNL     1      -1.760   2.592  -1.754  1.00  0.00     0.024 A 
ATOM     24  C   UNL     1      -0.068   0.903  -1.611  1.00  0.00     0.038 A 
ATOM     25  Br  UNL     1       1.669   0.221  -1.254  1.00  0.00    -0.049 Br
ENDBRANCH  15  18
ENDBRANCH  13  15
ENDBRANCH   7  13
ENDBRANCH   4   6
ENDBRANCH   3   4
ENDBRANCH   2   3
ENDBRANCH   1   2
BRANCH   1  26
ATOM     26  O   UNL     1      -5.364   3.795   3.375  1.00  0.00    -0.374 OA
BRANCH  26  27
ATOM     27  C   UNL     1      -5.827   4.997   3.974  1.00  0.00     0.202 C 
BRANCH  27  28
ATOM     28  C   UNL     1      -5.790   4.969   5.511  1.00  0.00     0.261 C 
BRANCH  28  29
ATOM     29  O   UNL     1      -6.706   3.958   5.985  1.00  0.00    -0.460 OA
BRANCH  29  30
ATOM     30  C   UNL     1      -6.149   2.899   6.636  1.00  0.00     0.338 C 
ATOM     31  O   UNL     1      -5.367   2.978   7.568  1.00  0.00    -0.246 OA
BRANCH  30  32
ATOM     32  C   UNL     1      -6.401   1.647   5.860  1.00  0.00     0.060 A 
ATOM     33  C   UNL     1      -5.680   0.473   6.152  1.00  0.00     0.016 A 
ATOM     34  C   UNL     1      -7.088   1.747   4.657  1.00  0.00     0.016 A 
ATOM     35  C   UNL     1      -5.489  -0.508   5.162  1.00  0.00     0.010 A 
ATOM     36  C   UNL     1      -6.803   0.841   3.659  1.00  0.00     0.010 A 
ATOM     37  C   UNL     1      -5.957  -0.265   3.877  1.00  0.00    -0.014 A 
BRANCH  37  38
ATOM     38  C   UNL     1      -5.588  -0.973   2.635  1.00  0.00     0.031 A 
ATOM     39  C   UNL     1      -6.713  -1.416   1.777  1.00  0.00     0.074 A 
ATOM     40  C   UNL     1      -4.329  -0.956   2.125  1.00  0.00     0.049 A 
ATOM     41  N   UNL     1      -6.617  -1.754   0.545  1.00  0.00    -0.248 NA
ATOM     42  C   UNL     1      -8.089  -1.465   2.260  1.00  0.00     0.031 C 
ATOM     43  C   UNL     1      -3.915  -1.185   0.737  1.00  0.00     0.029 A 
ATOM     44  N   UNL     1      -3.101  -0.760   2.775  1.00  0.00    -0.354 N 
ATOM     45  C   UNL     1      -7.868  -2.024   0.053  1.00  0.00     0.074 A 
ATOM     46  C   UNL     1      -8.763  -1.697   1.130  1.00  0.00     0.031 C 
ATOM     47  C   UNL     1      -2.603  -1.454   0.694  1.00  0.00     0.029 A 
ATOM     48  C   UNL     1      -2.144  -1.499   2.058  1.00  0.00     0.049 A 
ATOM     49  H   UNL     1      -2.941  -0.211   3.576  1.00  0.00     0.167 HD
ATOM     50  C   UNL     1      -7.952  -2.535  -1.206  1.00  0.00     0.037 A 
ATOM     51  C   UNL     1      -1.462  -2.506   2.651  1.00  0.00     0.037 A 
ATOM     52  C   UNL     1      -6.643  -3.114  -1.587  1.00  0.00     0.049 A 
ATOM     53  C   UNL     1      -1.873  -3.772   1.948  1.00  0.00     0.074 A 
ATOM     54  C   UNL     1      -5.727  -2.923  -2.602  1.00  0.00     0.029 A 
ATOM     55  N   UNL     1      -6.003  -3.976  -0.668  1.00  0.00    -0.354 N 
ATOM     56  N   UNL     1      -3.069  -3.977   1.431  1.00  0.00    -0.248 NA
ATOM     57  C   UNL     1      -0.880  -4.740   1.500  1.00  0.00     0.031 C 
ATOM     58  C   UNL     1      -4.549  -3.660  -2.284  1.00  0.00     0.029 A 
ATOM     59  C   UNL     1      -4.716  -4.282  -1.055  1.00  0.00     0.049 A 
ATOM     60  H   UNL     1      -6.426  -4.318   0.153  1.00  0.00     0.167 HD
ATOM     61  C   UNL     1      -2.977  -4.988   0.503  1.00  0.00     0.074 A 
ATOM     62  C   UNL     1      -1.592  -5.435   0.600  1.00  0.00     0.031 C 
ATOM     63  C   UNL     1      -3.932  -5.337  -0.417  1.00  0.00     0.037 A 
BRANCH  50  64
ATOM     64  C   UNL     1      -9.181  -2.458  -2.112  1.00  0.00     0.064 A 
ATOM     65  C   UNL     1      -9.066  -2.625  -3.512  1.00  0.00     0.173 A 
ATOM     66  C   UNL     1     -10.491  -2.131  -1.698  1.00  0.00     0.173 A 
ATOM     67  F   UNL     1      -7.910  -2.975  -4.087  1.00  0.00    -0.203 F 
ATOM     68  C   UNL     1     -10.135  -2.428  -4.401  1.00  0.00     0.198 A 
ATOM     69  C   UNL     1     -11.557  -1.924  -2.583  1.00  0.00     0.198 A 
ATOM     70  F   UNL     1     -10.832  -2.027  -0.416  1.00  0.00    -0.203 F 
ATOM     71  F   UNL     1      -9.941  -2.584  -5.718  1.00  0.00    -0.200 F 
ATOM     72  C   UNL     1     -11.379  -2.064  -3.937  1.00  0.00     0.200 A 
ATOM     73  F   UNL     1     -12.762  -1.588  -2.098  1.00  0.00    -0.200 F 
ATOM     74  F   UNL     1     -12.398  -1.863  -4.783  1.00  0.00    -0.200 F 
ENDBRANCH  50  64
BRANCH  51  75
ATOM     75  C   UNL     1      -1.097  -2.113   4.053  1.00  0.00     0.064 A 
ATOM     76  C   UNL     1      -0.244  -0.976   4.106  1.00  0.00     0.173 A 
ATOM     77  C   UNL     1      -1.984  -2.274   5.127  1.00  0.00     0.173 A 
ATOM     78  F   UNL     1       0.660  -0.783   3.131  1.00  0.00    -0.203 F 
ATOM     79  C   UNL     1      -0.484   0.077   4.991  1.00  0.00     0.198 A 
ATOM     80  C   UNL     1      -2.167  -1.240   6.061  1.00  0.00     0.198 A 
ATOM     81  F   UNL     1      -2.802  -3.334   5.177  1.00  0.00    -0.203 F 
ATOM     82  F   UNL     1       0.153   1.248   4.834  1.00  0.00    -0.200 F 
ATOM     83  C   UNL     1      -1.484  -0.037   5.936  1.00  0.00     0.200 A 
ATOM     84  F   UNL     1      -3.106  -1.355   7.013  1.00  0.00    -0.200 F 
ATOM     85  F   UNL     1      -1.838   1.028   6.673  1.00  0.00    -0.200 F 
ENDBRANCH  51  75
BRANCH  63  86
ATOM     86  C   UNL     1      -4.101  -6.742  -0.976  1.00  0.00     0.064 A 
ATOM     87  C   UNL     1      -3.407  -7.869  -0.508  1.00  0.00     0.173 A 
ATOM     88  C   UNL     1      -5.133  -7.027  -1.912  1.00  0.00     0.173 A 
ATOM     89  F   UNL     1      -2.505  -7.789   0.477  1.00  0.00    -0.203 F 
ATOM     90  C   UNL     1      -3.664  -9.153  -0.990  1.00  0.00     0.198 A 
ATOM     91  C   UNL     1      -5.415  -8.314  -2.357  1.00  0.00     0.198 A 
ATOM     92  F   UNL     1      -5.957  -6.084  -2.388  1.00  0.00    -0.203 F 
ATOM     93  F   UNL     1      -2.943 -10.183  -0.526  1.00  0.00    -0.200 F 
ATOM     94  C   UNL     1      -4.671  -9.377  -1.906  1.00  0.00     0.200 A 
ATOM     95  F   UNL     1      -6.439  -8.512  -3.200  1.00  0.00    -0.200 F 
ATOM     96  F   UNL     1      -4.947 -10.618  -2.323  1.00  0.00    -0.200 F 
ENDBRANCH  63  86
ENDBRANCH  37  38
ENDBRANCH  30  32
ENDBRANCH  29  30
ENDBRANCH  28  29
ENDBRANCH  27  28
ENDBRANCH  26  27
ENDBRANCH   1  26
TORSDOF 17
