REMARK SMILES O=C(OCCOCCOC(=O)c1cc(N2CCN(c3ccc(F)cc3)CC2)ccc1NC(=O)C1CCCC1)c1ccc(-c2c3nc(c(-c4c(F)c(F)c(F)c(F)c4F)c4ccc([nH]4)c(-c4c(F)c(F)c(F)c(F)c4F)c4nc(c(-c5c(F)c(F)c(F)c(F)c5F)c5ccc2[nH]5)C=C4)C=C3)cc1
REMARK SMILES IDX 6 1 5 2 4 3 3 4 2 5 1 6 39 7 40 8 101 9 41 10 100 11 42 12
REMARK SMILES IDX 43 13 44 14 94 15 45 16 99 17 93 18 95 19 46 20 98 21 92 22
REMARK SMILES IDX 91 23 47 25 79 26 59 27 78 28 60 29 63 30 77 31 96 32 61 33
REMARK SMILES IDX 62 34 76 36 97 37 64 38 48 39 49 40 57 41 50 42 51 43 55 44
REMARK SMILES IDX 58 45 52 46 53 47 56 48 54 49 80 50 81 51 89 52 82 53 83 54
REMARK SMILES IDX 87 55 90 56 84 57 85 58 88 59 86 60 65 61 66 62 74 63 67 64
REMARK SMILES IDX 68 65 72 66 75 67 69 68 70 69 73 70 71 71 7 72 8 73 9 74
REMARK SMILES IDX 10 75 11 76 12 77 13 78 30 79 14 80 29 81 28 82 31 83 32 84
REMARK SMILES IDX 33 86 34 87 35 88 38 89 36 90 37 91 15 92 16 93 27 94 17 95
REMARK SMILES IDX 26 96 18 97 19 98 20 99 25 100 21 101 24 102 22 103 23 104
REMARK H PARENT 95 24 63 35 31 85
REMARK Flexibility Score: inf
ROOT
ATOM      1  O   UNL     1       4.165  -1.398  -0.845  1.00  0.00    -0.374 OA
ENDROOT
BRANCH   1   2
ATOM      2  C   UNL     1       4.465  -1.391   0.552  1.00  0.00     0.202 C 
BRANCH   2   3
ATOM      3  C   UNL     1       4.205  -0.054   1.248  1.00  0.00     0.261 C 
BRANCH   3   4
ATOM      4  O   UNL     1       2.809   0.271   1.183  1.00  0.00    -0.460 OA
BRANCH   4   5
ATOM      5  C   UNL     1       2.179   1.072   0.296  1.00  0.00     0.338 C 
ATOM      6  O   UNL     1       0.955   1.169   0.358  1.00  0.00    -0.246 OA
BRANCH   5   7
ATOM      7  C   UNL     1       2.881   1.863  -0.758  1.00  0.00     0.060 A 
ATOM      8  C   UNL     1       4.069   1.490  -1.395  1.00  0.00     0.016 A 
ATOM      9  C   UNL     1       2.225   3.018  -1.213  1.00  0.00     0.016 A 
ATOM     10  C   UNL     1       4.599   2.220  -2.443  1.00  0.00     0.010 A 
ATOM     11  C   UNL     1       2.748   3.765  -2.268  1.00  0.00     0.010 A 
ATOM     12  C   UNL     1       3.940   3.360  -2.877  1.00  0.00    -0.014 A 
BRANCH  12  13
ATOM     13  C   UNL     1       4.615   4.200  -3.868  1.00  0.00     0.031 A 
ATOM     14  C   UNL     1       5.350   5.394  -3.365  1.00  0.00     0.074 A 
ATOM     15  C   UNL     1       4.632   3.826  -5.156  1.00  0.00     0.049 A 
ATOM     16  N   UNL     1       5.896   6.372  -4.028  1.00  0.00    -0.248 NA
ATOM     17  C   UNL     1       5.491   5.495  -1.902  1.00  0.00     0.031 C 
ATOM     18  C   UNL     1       4.064   2.583  -5.679  1.00  0.00     0.029 A 
ATOM     19  N   UNL     1       5.146   4.454  -6.254  1.00  0.00    -0.354 N 
ATOM     20  C   UNL     1       6.402   7.231  -3.064  1.00  0.00     0.074 A 
ATOM     21  C   UNL     1       6.109   6.657  -1.772  1.00  0.00     0.031 C 
ATOM     22  C   UNL     1       4.239   2.552  -7.010  1.00  0.00     0.029 A 
ATOM     23  C   UNL     1       4.861   3.804  -7.428  1.00  0.00     0.049 A 
ATOM     24  H   UNL     1       5.668   5.288  -6.209  1.00  0.00     0.167 HD
ATOM     25  C   UNL     1       7.032   8.410  -3.265  1.00  0.00     0.037 A 
ATOM     26  C   UNL     1       5.030   4.223  -8.695  1.00  0.00     0.037 A 
ATOM     27  C   UNL     1       7.281   8.936  -4.579  1.00  0.00     0.049 A 
ATOM     28  C   UNL     1       5.644   5.581  -8.902  1.00  0.00     0.074 A 
ATOM     29  C   UNL     1       7.857  10.136  -4.941  1.00  0.00     0.029 A 
ATOM     30  N   UNL     1       6.947   8.273  -5.757  1.00  0.00    -0.354 N 
ATOM     31  N   UNL     1       6.061   6.442  -8.000  1.00  0.00    -0.248 NA
ATOM     32  C   UNL     1       5.802   6.037 -10.286  1.00  0.00     0.031 C 
ATOM     33  C   UNL     1       7.816  10.226  -6.337  1.00  0.00     0.029 A 
ATOM     34  C   UNL     1       7.282   9.050  -6.849  1.00  0.00     0.049 A 
ATOM     35  H   UNL     1       6.532   7.382  -5.805  1.00  0.00     0.167 HD
ATOM     36  C   UNL     1       6.555   7.529  -8.703  1.00  0.00     0.074 A 
ATOM     37  C   UNL     1       6.383   7.218 -10.110  1.00  0.00     0.031 C 
ATOM     38  C   UNL     1       7.105   8.678  -8.234  1.00  0.00     0.037 A 
BRANCH  25  39
ATOM     39  C   UNL     1       7.365   9.216  -2.044  1.00  0.00     0.064 A 
ATOM     40  C   UNL     1       8.317   8.796  -1.102  1.00  0.00     0.173 A 
ATOM     41  C   UNL     1       6.645  10.388  -1.766  1.00  0.00     0.173 A 
ATOM     42  F   UNL     1       9.012   7.666  -1.301  1.00  0.00    -0.203 F 
ATOM     43  C   UNL     1       8.495   9.487   0.096  1.00  0.00     0.198 A 
ATOM     44  C   UNL     1       6.851  11.097  -0.585  1.00  0.00     0.198 A 
ATOM     45  F   UNL     1       5.716  10.833  -2.625  1.00  0.00    -0.203 F 
ATOM     46  F   UNL     1       9.341   9.014   1.021  1.00  0.00    -0.200 F 
ATOM     47  C   UNL     1       7.762  10.636   0.353  1.00  0.00     0.200 A 
ATOM     48  F   UNL     1       6.144  12.209  -0.341  1.00  0.00    -0.200 F 
ATOM     49  F   UNL     1       7.917  11.286   1.514  1.00  0.00    -0.200 F 
ENDBRANCH  25  39
BRANCH  26  50
ATOM     50  C   UNL     1       4.556   3.375  -9.819  1.00  0.00     0.064 A 
ATOM     51  C   UNL     1       5.454   2.768 -10.705  1.00  0.00     0.173 A 
ATOM     52  C   UNL     1       3.187   3.109  -9.998  1.00  0.00     0.173 A 
ATOM     53  F   UNL     1       6.769   3.001 -10.589  1.00  0.00    -0.203 F 
ATOM     54  C   UNL     1       5.004   1.929 -11.725  1.00  0.00     0.198 A 
ATOM     55  C   UNL     1       2.741   2.249 -10.998  1.00  0.00     0.198 A 
ATOM     56  F   UNL     1       2.283   3.662  -9.176  1.00  0.00    -0.203 F 
ATOM     57  F   UNL     1       5.883   1.379 -12.574  1.00  0.00    -0.200 F 
ATOM     58  C   UNL     1       3.649   1.661 -11.864  1.00  0.00     0.200 A 
ATOM     59  F   UNL     1       1.433   1.980 -11.115  1.00  0.00    -0.200 F 
ATOM     60  F   UNL     1       3.221   0.840 -12.832  1.00  0.00    -0.200 F 
ENDBRANCH  26  50
BRANCH  38  61
ATOM     61  C   UNL     1       7.615   9.655  -9.249  1.00  0.00     0.064 A 
ATOM     62  C   UNL     1       6.749  10.464  -9.995  1.00  0.00     0.173 A 
ATOM     63  C   UNL     1       8.997   9.855  -9.387  1.00  0.00     0.173 A 
ATOM     64  F   UNL     1       5.421  10.296  -9.905  1.00  0.00    -0.203 F 
ATOM     65  C   UNL     1       7.251  11.442 -10.847  1.00  0.00     0.198 A 
ATOM     66  C   UNL     1       9.493  10.855 -10.215  1.00  0.00     0.198 A 
ATOM     67  F   UNL     1       9.862   9.107  -8.684  1.00  0.00    -0.203 F 
ATOM     68  F   UNL     1       6.409  12.193 -11.571  1.00  0.00    -0.200 F 
ATOM     69  C   UNL     1       8.620  11.646 -10.945  1.00  0.00     0.200 A 
ATOM     70  F   UNL     1      10.815  11.063 -10.292  1.00  0.00    -0.200 F 
ATOM     71  F   UNL     1       9.099  12.610 -11.743  1.00  0.00    -0.200 F 
ENDBRANCH  38  61
ENDBRANCH  12  13
ENDBRANCH   5   7
ENDBRANCH   4   5
ENDBRANCH   3   4
ENDBRANCH   2   3
ENDBRANCH   1   2
BRANCH   1  72
ATOM     72  C   UNL     1       2.827  -1.748  -1.215  1.00  0.00     0.202 C 
BRANCH  72  73
ATOM     73  C   UNL     1       2.884  -2.893  -2.227  1.00  0.00     0.261 C 
BRANCH  73  74
ATOM     74  O   UNL     1       3.433  -4.029  -1.548  1.00  0.00    -0.460 OA
BRANCH  74  75
ATOM     75  C   UNL     1       4.793  -4.091  -1.503  1.00  0.00     0.340 C 
ATOM     76  O   UNL     1       5.559  -3.646  -2.332  1.00  0.00    -0.246 OA
BRANCH  75  77
ATOM     77  C   UNL     1       5.205  -4.603  -0.161  1.00  0.00     0.085 A 
ATOM     78  C   UNL     1       6.500  -4.270   0.267  1.00  0.00     0.043 A 
ATOM     79  C   UNL     1       4.371  -5.351   0.687  1.00  0.00     0.055 A 
ATOM     80  C   UNL     1       6.958  -4.603   1.547  1.00  0.00     0.038 A 
ATOM     81  C   UNL     1       4.816  -5.678   1.972  1.00  0.00     0.029 A 
ATOM     82  C   UNL     1       6.095  -5.297   2.397  1.00  0.00     0.028 A 
BRANCH  79  83
ATOM     83  N   UNL     1       3.096  -5.743   0.250  1.00  0.00    -0.325 N 
ATOM     84  C   UNL     1       2.545  -6.987   0.175  1.00  0.00     0.227 C 
ATOM     85  H   UNL     1       2.512  -5.008  -0.047  1.00  0.00     0.169 HD
ATOM     86  O   UNL     1       1.421  -7.089  -0.321  1.00  0.00    -0.274 OA
BRANCH  84  87
ATOM     87  C   UNL     1       3.321  -8.194   0.667  1.00  0.00     0.079 C 
ATOM     88  C   UNL     1       2.636  -9.508   0.285  1.00  0.00     0.013 C 
ATOM     89  C   UNL     1       4.691  -8.402   0.019  1.00  0.00     0.013 C 
ATOM     90  C   UNL     1       3.708 -10.562   0.537  1.00  0.00     0.001 C 
ATOM     91  C   UNL     1       5.043  -9.837   0.387  1.00  0.00     0.001 C 
ENDBRANCH  84  87
ENDBRANCH  79  83
BRANCH  80  92
ATOM     92  N   UNL     1       8.234  -4.258   1.920  1.00  0.00    -0.368 N 
ATOM     93  C   UNL     1       8.516  -3.395   3.077  1.00  0.00     0.138 C 
ATOM     94  C   UNL     1       9.365  -5.034   1.386  1.00  0.00     0.138 C 
ATOM     95  C   UNL     1       9.280  -4.143   4.198  1.00  0.00     0.138 C 
ATOM     96  C   UNL     1      10.087  -5.797   2.518  1.00  0.00     0.138 C 
ATOM     97  N   UNL     1      10.409  -4.907   3.644  1.00  0.00    -0.368 N 
BRANCH  97  98
ATOM     98  C   UNL     1      11.707  -4.609   3.996  1.00  0.00     0.037 A 
ATOM     99  C   UNL     1      12.091  -4.590   5.346  1.00  0.00     0.029 A 
ATOM    100  C   UNL     1      12.689  -4.327   3.035  1.00  0.00     0.029 A 
ATOM    101  C   UNL     1      13.410  -4.320   5.724  1.00  0.00     0.041 A 
ATOM    102  C   UNL     1      14.006  -4.037   3.406  1.00  0.00     0.041 A 
ATOM    103  C   UNL     1      14.355  -4.043   4.748  1.00  0.00     0.123 A 
ATOM    104  F   UNL     1      15.619  -3.779   5.105  1.00  0.00    -0.207 F 
ENDBRANCH  97  98
ENDBRANCH  80  92
ENDBRANCH  75  77
ENDBRANCH  74  75
ENDBRANCH  73  74
ENDBRANCH  72  73
ENDBRANCH   1  72
TORSDOF 18
