REMARK SMILES O=C(OCCOCCOC(=O)[C@H]1C[C@@H](O)C[N@H+]1Cc1ccccc1)c1ccc(-c2c3nc(c(-c4c(F)c(F)c(F)c(F)c4F)c4ccc([nH]4)c(-c4c(F)c(F)c(F)c(F)c4F)c4nc(c(-c5c(F)c(F)c(F)c(F)c5F)c5ccc2[nH]5)C=C4)C=C3)cc1
REMARK SMILES IDX 6 1 5 2 4 3 3 4 2 5 1 6 25 7 26 8 87 9 27 10 86 11 28 12
REMARK SMILES IDX 29 13 30 14 80 15 31 16 85 17 79 18 81 19 32 20 84 21 78 22
REMARK SMILES IDX 77 23 33 25 65 26 45 27 64 28 46 29 49 30 63 31 82 32 47 33
REMARK SMILES IDX 48 34 62 36 83 37 50 38 34 39 35 40 43 41 36 42 37 43 41 44
REMARK SMILES IDX 44 45 38 46 39 47 42 48 40 49 66 50 67 51 75 52 68 53 69 54
REMARK SMILES IDX 73 55 76 56 70 57 71 58 74 59 72 60 51 61 52 62 60 63 53 64
REMARK SMILES IDX 54 65 58 66 61 67 55 68 56 69 59 70 57 71 7 72 8 73 9 74
REMARK SMILES IDX 10 75 11 76 12 77 13 78 17 79 14 80 16 81 18 83 19 84 20 85
REMARK SMILES IDX 24 86 21 87 23 88 22 89 15 90
REMARK H PARENT 81 24 49 35 17 82 15 91
REMARK Flexibility Score: inf
ROOT
ATOM      1  O   UNL     1       2.363   1.753  -0.570  1.00  0.00    -0.374 OA
ENDROOT
BRANCH   1   2
ATOM      2  C   UNL     1       3.091   0.538  -0.599  1.00  0.00     0.202 C 
BRANCH   2   3
ATOM      3  C   UNL     1       2.403  -0.670   0.040  1.00  0.00     0.261 C 
BRANCH   3   4
ATOM      4  O   UNL     1       1.051  -0.399   0.457  1.00  0.00    -0.460 OA
BRANCH   4   5
ATOM      5  C   UNL     1       0.731   0.163   1.652  1.00  0.00     0.338 C 
ATOM      6  O   UNL     1      -0.431   0.350   1.995  1.00  0.00    -0.246 OA
BRANCH   5   7
ATOM      7  C   UNL     1       1.833   0.479   2.578  1.00  0.00     0.060 A 
ATOM      8  C   UNL     1       2.736   1.479   2.255  1.00  0.00     0.016 A 
ATOM      9  C   UNL     1       1.986  -0.220   3.770  1.00  0.00     0.016 A 
ATOM     10  C   UNL     1       3.922   1.603   2.948  1.00  0.00     0.010 A 
ATOM     11  C   UNL     1       3.052   0.111   4.616  1.00  0.00     0.010 A 
ATOM     12  C   UNL     1       4.044   1.024   4.206  1.00  0.00    -0.014 A 
BRANCH  12  13
ATOM     13  C   UNL     1       5.166   1.442   5.091  1.00  0.00     0.031 A 
ATOM     14  C   UNL     1       5.957   0.401   5.825  1.00  0.00     0.074 A 
ATOM     15  C   UNL     1       5.464   2.752   5.250  1.00  0.00     0.049 A 
ATOM     16  N   UNL     1       6.719   0.531   6.878  1.00  0.00    -0.248 NA
ATOM     17  C   UNL     1       5.843  -0.980   5.332  1.00  0.00     0.031 C 
ATOM     18  C   UNL     1       4.826   3.873   4.549  1.00  0.00     0.029 A 
ATOM     19  N   UNL     1       6.396   3.373   6.045  1.00  0.00    -0.354 N 
ATOM     20  C   UNL     1       7.081  -0.758   7.241  1.00  0.00     0.074 A 
ATOM     21  C   UNL     1       6.472  -1.655   6.282  1.00  0.00     0.031 C 
ATOM     22  C   UNL     1       5.446   5.016   4.861  1.00  0.00     0.029 A 
ATOM     23  C   UNL     1       6.395   4.744   5.923  1.00  0.00     0.049 A 
ATOM     24  H   UNL     1       7.007   2.885   6.643  1.00  0.00     0.167 HD
ATOM     25  C   UNL     1       7.834  -1.141   8.299  1.00  0.00     0.037 A 
ATOM     26  C   UNL     1       7.018   5.692   6.645  1.00  0.00     0.037 A 
ATOM     27  C   UNL     1       8.480  -0.208   9.187  1.00  0.00     0.049 A 
ATOM     28  C   UNL     1       7.826   5.245   7.827  1.00  0.00     0.074 A 
ATOM     29  C   UNL     1       9.268  -0.464  10.294  1.00  0.00     0.029 A 
ATOM     30  N   UNL     1       8.425   1.175   9.047  1.00  0.00    -0.354 N 
ATOM     31  N   UNL     1       8.074   4.026   8.244  1.00  0.00    -0.248 NA
ATOM     32  C   UNL     1       8.405   6.301   8.662  1.00  0.00     0.031 C 
ATOM     33  C   UNL     1       9.654   0.763  10.847  1.00  0.00     0.029 A 
ATOM     34  C   UNL     1       9.160   1.784  10.051  1.00  0.00     0.049 A 
ATOM     35  H   UNL     1       7.936   1.651   8.338  1.00  0.00     0.167 HD
ATOM     36  C   UNL     1       8.853   4.165   9.381  1.00  0.00     0.074 A 
ATOM     37  C   UNL     1       9.054   5.589   9.572  1.00  0.00     0.031 C 
ATOM     38  C   UNL     1       9.350   3.206  10.200  1.00  0.00     0.037 A 
BRANCH  25  39
ATOM     39  C   UNL     1       7.928  -2.614   8.587  1.00  0.00     0.064 A 
ATOM     40  C   UNL     1       8.590  -3.511   7.736  1.00  0.00     0.173 A 
ATOM     41  C   UNL     1       7.311  -3.142   9.734  1.00  0.00     0.173 A 
ATOM     42  F   UNL     1       9.181  -3.068   6.616  1.00  0.00    -0.203 F 
ATOM     43  C   UNL     1       8.588  -4.881   7.994  1.00  0.00     0.198 A 
ATOM     44  C   UNL     1       7.344  -4.507  10.009  1.00  0.00     0.198 A 
ATOM     45  F   UNL     1       6.663  -2.334  10.587  1.00  0.00    -0.203 F 
ATOM     46  F   UNL     1       9.158  -5.725   7.122  1.00  0.00    -0.200 F 
ATOM     47  C   UNL     1       7.969  -5.377   9.131  1.00  0.00     0.200 A 
ATOM     48  F   UNL     1       6.754  -4.981  11.115  1.00  0.00    -0.200 F 
ATOM     49  F   UNL     1       7.962  -6.696   9.372  1.00  0.00    -0.200 F 
ENDBRANCH  25  39
BRANCH  26  50
ATOM     50  C   UNL     1       6.843   7.135   6.318  1.00  0.00     0.064 A 
ATOM     51  C   UNL     1       7.932   7.910   5.895  1.00  0.00     0.173 A 
ATOM     52  C   UNL     1       5.595   7.772   6.410  1.00  0.00     0.173 A 
ATOM     53  F   UNL     1       9.153   7.359   5.813  1.00  0.00    -0.203 F 
ATOM     54  C   UNL     1       7.783   9.262   5.589  1.00  0.00     0.198 A 
ATOM     55  C   UNL     1       5.438   9.113   6.064  1.00  0.00     0.198 A 
ATOM     56  F   UNL     1       4.515   7.085   6.810  1.00  0.00    -0.203 F 
ATOM     57  F   UNL     1       8.852   9.988   5.236  1.00  0.00    -0.200 F 
ATOM     58  C   UNL     1       6.534   9.860   5.663  1.00  0.00     0.200 A 
ATOM     59  F   UNL     1       4.224   9.679   6.116  1.00  0.00    -0.200 F 
ATOM     60  F   UNL     1       6.389  11.157   5.358  1.00  0.00    -0.200 F 
ENDBRANCH  26  50
BRANCH  38  61
ATOM     61  C   UNL     1      10.212   3.676  11.332  1.00  0.00     0.064 A 
ATOM     62  C   UNL     1       9.677   4.349  12.440  1.00  0.00     0.173 A 
ATOM     63  C   UNL     1      11.593   3.433  11.309  1.00  0.00     0.173 A 
ATOM     64  F   UNL     1       8.365   4.625  12.496  1.00  0.00    -0.203 F 
ATOM     65  C   UNL     1      10.502   4.791  13.470  1.00  0.00     0.198 A 
ATOM     66  C   UNL     1      12.408   3.844  12.357  1.00  0.00     0.198 A 
ATOM     67  F   UNL     1      12.149   2.791  10.271  1.00  0.00    -0.203 F 
ATOM     68  F   UNL     1       9.981   5.487  14.491  1.00  0.00    -0.200 F 
ATOM     69  C   UNL     1      11.864   4.531  13.432  1.00  0.00     0.200 A 
ATOM     70  F   UNL     1      13.721   3.579  12.325  1.00  0.00    -0.200 F 
ATOM     71  F   UNL     1      12.656   4.952  14.428  1.00  0.00    -0.200 F 
ENDBRANCH  38  61
ENDBRANCH  12  13
ENDBRANCH   5   7
ENDBRANCH   4   5
ENDBRANCH   3   4
ENDBRANCH   2   3
ENDBRANCH   1   2
BRANCH   1  72
ATOM     72  C   UNL     1       1.501   1.961  -1.677  1.00  0.00     0.202 C 
BRANCH  72  73
ATOM     73  C   UNL     1       2.242   2.698  -2.790  1.00  0.00     0.261 C 
BRANCH  73  74
ATOM     74  O   UNL     1       3.181   1.830  -3.474  1.00  0.00    -0.459 OA
BRANCH  74  75
ATOM     75  C   UNL     1       4.497   2.193  -3.401  1.00  0.00     0.365 C 
ATOM     76  O   UNL     1       4.903   3.141  -2.736  1.00  0.00    -0.245 OA
BRANCH  75  77
ATOM     77  C   UNL     1       5.382   1.385  -4.362  1.00  0.00     0.298 C 
ATOM     78  C   UNL     1       6.767   2.020  -4.575  1.00  0.00     0.115 C 
ATOM     79  N   UNL     1       5.656  -0.040  -4.111  1.00  0.00    -0.317 N 
ATOM     80  C   UNL     1       7.752   0.864  -4.722  1.00  0.00     0.175 C 
ATOM     81  C   UNL     1       6.897  -0.393  -4.792  1.00  0.00     0.295 C 
ATOM     82  H   UNL     1       4.786  -0.429  -4.477  1.00  0.00     0.349 HD
BRANCH  79  83
ATOM     83  C   UNL     1       5.372  -0.787  -2.906  1.00  0.00     0.299 C 
BRANCH  83  84
ATOM     84  C   UNL     1       6.086  -0.493  -1.596  1.00  0.00     0.006 A 
ATOM     85  C   UNL     1       6.204  -1.536  -0.656  1.00  0.00     0.009 A 
ATOM     86  C   UNL     1       6.527   0.772  -1.189  1.00  0.00     0.009 A 
ATOM     87  C   UNL     1       6.737  -1.317   0.621  1.00  0.00     0.001 A 
ATOM     88  C   UNL     1       7.055   0.998   0.088  1.00  0.00     0.001 A 
ATOM     89  C   UNL     1       7.157  -0.046   0.996  1.00  0.00     0.000 A 
ENDBRANCH  83  84
ENDBRANCH  79  83
BRANCH  80  90
ATOM     90  O   UNL     1       8.655   0.833  -3.620  1.00  0.00    -0.387 OA
ATOM     91  H   UNL     1       8.153   0.746  -2.794  1.00  0.00     0.211 HD
ENDBRANCH  80  90
ENDBRANCH  75  77
ENDBRANCH  74  75
ENDBRANCH  73  74
ENDBRANCH  72  73
ENDBRANCH   1  72
TORSDOF 17
