REMARK SMILES [NH3+][C@H]1C=C[C@H](C(=O)N2CC[NH+](CC(=O)OCCOCCOC(=O)c3ccc(-c4c5nc(c(-c6c(F)c(F)c(F)c(F)c6F)c6ccc([nH]6)c(-c6c(F)c(F)c(F)c(F)c6F)c6nc(c(-c7c(F)c(F)c(F)c(F)c7F)c7ccc4[nH]7)C=C6)C=C5)cc3)CC2)C1
REMARK SMILES IDX 17 1 16 2 15 3 13 4 14 5 12 6 11 7 6 8 7 9 8 10 9 11 88 12
REMARK SMILES IDX 10 13 87 14 5 16 2 17 3 18 89 19 4 20 1 21 18 25 19 26 20 27
REMARK SMILES IDX 21 28 22 29 23 30 24 31 25 32 86 33 26 34 85 35 27 36 28 37
REMARK SMILES IDX 29 38 79 39 30 40 84 41 78 42 80 43 31 44 83 45 77 46 76 47
REMARK SMILES IDX 32 49 64 50 44 51 63 52 45 53 48 54 62 55 81 56 46 57 47 58
REMARK SMILES IDX 61 60 82 61 49 62 33 63 34 64 42 65 35 66 36 67 40 68 43 69
REMARK SMILES IDX 37 70 38 71 41 72 39 73 65 74 66 75 74 76 67 77 68 78 72 79
REMARK SMILES IDX 75 80 69 81 70 82 73 83 71 84 50 85 51 86 59 87 52 88 53 89
REMARK SMILES IDX 57 90 60 91 54 92 55 93 58 94 56 95
REMARK H PARENT 11 15 1 22 1 23 1 24 80 48 48 59
REMARK Flexibility Score: inf
ROOT
ATOM      1  C   UNL     1      -3.042   0.294   6.570  1.00  0.00     0.202 C 
ENDROOT
BRANCH   1   2
ATOM      2  C   UNL     1      -4.518   0.037   6.274  1.00  0.00     0.261 C 
BRANCH   2   3
ATOM      3  O   UNL     1      -5.036   0.910   5.245  1.00  0.00    -0.459 OA
BRANCH   3   4
ATOM      4  C   UNL     1      -5.888   1.886   5.668  1.00  0.00     0.361 C 
ATOM      5  O   UNL     1      -6.107   2.153   6.845  1.00  0.00    -0.245 OA
BRANCH   4   6
ATOM      6  C   UNL     1      -6.652   2.538   4.522  1.00  0.00     0.386 C 
BRANCH   6   7
ATOM      7  N   UNL     1      -5.842   3.062   3.435  1.00  0.00    -0.323 N 
ATOM      8  C   UNL     1      -1.864   3.685   1.951  1.00  0.00     0.230 C 
ATOM      9  O   UNL     1      -1.068   4.125   2.786  1.00  0.00    -0.274 OA
ATOM     10  N   UNL     1      -3.209   3.496   2.287  1.00  0.00    -0.331 N 
ATOM     11  C   UNL     1      -3.669   4.262   3.442  1.00  0.00     0.181 C 
ATOM     12  C   UNL     1      -3.884   2.205   2.103  1.00  0.00     0.181 C 
ATOM     13  C   UNL     1      -5.193   4.351   3.561  1.00  0.00     0.284 C 
ATOM     14  C   UNL     1      -5.410   2.218   2.341  1.00  0.00     0.284 C 
ATOM     15  H   UNL     1      -6.753   3.319   3.055  1.00  0.00     0.348 HD
BRANCH   8  16
ATOM     16  C   UNL     1      -1.466   3.520   0.471  1.00  0.00     0.107 C 
ATOM     17  C   UNL     1       0.269   1.855  -0.025  1.00  0.00     0.205 C 
ATOM     18  C   UNL     1       0.829   3.228  -0.064  1.00  0.00     0.033 C 
ATOM     19  C   UNL     1      -1.247   2.100  -0.051  1.00  0.00     0.087 C 
ATOM     20  C   UNL     1      -0.110   4.139   0.216  1.00  0.00    -0.012 C 
BRANCH  17  21
ATOM     21  N   UNL     1       0.685   1.025  -1.134  1.00  0.00    -0.352 N 
ATOM     22  H   UNL     1       1.694   0.880  -1.091  1.00  0.00     0.345 HD
ATOM     23  H   UNL     1       0.446   1.485  -2.012  1.00  0.00     0.345 HD
ATOM     24  H   UNL     1       0.209   0.124  -1.082  1.00  0.00     0.345 HD
ENDBRANCH  17  21
ENDBRANCH   8  16
ENDBRANCH   6   7
ENDBRANCH   4   6
ENDBRANCH   3   4
ENDBRANCH   2   3
ENDBRANCH   1   2
BRANCH   1  25
ATOM     25  O   UNL     1      -2.785   1.393   7.443  1.00  0.00    -0.374 OA
BRANCH  25  26
ATOM     26  C   UNL     1      -2.667   2.669   6.816  1.00  0.00     0.202 C 
BRANCH  26  27
ATOM     27  C   UNL     1      -1.291   2.943   6.190  1.00  0.00     0.261 C 
BRANCH  27  28
ATOM     28  O   UNL     1      -1.012   2.015   5.125  1.00  0.00    -0.460 OA
BRANCH  28  29
ATOM     29  C   UNL     1      -0.019   1.119   5.368  1.00  0.00     0.338 C 
ATOM     30  O   UNL     1       0.714   1.096   6.335  1.00  0.00    -0.246 OA
BRANCH  29  31
ATOM     31  C   UNL     1       0.012   0.063   4.314  1.00  0.00     0.060 A 
ATOM     32  C   UNL     1       0.768  -1.089   4.560  1.00  0.00     0.016 A 
ATOM     33  C   UNL     1      -0.663   0.180   3.097  1.00  0.00     0.016 A 
ATOM     34  C   UNL     1       0.925  -2.062   3.568  1.00  0.00     0.010 A 
ATOM     35  C   UNL     1      -0.523  -0.803   2.110  1.00  0.00     0.010 A 
ATOM     36  C   UNL     1       0.322  -1.897   2.318  1.00  0.00    -0.014 A 
BRANCH  36  37
ATOM     37  C   UNL     1       0.644  -2.817   1.203  1.00  0.00     0.031 A 
ATOM     38  C   UNL     1       1.842  -2.554   0.332  1.00  0.00     0.074 A 
ATOM     39  C   UNL     1      -0.162  -3.856   0.933  1.00  0.00     0.049 A 
ATOM     40  N   UNL     1       2.365  -3.294  -0.614  1.00  0.00    -0.248 NA
ATOM     41  C   UNL     1       2.521  -1.268   0.533  1.00  0.00     0.031 C 
ATOM     42  C   UNL     1      -1.411  -4.152   1.629  1.00  0.00     0.029 A 
ATOM     43  N   UNL     1      -0.045  -4.853  -0.001  1.00  0.00    -0.354 N 
ATOM     44  C   UNL     1       3.413  -2.549  -1.145  1.00  0.00     0.074 A 
ATOM     45  C   UNL     1       3.435  -1.291  -0.427  1.00  0.00     0.031 C 
ATOM     46  C   UNL     1      -1.940  -5.271   1.109  1.00  0.00     0.029 A 
ATOM     47  C   UNL     1      -1.052  -5.779   0.064  1.00  0.00     0.049 A 
ATOM     48  H   UNL     1       0.691  -4.899  -0.653  1.00  0.00     0.167 HD
ATOM     49  C   UNL     1       4.276  -2.892  -2.134  1.00  0.00     0.037 A 
ATOM     50  C   UNL     1      -1.215  -6.933  -0.612  1.00  0.00     0.037 A 
ATOM     51  C   UNL     1       4.264  -4.174  -2.797  1.00  0.00     0.049 A 
ATOM     52  C   UNL     1      -0.148  -7.386  -1.568  1.00  0.00     0.074 A 
ATOM     53  C   UNL     1       5.184  -4.694  -3.692  1.00  0.00     0.029 A 
ATOM     54  N   UNL     1       3.276  -5.136  -2.641  1.00  0.00    -0.354 N 
ATOM     55  N   UNL     1       0.931  -6.755  -1.963  1.00  0.00    -0.248 NA
ATOM     56  C   UNL     1      -0.298  -8.732  -2.138  1.00  0.00     0.031 C 
ATOM     57  C   UNL     1       4.727  -5.949  -4.114  1.00  0.00     0.029 A 
ATOM     58  C   UNL     1       3.556  -6.239  -3.433  1.00  0.00     0.049 A 
ATOM     59  H   UNL     1       2.490  -5.048  -2.054  1.00  0.00     0.167 HD
ATOM     60  C   UNL     1       1.599  -7.629  -2.810  1.00  0.00     0.074 A 
ATOM     61  C   UNL     1       0.813  -8.846  -2.854  1.00  0.00     0.031 C 
ATOM     62  C   UNL     1       2.760  -7.440  -3.486  1.00  0.00     0.037 A 
BRANCH  49  63
ATOM     63  C   UNL     1       5.309  -1.885  -2.568  1.00  0.00     0.064 A 
ATOM     64  C   UNL     1       6.334  -1.448  -1.714  1.00  0.00     0.173 A 
ATOM     65  C   UNL     1       5.315  -1.396  -3.886  1.00  0.00     0.173 A 
ATOM     66  F   UNL     1       6.388  -1.882  -0.445  1.00  0.00    -0.203 F 
ATOM     67  C   UNL     1       7.294  -0.534  -2.146  1.00  0.00     0.198 A 
ATOM     68  C   UNL     1       6.301  -0.515  -4.327  1.00  0.00     0.198 A 
ATOM     69  F   UNL     1       4.372  -1.786  -4.757  1.00  0.00    -0.203 F 
ATOM     70  F   UNL     1       8.225  -0.089  -1.290  1.00  0.00    -0.200 F 
ATOM     71  C   UNL     1       7.283  -0.076  -3.454  1.00  0.00     0.200 A 
ATOM     72  F   UNL     1       6.301  -0.094  -5.599  1.00  0.00    -0.200 F 
ATOM     73  F   UNL     1       8.216   0.791  -3.871  1.00  0.00    -0.200 F 
ENDBRANCH  49  63
BRANCH  50  74
ATOM     74  C   UNL     1      -2.387  -7.783  -0.292  1.00  0.00     0.064 A 
ATOM     75  C   UNL     1      -2.242  -8.928   0.504  1.00  0.00     0.173 A 
ATOM     76  C   UNL     1      -3.679  -7.423  -0.697  1.00  0.00     0.173 A 
ATOM     77  F   UNL     1      -1.022  -9.312   0.907  1.00  0.00    -0.203 F 
ATOM     78  C   UNL     1      -3.348  -9.685   0.881  1.00  0.00     0.198 A 
ATOM     79  C   UNL     1      -4.787  -8.168  -0.300  1.00  0.00     0.198 A 
ATOM     80  F   UNL     1      -3.868  -6.325  -1.443  1.00  0.00    -0.203 F 
ATOM     81  F   UNL     1      -3.181 -10.783   1.630  1.00  0.00    -0.200 F 
ATOM     82  C   UNL     1      -4.620  -9.299   0.487  1.00  0.00     0.200 A 
ATOM     83  F   UNL     1      -6.017  -7.781  -0.662  1.00  0.00    -0.200 F 
ATOM     84  F   UNL     1      -5.687 -10.012   0.873  1.00  0.00    -0.200 F 
ENDBRANCH  50  74
BRANCH  62  85
ATOM     85  C   UNL     1       3.260  -8.579  -4.329  1.00  0.00     0.064 A 
ATOM     86  C   UNL     1       2.612  -8.960  -5.513  1.00  0.00     0.173 A 
ATOM     87  C   UNL     1       4.421  -9.278  -3.963  1.00  0.00     0.173 A 
ATOM     88  F   UNL     1       1.493  -8.332  -5.903  1.00  0.00    -0.203 F 
ATOM     89  C   UNL     1       3.089 -10.019  -6.283  1.00  0.00     0.198 A 
ATOM     90  C   UNL     1       4.912 -10.316  -4.751  1.00  0.00     0.198 A 
ATOM     91  F   UNL     1       5.085  -8.950  -2.845  1.00  0.00    -0.203 F 
ATOM     92  F   UNL     1       2.424 -10.399  -7.382  1.00  0.00    -0.200 F 
ATOM     93  C   UNL     1       4.241 -10.692  -5.905  1.00  0.00     0.200 A 
ATOM     94  F   UNL     1       6.034 -10.956  -4.391  1.00  0.00    -0.200 F 
ATOM     95  F   UNL     1       4.700 -11.708  -6.648  1.00  0.00    -0.200 F 
ENDBRANCH  62  85
ENDBRANCH  36  37
ENDBRANCH  29  31
ENDBRANCH  28  29
ENDBRANCH  27  28
ENDBRANCH  26  27
ENDBRANCH  25  26
ENDBRANCH   1  25
TORSDOF 17
