REMARK SMILES Cc1cc(C(=O)OCCOCCOC(=O)c2ccc(-c3c4nc(c(-c5c(F)c(F)c(F)c(F)c5F)c5ccc([nH]5)c(-c5c(F)c(F)c(F)c(F)c5F)c5nc(c(-c6c(F)c(F)c(F)c(F)c6F)c6ccc3[nH]6)C=C5)C=C4)cc2)nn1[C@H]1CCS(=O)(=O)C1
REMARK SMILES IDX 11 1 10 2 9 3 8 4 7 5 5 6 6 7 4 8 1 9 2 10 3 11 80 12 79 13
REMARK SMILES IDX 81 14 82 15 87 16 83 17 84 18 85 19 86 20 12 21 13 22 14 23
REMARK SMILES IDX 15 24 16 25 17 26 78 27 18 28 77 29 19 30 20 31 21 32 71 33
REMARK SMILES IDX 22 34 76 35 70 36 72 37 23 38 75 39 69 40 68 41 24 43 56 44
REMARK SMILES IDX 36 45 55 46 37 47 40 48 54 49 73 50 38 51 39 52 53 54 74 55
REMARK SMILES IDX 41 56 25 57 26 58 34 59 27 60 28 61 32 62 35 63 29 64 30 65
REMARK SMILES IDX 33 66 31 67 57 68 58 69 66 70 59 71 60 72 64 73 67 74 61 75
REMARK SMILES IDX 62 76 65 77 63 78 42 79 43 80 51 81 44 82 45 83 49 84 52 85
REMARK SMILES IDX 46 86 47 87 50 88 48 89
REMARK H PARENT 72 42 40 53
REMARK Flexibility Score: inf
ROOT
ATOM      1  C   UNL     1       3.952   6.346  -4.893  1.00  0.00     0.202 C 
ENDROOT
BRANCH   1   2
ATOM      2  O   UNL     1       3.774   6.918  -6.184  1.00  0.00    -0.374 OA
BRANCH   2   3
ATOM      3  C   UNL     1       2.793   7.932  -6.393  1.00  0.00     0.202 C 
BRANCH   3   4
ATOM      4  C   UNL     1       1.317   7.528  -6.355  1.00  0.00     0.261 C 
BRANCH   4   5
ATOM      5  O   UNL     1       0.894   7.116  -5.046  1.00  0.00    -0.458 OA
BRANCH   5   6
ATOM      6  C   UNL     1       0.726   5.764  -4.893  1.00  0.00     0.358 C 
ATOM      7  O   UNL     1       0.823   4.951  -5.803  1.00  0.00    -0.244 OA
BRANCH   6   8
ATOM      8  C   UNL     1       0.523   5.391  -3.485  1.00  0.00     0.170 A 
ATOM      9  C   UNL     1      -0.858   5.564  -0.080  1.00  0.00     0.066 C 
ATOM     10  C   UNL     1      -0.147   5.314  -1.357  1.00  0.00     0.037 A 
ATOM     11  C   UNL     1      -0.078   6.149  -2.457  1.00  0.00     0.061 A 
ATOM     12  N   UNL     1       0.527   4.172  -1.718  1.00  0.00    -0.265 N 
ATOM     13  N   UNL     1       0.936   4.207  -3.002  1.00  0.00    -0.165 NA
BRANCH  12  14
ATOM     14  C   UNL     1       0.818   2.935  -1.013  1.00  0.00     0.123 C 
ATOM     15  C   UNL     1       2.313   2.771  -0.668  1.00  0.00     0.044 C 
ATOM     16  C   UNL     1       0.083   2.671   0.290  1.00  0.00     0.164 C 
ATOM     17  C   UNL     1       2.444   1.460   0.105  1.00  0.00     0.139 C 
ATOM     18  S   UNL     1       0.884   1.228   0.943  1.00  0.00     0.152 S 
ATOM     19  O   UNL     1       0.227   0.063   0.393  1.00  0.00    -0.229 OA
ATOM     20  O   UNL     1       1.071   1.417   2.366  1.00  0.00    -0.229 OA
ENDBRANCH  12  14
ENDBRANCH   6   8
ENDBRANCH   5   6
ENDBRANCH   4   5
ENDBRANCH   3   4
ENDBRANCH   2   3
ENDBRANCH   1   2
BRANCH   1  21
ATOM     21  C   UNL     1       4.606   7.196  -3.815  1.00  0.00     0.261 C 
BRANCH  21  22
ATOM     22  O   UNL     1       3.911   8.411  -3.598  1.00  0.00    -0.460 OA
BRANCH  22  23
ATOM     23  C   UNL     1       4.487   9.480  -4.196  1.00  0.00     0.338 C 
ATOM     24  O   UNL     1       5.317   9.481  -5.084  1.00  0.00    -0.246 OA
BRANCH  23  25
ATOM     25  C   UNL     1       4.079  10.679  -3.462  1.00  0.00     0.060 A 
ATOM     26  C   UNL     1       4.640  11.886  -3.886  1.00  0.00     0.016 A 
ATOM     27  C   UNL     1       3.464  10.533  -2.210  1.00  0.00     0.016 A 
ATOM     28  C   UNL     1       4.796  12.887  -2.958  1.00  0.00     0.010 A 
ATOM     29  C   UNL     1       3.655  11.514  -1.277  1.00  0.00     0.010 A 
ATOM     30  C   UNL     1       4.389  12.640  -1.645  1.00  0.00    -0.014 A 
BRANCH  30  31
ATOM     31  C   UNL     1       4.602  13.664  -0.650  1.00  0.00     0.031 A 
ATOM     32  C   UNL     1       3.620  14.759  -0.804  1.00  0.00     0.074 A 
ATOM     33  C   UNL     1       5.495  13.495   0.346  1.00  0.00     0.049 A 
ATOM     34  N   UNL     1       3.856  15.982  -1.140  1.00  0.00    -0.248 NA
ATOM     35  C   UNL     1       2.185  14.411  -0.800  1.00  0.00     0.031 C 
ATOM     36  C   UNL     1       6.273  12.283   0.635  1.00  0.00     0.029 A 
ATOM     37  N   UNL     1       5.816  14.319   1.384  1.00  0.00    -0.354 N 
ATOM     38  C   UNL     1       2.612  16.606  -1.113  1.00  0.00     0.074 A 
ATOM     39  C   UNL     1       1.626  15.567  -1.158  1.00  0.00     0.031 C 
ATOM     40  C   UNL     1       6.787  12.365   1.883  1.00  0.00     0.029 A 
ATOM     41  C   UNL     1       6.490  13.678   2.424  1.00  0.00     0.049 A 
ATOM     42  H   UNL     1       5.592  15.278   1.398  1.00  0.00     0.167 HD
ATOM     43  C   UNL     1       2.518  17.879  -0.644  1.00  0.00     0.037 A 
ATOM     44  C   UNL     1       6.718  14.192   3.658  1.00  0.00     0.037 A 
ATOM     45  C   UNL     1       3.810  18.514  -0.653  1.00  0.00     0.049 A 
ATOM     46  C   UNL     1       6.574  15.662   3.554  1.00  0.00     0.074 A 
ATOM     47  C   UNL     1       4.644  19.064  -1.600  1.00  0.00     0.029 A 
ATOM     48  N   UNL     1       4.572  18.222   0.447  1.00  0.00    -0.354 N 
ATOM     49  N   UNL     1       7.408  16.414   2.891  1.00  0.00    -0.248 NA
ATOM     50  C   UNL     1       5.289  16.279   3.872  1.00  0.00     0.031 C 
ATOM     51  C   UNL     1       5.964  18.991  -1.063  1.00  0.00     0.029 A 
ATOM     52  C   UNL     1       5.900  18.445   0.216  1.00  0.00     0.049 A 
ATOM     53  H   UNL     1       4.207  17.893   1.300  1.00  0.00     0.167 HD
ATOM     54  C   UNL     1       6.613  17.403   2.349  1.00  0.00     0.074 A 
ATOM     55  C   UNL     1       5.375  17.377   3.116  1.00  0.00     0.031 C 
ATOM     56  C   UNL     1       6.894  17.912   1.117  1.00  0.00     0.037 A 
BRANCH  43  57
ATOM     57  C   UNL     1       1.437  18.341   0.313  1.00  0.00     0.064 A 
ATOM     58  C   UNL     1       1.389  19.705   0.665  1.00  0.00     0.173 A 
ATOM     59  C   UNL     1       0.669  17.481   1.133  1.00  0.00     0.173 A 
ATOM     60  F   UNL     1       2.099  20.611  -0.023  1.00  0.00    -0.203 F 
ATOM     61  C   UNL     1       0.681  20.156   1.784  1.00  0.00     0.198 A 
ATOM     62  C   UNL     1      -0.076  17.942   2.215  1.00  0.00     0.198 A 
ATOM     63  F   UNL     1       0.692  16.150   1.005  1.00  0.00    -0.203 F 
ATOM     64  F   UNL     1       0.760  21.443   2.146  1.00  0.00    -0.200 F 
ATOM     65  C   UNL     1      -0.048  19.274   2.559  1.00  0.00     0.200 A 
ATOM     66  F   UNL     1      -0.753  17.062   2.968  1.00  0.00    -0.200 F 
ATOM     67  F   UNL     1      -0.681  19.693   3.662  1.00  0.00    -0.200 F 
ENDBRANCH  43  57
BRANCH  44  68
ATOM     68  C   UNL     1       6.795  13.510   4.972  1.00  0.00     0.064 A 
ATOM     69  C   UNL     1       7.368  14.148   6.086  1.00  0.00     0.173 A 
ATOM     70  C   UNL     1       6.038  12.353   5.233  1.00  0.00     0.173 A 
ATOM     71  F   UNL     1       8.076  15.275   5.928  1.00  0.00    -0.203 F 
ATOM     72  C   UNL     1       7.157  13.681   7.388  1.00  0.00     0.198 A 
ATOM     73  C   UNL     1       5.831  11.887   6.533  1.00  0.00     0.198 A 
ATOM     74  F   UNL     1       5.400  11.713   4.242  1.00  0.00    -0.203 F 
ATOM     75  F   UNL     1       7.659  14.358   8.431  1.00  0.00    -0.200 F 
ATOM     76  C   UNL     1       6.375  12.561   7.611  1.00  0.00     0.200 A 
ATOM     77  F   UNL     1       5.041  10.823   6.739  1.00  0.00    -0.200 F 
ATOM     78  F   UNL     1       6.109  12.157   8.861  1.00  0.00    -0.200 F 
ENDBRANCH  44  68
BRANCH  56  79
ATOM     79  C   UNL     1       8.297  17.771   0.623  1.00  0.00     0.064 A 
ATOM     80  C   UNL     1       8.898  16.553   0.268  1.00  0.00     0.173 A 
ATOM     81  C   UNL     1       9.040  18.943   0.440  1.00  0.00     0.173 A 
ATOM     82  F   UNL     1       8.220  15.401   0.351  1.00  0.00    -0.203 F 
ATOM     83  C   UNL     1      10.205  16.515  -0.216  1.00  0.00     0.198 A 
ATOM     84  C   UNL     1      10.328  18.906  -0.077  1.00  0.00     0.198 A 
ATOM     85  F   UNL     1       8.494  20.135   0.729  1.00  0.00    -0.203 F 
ATOM     86  F   UNL     1      10.771  15.341  -0.533  1.00  0.00    -0.200 F 
ATOM     87  C   UNL     1      10.915  17.692  -0.395  1.00  0.00     0.200 A 
ATOM     88  F   UNL     1      10.993  20.050  -0.286  1.00  0.00    -0.200 F 
ATOM     89  F   UNL     1      12.159  17.659  -0.892  1.00  0.00    -0.200 F 
ENDBRANCH  56  79
ENDBRANCH  30  31
ENDBRANCH  23  25
ENDBRANCH  22  23
ENDBRANCH  21  22
ENDBRANCH   1  21
TORSDOF 15
