REMARK SMILES CCc1ccc(OCC(=O)Nc2cc(C)c(O)c(C(=O)OCCOCCOC(=O)c3ccc(-c4c5nc(c(-c6c(F)c(F)c(F)c(F)c6F)c6ccc([nH]6)c(-c6c(F)c(F)c(F)c(F)c6F)c6nc(c(-c7c(F)c(F)c(F)c(F)c7F)c7ccc4[nH]7)C=C6)C=C5)cc3)c2)cc1
REMARK SMILES IDX 22 1 21 2 19 3 20 4 18 5 12 6 13 7 93 8 14 9 15 10 16 11
REMARK SMILES IDX 11 12 9 13 10 14 8 16 7 17 6 18 3 19 4 20 95 21 5 22 94 23
REMARK SMILES IDX 2 24 1 25 17 26 23 28 24 29 25 30 26 31 27 32 28 33 29 34
REMARK SMILES IDX 30 35 31 36 92 37 32 38 91 39 33 40 34 41 35 42 85 43 36 44
REMARK SMILES IDX 90 45 84 46 86 47 37 48 89 49 83 50 82 51 38 53 70 54 50 55
REMARK SMILES IDX 69 56 51 57 54 58 68 59 87 60 52 61 53 62 67 64 88 65 55 66
REMARK SMILES IDX 39 67 40 68 48 69 41 70 42 71 46 72 49 73 43 74 44 75 47 76
REMARK SMILES IDX 45 77 71 78 72 79 80 80 73 81 74 82 78 83 81 84 75 85 76 86
REMARK SMILES IDX 79 87 77 88 56 89 57 90 65 91 58 92 59 93 63 94 66 95 60 96
REMARK SMILES IDX 61 97 64 98 62 99
REMARK H PARENT 11 15 17 27 86 52 54 63
REMARK Flexibility Score: inf
ROOT
ATOM      1  C   UNL     1       5.699   4.354  -3.818  1.00  0.00     0.261 C 
ENDROOT
BRANCH   1   2
ATOM      2  O   UNL     1       4.476   5.096  -3.954  1.00  0.00    -0.460 OA
BRANCH   2   3
ATOM      3  C   UNL     1       4.337   5.782  -5.112  1.00  0.00     0.342 C 
ATOM      4  O   UNL     1       5.192   5.972  -5.963  1.00  0.00    -0.246 OA
BRANCH   3   5
ATOM      5  C   UNL     1       2.918   6.146  -5.335  1.00  0.00     0.104 A 
ATOM      6  C   UNL     1       0.690   6.587  -4.474  1.00  0.00     0.042 A 
ATOM      7  C   UNL     1       0.230   6.678  -5.796  1.00  0.00     0.033 A 
ATOM      8  C   UNL     1       2.030   6.288  -4.257  1.00  0.00     0.045 A 
ATOM      9  C   UNL     1       1.099   6.536  -6.892  1.00  0.00    -0.006 A 
ATOM     10  C   UNL     1       0.565   6.723  -8.284  1.00  0.00     0.048 C 
ATOM     11  C   UNL     1       2.453   6.294  -6.649  1.00  0.00     0.133 A 
BRANCH   6  12
ATOM     12  N   UNL     1      -0.265   6.792  -3.466  1.00  0.00    -0.323 N 
ATOM     13  C   UNL     1      -0.187   7.085  -2.135  1.00  0.00     0.262 C 
ATOM     14  O   UNL     1      -1.257   7.202  -1.524  1.00  0.00    -0.271 OA
ATOM     15  H   UNL     1      -1.191   6.706  -3.789  1.00  0.00     0.170 HD
BRANCH  13  16
ATOM     16  C   UNL     1       1.143   7.377  -1.420  1.00  0.00     0.329 C 
BRANCH  16  17
ATOM     17  O   UNL     1       2.008   6.304  -1.073  1.00  0.00    -0.484 OA
BRANCH  17  18
ATOM     18  C   UNL     1       1.414   5.234  -0.469  1.00  0.00     0.120 A 
ATOM     19  C   UNL     1       0.235   2.906   0.576  1.00  0.00    -0.048 A 
ATOM     20  C   UNL     1       1.341   2.822  -0.280  1.00  0.00     0.007 A 
ATOM     21  C   UNL     1      -0.220   4.177   0.952  1.00  0.00     0.007 A 
ATOM     22  C   UNL     1       1.928   3.981  -0.798  1.00  0.00     0.047 A 
ATOM     23  C   UNL     1       0.368   5.332   0.441  1.00  0.00     0.047 A 
BRANCH  19  24
ATOM     24  C   UNL     1      -0.477   1.711   1.163  1.00  0.00     0.032 C 
ATOM     25  C   UNL     1      -0.336   0.411   0.397  1.00  0.00     0.009 C 
ENDBRANCH  19  24
ENDBRANCH  17  18
ENDBRANCH  16  17
ENDBRANCH  13  16
ENDBRANCH   6  12
BRANCH  11  26
ATOM     26  O   UNL     1       3.282   6.179  -7.734  1.00  0.00    -0.507 OA
ATOM     27  H   UNL     1       2.938   6.284  -8.600  1.00  0.00     0.293 HD
ENDBRANCH  11  26
ENDBRANCH   3   5
ENDBRANCH   2   3
ENDBRANCH   1   2
BRANCH   1  28
ATOM     28  C   UNL     1       5.436   2.868  -4.068  1.00  0.00     0.202 C 
BRANCH  28  29
ATOM     29  O   UNL     1       5.090   2.563  -5.421  1.00  0.00    -0.374 OA
BRANCH  29  30
ATOM     30  C   UNL     1       3.690   2.546  -5.705  1.00  0.00     0.202 C 
BRANCH  30  31
ATOM     31  C   UNL     1       3.004   1.198  -5.461  1.00  0.00     0.261 C 
BRANCH  31  32
ATOM     32  O   UNL     1       3.044   0.819  -4.075  1.00  0.00    -0.460 OA
BRANCH  32  33
ATOM     33  C   UNL     1       4.024  -0.057  -3.740  1.00  0.00     0.338 C 
ATOM     34  O   UNL     1       4.836  -0.593  -4.469  1.00  0.00    -0.246 OA
BRANCH  33  35
ATOM     35  C   UNL     1       4.037  -0.188  -2.273  1.00  0.00     0.060 A 
ATOM     36  C   UNL     1       5.178   0.179  -1.551  1.00  0.00     0.016 A 
ATOM     37  C   UNL     1       2.930  -0.707  -1.617  1.00  0.00     0.016 A 
ATOM     38  C   UNL     1       5.200   0.050  -0.154  1.00  0.00     0.010 A 
ATOM     39  C   UNL     1       2.967  -0.835  -0.227  1.00  0.00     0.010 A 
ATOM     40  C   UNL     1       4.086  -0.449   0.536  1.00  0.00    -0.014 A 
BRANCH  40  41
ATOM     41  C   UNL     1       4.079  -0.646   2.024  1.00  0.00     0.031 A 
ATOM     42  C   UNL     1       3.706  -1.995   2.600  1.00  0.00     0.074 A 
ATOM     43  C   UNL     1       4.314   0.371   2.881  1.00  0.00     0.049 A 
ATOM     44  N   UNL     1       3.441  -2.332   3.839  1.00  0.00    -0.248 NA
ATOM     45  C   UNL     1       3.534  -3.095   1.639  1.00  0.00     0.031 C 
ATOM     46  C   UNL     1       4.606   1.756   2.512  1.00  0.00     0.029 A 
ATOM     47  N   UNL     1       4.333   0.391   4.260  1.00  0.00    -0.354 N 
ATOM     48  C   UNL     1       2.986  -3.644   3.784  1.00  0.00     0.074 A 
ATOM     49  C   UNL     1       2.949  -4.016   2.387  1.00  0.00     0.031 C 
ATOM     50  C   UNL     1       4.819   2.476   3.628  1.00  0.00     0.029 A 
ATOM     51  C   UNL     1       4.637   1.620   4.797  1.00  0.00     0.049 A 
ATOM     52  H   UNL     1       4.145  -0.404   4.810  1.00  0.00     0.167 HD
ATOM     53  C   UNL     1       2.668  -4.486   4.798  1.00  0.00     0.037 A 
ATOM     54  C   UNL     1       4.756   2.013   6.083  1.00  0.00     0.037 A 
ATOM     55  C   UNL     1       2.844  -4.181   6.192  1.00  0.00     0.049 A 
ATOM     56  C   UNL     1       4.519   1.024   7.198  1.00  0.00     0.074 A 
ATOM     57  C   UNL     1       2.683  -5.018   7.283  1.00  0.00     0.029 A 
ATOM     58  N   UNL     1       3.254  -2.954   6.686  1.00  0.00    -0.354 N 
ATOM     59  N   UNL     1       4.157  -0.234   7.131  1.00  0.00    -0.248 NA
ATOM     60  C   UNL     1       4.715   1.511   8.574  1.00  0.00     0.031 C 
ATOM     61  C   UNL     1       2.976  -4.292   8.441  1.00  0.00     0.029 A 
ATOM     62  C   UNL     1       3.357  -3.014   8.067  1.00  0.00     0.049 A 
ATOM     63  H   UNL     1       3.444  -2.158   6.138  1.00  0.00     0.167 HD
ATOM     64  C   UNL     1       4.118  -0.693   8.442  1.00  0.00     0.074 A 
ATOM     65  C   UNL     1       4.506   0.414   9.288  1.00  0.00     0.031 C 
ATOM     66  C   UNL     1       3.784  -1.923   8.902  1.00  0.00     0.037 A 
BRANCH  53  67
ATOM     67  C   UNL     1       2.133  -5.844   4.436  1.00  0.00     0.064 A 
ATOM     68  C   UNL     1       2.928  -6.808   3.796  1.00  0.00     0.173 A 
ATOM     69  C   UNL     1       0.812  -6.194   4.757  1.00  0.00     0.173 A 
ATOM     70  F   UNL     1       4.196  -6.525   3.464  1.00  0.00    -0.203 F 
ATOM     71  C   UNL     1       2.405  -8.047   3.440  1.00  0.00     0.198 A 
ATOM     72  C   UNL     1       0.306  -7.452   4.439  1.00  0.00     0.198 A 
ATOM     73  F   UNL     1       0.012  -5.319   5.385  1.00  0.00    -0.203 F 
ATOM     74  F   UNL     1       3.162  -8.920   2.761  1.00  0.00    -0.200 F 
ATOM     75  C   UNL     1       1.097  -8.371   3.768  1.00  0.00     0.200 A 
ATOM     76  F   UNL     1      -0.951  -7.772   4.776  1.00  0.00    -0.200 F 
ATOM     77  F   UNL     1       0.598  -9.568   3.429  1.00  0.00    -0.200 F 
ENDBRANCH  53  67
BRANCH  54  78
ATOM     78  C   UNL     1       5.161   3.408   6.411  1.00  0.00     0.064 A 
ATOM     79  C   UNL     1       6.420   3.671   6.974  1.00  0.00     0.173 A 
ATOM     80  C   UNL     1       4.293   4.492   6.226  1.00  0.00     0.173 A 
ATOM     81  F   UNL     1       7.276   2.663   7.198  1.00  0.00    -0.203 F 
ATOM     82  C   UNL     1       6.779   4.957   7.371  1.00  0.00     0.198 A 
ATOM     83  C   UNL     1       4.666   5.784   6.595  1.00  0.00     0.198 A 
ATOM     84  F   UNL     1       3.078   4.296   5.693  1.00  0.00    -0.203 F 
ATOM     85  F   UNL     1       7.961   5.166   7.967  1.00  0.00    -0.200 F 
ATOM     86  C   UNL     1       5.903   6.013   7.178  1.00  0.00     0.200 A 
ATOM     87  F   UNL     1       3.820   6.805   6.400  1.00  0.00    -0.200 F 
ATOM     88  F   UNL     1       6.245   7.249   7.568  1.00  0.00    -0.200 F 
ENDBRANCH  54  78
BRANCH  66  89
ATOM     89  C   UNL     1       3.884  -2.174  10.380  1.00  0.00     0.064 A 
ATOM     90  C   UNL     1       2.969  -1.623  11.288  1.00  0.00     0.173 A 
ATOM     91  C   UNL     1       4.872  -3.034  10.884  1.00  0.00     0.173 A 
ATOM     92  F   UNL     1       2.013  -0.785  10.859  1.00  0.00    -0.203 F 
ATOM     93  C   UNL     1       3.051  -1.909  12.649  1.00  0.00     0.198 A 
ATOM     94  C   UNL     1       4.933  -3.341  12.241  1.00  0.00     0.198 A 
ATOM     95  F   UNL     1       5.768  -3.594  10.057  1.00  0.00    -0.203 F 
ATOM     96  F   UNL     1       2.189  -1.341  13.504  1.00  0.00    -0.200 F 
ATOM     97  C   UNL     1       4.026  -2.774  13.123  1.00  0.00     0.200 A 
ATOM     98  F   UNL     1       5.867  -4.189  12.694  1.00  0.00    -0.200 F 
ATOM     99  F   UNL     1       4.094  -3.059  14.431  1.00  0.00    -0.200 F 
ENDBRANCH  66  89
ENDBRANCH  40  41
ENDBRANCH  33  35
ENDBRANCH  32  33
ENDBRANCH  31  32
ENDBRANCH  30  31
ENDBRANCH  29  30
ENDBRANCH  28  29
ENDBRANCH   1  28
TORSDOF 20
