REMARK SMILES O=C(CCn1cc(/C=C2/[NH+]=C(S)N(c3ccccc3)C2=O)c(-c2ccc(Br)cc2)n1)OCCOCCOC(=O)c1ccc(-c2c3nc(c(-c4c(F)c(F)c(F)c(F)c4F)c4ccc([nH]4)c(-c4c(F)c(F)c(F)c(F)c4F)c4nc(c(-c5c(F)c(F)c(F)c(F)c5F)c5ccc2[nH]5)C=C4)C=C3)cc1
REMARK SMILES IDX 33 1 32 2 31 3 2 4 1 5 3 6 4 7 5 8 6 9 30 10 7 11 22 12 8 13
REMARK SMILES IDX 9 14 10 15 20 16 11 17 13 19 21 20 12 21 14 23 15 24 19 25
REMARK SMILES IDX 16 26 18 27 17 28 23 29 24 30 29 31 25 32 28 33 26 34 27 35
REMARK SMILES IDX 34 36 35 37 36 38 37 39 38 40 39 41 40 42 41 43 102 44 42 45
REMARK SMILES IDX 101 46 43 47 44 48 45 49 95 50 46 51 100 52 94 53 96 54
REMARK SMILES IDX 47 55 99 56 93 57 92 58 48 60 80 61 60 62 79 63 61 64 64 65
REMARK SMILES IDX 78 66 97 67 62 68 63 69 77 71 98 72 65 73 49 74 50 75 58 76
REMARK SMILES IDX 51 77 52 78 56 79 59 80 53 81 54 82 57 83 55 84 81 85 82 86
REMARK SMILES IDX 90 87 83 88 84 89 88 90 91 91 85 92 86 93 89 94 87 95 66 96
REMARK SMILES IDX 67 97 75 98 68 99 69 100 73 101 76 102 70 103 71 104 74 105
REMARK SMILES IDX 72 106
REMARK H PARENT 10 18 12 22 96 59 64 70
REMARK Flexibility Score: inf
ROOT
ATOM      1  C   UNL     1       4.503  -1.004   0.897  1.00  0.00     0.202 C 
ENDROOT
BRANCH   1   2
ATOM      2  C   UNL     1       3.673   0.268   1.128  1.00  0.00     0.261 C 
BRANCH   2   3
ATOM      3  O   UNL     1       2.464   0.444   0.381  1.00  0.00    -0.463 OA
BRANCH   3   4
ATOM      4  C   UNL     1       2.450   0.840  -0.907  1.00  0.00     0.307 C 
ATOM      5  O   UNL     1       1.577   1.606  -1.310  1.00  0.00    -0.252 OA
BRANCH   4   6
ATOM      6  C   UNL     1       3.416   0.202  -1.862  1.00  0.00     0.146 C 
BRANCH   6   7
ATOM      7  C   UNL     1       4.405   1.189  -2.456  1.00  0.00     0.156 C 
BRANCH   7   8
ATOM      8  N   UNL     1       5.352   1.740  -1.502  1.00  0.00    -0.271 N 
ATOM      9  C   UNL     1       5.369   3.016  -1.022  1.00  0.00     0.117 A 
ATOM     10  N   UNL     1       6.271   0.944  -0.924  1.00  0.00    -0.172 NA
ATOM     11  C   UNL     1       6.292   3.022  -0.001  1.00  0.00     0.025 A 
ATOM     12  C   UNL     1       6.768   1.673   0.092  1.00  0.00     0.100 A 
BRANCH  11  13
ATOM     13  C   UNL     1       6.532   4.131   0.863  1.00  0.00     0.072 C 
ATOM     14  C   UNL     1       7.688   4.465   1.455  1.00  0.00     0.217 C 
ATOM     15  N   UNL     1       7.776   5.322   2.519  1.00  0.00    -0.228 N 
ATOM     16  C   UNL     1       9.030   3.859   1.212  1.00  0.00     0.386 C 
ATOM     17  C   UNL     1       8.956   5.084   3.011  1.00  0.00     0.321 C 
ATOM     18  H   UNL     1       7.104   5.968   2.837  1.00  0.00     0.313 HD
ATOM     19  N   UNL     1       9.721   4.143   2.370  1.00  0.00    -0.149 N 
ATOM     20  O   UNL     1       9.377   3.332   0.170  1.00  0.00    -0.236 OA
BRANCH  17  21
ATOM     21  S   UNL     1       9.481   6.051   4.350  1.00  0.00    -0.055 SA
ATOM     22  H   UNL     1       8.472   6.876   4.736  1.00  0.00     0.116 HD
ENDBRANCH  17  21
BRANCH  19  23
ATOM     23  C   UNL     1      10.959   3.516   2.729  1.00  0.00     0.137 A 
ATOM     24  C   UNL     1      11.454   3.509   4.043  1.00  0.00     0.052 A 
ATOM     25  C   UNL     1      11.710   2.794   1.783  1.00  0.00     0.052 A 
ATOM     26  C   UNL     1      12.673   2.898   4.374  1.00  0.00     0.004 A 
ATOM     27  C   UNL     1      12.915   2.159   2.112  1.00  0.00     0.004 A 
ATOM     28  C   UNL     1      13.408   2.230   3.405  1.00  0.00     0.000 A 
ENDBRANCH  19  23
ENDBRANCH  11  13
BRANCH  12  29
ATOM     29  C   UNL     1       7.555   1.055   1.175  1.00  0.00     0.003 A 
ATOM     30  C   UNL     1       7.252   1.344   2.519  1.00  0.00     0.011 A 
ATOM     31  C   UNL     1       8.644   0.219   0.900  1.00  0.00     0.011 A 
ATOM     32  C   UNL     1       8.068   0.885   3.558  1.00  0.00     0.016 A 
ATOM     33  C   UNL     1       9.458  -0.251   1.941  1.00  0.00     0.016 A 
ATOM     34  C   UNL     1       9.178   0.102   3.260  1.00  0.00     0.018 A 
ATOM     35  Br  UNL     1      10.321  -0.461   4.657  1.00  0.00    -0.051 Br
ENDBRANCH  12  29
ENDBRANCH   7   8
ENDBRANCH   6   7
ENDBRANCH   4   6
ENDBRANCH   3   4
ENDBRANCH   2   3
ENDBRANCH   1   2
BRANCH   1  36
ATOM     36  O   UNL     1       3.954  -2.161   0.276  1.00  0.00    -0.374 OA
BRANCH  36  37
ATOM     37  C   UNL     1       2.608  -2.557   0.468  1.00  0.00     0.202 C 
BRANCH  37  38
ATOM     38  C   UNL     1       2.328  -3.269   1.774  1.00  0.00     0.261 C 
BRANCH  38  39
ATOM     39  O   UNL     1       2.645  -2.394   2.841  1.00  0.00    -0.460 OA
BRANCH  39  40
ATOM     40  C   UNL     1       3.896  -2.552   3.341  1.00  0.00     0.338 C 
ATOM     41  O   UNL     1       4.713  -3.390   3.040  1.00  0.00    -0.246 OA
BRANCH  40  42
ATOM     42  C   UNL     1       4.080  -1.541   4.414  1.00  0.00     0.060 A 
ATOM     43  C   UNL     1       5.080  -1.927   5.299  1.00  0.00     0.016 A 
ATOM     44  C   UNL     1       2.919  -0.878   4.836  1.00  0.00     0.016 A 
ATOM     45  C   UNL     1       4.675  -2.165   6.584  1.00  0.00     0.010 A 
ATOM     46  C   UNL     1       2.498  -1.143   6.108  1.00  0.00     0.010 A 
ATOM     47  C   UNL     1       3.341  -1.897   6.915  1.00  0.00    -0.014 A 
BRANCH  47  48
ATOM     48  C   UNL     1       2.879  -2.340   8.201  1.00  0.00     0.031 A 
ATOM     49  C   UNL     1       3.346  -1.432   9.258  1.00  0.00     0.074 A 
ATOM     50  C   UNL     1       2.081  -3.406   8.369  1.00  0.00     0.049 A 
ATOM     51  N   UNL     1       4.309  -1.638  10.090  1.00  0.00    -0.248 NA
ATOM     52  C   UNL     1       2.872  -0.040   9.201  1.00  0.00     0.031 C 
ATOM     53  C   UNL     1       1.357  -4.189   7.367  1.00  0.00     0.029 A 
ATOM     54  N   UNL     1       1.686  -3.962   9.542  1.00  0.00    -0.354 N 
ATOM     55  C   UNL     1       4.409  -0.459  10.813  1.00  0.00     0.074 A 
ATOM     56  C   UNL     1       3.710   0.542  10.056  1.00  0.00     0.031 C 
ATOM     57  C   UNL     1       0.439  -4.965   7.994  1.00  0.00     0.029 A 
ATOM     58  C   UNL     1       0.604  -4.823   9.430  1.00  0.00     0.049 A 
ATOM     59  H   UNL     1       2.129  -3.770  10.400  1.00  0.00     0.167 HD
ATOM     60  C   UNL     1       4.764  -0.490  12.123  1.00  0.00     0.037 A 
ATOM     61  C   UNL     1      -0.139  -5.259  10.479  1.00  0.00     0.037 A 
ATOM     62  C   UNL     1       5.435  -1.730  12.443  1.00  0.00     0.049 A 
ATOM     63  C   UNL     1       0.681  -5.064  11.710  1.00  0.00     0.074 A 
ATOM     64  C   UNL     1       6.577  -2.358  11.983  1.00  0.00     0.029 A 
ATOM     65  N   UNL     1       4.711  -2.704  13.088  1.00  0.00    -0.354 N 
ATOM     66  N   UNL     1       1.767  -5.742  11.970  1.00  0.00    -0.248 NA
ATOM     67  C   UNL     1       0.571  -3.783  12.398  1.00  0.00     0.031 C 
ATOM     68  C   UNL     1       6.260  -3.749  11.965  1.00  0.00     0.029 A 
ATOM     69  C   UNL     1       4.967  -3.900  12.467  1.00  0.00     0.049 A 
ATOM     70  H   UNL     1       4.114  -2.568  13.859  1.00  0.00     0.167 HD
ATOM     71  C   UNL     1       2.651  -4.811  12.501  1.00  0.00     0.074 A 
ATOM     72  C   UNL     1       1.836  -3.638  12.803  1.00  0.00     0.031 C 
ATOM     73  C   UNL     1       4.001  -4.968  12.369  1.00  0.00     0.037 A 
BRANCH  60  74
ATOM     74  C   UNL     1       4.108   0.378  13.173  1.00  0.00     0.064 A 
ATOM     75  C   UNL     1       4.577   0.283  14.496  1.00  0.00     0.173 A 
ATOM     76  C   UNL     1       2.870   1.046  13.018  1.00  0.00     0.173 A 
ATOM     77  F   UNL     1       5.744  -0.321  14.765  1.00  0.00    -0.203 F 
ATOM     78  C   UNL     1       3.810   0.711  15.582  1.00  0.00     0.198 A 
ATOM     79  C   UNL     1       2.133   1.518  14.100  1.00  0.00     0.198 A 
ATOM     80  F   UNL     1       2.254   1.186  11.841  1.00  0.00    -0.203 F 
ATOM     81  F   UNL     1       4.234   0.466  16.828  1.00  0.00    -0.200 F 
ATOM     82  C   UNL     1       2.583   1.314  15.383  1.00  0.00     0.200 A 
ATOM     83  F   UNL     1       0.942   2.092  13.881  1.00  0.00    -0.200 F 
ATOM     84  F   UNL     1       1.812   1.655  16.423  1.00  0.00    -0.200 F 
ENDBRANCH  60  74
BRANCH  61  85
ATOM     85  C   UNL     1      -1.608  -5.454  10.524  1.00  0.00     0.064 A 
ATOM     86  C   UNL     1      -2.213  -6.162  11.575  1.00  0.00     0.173 A 
ATOM     87  C   UNL     1      -2.473  -4.718   9.689  1.00  0.00     0.173 A 
ATOM     88  F   UNL     1      -1.459  -6.846  12.448  1.00  0.00    -0.203 F 
ATOM     89  C   UNL     1      -3.597  -6.122  11.787  1.00  0.00     0.198 A 
ATOM     90  C   UNL     1      -3.852  -4.684   9.896  1.00  0.00     0.198 A 
ATOM     91  F   UNL     1      -1.989  -3.937   8.712  1.00  0.00    -0.203 F 
ATOM     92  F   UNL     1      -4.132  -6.762  12.835  1.00  0.00    -0.200 F 
ATOM     93  C   UNL     1      -4.413  -5.375  10.952  1.00  0.00     0.200 A 
ATOM     94  F   UNL     1      -4.624  -3.925   9.105  1.00  0.00    -0.200 F 
ATOM     95  F   UNL     1      -5.729  -5.288  11.189  1.00  0.00    -0.200 F 
ENDBRANCH  61  85
BRANCH  73  96
ATOM     96  C   UNL     1       4.502  -6.290  11.860  1.00  0.00     0.064 A 
ATOM     97  C   UNL     1       4.227  -6.791  10.575  1.00  0.00     0.173 A 
ATOM     98  C   UNL     1       5.410  -7.006  12.650  1.00  0.00     0.173 A 
ATOM     99  F   UNL     1       3.450  -6.109   9.723  1.00  0.00    -0.203 F 
ATOM    100  C   UNL     1       4.801  -7.979  10.124  1.00  0.00     0.198 A 
ATOM    101  C   UNL     1       6.011  -8.172  12.184  1.00  0.00     0.198 A 
ATOM    102  F   UNL     1       5.753  -6.545  13.863  1.00  0.00    -0.203 F 
ATOM    103  F   UNL     1       4.514  -8.443   8.899  1.00  0.00    -0.200 F 
ATOM    104  C   UNL     1       5.698  -8.664  10.927  1.00  0.00     0.200 A 
ATOM    105  F   UNL     1       6.915  -8.804  12.944  1.00  0.00    -0.200 F 
ATOM    106  F   UNL     1       6.283  -9.784  10.479  1.00  0.00    -0.200 F 
ENDBRANCH  73  96
ENDBRANCH  47  48
ENDBRANCH  40  42
ENDBRANCH  39  40
ENDBRANCH  38  39
ENDBRANCH  37  38
ENDBRANCH  36  37
ENDBRANCH   1  36
TORSDOF 20
