REMARK SMILES CCCn1ccnc1C[N@@H+]1C[C@@H](C(=O)OCCOCCOC(=O)c2ccc(-c3c4nc(c(-c5c(F)c(F)c(F)c(F)c5F)c5ccc([nH]5)c(-c5c(F)c(F)c(F)c(F)c5F)c5nc(c(-c6c(F)c(F)c(F)c(F)c6F)c6ccc3[nH]6)C=C5)C=C4)cc2)[C@H](c2ccccc2)C1
REMARK SMILES IDX 17 1 16 2 15 3 13 4 14 5 12 6 10 7 11 8 94 9 87 11 9 12 8 13
REMARK SMILES IDX 4 14 5 15 6 16 7 17 3 18 2 19 1 20 88 21 89 22 93 23 90 24
REMARK SMILES IDX 92 25 91 26 18 27 19 28 20 29 21 30 22 31 23 32 24 33 25 34
REMARK SMILES IDX 86 35 26 36 85 37 27 38 28 39 29 40 79 41 30 42 84 43 78 44
REMARK SMILES IDX 80 45 31 46 83 47 77 48 76 49 32 51 64 52 44 53 63 54 45 55
REMARK SMILES IDX 48 56 62 57 81 58 46 59 47 60 61 62 82 63 49 64 33 65 34 66
REMARK SMILES IDX 42 67 35 68 36 69 40 70 43 71 37 72 38 73 41 74 39 75 65 76
REMARK SMILES IDX 66 77 74 78 67 79 68 80 72 81 75 82 69 83 70 84 73 85 71 86
REMARK SMILES IDX 50 87 51 88 59 89 52 90 53 91 57 92 60 93 54 94 55 95 58 96
REMARK SMILES IDX 56 97
REMARK H PARENT 10 10 80 50 48 61
REMARK Flexibility Score: inf
ROOT
ATOM      1  C   UNL     1      -6.027   2.565   4.669  1.00  0.00     0.202 C 
ENDROOT
BRANCH   1   2
ATOM      2  C   UNL     1      -5.542   3.167   3.350  1.00  0.00     0.261 C 
BRANCH   2   3
ATOM      3  O   UNL     1      -4.601   2.280   2.724  1.00  0.00    -0.463 OA
BRANCH   3   4
ATOM      4  C   UNL     1      -3.311   2.692   2.722  1.00  0.00     0.315 C 
ATOM      5  O   UNL     1      -2.959   3.811   3.071  1.00  0.00    -0.252 OA
BRANCH   4   6
ATOM      6  C   UNL     1      -2.364   1.538   2.419  1.00  0.00     0.167 C 
ATOM      7  N   UNL     1      -0.153   1.469   1.448  1.00  0.00    -0.327 N 
ATOM      8  C   UNL     1      -0.954   2.137   2.457  1.00  0.00     0.278 C 
ATOM      9  C   UNL     1      -1.088   0.925   0.464  1.00  0.00     0.272 C 
ATOM     10  H   UNL     1       0.460   2.111   0.945  1.00  0.00     0.348 HD
ATOM     11  C   UNL     1      -2.529   0.902   1.032  1.00  0.00     0.094 C 
BRANCH   7  12
ATOM     12  C   UNL     1       0.877   0.585   2.006  1.00  0.00     0.339 C 
BRANCH  12  13
ATOM     13  C   UNL     1       0.403  -0.749   2.474  1.00  0.00     0.164 A 
ATOM     14  N   UNL     1       0.588  -1.942   1.800  1.00  0.00    -0.330 N 
ATOM     15  C   UNL     1       0.033  -2.925   2.595  1.00  0.00     0.107 A 
ATOM     16  C   UNL     1      -0.417  -2.290   3.724  1.00  0.00     0.131 A 
ATOM     17  N   UNL     1      -0.208  -0.948   3.630  1.00  0.00    -0.236 NA
BRANCH  14  18
ATOM     18  C   UNL     1       1.437  -2.243   0.654  1.00  0.00     0.123 C 
BRANCH  18  19
ATOM     19  C   UNL     1       1.066  -1.769  -0.763  1.00  0.00     0.018 C 
ATOM     20  C   UNL     1       1.699  -0.459  -1.215  1.00  0.00     0.006 C 
ENDBRANCH  18  19
ENDBRANCH  14  18
ENDBRANCH  12  13
ENDBRANCH   7  12
BRANCH  11  21
ATOM     21  C   UNL     1      -3.296  -0.438   0.962  1.00  0.00    -0.038 A 
ATOM     22  C   UNL     1      -2.756  -1.621   0.432  1.00  0.00     0.004 A 
ATOM     23  C   UNL     1      -4.651  -0.508   1.324  1.00  0.00     0.004 A 
ATOM     24  C   UNL     1      -3.508  -2.790   0.249  1.00  0.00     0.000 A 
ATOM     25  C   UNL     1      -5.417  -1.672   1.139  1.00  0.00     0.000 A 
ATOM     26  C   UNL     1      -4.847  -2.815   0.599  1.00  0.00     0.000 A 
ENDBRANCH  11  21
ENDBRANCH   4   6
ENDBRANCH   3   4
ENDBRANCH   2   3
ENDBRANCH   1   2
BRANCH   1  27
ATOM     27  O   UNL     1      -5.108   2.580   5.764  1.00  0.00    -0.374 OA
BRANCH  27  28
ATOM     28  C   UNL     1      -4.005   1.679   5.765  1.00  0.00     0.202 C 
BRANCH  28  29
ATOM     29  C   UNL     1      -4.290   0.214   6.047  1.00  0.00     0.261 C 
BRANCH  29  30
ATOM     30  O   UNL     1      -5.192  -0.352   5.111  1.00  0.00    -0.460 OA
BRANCH  30  31
ATOM     31  C   UNL     1      -6.448  -0.512   5.590  1.00  0.00     0.338 C 
ATOM     32  O   UNL     1      -6.985   0.090   6.496  1.00  0.00    -0.246 OA
BRANCH  31  33
ATOM     33  C   UNL     1      -7.031  -1.679   4.926  1.00  0.00     0.060 A 
ATOM     34  C   UNL     1      -8.377  -1.956   5.166  1.00  0.00     0.016 A 
ATOM     35  C   UNL     1      -6.187  -2.594   4.278  1.00  0.00     0.016 A 
ATOM     36  C   UNL     1      -8.837  -3.227   4.896  1.00  0.00     0.010 A 
ATOM     37  C   UNL     1      -6.650  -3.850   3.991  1.00  0.00     0.010 A 
ATOM     38  C   UNL     1      -7.941  -4.176   4.383  1.00  0.00    -0.014 A 
BRANCH  38  39
ATOM     39  C   UNL     1      -8.413  -5.521   4.144  1.00  0.00     0.031 A 
ATOM     40  C   UNL     1      -9.426  -5.570   3.069  1.00  0.00     0.074 A 
ATOM     41  C   UNL     1      -7.882  -6.593   4.764  1.00  0.00     0.049 A 
ATOM     42  N   UNL     1     -10.681  -5.838   3.196  1.00  0.00    -0.248 NA
ATOM     43  C   UNL     1      -9.051  -5.069   1.736  1.00  0.00     0.031 C 
ATOM     44  C   UNL     1      -6.708  -6.654   5.637  1.00  0.00     0.029 A 
ATOM     45  N   UNL     1      -8.251  -7.898   4.666  1.00  0.00    -0.354 N 
ATOM     46  C   UNL     1     -11.211  -5.759   1.915  1.00  0.00     0.074 A 
ATOM     47  C   UNL     1     -10.227  -5.090   1.107  1.00  0.00     0.031 C 
ATOM     48  C   UNL     1      -6.333  -7.944   5.799  1.00  0.00     0.029 A 
ATOM     49  C   UNL     1      -7.316  -8.802   5.164  1.00  0.00     0.049 A 
ATOM     50  H   UNL     1      -9.109  -8.180   4.275  1.00  0.00     0.167 HD
ATOM     51  C   UNL     1     -12.285  -6.523   1.579  1.00  0.00     0.037 A 
ATOM     52  C   UNL     1      -7.351 -10.150   4.990  1.00  0.00     0.037 A 
ATOM     53  C   UNL     1     -12.998  -6.947   2.762  1.00  0.00     0.049 A 
ATOM     54  C   UNL     1      -8.751 -10.504   4.627  1.00  0.00     0.074 A 
ATOM     55  C   UNL     1     -13.616  -6.283   3.806  1.00  0.00     0.029 A 
ATOM     56  N   UNL     1     -12.794  -8.229   3.209  1.00  0.00    -0.354 N 
ATOM     57  N   UNL     1      -9.753 -10.412   5.455  1.00  0.00    -0.248 NA
ATOM     58  C   UNL     1      -9.099 -10.479   3.213  1.00  0.00     0.031 C 
ATOM     59  C   UNL     1     -13.301  -7.046   4.969  1.00  0.00     0.029 A 
ATOM     60  C   UNL     1     -12.590  -8.175   4.564  1.00  0.00     0.049 A 
ATOM     61  H   UNL     1     -12.794  -9.043   2.655  1.00  0.00     0.167 HD
ATOM     62  C   UNL     1     -10.783  -9.875   4.697  1.00  0.00     0.074 A 
ATOM     63  C   UNL     1     -10.340  -9.995   3.309  1.00  0.00     0.031 C 
ATOM     64  C   UNL     1     -11.754  -9.110   5.276  1.00  0.00     0.037 A 
BRANCH  51  65
ATOM     65  C   UNL     1     -12.414  -7.239   0.255  1.00  0.00     0.064 A 
ATOM     66  C   UNL     1     -13.585  -7.982   0.005  1.00  0.00     0.173 A 
ATOM     67  C   UNL     1     -11.336  -7.495  -0.623  1.00  0.00     0.173 A 
ATOM     68  F   UNL     1     -14.669  -7.830   0.781  1.00  0.00    -0.203 F 
ATOM     69  C   UNL     1     -13.633  -8.975  -0.976  1.00  0.00     0.198 A 
ATOM     70  C   UNL     1     -11.407  -8.449  -1.635  1.00  0.00     0.198 A 
ATOM     71  F   UNL     1     -10.135  -6.926  -0.480  1.00  0.00    -0.203 F 
ATOM     72  F   UNL     1     -14.719  -9.752  -1.079  1.00  0.00    -0.200 F 
ATOM     73  C   UNL     1     -12.541  -9.215  -1.788  1.00  0.00     0.200 A 
ATOM     74  F   UNL     1     -10.329  -8.677  -2.398  1.00  0.00    -0.200 F 
ATOM     75  F   UNL     1     -12.560 -10.212  -2.681  1.00  0.00    -0.200 F 
ENDBRANCH  51  65
BRANCH  52  76
ATOM     76  C   UNL     1      -6.230 -11.100   4.775  1.00  0.00     0.064 A 
ATOM     77  C   UNL     1      -6.451 -12.489   4.808  1.00  0.00     0.173 A 
ATOM     78  C   UNL     1      -5.001 -10.680   4.231  1.00  0.00     0.173 A 
ATOM     79  F   UNL     1      -7.610 -12.977   5.274  1.00  0.00    -0.203 F 
ATOM     80  C   UNL     1      -5.522 -13.397   4.287  1.00  0.00     0.198 A 
ATOM     81  C   UNL     1      -4.072 -11.587   3.717  1.00  0.00     0.198 A 
ATOM     82  F   UNL     1      -4.718  -9.377   4.093  1.00  0.00    -0.203 F 
ATOM     83  F   UNL     1      -5.804 -14.707   4.269  1.00  0.00    -0.200 F 
ATOM     84  C   UNL     1      -4.340 -12.943   3.728  1.00  0.00     0.200 A 
ATOM     85  F   UNL     1      -2.947 -11.133   3.146  1.00  0.00    -0.200 F 
ATOM     86  F   UNL     1      -3.482 -13.804   3.163  1.00  0.00    -0.200 F 
ENDBRANCH  52  76
BRANCH  64  87
ATOM     87  C   UNL     1     -11.826  -9.079   6.778  1.00  0.00     0.064 A 
ATOM     88  C   UNL     1     -10.807  -8.589   7.614  1.00  0.00     0.173 A 
ATOM     89  C   UNL     1     -13.040  -9.430   7.382  1.00  0.00     0.173 A 
ATOM     90  F   UNL     1      -9.651  -8.142   7.105  1.00  0.00    -0.203 F 
ATOM     91  C   UNL     1     -10.987  -8.497   8.994  1.00  0.00     0.198 A 
ATOM     92  C   UNL     1     -13.231  -9.300   8.754  1.00  0.00     0.198 A 
ATOM     93  F   UNL     1     -14.066  -9.856   6.628  1.00  0.00    -0.203 F 
ATOM     94  F   UNL     1      -9.996  -8.037   9.774  1.00  0.00    -0.200 F 
ATOM     95  C   UNL     1     -12.202  -8.845   9.561  1.00  0.00     0.200 A 
ATOM     96  F   UNL     1     -14.424  -9.592   9.289  1.00  0.00    -0.200 F 
ATOM     97  F   UNL     1     -12.391  -8.717  10.882  1.00  0.00    -0.200 F 
ENDBRANCH  64  87
ENDBRANCH  38  39
ENDBRANCH  31  33
ENDBRANCH  30  31
ENDBRANCH  29  30
ENDBRANCH  28  29
ENDBRANCH  27  28
ENDBRANCH   1  27
TORSDOF 19
