REMARK SMILES COc1cnc(SCC(=O)OCCOCCOC(=O)c2ccc(-c3c4nc(c(-c5c(F)c(F)c(F)c(F)c5F)c5ccc([nH]5)c(-c5c(F)c(F)c(F)c(F)c5F)c5nc(c(-c6c(F)c(F)c(F)c(F)c6F)c6ccc3[nH]6)C=C5)C=C4)cc2)[nH]c1=O
REMARK SMILES IDX 13 1 12 2 11 3 9 4 10 5 8 6 7 7 6 8 3 9 4 10 84 11 5 12
REMARK SMILES IDX 83 13 85 14 2 16 1 17 14 18 15 19 16 20 17 21 18 22 19 23
REMARK SMILES IDX 20 24 21 25 82 26 22 27 81 28 23 29 24 30 25 31 75 32 26 33
REMARK SMILES IDX 80 34 74 35 76 36 27 37 79 38 73 39 72 40 28 42 60 43 40 44
REMARK SMILES IDX 59 45 41 46 44 47 58 48 77 49 42 50 43 51 57 53 78 54 45 55
REMARK SMILES IDX 29 56 30 57 38 58 31 59 32 60 36 61 39 62 33 63 34 64 37 65
REMARK SMILES IDX 35 66 61 67 62 68 70 69 63 70 64 71 68 72 71 73 65 74 66 75
REMARK SMILES IDX 69 76 67 77 46 78 47 79 55 80 48 81 49 82 53 83 56 84 50 85
REMARK SMILES IDX 51 86 54 87 52 88
REMARK H PARENT 83 15 76 41 44 52
REMARK Flexibility Score: inf
ROOT
ATOM      1  C   UNL     1      -0.730   0.963   8.128  1.00  0.00     0.202 C 
ENDROOT
BRANCH   1   2
ATOM      2  C   UNL     1      -0.315  -0.335   8.829  1.00  0.00     0.261 C 
BRANCH   2   3
ATOM      3  O   UNL     1       0.414  -1.231   7.966  1.00  0.00    -0.463 OA
BRANCH   3   4
ATOM      4  C   UNL     1      -0.062  -2.504   7.897  1.00  0.00     0.316 C 
ATOM      5  O   UNL     1      -1.018  -2.913   8.553  1.00  0.00    -0.251 OA
BRANCH   4   6
ATOM      6  C   UNL     1       0.671  -3.428   6.947  1.00  0.00     0.200 C 
BRANCH   6   7
ATOM      7  S   UNL     1       2.165  -2.775   6.161  1.00  0.00    -0.076 SA
BRANCH   7   8
ATOM      8  C   UNL     1       1.570  -2.247   4.620  1.00  0.00     0.168 A 
ATOM      9  C   UNL     1       0.878  -1.188   2.187  1.00  0.00     0.202 A 
ATOM     10  C   UNL     1       0.040  -1.848   3.002  1.00  0.00     0.166 A 
ATOM     11  C   UNL     1       2.297  -1.099   2.652  1.00  0.00     0.293 A 
ATOM     12  N   UNL     1       0.353  -2.397   4.224  1.00  0.00    -0.229 NA
ATOM     13  N   UNL     1       2.539  -1.647   3.881  1.00  0.00    -0.298 N 
ATOM     14  O   UNL     1       3.197  -0.559   2.019  1.00  0.00    -0.265 OA
ATOM     15  H   UNL     1       3.453  -1.606   4.245  1.00  0.00     0.172 HD
BRANCH   9  16
ATOM     16  O   UNL     1       0.371  -0.509   1.094  1.00  0.00    -0.490 OA
ATOM     17  C   UNL     1       1.181  -0.484  -0.072  1.00  0.00     0.278 C 
ENDBRANCH   9  16
ENDBRANCH   7   8
ENDBRANCH   6   7
ENDBRANCH   4   6
ENDBRANCH   3   4
ENDBRANCH   2   3
ENDBRANCH   1   2
BRANCH   1  18
ATOM     18  O   UNL     1      -1.615   0.820   7.018  1.00  0.00    -0.374 OA
BRANCH  18  19
ATOM     19  C   UNL     1      -1.070   0.274   5.817  1.00  0.00     0.202 C 
BRANCH  19  20
ATOM     20  C   UNL     1      -0.130   1.201   5.043  1.00  0.00     0.261 C 
BRANCH  20  21
ATOM     21  O   UNL     1       1.063   1.508   5.782  1.00  0.00    -0.460 OA
BRANCH  21  22
ATOM     22  C   UNL     1       1.373   2.823   5.787  1.00  0.00     0.338 C 
ATOM     23  O   UNL     1       0.850   3.712   5.114  1.00  0.00    -0.246 OA
BRANCH  22  24
ATOM     24  C   UNL     1       2.346   3.138   6.838  1.00  0.00     0.060 A 
ATOM     25  C   UNL     1       1.964   4.088   7.792  1.00  0.00     0.016 A 
ATOM     26  C   UNL     1       3.652   2.646   6.800  1.00  0.00     0.016 A 
ATOM     27  C   UNL     1       2.914   4.619   8.659  1.00  0.00     0.010 A 
ATOM     28  C   UNL     1       4.606   3.182   7.674  1.00  0.00     0.010 A 
ATOM     29  C   UNL     1       4.251   4.210   8.566  1.00  0.00    -0.014 A 
BRANCH  29  30
ATOM     30  C   UNL     1       5.285   5.003   9.273  1.00  0.00     0.031 A 
ATOM     31  C   UNL     1       6.028   6.069   8.513  1.00  0.00     0.074 A 
ATOM     32  C   UNL     1       5.501   4.828  10.588  1.00  0.00     0.049 A 
ATOM     33  N   UNL     1       6.926   6.921   8.938  1.00  0.00    -0.248 NA
ATOM     34  C   UNL     1       5.716   6.195   7.079  1.00  0.00     0.031 C 
ATOM     35  C   UNL     1       4.821   3.847  11.431  1.00  0.00     0.029 A 
ATOM     36  N   UNL     1       6.351   5.479  11.447  1.00  0.00    -0.354 N 
ATOM     37  C   UNL     1       7.286   7.677   7.829  1.00  0.00     0.074 A 
ATOM     38  C   UNL     1       6.533   7.168   6.704  1.00  0.00     0.031 C 
ATOM     39  C   UNL     1       5.280   3.960  12.689  1.00  0.00     0.029 A 
ATOM     40  C   UNL     1       6.296   5.010  12.735  1.00  0.00     0.049 A 
ATOM     41  H   UNL     1       6.944   6.213  11.165  1.00  0.00     0.167 HD
ATOM     42  C   UNL     1       8.158   8.710   7.759  1.00  0.00     0.037 A 
ATOM     43  C   UNL     1       6.992   5.387  13.825  1.00  0.00     0.037 A 
ATOM     44  C   UNL     1       8.893   9.226   8.883  1.00  0.00     0.049 A 
ATOM     45  C   UNL     1       7.973   6.526  13.712  1.00  0.00     0.074 A 
ATOM     46  C   UNL     1       9.785  10.283   8.922  1.00  0.00     0.029 A 
ATOM     47  N   UNL     1       8.816   8.718  10.171  1.00  0.00    -0.354 N 
ATOM     48  N   UNL     1       8.275   7.258  12.668  1.00  0.00    -0.248 NA
ATOM     49  C   UNL     1       8.701   6.897  14.934  1.00  0.00     0.031 C 
ATOM     50  C   UNL     1      10.276  10.391  10.227  1.00  0.00     0.029 A 
ATOM     51  C   UNL     1       9.657   9.430  11.009  1.00  0.00     0.049 A 
ATOM     52  H   UNL     1       8.247   7.964  10.448  1.00  0.00     0.167 HD
ATOM     53  C   UNL     1       9.197   8.196  13.113  1.00  0.00     0.074 A 
ATOM     54  C   UNL     1       9.399   7.946  14.524  1.00  0.00     0.031 C 
ATOM     55  C   UNL     1       9.822   9.177  12.416  1.00  0.00     0.037 A 
BRANCH  42  56
ATOM     56  C   UNL     1       8.380   9.347   6.420  1.00  0.00     0.064 A 
ATOM     57  C   UNL     1       7.424  10.194   5.841  1.00  0.00     0.173 A 
ATOM     58  C   UNL     1       9.587   9.150   5.733  1.00  0.00     0.173 A 
ATOM     59  F   UNL     1       6.249  10.404   6.453  1.00  0.00    -0.203 F 
ATOM     60  C   UNL     1       7.664  10.811   4.615  1.00  0.00     0.198 A 
ATOM     61  C   UNL     1       9.832   9.786   4.519  1.00  0.00     0.198 A 
ATOM     62  F   UNL     1      10.535   8.351   6.246  1.00  0.00    -0.203 F 
ATOM     63  F   UNL     1       6.725  11.593   4.065  1.00  0.00    -0.200 F 
ATOM     64  C   UNL     1       8.870  10.612   3.959  1.00  0.00     0.200 A 
ATOM     65  F   UNL     1      11.002   9.601   3.891  1.00  0.00    -0.200 F 
ATOM     66  F   UNL     1       9.104  11.216   2.786  1.00  0.00    -0.200 F 
ENDBRANCH  42  56
BRANCH  43  67
ATOM     67  C   UNL     1       6.784   4.691  15.121  1.00  0.00     0.064 A 
ATOM     68  C   UNL     1       6.184   5.343  16.208  1.00  0.00     0.173 A 
ATOM     69  C   UNL     1       7.210   3.368  15.308  1.00  0.00     0.173 A 
ATOM     70  F   UNL     1       5.782   6.616  16.086  1.00  0.00    -0.203 F 
ATOM     71  C   UNL     1       6.041   4.706  17.439  1.00  0.00     0.198 A 
ATOM     72  C   UNL     1       7.041   2.723  16.532  1.00  0.00     0.198 A 
ATOM     73  F   UNL     1       7.790   2.700  14.300  1.00  0.00    -0.203 F 
ATOM     74  F   UNL     1       5.511   5.369  18.476  1.00  0.00    -0.200 F 
ATOM     75  C   UNL     1       6.465   3.395  17.599  1.00  0.00     0.200 A 
ATOM     76  F   UNL     1       7.443   1.453  16.678  1.00  0.00    -0.200 F 
ATOM     77  F   UNL     1       6.330   2.784  18.784  1.00  0.00    -0.200 F 
ENDBRANCH  43  67
BRANCH  55  78
ATOM     78  C   UNL     1      10.743  10.082  13.180  1.00  0.00     0.064 A 
ATOM     79  C   UNL     1      12.004   9.650  13.616  1.00  0.00     0.173 A 
ATOM     80  C   UNL     1      10.374  11.410  13.439  1.00  0.00     0.173 A 
ATOM     81  F   UNL     1      12.395   8.384  13.401  1.00  0.00    -0.203 F 
ATOM     82  C   UNL     1      12.852  10.509  14.307  1.00  0.00     0.198 A 
ATOM     83  C   UNL     1      11.236  12.274  14.108  1.00  0.00     0.198 A 
ATOM     84  F   UNL     1       9.181  11.872  13.035  1.00  0.00    -0.203 F 
ATOM     85  F   UNL     1      14.035  10.064  14.753  1.00  0.00    -0.200 F 
ATOM     86  C   UNL     1      12.470  11.822  14.547  1.00  0.00     0.200 A 
ATOM     87  F   UNL     1      10.870  13.544  14.329  1.00  0.00    -0.200 F 
ATOM     88  F   UNL     1      13.291  12.648  15.209  1.00  0.00    -0.200 F 
ENDBRANCH  55  78
ENDBRANCH  29  30
ENDBRANCH  22  24
ENDBRANCH  21  22
ENDBRANCH  20  21
ENDBRANCH  19  20
ENDBRANCH  18  19
ENDBRANCH   1  18
TORSDOF 17
