REMARK SMILES COc1cccc(/C=C2/C(=O)N(c3cccc(C(=O)OCCOCCOC(=O)c4ccc(-c5c6nc(c(-c7c(F)c(F)c(F)c(F)c7F)c7ccc([nH]7)c(-c7c(F)c(F)c(F)c(F)c7F)c7nc(c(-c8c(F)c(F)c(F)c(F)c8F)c8ccc5[nH]8)C=C7)C=C6)cc4)c3)N=C2C)c1
REMARK SMILES IDX 22 1 21 2 20 3 18 4 19 5 17 6 13 7 14 8 92 9 15 10 16 11
REMARK SMILES IDX 12 12 8 13 9 14 10 15 94 16 11 17 93 18 95 19 7 20 3 21 4 22
REMARK SMILES IDX 96 23 5 24 6 25 2 26 1 27 23 28 24 29 25 30 26 31 27 32
REMARK SMILES IDX 28 33 29 34 30 35 91 36 31 37 90 38 32 39 33 40 34 41 84 42
REMARK SMILES IDX 35 43 89 44 83 45 85 46 36 47 88 48 82 49 81 50 37 52 69 53
REMARK SMILES IDX 49 54 68 55 50 56 53 57 67 58 86 59 51 60 52 61 66 63 87 64
REMARK SMILES IDX 54 65 38 66 39 67 47 68 40 69 41 70 45 71 48 72 42 73 43 74
REMARK SMILES IDX 46 75 44 76 70 77 71 78 79 79 72 80 73 81 77 82 80 83 74 84
REMARK SMILES IDX 75 85 78 86 76 87 55 88 56 89 64 90 57 91 58 92 62 93 65 94
REMARK SMILES IDX 59 95 60 96 63 97 61 98
REMARK H PARENT 85 51 53 62
REMARK Flexibility Score: inf
ROOT
ATOM      1  C   UNL     1      12.882   0.364   0.642  1.00  0.00     0.202 C 
ENDROOT
BRANCH   1   2
ATOM      2  C   UNL     1      12.489   1.840   0.508  1.00  0.00     0.261 C 
BRANCH   2   3
ATOM      3  O   UNL     1      11.452   2.037  -0.466  1.00  0.00    -0.460 OA
BRANCH   3   4
ATOM      4  C   UNL     1      11.839   2.679  -1.598  1.00  0.00     0.338 C 
ATOM      5  O   UNL     1      12.920   3.199  -1.816  1.00  0.00    -0.246 OA
BRANCH   4   6
ATOM      6  C   UNL     1      10.820   2.465  -2.650  1.00  0.00     0.062 A 
ATOM      7  C   UNL     1       8.523   2.228  -3.383  1.00  0.00     0.070 A 
ATOM      8  C   UNL     1       8.990   1.810  -4.639  1.00  0.00     0.028 A 
ATOM      9  C   UNL     1       9.450   2.545  -2.381  1.00  0.00     0.044 A 
ATOM     10  C   UNL     1      10.357   1.772  -4.918  1.00  0.00     0.003 A 
ATOM     11  C   UNL     1      11.273   2.106  -3.925  1.00  0.00     0.016 A 
BRANCH   7  12
ATOM     12  N   UNL     1       7.137   2.333  -3.151  1.00  0.00    -0.196 N 
ATOM     13  C   UNL     1       4.117   3.536  -1.779  1.00  0.00     0.024 C 
ATOM     14  C   UNL     1       5.071   2.868  -2.439  1.00  0.00     0.065 C 
ATOM     15  C   UNL     1       6.505   3.174  -2.231  1.00  0.00     0.280 C 
ATOM     16  C   UNL     1       5.069   1.798  -3.456  1.00  0.00     0.071 C 
ATOM     17  O   UNL     1       6.954   3.994  -1.446  1.00  0.00    -0.267 OA
ATOM     18  N   UNL     1       6.274   1.526  -3.884  1.00  0.00    -0.169 NA
ATOM     19  C   UNL     1       3.863   1.066  -3.943  1.00  0.00     0.069 C 
BRANCH  13  20
ATOM     20  C   UNL     1       2.685   3.272  -1.877  1.00  0.00    -0.021 A 
ATOM     21  C   UNL     1       0.813   1.792  -1.451  1.00  0.00     0.119 A 
ATOM     22  C   UNL     1      -0.015   2.661  -2.163  1.00  0.00     0.046 A 
ATOM     23  C   UNL     1       2.161   2.111  -1.295  1.00  0.00     0.054 A 
ATOM     24  C   UNL     1       0.490   3.848  -2.698  1.00  0.00     0.004 A 
ATOM     25  C   UNL     1       1.843   4.154  -2.559  1.00  0.00     0.008 A 
BRANCH  21  26
ATOM     26  O   UNL     1       0.214   0.649  -1.001  1.00  0.00    -0.497 OA
ATOM     27  C   UNL     1       0.891  -0.058   0.033  1.00  0.00     0.278 C 
ENDBRANCH  21  26
ENDBRANCH  13  20
ENDBRANCH   7  12
ENDBRANCH   4   6
ENDBRANCH   3   4
ENDBRANCH   2   3
ENDBRANCH   1   2
BRANCH   1  28
ATOM     28  O   UNL     1      13.402  -0.290  -0.514  1.00  0.00    -0.374 OA
BRANCH  28  29
ATOM     29  C   UNL     1      12.471  -0.697  -1.516  1.00  0.00     0.202 C 
BRANCH  29  30
ATOM     30  C   UNL     1      11.635  -1.955  -1.243  1.00  0.00     0.261 C 
BRANCH  30  31
ATOM     31  O   UNL     1      10.775  -1.819  -0.099  1.00  0.00    -0.460 OA
BRANCH  31  32
ATOM     32  C   UNL     1      11.172  -2.521   0.990  1.00  0.00     0.338 C 
ATOM     33  O   UNL     1      12.121  -3.280   1.081  1.00  0.00    -0.246 OA
BRANCH  32  34
ATOM     34  C   UNL     1      10.378  -2.111   2.163  1.00  0.00     0.060 A 
ATOM     35  C   UNL     1      11.071  -1.641   3.285  1.00  0.00     0.016 A 
ATOM     36  C   UNL     1       8.990  -2.256   2.192  1.00  0.00     0.016 A 
ATOM     37  C   UNL     1      10.381  -1.353   4.460  1.00  0.00     0.010 A 
ATOM     38  C   UNL     1       8.300  -1.971   3.375  1.00  0.00     0.010 A 
ATOM     39  C   UNL     1       8.995  -1.548   4.523  1.00  0.00    -0.014 A 
BRANCH  39  40
ATOM     40  C   UNL     1       8.290  -1.418   5.822  1.00  0.00     0.031 A 
ATOM     41  C   UNL     1       7.874  -2.659   6.562  1.00  0.00     0.074 A 
ATOM     42  C   UNL     1       8.037  -0.204   6.343  1.00  0.00     0.049 A 
ATOM     43  N   UNL     1       7.199  -2.775   7.678  1.00  0.00    -0.248 NA
ATOM     44  C   UNL     1       8.267  -3.943   5.961  1.00  0.00     0.031 C 
ATOM     45  C   UNL     1       8.421   1.069   5.737  1.00  0.00     0.029 A 
ATOM     46  N   UNL     1       7.386   0.154   7.498  1.00  0.00    -0.354 N 
ATOM     47  C   UNL     1       7.076  -4.140   7.905  1.00  0.00     0.074 A 
ATOM     48  C   UNL     1       7.719  -4.813   6.797  1.00  0.00     0.031 C 
ATOM     49  C   UNL     1       7.987   2.072   6.519  1.00  0.00     0.029 A 
ATOM     50  C   UNL     1       7.262   1.512   7.658  1.00  0.00     0.049 A 
ATOM     51  H   UNL     1       7.042  -0.500   8.148  1.00  0.00     0.167 HD
ATOM     52  C   UNL     1       6.487  -4.772   8.948  1.00  0.00     0.037 A 
ATOM     53  C   UNL     1       6.611   2.221   8.601  1.00  0.00     0.037 A 
ATOM     54  C   UNL     1       5.856  -4.095  10.053  1.00  0.00     0.049 A 
ATOM     55  C   UNL     1       5.906   1.490   9.716  1.00  0.00     0.074 A 
ATOM     56  C   UNL     1       5.261  -4.646  11.174  1.00  0.00     0.029 A 
ATOM     57  N   UNL     1       5.729  -2.719  10.170  1.00  0.00    -0.354 N 
ATOM     58  N   UNL     1       5.823   0.202   9.943  1.00  0.00    -0.248 NA
ATOM     59  C   UNL     1       5.207   2.316  10.711  1.00  0.00     0.031 C 
ATOM     60  C   UNL     1       4.715  -3.608  11.935  1.00  0.00     0.029 A 
ATOM     61  C   UNL     1       5.034  -2.405  11.327  1.00  0.00     0.049 A 
ATOM     62  H   UNL     1       6.082  -2.062   9.527  1.00  0.00     0.167 HD
ATOM     63  C   UNL     1       5.095   0.064  11.118  1.00  0.00     0.074 A 
ATOM     64  C   UNL     1       4.772   1.402  11.566  1.00  0.00     0.031 C 
ATOM     65  C   UNL     1       4.726  -1.068  11.767  1.00  0.00     0.037 A 
BRANCH  52  66
ATOM     66  C   UNL     1       6.466  -6.274   8.939  1.00  0.00     0.064 A 
ATOM     67  C   UNL     1       7.629  -7.034   9.132  1.00  0.00     0.173 A 
ATOM     68  C   UNL     1       5.251  -6.962   8.791  1.00  0.00     0.173 A 
ATOM     69  F   UNL     1       8.818  -6.427   9.267  1.00  0.00    -0.203 F 
ATOM     70  C   UNL     1       7.580  -8.426   9.156  1.00  0.00     0.198 A 
ATOM     71  C   UNL     1       5.201  -8.352   8.849  1.00  0.00     0.198 A 
ATOM     72  F   UNL     1       4.108  -6.284   8.609  1.00  0.00    -0.203 F 
ATOM     73  F   UNL     1       8.710  -9.132   9.300  1.00  0.00    -0.200 F 
ATOM     74  C   UNL     1       6.365  -9.083   9.025  1.00  0.00     0.200 A 
ATOM     75  F   UNL     1       4.024  -8.983   8.739  1.00  0.00    -0.200 F 
ATOM     76  F   UNL     1       6.318 -10.422   9.064  1.00  0.00    -0.200 F 
ENDBRANCH  52  66
BRANCH  53  77
ATOM     77  C   UNL     1       6.571   3.706   8.523  1.00  0.00     0.064 A 
ATOM     78  C   UNL     1       7.194   4.502   9.494  1.00  0.00     0.173 A 
ATOM     79  C   UNL     1       5.879   4.359   7.492  1.00  0.00     0.173 A 
ATOM     80  F   UNL     1       7.846   3.925  10.515  1.00  0.00    -0.203 F 
ATOM     81  C   UNL     1       7.104   5.892   9.453  1.00  0.00     0.198 A 
ATOM     82  C   UNL     1       5.820   5.750   7.431  1.00  0.00     0.198 A 
ATOM     83  F   UNL     1       5.263   3.646   6.538  1.00  0.00    -0.203 F 
ATOM     84  F   UNL     1       7.657   6.626  10.428  1.00  0.00    -0.200 F 
ATOM     85  C   UNL     1       6.422   6.515   8.418  1.00  0.00     0.200 A 
ATOM     86  F   UNL     1       5.171   6.347   6.423  1.00  0.00    -0.200 F 
ATOM     87  F   UNL     1       6.335   7.851   8.379  1.00  0.00    -0.200 F 
ENDBRANCH  53  77
BRANCH  65  88
ATOM     88  C   UNL     1       3.970  -0.912  13.058  1.00  0.00     0.064 A 
ATOM     89  C   UNL     1       2.649  -0.440  13.091  1.00  0.00     0.173 A 
ATOM     90  C   UNL     1       4.564  -1.278  14.276  1.00  0.00     0.173 A 
ATOM     91  F   UNL     1       2.037  -0.065  11.957  1.00  0.00    -0.203 F 
ATOM     92  C   UNL     1       1.964  -0.311  14.297  1.00  0.00     0.198 A 
ATOM     93  C   UNL     1       3.864  -1.182  15.475  1.00  0.00     0.198 A 
ATOM     94  F   UNL     1       5.822  -1.744  14.302  1.00  0.00    -0.203 F 
ATOM     95  F   UNL     1       0.723   0.195  14.309  1.00  0.00    -0.200 F 
ATOM     96  C   UNL     1       2.569  -0.689  15.486  1.00  0.00     0.200 A 
ATOM     97  F   UNL     1       4.444  -1.566  16.621  1.00  0.00    -0.200 F 
ATOM     98  F   UNL     1       1.905  -0.573  16.645  1.00  0.00    -0.200 F 
ENDBRANCH  65  88
ENDBRANCH  39  40
ENDBRANCH  32  34
ENDBRANCH  31  32
ENDBRANCH  30  31
ENDBRANCH  29  30
ENDBRANCH  28  29
ENDBRANCH   1  28
TORSDOF 17
