REMARK SMILES Cc1ccc2oc(-c3ccc4c(c3)OCO4)c/c(=N\[C@H](C)C(=O)OCCOCCOC(=O)c3ccc(-c4c5nc(c(-c6c(F)c(F)c(F)c(F)c6F)c6ccc([nH]6)c(-c6c(F)c(F)c(F)c(F)c6F)c6nc(c(-c7c(F)c(F)c(F)c(F)c7F)c7ccc4[nH]7)C=C6)C=C5)cc3)c2c1
REMARK SMILES IDX 27 1 26 2 25 3 24 4 22 5 23 6 20 7 21 8 19 9 1 10 2 11 3 12
REMARK SMILES IDX 97 13 4 14 96 15 5 16 18 17 6 18 17 19 7 20 8 21 9 22 13 23
REMARK SMILES IDX 10 24 12 25 11 26 14 27 16 28 15 29 28 30 29 31 30 32 31 33
REMARK SMILES IDX 32 34 33 35 34 36 95 37 35 38 94 39 36 40 37 41 38 42 88 43
REMARK SMILES IDX 39 44 93 45 87 46 89 47 40 48 92 49 86 50 85 51 41 53 73 54
REMARK SMILES IDX 53 55 72 56 54 57 57 58 71 59 90 60 55 61 56 62 70 64 91 65
REMARK SMILES IDX 58 66 42 67 43 68 51 69 44 70 45 71 49 72 52 73 46 74 47 75
REMARK SMILES IDX 50 76 48 77 74 78 75 79 83 80 76 81 77 82 81 83 84 84 78 85
REMARK SMILES IDX 79 86 82 87 80 88 59 89 60 90 68 91 61 92 62 93 66 94 69 95
REMARK SMILES IDX 63 96 64 97 67 98 65 99
REMARK H PARENT 89 52 57 63
REMARK Flexibility Score: inf
ROOT
ATOM      1  O   UNL     1      -1.955   2.963  -3.163  1.00  0.00    -0.374 OA
ENDROOT
BRANCH   1   2
ATOM      2  C   UNL     1      -1.827   2.038  -2.081  1.00  0.00     0.202 C 
BRANCH   2   3
ATOM      3  C   UNL     1      -0.479   1.317  -2.016  1.00  0.00     0.261 C 
BRANCH   3   4
ATOM      4  O   UNL     1       0.562   2.198  -1.551  1.00  0.00    -0.462 OA
BRANCH   4   5
ATOM      5  C   UNL     1       1.583   2.434  -2.426  1.00  0.00     0.330 C 
ATOM      6  O   UNL     1       1.651   1.971  -3.559  1.00  0.00    -0.250 OA
BRANCH   5   7
ATOM      7  C   UNL     1       2.659   3.344  -1.826  1.00  0.00     0.212 C 
ATOM      8  C   UNL     1       2.172   4.722  -1.409  1.00  0.00     0.046 C 
BRANCH   7   9
ATOM      9  N   UNL     1       3.442   2.608  -0.827  1.00  0.00    -0.270 NA
ATOM     10  C   UNL     1       7.395  -0.334   0.729  1.00  0.00     0.044 C 
ATOM     11  C   UNL     1       6.079   0.096   1.303  1.00  0.00    -0.050 A 
ATOM     12  C   UNL     1       5.649  -0.387   2.545  1.00  0.00     0.007 A 
ATOM     13  C   UNL     1       5.278   1.012   0.604  1.00  0.00     0.017 A 
ATOM     14  C   UNL     1       4.456   0.069   3.100  1.00  0.00     0.048 A 
ATOM     15  C   UNL     1       4.074   1.463   1.155  1.00  0.00     0.043 A 
ATOM     16  C   UNL     1       3.689   1.009   2.415  1.00  0.00     0.136 A 
ATOM     17  C   UNL     1       3.170   2.380   0.401  1.00  0.00     0.073 A 
ATOM     18  O   UNL     1       2.569   1.457   3.054  1.00  0.00    -0.456 OA
ATOM     19  C   UNL     1       2.034   2.899   1.195  1.00  0.00     0.076 A 
ATOM     20  C   UNL     1       1.843   2.447   2.439  1.00  0.00     0.136 A 
BRANCH  20  21
ATOM     21  C   UNL     1       0.747   2.942   3.262  1.00  0.00     0.021 A 
ATOM     22  C   UNL     1      -0.469   2.247   3.222  1.00  0.00     0.016 A 
ATOM     23  C   UNL     1       0.925   4.030   4.134  1.00  0.00     0.062 A 
ATOM     24  C   UNL     1      -1.494   2.617   4.079  1.00  0.00     0.051 A 
ATOM     25  C   UNL     1      -0.125   4.370   4.960  1.00  0.00     0.166 A 
ATOM     26  C   UNL     1      -1.304   3.675   4.932  1.00  0.00     0.165 A 
ATOM     27  O   UNL     1      -0.142   5.364   5.888  1.00  0.00    -0.454 OA
ATOM     28  O   UNL     1      -2.219   4.145   5.817  1.00  0.00    -0.454 OA
ATOM     29  C   UNL     1      -1.433   5.138   6.502  1.00  0.00     0.468 C 
ENDBRANCH  20  21
ENDBRANCH   7   9
ENDBRANCH   5   7
ENDBRANCH   4   5
ENDBRANCH   3   4
ENDBRANCH   2   3
ENDBRANCH   1   2
BRANCH   1  30
ATOM     30  C   UNL     1      -1.395   4.255  -2.943  1.00  0.00     0.202 C 
BRANCH  30  31
ATOM     31  C   UNL     1      -2.332   5.259  -2.260  1.00  0.00     0.261 C 
BRANCH  31  32
ATOM     32  O   UNL     1      -2.761   4.817  -0.959  1.00  0.00    -0.460 OA
BRANCH  32  33
ATOM     33  C   UNL     1      -4.008   4.288  -0.912  1.00  0.00     0.338 C 
ATOM     34  O   UNL     1      -4.805   4.188  -1.836  1.00  0.00    -0.246 OA
BRANCH  33  35
ATOM     35  C   UNL     1      -4.266   3.714   0.425  1.00  0.00     0.060 A 
ATOM     36  C   UNL     1      -3.928   4.404   1.586  1.00  0.00     0.016 A 
ATOM     37  C   UNL     1      -4.906   2.469   0.515  1.00  0.00     0.016 A 
ATOM     38  C   UNL     1      -4.235   3.841   2.828  1.00  0.00     0.010 A 
ATOM     39  C   UNL     1      -5.212   1.911   1.765  1.00  0.00     0.010 A 
ATOM     40  C   UNL     1      -4.875   2.585   2.943  1.00  0.00    -0.014 A 
BRANCH  40  41
ATOM     41  C   UNL     1      -5.203   2.051   4.303  1.00  0.00     0.031 A 
ATOM     42  C   UNL     1      -4.532   0.829   4.888  1.00  0.00     0.074 A 
ATOM     43  C   UNL     1      -6.032   2.762   5.092  1.00  0.00     0.049 A 
ATOM     44  N   UNL     1      -4.470   0.454   6.145  1.00  0.00    -0.248 NA
ATOM     45  C   UNL     1      -3.785  -0.049   3.974  1.00  0.00     0.031 C 
ATOM     46  C   UNL     1      -6.762   3.958   4.674  1.00  0.00     0.029 A 
ATOM     47  N   UNL     1      -6.377   2.601   6.412  1.00  0.00    -0.354 N 
ATOM     48  C   UNL     1      -3.602  -0.630   6.183  1.00  0.00     0.074 A 
ATOM     49  C   UNL     1      -3.208  -0.897   4.816  1.00  0.00     0.031 C 
ATOM     50  C   UNL     1      -7.437   4.446   5.723  1.00  0.00     0.029 A 
ATOM     51  C   UNL     1      -7.228   3.572   6.876  1.00  0.00     0.049 A 
ATOM     52  H   UNL     1      -6.045   1.862   6.971  1.00  0.00     0.167 HD
ATOM     53  C   UNL     1      -3.155  -1.321   7.259  1.00  0.00     0.037 A 
ATOM     54  C   UNL     1      -7.799   3.742   8.084  1.00  0.00     0.037 A 
ATOM     55  C   UNL     1      -3.620  -1.140   8.610  1.00  0.00     0.049 A 
ATOM     56  C   UNL     1      -7.477   2.801   9.207  1.00  0.00     0.074 A 
ATOM     57  C   UNL     1      -3.219  -1.804   9.758  1.00  0.00     0.029 A 
ATOM     58  N   UNL     1      -4.634  -0.274   8.987  1.00  0.00    -0.354 N 
ATOM     59  N   UNL     1      -6.585   1.844   9.246  1.00  0.00    -0.248 NA
ATOM     60  C   UNL     1      -8.248   2.957  10.448  1.00  0.00     0.031 C 
ATOM     61  C   UNL     1      -4.052  -1.406  10.810  1.00  0.00     0.029 A 
ATOM     62  C   UNL     1      -4.932  -0.451  10.331  1.00  0.00     0.049 A 
ATOM     63  H   UNL     1      -5.077   0.371   8.390  1.00  0.00     0.167 HD
ATOM     64  C   UNL     1      -6.688   1.279  10.509  1.00  0.00     0.074 A 
ATOM     65  C   UNL     1      -7.715   2.015  11.216  1.00  0.00     0.031 C 
ATOM     66  C   UNL     1      -5.986   0.241  11.027  1.00  0.00     0.037 A 
BRANCH  53  67
ATOM     67  C   UNL     1      -2.113  -2.376   7.034  1.00  0.00     0.064 A 
ATOM     68  C   UNL     1      -0.759  -2.038   6.895  1.00  0.00     0.173 A 
ATOM     69  C   UNL     1      -2.454  -3.735   7.076  1.00  0.00     0.173 A 
ATOM     70  F   UNL     1      -0.385  -0.750   6.853  1.00  0.00    -0.203 F 
ATOM     71  C   UNL     1       0.219  -3.026   6.808  1.00  0.00     0.198 A 
ATOM     72  C   UNL     1      -1.472  -4.720   7.002  1.00  0.00     0.198 A 
ATOM     73  F   UNL     1      -3.735  -4.105   7.218  1.00  0.00    -0.203 F 
ATOM     74  F   UNL     1       1.508  -2.684   6.675  1.00  0.00    -0.200 F 
ATOM     75  C   UNL     1      -0.138  -4.366   6.870  1.00  0.00     0.200 A 
ATOM     76  F   UNL     1      -1.817  -6.013   7.072  1.00  0.00    -0.200 F 
ATOM     77  F   UNL     1       0.806  -5.316   6.806  1.00  0.00    -0.200 F 
ENDBRANCH  53  67
BRANCH  54  78
ATOM     78  C   UNL     1      -8.774   4.847   8.254  1.00  0.00     0.064 A 
ATOM     79  C   UNL     1      -8.466   5.983   9.010  1.00  0.00     0.173 A 
ATOM     80  C   UNL     1     -10.008   4.814   7.584  1.00  0.00     0.173 A 
ATOM     81  F   UNL     1      -7.309   6.047   9.685  1.00  0.00    -0.203 F 
ATOM     82  C   UNL     1      -9.349   7.060   9.070  1.00  0.00     0.198 A 
ATOM     83  C   UNL     1     -10.875   5.901   7.623  1.00  0.00     0.198 A 
ATOM     84  F   UNL     1     -10.345   3.743   6.851  1.00  0.00    -0.203 F 
ATOM     85  F   UNL     1      -9.038   8.137   9.803  1.00  0.00    -0.200 F 
ATOM     86  C   UNL     1     -10.544   7.024   8.365  1.00  0.00     0.200 A 
ATOM     87  F   UNL     1     -12.018   5.868   6.924  1.00  0.00    -0.200 F 
ATOM     88  F   UNL     1     -11.375   8.075   8.395  1.00  0.00    -0.200 F 
ENDBRANCH  54  78
BRANCH  66  89
ATOM     89  C   UNL     1      -6.328  -0.204  12.419  1.00  0.00     0.064 A 
ATOM     90  C   UNL     1      -7.515  -0.902  12.686  1.00  0.00     0.173 A 
ATOM     91  C   UNL     1      -5.444   0.017  13.486  1.00  0.00     0.173 A 
ATOM     92  F   UNL     1      -8.400  -1.126  11.703  1.00  0.00    -0.203 F 
ATOM     93  C   UNL     1      -7.811  -1.350  13.971  1.00  0.00     0.198 A 
ATOM     94  C   UNL     1      -5.731  -0.455  14.765  1.00  0.00     0.198 A 
ATOM     95  F   UNL     1      -4.292   0.675  13.286  1.00  0.00    -0.203 F 
ATOM     96  F   UNL     1      -8.967  -1.985  14.207  1.00  0.00    -0.200 F 
ATOM     97  C   UNL     1      -6.915  -1.134  15.007  1.00  0.00     0.200 A 
ATOM     98  F   UNL     1      -4.858  -0.256  15.762  1.00  0.00    -0.200 F 
ATOM     99  F   UNL     1      -7.196  -1.575  16.241  1.00  0.00    -0.200 F 
ENDBRANCH  66  89
ENDBRANCH  40  41
ENDBRANCH  33  35
ENDBRANCH  32  33
ENDBRANCH  31  32
ENDBRANCH  30  31
ENDBRANCH   1  30
TORSDOF 16
