REMARK SMILES O=C(OCCOCCOC(=O)c1ccnc(-c2ccnc(COc3ccccc3)n2)c1)c1ccc(-c2c3nc(c(-c4c(F)c(F)c(F)c(F)c4F)c4ccc([nH]4)c(-c4c(F)c(F)c(F)c(F)c4F)c4nc(c(-c5c(F)c(F)c(F)c(F)c5F)c5ccc2[nH]5)C=C4)C=C3)cc1
REMARK SMILES IDX 7 1 6 2 5 3 4 4 3 5 2 6 1 7 32 8 33 9 94 10 34 11 93 12
REMARK SMILES IDX 35 13 36 14 37 15 87 16 38 17 92 18 86 19 88 20 39 21 91 22
REMARK SMILES IDX 85 23 84 24 40 26 72 27 52 28 71 29 53 30 56 31 70 32 89 33
REMARK SMILES IDX 54 34 55 35 69 37 90 38 57 39 41 40 42 41 50 42 43 43 44 44
REMARK SMILES IDX 48 45 51 46 45 47 46 48 49 49 47 50 73 51 74 52 82 53 75 54
REMARK SMILES IDX 76 55 80 56 83 57 77 58 78 59 81 60 79 61 58 62 59 63 67 64
REMARK SMILES IDX 60 65 61 66 65 67 68 68 62 69 63 70 66 71 64 72 8 73 9 74
REMARK SMILES IDX 10 75 11 76 12 77 13 78 31 79 14 80 16 81 15 82 17 83 18 84
REMARK SMILES IDX 30 85 19 86 21 87 20 88 22 89 23 90 24 91 25 92 29 93 26 94
REMARK SMILES IDX 28 95 27 96
REMARK H PARENT 88 25 56 36
REMARK Flexibility Score: inf
ROOT
ATOM      1  C   UNL     1       2.782   1.464  -1.686  1.00  0.00     0.202 C 
ENDROOT
BRANCH   1   2
ATOM      2  O   UNL     1       4.105   0.998  -1.391  1.00  0.00    -0.374 OA
BRANCH   2   3
ATOM      3  C   UNL     1       4.332  -0.392  -1.631  1.00  0.00     0.202 C 
BRANCH   3   4
ATOM      4  C   UNL     1       4.004  -1.297  -0.438  1.00  0.00     0.261 C 
BRANCH   4   5
ATOM      5  O   UNL     1       2.632  -1.136  -0.043  1.00  0.00    -0.460 OA
BRANCH   5   6
ATOM      6  C   UNL     1       2.118  -0.402   0.972  1.00  0.00     0.338 C 
ATOM      7  O   UNL     1       0.900  -0.413   1.142  1.00  0.00    -0.246 OA
BRANCH   6   8
ATOM      8  C   UNL     1       2.942   0.411   1.919  1.00  0.00     0.060 A 
ATOM      9  C   UNL     1       4.201   0.941   1.640  1.00  0.00     0.016 A 
ATOM     10  C   UNL     1       2.364   0.722   3.164  1.00  0.00     0.016 A 
ATOM     11  C   UNL     1       4.906   1.675   2.581  1.00  0.00     0.010 A 
ATOM     12  C   UNL     1       3.045   1.502   4.104  1.00  0.00     0.010 A 
ATOM     13  C   UNL     1       4.337   1.954   3.820  1.00  0.00    -0.014 A 
BRANCH  13  14
ATOM     14  C   UNL     1       5.192   2.614   4.821  1.00  0.00     0.031 A 
ATOM     15  C   UNL     1       5.811   1.769   5.891  1.00  0.00     0.074 A 
ATOM     16  C   UNL     1       5.540   3.901   4.646  1.00  0.00     0.049 A 
ATOM     17  N   UNL     1       6.653   2.104   6.831  1.00  0.00    -0.248 NA
ATOM     18  C   UNL     1       5.448   0.341   5.888  1.00  0.00     0.031 C 
ATOM     19  C   UNL     1       5.074   4.755   3.551  1.00  0.00     0.029 A 
ATOM     20  N   UNL     1       6.403   4.699   5.348  1.00  0.00    -0.354 N 
ATOM     21  C   UNL     1       6.902   0.938   7.542  1.00  0.00     0.074 A 
ATOM     22  C   UNL     1       6.121  -0.114   6.933  1.00  0.00     0.031 C 
ATOM     23  C   UNL     1       5.689   5.946   3.632  1.00  0.00     0.029 A 
ATOM     24  C   UNL     1       6.543   5.957   4.815  1.00  0.00     0.049 A 
ATOM     25  H   UNL     1       6.877   4.399   6.157  1.00  0.00     0.167 HD
ATOM     26  C   UNL     1       7.709   0.772   8.615  1.00  0.00     0.037 A 
ATOM     27  C   UNL     1       7.272   6.999   5.254  1.00  0.00     0.037 A 
ATOM     28  C   UNL     1       8.475   1.840   9.199  1.00  0.00     0.049 A 
ATOM     29  C   UNL     1       8.094   6.808   6.500  1.00  0.00     0.074 A 
ATOM     30  C   UNL     1       9.279   1.818  10.322  1.00  0.00     0.029 A 
ATOM     31  N   UNL     1       8.524   3.133   8.691  1.00  0.00    -0.354 N 
ATOM     32  N   UNL     1       8.282   5.719   7.208  1.00  0.00    -0.248 NA
ATOM     33  C   UNL     1       8.795   7.989   7.016  1.00  0.00     0.031 C 
ATOM     34  C   UNL     1       9.778   3.111  10.520  1.00  0.00     0.029 A 
ATOM     35  C   UNL     1       9.330   3.925   9.490  1.00  0.00     0.049 A 
ATOM     36  H   UNL     1       8.054   3.440   7.882  1.00  0.00     0.167 HD
ATOM     37  C   UNL     1       9.137   6.075   8.240  1.00  0.00     0.074 A 
ATOM     38  C   UNL     1       9.447   7.479   8.052  1.00  0.00     0.031 C 
ATOM     39  C   UNL     1       9.621   5.317   9.256  1.00  0.00     0.037 A 
BRANCH  26  40
ATOM     40  C   UNL     1       7.723  -0.585   9.253  1.00  0.00     0.064 A 
ATOM     41  C   UNL     1       8.327  -1.693   8.640  1.00  0.00     0.173 A 
ATOM     42  C   UNL     1       7.074  -0.788  10.480  1.00  0.00     0.173 A 
ATOM     43  F   UNL     1       8.932  -1.560   7.450  1.00  0.00    -0.203 F 
ATOM     44  C   UNL     1       8.250  -2.960   9.215  1.00  0.00     0.198 A 
ATOM     45  C   UNL     1       7.023  -2.050  11.066  1.00  0.00     0.198 A 
ATOM     46  F   UNL     1       6.473   0.236  11.104  1.00  0.00    -0.203 F 
ATOM     47  F   UNL     1       8.775  -4.017   8.579  1.00  0.00    -0.200 F 
ATOM     48  C   UNL     1       7.600  -3.137  10.428  1.00  0.00     0.200 A 
ATOM     49  F   UNL     1       6.396  -2.217  12.239  1.00  0.00    -0.200 F 
ATOM     50  F   UNL     1       7.515  -4.358  10.974  1.00  0.00    -0.200 F 
ENDBRANCH  26  40
BRANCH  27  51
ATOM     51  C   UNL     1       7.233   8.303   4.538  1.00  0.00     0.064 A 
ATOM     52  C   UNL     1       8.377   8.835   3.926  1.00  0.00     0.173 A 
ATOM     53  C   UNL     1       6.051   9.058   4.466  1.00  0.00     0.173 A 
ATOM     54  F   UNL     1       9.539   8.167   3.984  1.00  0.00    -0.203 F 
ATOM     55  C   UNL     1       8.345  10.074   3.287  1.00  0.00     0.198 A 
ATOM     56  C   UNL     1       6.012  10.281   3.800  1.00  0.00     0.198 A 
ATOM     57  F   UNL     1       4.927   8.602   5.037  1.00  0.00    -0.203 F 
ATOM     58  F   UNL     1       9.465  10.581   2.754  1.00  0.00    -0.200 F 
ATOM     59  C   UNL     1       7.161  10.793   3.219  1.00  0.00     0.200 A 
ATOM     60  F   UNL     1       4.862  10.965   3.727  1.00  0.00    -0.200 F 
ATOM     61  F   UNL     1       7.130  11.984   2.605  1.00  0.00    -0.200 F 
ENDBRANCH  27  51
BRANCH  39  62
ATOM     62  C   UNL     1      10.563   5.989  10.209  1.00  0.00     0.064 A 
ATOM     63  C   UNL     1      10.116   6.930  11.146  1.00  0.00     0.173 A 
ATOM     64  C   UNL     1      11.925   5.653  10.206  1.00  0.00     0.173 A 
ATOM     65  F   UNL     1       8.824   7.293  11.176  1.00  0.00    -0.203 F 
ATOM     66  C   UNL     1      11.005   7.533  12.030  1.00  0.00     0.198 A 
ATOM     67  C   UNL     1      12.806   6.235  11.112  1.00  0.00     0.198 A 
ATOM     68  F   UNL     1      12.399   4.752   9.332  1.00  0.00    -0.203 F 
ATOM     69  F   UNL     1      10.566   8.467  12.885  1.00  0.00    -0.200 F 
ATOM     70  C   UNL     1      12.346   7.180  12.018  1.00  0.00     0.200 A 
ATOM     71  F   UNL     1      14.098   5.882  11.108  1.00  0.00    -0.200 F 
ATOM     72  F   UNL     1      13.200   7.757  12.874  1.00  0.00    -0.200 F 
ENDBRANCH  39  62
ENDBRANCH  13  14
ENDBRANCH   6   8
ENDBRANCH   5   6
ENDBRANCH   4   5
ENDBRANCH   3   4
ENDBRANCH   2   3
ENDBRANCH   1   2
BRANCH   1  73
ATOM     73  C   UNL     1       2.837   2.562  -2.751  1.00  0.00     0.261 C 
BRANCH  73  74
ATOM     74  O   UNL     1       3.376   2.005  -3.960  1.00  0.00    -0.460 OA
BRANCH  74  75
ATOM     75  C   UNL     1       4.726   2.087  -4.079  1.00  0.00     0.338 C 
ATOM     76  O   UNL     1       5.483   2.824  -3.472  1.00  0.00    -0.246 OA
BRANCH  75  77
ATOM     77  C   UNL     1       5.167   0.929  -4.882  1.00  0.00     0.063 A 
ATOM     78  C   UNL     1       4.395   0.438  -5.933  1.00  0.00     0.036 A 
ATOM     79  C   UNL     1       6.316   0.254  -4.471  1.00  0.00     0.046 A 
ATOM     80  C   UNL     1       4.783  -0.755  -6.503  1.00  0.00     0.112 A 
ATOM     81  C   UNL     1       6.611  -0.954  -5.081  1.00  0.00     0.090 A 
ATOM     82  N   UNL     1       5.842  -1.473  -6.076  1.00  0.00    -0.255 NA
BRANCH  81  83
ATOM     83  C   UNL     1       7.743  -1.779  -4.661  1.00  0.00     0.092 A 
ATOM     84  C   UNL     1       7.600  -2.792  -3.733  1.00  0.00     0.051 A 
ATOM     85  N   UNL     1       8.898  -1.557  -5.320  1.00  0.00    -0.228 NA
ATOM     86  C   UNL     1       8.709  -3.573  -3.518  1.00  0.00     0.115 A 
ATOM     87  C   UNL     1       9.897  -2.434  -5.113  1.00  0.00     0.166 A 
ATOM     88  N   UNL     1       9.861  -3.422  -4.194  1.00  0.00    -0.238 NA
BRANCH  87  89
ATOM     89  C   UNL     1      11.030  -2.449  -6.118  1.00  0.00     0.306 C 
BRANCH  89  90
ATOM     90  O   UNL     1      10.598  -2.373  -7.493  1.00  0.00    -0.486 OA
BRANCH  90  91
ATOM     91  C   UNL     1      10.153  -3.555  -8.024  1.00  0.00     0.119 A 
ATOM     92  C   UNL     1      10.764  -3.986  -9.200  1.00  0.00     0.046 A 
ATOM     93  C   UNL     1       9.057  -4.260  -7.524  1.00  0.00     0.046 A 
ATOM     94  C   UNL     1      10.316  -5.144  -9.841  1.00  0.00     0.004 A 
ATOM     95  C   UNL     1       8.614  -5.423  -8.156  1.00  0.00     0.004 A 
ATOM     96  C   UNL     1       9.247  -5.868  -9.313  1.00  0.00     0.000 A 
ENDBRANCH  90  91
ENDBRANCH  89  90
ENDBRANCH  87  89
ENDBRANCH  81  83
ENDBRANCH  75  77
ENDBRANCH  74  75
ENDBRANCH  73  74
ENDBRANCH   1  73
TORSDOF 18
