REMARK SMILES CS(=O)(=O)Nc1ccc(-c2cc(Cl)cc3c2O[C@@H](C(F)(F)F)C(C(=O)OCCOCCOC(=O)c2ccc(-c4c5nc(c(-c6c(F)c(F)c(F)c(F)c6F)c6ccc([nH]6)c(-c6c(F)c(F)c(F)c(F)c6F)c6nc(c(-c7c(F)c(F)c(F)c(F)c7F)c7ccc4[nH]7)C=C6)C=C5)cc2)=C3)cc1
REMARK SMILES IDX 28 1 27 2 26 3 24 4 25 5 23 6 10 7 11 8 16 9 12 10 15 11
REMARK SMILES IDX 17 12 13 13 14 14 98 15 18 16 9 17 6 18 7 19 100 20 8 21
REMARK SMILES IDX 99 22 5 23 2 25 1 26 3 27 4 28 19 29 20 30 21 31 22 32 29 33
REMARK SMILES IDX 30 34 31 35 32 36 33 37 34 38 35 39 36 40 97 41 37 42 96 43
REMARK SMILES IDX 38 44 39 45 40 46 90 47 41 48 95 49 89 50 91 51 42 52 94 53
REMARK SMILES IDX 88 54 87 55 43 57 75 58 55 59 74 60 56 61 59 62 73 63 92 64
REMARK SMILES IDX 57 65 58 66 72 68 93 69 60 70 44 71 45 72 53 73 46 74 47 75
REMARK SMILES IDX 51 76 54 77 48 78 49 79 52 80 50 81 76 82 77 83 85 84 78 85
REMARK SMILES IDX 79 86 83 87 86 88 80 89 81 90 84 91 82 92 61 93 62 94 70 95
REMARK SMILES IDX 63 96 64 97 68 98 71 99 65 100 66 101 69 102 67 103
REMARK H PARENT 5 24 91 56 59 67
REMARK Flexibility Score: inf
ROOT
ATOM      1  C   UNL     1       7.209   5.836   8.922  1.00  0.00     0.202 C 
ENDROOT
BRANCH   1   2
ATOM      2  C   UNL     1       8.289   4.772   8.672  1.00  0.00     0.261 C 
BRANCH   2   3
ATOM      3  O   UNL     1       8.502   4.493   7.280  1.00  0.00    -0.460 OA
BRANCH   3   4
ATOM      4  C   UNL     1       8.775   3.210   6.973  1.00  0.00     0.338 C 
ATOM      5  O   UNL     1       8.994   2.323   7.787  1.00  0.00    -0.246 OA
BRANCH   4   6
ATOM      6  C   UNL     1       8.624   2.925   5.526  1.00  0.00     0.087 C 
ATOM      7  C   UNL     1       5.149   4.281   3.686  1.00  0.00     0.026 A 
ATOM      8  C   UNL     1       4.243   4.444   4.761  1.00  0.00     0.033 A 
ATOM      9  C   UNL     1       6.388   3.703   4.043  1.00  0.00     0.135 A 
ATOM     10  C   UNL     1       4.405   3.744   5.957  1.00  0.00     0.042 A 
ATOM     11  C   UNL     1       6.431   2.798   5.119  1.00  0.00     0.019 A 
ATOM     12  O   UNL     1       7.579   4.424   3.787  1.00  0.00    -0.475 OA
ATOM     13  Cl  UNL     1       3.247   3.923   7.212  1.00  0.00    -0.084 Cl
ATOM     14  C   UNL     1       5.444   2.838   6.097  1.00  0.00     0.032 A 
ATOM     15  C   UNL     1       7.661   2.007   5.335  1.00  0.00     0.027 C 
ATOM     16  C   UNL     1       8.837   3.865   4.359  1.00  0.00     0.316 C 
BRANCH   7  17
ATOM     17  C   UNL     1       4.447   4.062   2.357  1.00  0.00    -0.014 A 
ATOM     18  C   UNL     1       2.446   3.183   0.476  1.00  0.00     0.048 A 
ATOM     19  C   UNL     1       2.377   4.442   1.077  1.00  0.00     0.027 A 
ATOM     20  C   UNL     1       3.575   2.409   0.729  1.00  0.00     0.027 A 
ATOM     21  C   UNL     1       3.369   4.885   1.973  1.00  0.00     0.011 A 
ATOM     22  C   UNL     1       4.562   2.844   1.651  1.00  0.00     0.011 A 
BRANCH  18  23
ATOM     23  N   UNL     1       1.257   2.730  -0.173  1.00  0.00    -0.284 N 
ATOM     24  H   UNL     1       0.473   3.321  -0.100  1.00  0.00     0.180 HD
BRANCH  23  25
ATOM     25  S   UNL     1       1.033   1.326  -1.036  1.00  0.00     0.229 S 
ATOM     26  C   UNL     1       0.974   0.059   0.218  1.00  0.00     0.183 C 
ATOM     27  O   UNL     1       2.167   1.092  -1.899  1.00  0.00    -0.207 OA
ATOM     28  O   UNL     1      -0.307   1.439  -1.580  1.00  0.00    -0.207 OA
ENDBRANCH  23  25
ENDBRANCH  18  23
ENDBRANCH   7  17
BRANCH  16  29
ATOM     29  C   UNL     1      10.021   4.845   4.525  1.00  0.00     0.430 C 
ATOM     30  F   UNL     1      11.187   4.140   4.512  1.00  0.00    -0.167 F 
ATOM     31  F   UNL     1      10.097   5.725   3.501  1.00  0.00    -0.167 F 
ATOM     32  F   UNL     1      10.018   5.562   5.664  1.00  0.00    -0.167 F 
ENDBRANCH  16  29
ENDBRANCH   4   6
ENDBRANCH   3   4
ENDBRANCH   2   3
ENDBRANCH   1   2
BRANCH   1  33
ATOM     33  O   UNL     1       6.249   6.085   7.905  1.00  0.00    -0.374 OA
BRANCH  33  34
ATOM     34  C   UNL     1       6.697   6.643   6.672  1.00  0.00     0.202 C 
BRANCH  34  35
ATOM     35  C   UNL     1       7.257   8.068   6.668  1.00  0.00     0.261 C 
BRANCH  35  36
ATOM     36  O   UNL     1       8.405   8.241   7.514  1.00  0.00    -0.460 OA
BRANCH  36  37
ATOM     37  C   UNL     1       8.206   9.060   8.570  1.00  0.00     0.338 C 
ATOM     38  O   UNL     1       7.175   9.652   8.876  1.00  0.00    -0.246 OA
BRANCH  37  39
ATOM     39  C   UNL     1       9.383   9.052   9.447  1.00  0.00     0.060 A 
ATOM     40  C   UNL     1       9.215   8.626  10.770  1.00  0.00     0.016 A 
ATOM     41  C   UNL     1      10.603   9.569   9.010  1.00  0.00     0.016 A 
ATOM     42  C   UNL     1      10.261   8.758  11.679  1.00  0.00     0.010 A 
ATOM     43  C   UNL     1      11.649   9.707   9.925  1.00  0.00     0.010 A 
ATOM     44  C   UNL     1      11.470   9.337  11.271  1.00  0.00    -0.014 A 
BRANCH  44  45
ATOM     45  C   UNL     1      12.490   9.688  12.286  1.00  0.00     0.031 A 
ATOM     46  C   UNL     1      12.617  11.118  12.729  1.00  0.00     0.074 A 
ATOM     47  C   UNL     1      13.275   8.737  12.820  1.00  0.00     0.049 A 
ATOM     48  N   UNL     1      13.463  11.658  13.569  1.00  0.00    -0.248 NA
ATOM     49  C   UNL     1      11.662  12.072  12.143  1.00  0.00     0.031 C 
ATOM     50  C   UNL     1      13.216   7.314  12.492  1.00  0.00     0.029 A 
ATOM     51  N   UNL     1      14.281   8.829  13.747  1.00  0.00    -0.354 N 
ATOM     52  C   UNL     1      13.151  13.011  13.602  1.00  0.00     0.074 A 
ATOM     53  C   UNL     1      12.060  13.218  12.675  1.00  0.00     0.031 C 
ATOM     54  C   UNL     1      14.154   6.665  13.202  1.00  0.00     0.029 A 
ATOM     55  C   UNL     1      14.901   7.632  14.003  1.00  0.00     0.049 A 
ATOM     56  H   UNL     1      14.535   9.673  14.187  1.00  0.00     0.167 HD
ATOM     57  C   UNL     1      13.720  13.989  14.347  1.00  0.00     0.037 A 
ATOM     58  C   UNL     1      15.967   7.356  14.779  1.00  0.00     0.037 A 
ATOM     59  C   UNL     1      14.805  13.772  15.269  1.00  0.00     0.049 A 
ATOM     60  C   UNL     1      16.622   8.473  15.550  1.00  0.00     0.074 A 
ATOM     61  C   UNL     1      15.438  14.689  16.089  1.00  0.00     0.029 A 
ATOM     62  N   UNL     1      15.423  12.548  15.486  1.00  0.00    -0.354 N 
ATOM     63  N   UNL     1      16.305   9.745  15.599  1.00  0.00    -0.248 NA
ATOM     64  C   UNL     1      17.779   8.113  16.381  1.00  0.00     0.031 C 
ATOM     65  C   UNL     1      16.479  14.034  16.755  1.00  0.00     0.029 A 
ATOM     66  C   UNL     1      16.450  12.694  16.406  1.00  0.00     0.049 A 
ATOM     67  H   UNL     1      15.170  11.702  15.052  1.00  0.00     0.167 HD
ATOM     68  C   UNL     1      17.199  10.329  16.488  1.00  0.00     0.074 A 
ATOM     69  C   UNL     1      18.061   9.268  16.966  1.00  0.00     0.031 C 
ATOM     70  C   UNL     1      17.295  11.625  16.877  1.00  0.00     0.037 A 
BRANCH  57  71
ATOM     71  C   UNL     1      13.204  15.389  14.171  1.00  0.00     0.064 A 
ATOM     72  C   UNL     1      11.926  15.769  14.608  1.00  0.00     0.173 A 
ATOM     73  C   UNL     1      14.014  16.374  13.585  1.00  0.00     0.173 A 
ATOM     74  F   UNL     1      11.104  14.865  15.163  1.00  0.00    -0.203 F 
ATOM     75  C   UNL     1      11.469  17.075  14.440  1.00  0.00     0.198 A 
ATOM     76  C   UNL     1      13.567  17.685  13.449  1.00  0.00     0.198 A 
ATOM     77  F   UNL     1      15.246  16.067  13.153  1.00  0.00    -0.203 F 
ATOM     78  F   UNL     1      10.226  17.402  14.819  1.00  0.00    -0.200 F 
ATOM     79  C   UNL     1      12.292  18.033  13.868  1.00  0.00     0.200 A 
ATOM     80  F   UNL     1      14.370  18.613  12.910  1.00  0.00    -0.200 F 
ATOM     81  F   UNL     1      11.855  19.290  13.715  1.00  0.00    -0.200 F 
ENDBRANCH  57  71
BRANCH  58  82
ATOM     82  C   UNL     1      16.487   5.965  14.859  1.00  0.00     0.064 A 
ATOM     83  C   UNL     1      16.404   5.228  16.048  1.00  0.00     0.173 A 
ATOM     84  C   UNL     1      17.090   5.350  13.752  1.00  0.00     0.173 A 
ATOM     85  F   UNL     1      15.858   5.779  17.142  1.00  0.00    -0.203 F 
ATOM     86  C   UNL     1      16.924   3.938  16.133  1.00  0.00     0.198 A 
ATOM     87  C   UNL     1      17.580   4.048  13.828  1.00  0.00     0.198 A 
ATOM     88  F   UNL     1      17.194   6.011  12.590  1.00  0.00    -0.203 F 
ATOM     89  F   UNL     1      16.879   3.275  17.297  1.00  0.00    -0.200 F 
ATOM     90  C   UNL     1      17.506   3.346  15.022  1.00  0.00     0.200 A 
ATOM     91  F   UNL     1      18.128   3.476  12.748  1.00  0.00    -0.200 F 
ATOM     92  F   UNL     1      18.002   2.105  15.103  1.00  0.00    -0.200 F 
ENDBRANCH  58  82
BRANCH  70  93
ATOM     93  C   UNL     1      18.338  11.961  17.906  1.00  0.00     0.064 A 
ATOM     94  C   UNL     1      19.709  11.928  17.613  1.00  0.00     0.173 A 
ATOM     95  C   UNL     1      17.954  12.355  19.198  1.00  0.00     0.173 A 
ATOM     96  F   UNL     1      20.131  11.545  16.398  1.00  0.00    -0.203 F 
ATOM     97  C   UNL     1      20.657  12.242  18.583  1.00  0.00     0.198 A 
ATOM     98  C   UNL     1      18.903  12.706  20.154  1.00  0.00     0.198 A 
ATOM     99  F   UNL     1      16.656  12.415  19.530  1.00  0.00    -0.203 F 
ATOM    100  F   UNL     1      21.963  12.146  18.297  1.00  0.00    -0.200 F 
ATOM    101  C   UNL     1      20.254  12.638  19.849  1.00  0.00     0.200 A 
ATOM    102  F   UNL     1      18.510  13.106  21.371  1.00  0.00    -0.200 F 
ATOM    103  F   UNL     1      21.168  12.948  20.780  1.00  0.00    -0.200 F 
ENDBRANCH  70  93
ENDBRANCH  44  45
ENDBRANCH  37  39
ENDBRANCH  36  37
ENDBRANCH  35  36
ENDBRANCH  34  35
ENDBRANCH  33  34
ENDBRANCH   1  33
TORSDOF 18
