REMARK SMILES CC(=O)NS(=O)(=O)c1cc(-c2ccn(C(F)F)c(=O)c2)ccc1C(=O)OCCOCCOC(=O)c1ccc(-c2c3nc(c(-c4c(F)c(F)c(F)c(F)c4F)c4ccc([nH]4)c(-c4c(F)c(F)c(F)c(F)c4F)c4nc(c(-c5c(F)c(F)c(F)c(F)c5F)c5ccc2[nH]5)C=C4)C=C3)cc1
REMARK SMILES IDX 29 1 28 2 27 3 26 4 24 5 25 6 23 7 8 8 9 9 10 10 22 11 21 12
REMARK SMILES IDX 5 13 6 14 7 15 4 16 1 17 2 18 3 19 11 21 12 22 20 23 13 24
REMARK SMILES IDX 18 25 14 26 19 27 15 28 16 29 17 30 30 31 31 32 32 33 33 34
REMARK SMILES IDX 34 35 35 36 36 37 97 38 37 39 96 40 38 41 39 42 40 43 90 44
REMARK SMILES IDX 41 45 95 46 89 47 91 48 42 49 94 50 88 51 87 52 43 54 75 55
REMARK SMILES IDX 55 56 74 57 56 58 59 59 73 60 92 61 57 62 58 63 72 65 93 66
REMARK SMILES IDX 60 67 44 68 45 69 53 70 46 71 47 72 51 73 54 74 48 75 49 76
REMARK SMILES IDX 52 77 50 78 76 79 77 80 85 81 78 82 79 83 83 84 86 85 80 86
REMARK SMILES IDX 81 87 84 88 82 89 61 90 62 91 70 92 63 93 64 94 68 95 71 96
REMARK SMILES IDX 65 97 66 98 69 99 67 100
REMARK H PARENT 4 20 91 53 59 64
REMARK Flexibility Score: inf
ROOT
ATOM      1  O   UNL     1      -1.223   0.316   1.968  1.00  0.00    -0.374 OA
ENDROOT
BRANCH   1   2
ATOM      2  C   UNL     1      -1.442  -1.017   1.494  1.00  0.00     0.202 C 
BRANCH   2   3
ATOM      3  C   UNL     1      -1.582  -1.080  -0.027  1.00  0.00     0.261 C 
BRANCH   3   4
ATOM      4  O   UNL     1      -0.299  -0.925  -0.665  1.00  0.00    -0.460 OA
BRANCH   4   5
ATOM      5  C   UNL     1      -0.387  -0.753  -2.005  1.00  0.00     0.339 C 
ATOM      6  O   UNL     1      -1.394  -0.669  -2.684  1.00  0.00    -0.246 OA
BRANCH   5   7
ATOM      7  C   UNL     1       0.960  -0.481  -2.528  1.00  0.00     0.080 A 
ATOM      8  C   UNL     1       1.989  -1.422  -2.593  1.00  0.00     0.103 A 
ATOM      9  C   UNL     1       3.235  -1.062  -3.138  1.00  0.00     0.032 A 
ATOM     10  C   UNL     1       3.468   0.243  -3.583  1.00  0.00    -0.017 A 
ATOM     11  C   UNL     1       1.192   0.826  -2.982  1.00  0.00     0.018 A 
ATOM     12  C   UNL     1       2.441   1.188  -3.495  1.00  0.00     0.010 A 
BRANCH   8  13
ATOM     13  S   UNL     1       1.794  -3.104  -2.105  1.00  0.00     0.264 S 
ATOM     14  O   UNL     1       2.623  -3.902  -2.982  1.00  0.00    -0.201 OA
ATOM     15  O   UNL     1       0.394  -3.414  -1.947  1.00  0.00    -0.201 OA
BRANCH  13  16
ATOM     16  N   UNL     1       2.486  -3.222  -0.576  1.00  0.00    -0.249 N 
ATOM     17  C   UNL     1       3.257  -0.994   0.268  1.00  0.00     0.115 C 
ATOM     18  C   UNL     1       2.386  -2.208   0.392  1.00  0.00     0.230 C 
ATOM     19  O   UNL     1       1.680  -2.411   1.364  1.00  0.00    -0.274 OA
ATOM     20  H   UNL     1       2.983  -4.040  -0.348  1.00  0.00     0.183 HD
ENDBRANCH  13  16
ENDBRANCH   8  13
BRANCH  10  21
ATOM     21  C   UNL     1       4.776   0.612  -4.146  1.00  0.00    -0.011 A 
ATOM     22  C   UNL     1       5.742   1.421  -3.429  1.00  0.00     0.027 A 
ATOM     23  C   UNL     1       5.071   0.180  -5.384  1.00  0.00     0.080 A 
ATOM     24  C   UNL     1       6.905   1.752  -4.002  1.00  0.00     0.095 A 
ATOM     25  C   UNL     1       6.362   0.539  -6.033  1.00  0.00     0.255 A 
ATOM     26  N   UNL     1       7.216   1.330  -5.281  1.00  0.00    -0.258 N 
ATOM     27  O   UNL     1       6.580   0.126  -7.167  1.00  0.00    -0.269 OA
BRANCH  26  28
ATOM     28  C   UNL     1       8.452   1.726  -5.906  1.00  0.00     0.451 C 
ATOM     29  F   UNL     1       9.187   0.647  -6.268  1.00  0.00    -0.185 F 
ATOM     30  F   UNL     1       8.216   2.468  -7.015  1.00  0.00    -0.185 F 
ENDBRANCH  26  28
ENDBRANCH  10  21
ENDBRANCH   5   7
ENDBRANCH   4   5
ENDBRANCH   3   4
ENDBRANCH   2   3
ENDBRANCH   1   2
BRANCH   1  31
ATOM     31  C   UNL     1       0.145   0.720   2.028  1.00  0.00     0.202 C 
BRANCH  31  32
ATOM     32  C   UNL     1       0.786   0.474   3.401  1.00  0.00     0.261 C 
BRANCH  32  33
ATOM     33  O   UNL     1       1.025  -0.930   3.611  1.00  0.00    -0.460 OA
BRANCH  33  34
ATOM     34  C   UNL     1       0.162  -1.552   4.447  1.00  0.00     0.338 C 
ATOM     35  O   UNL     1      -0.658  -1.015   5.174  1.00  0.00    -0.246 OA
BRANCH  34  36
ATOM     36  C   UNL     1       0.227  -3.026   4.282  1.00  0.00     0.060 A 
ATOM     37  C   UNL     1      -0.973  -3.730   4.426  1.00  0.00     0.016 A 
ATOM     38  C   UNL     1       1.412  -3.725   4.023  1.00  0.00     0.016 A 
ATOM     39  C   UNL     1      -0.985  -5.123   4.372  1.00  0.00     0.010 A 
ATOM     40  C   UNL     1       1.397  -5.127   3.946  1.00  0.00     0.010 A 
ATOM     41  C   UNL     1       0.205  -5.836   4.170  1.00  0.00    -0.014 A 
BRANCH  41  42
ATOM     42  C   UNL     1       0.189  -7.307   4.385  1.00  0.00     0.031 A 
ATOM     43  C   UNL     1       0.673  -7.855   5.701  1.00  0.00     0.074 A 
ATOM     44  C   UNL     1      -0.359  -8.141   3.481  1.00  0.00     0.049 A 
ATOM     45  N   UNL     1       0.590  -9.073   6.176  1.00  0.00    -0.248 NA
ATOM     46  C   UNL     1       1.334  -6.901   6.606  1.00  0.00     0.031 C 
ATOM     47  C   UNL     1      -0.879  -7.750   2.174  1.00  0.00     0.029 A 
ATOM     48  N   UNL     1      -0.590  -9.494   3.545  1.00  0.00    -0.354 N 
ATOM     49  C   UNL     1       1.167  -9.024   7.438  1.00  0.00     0.074 A 
ATOM     50  C   UNL     1       1.647  -7.674   7.634  1.00  0.00     0.031 C 
ATOM     51  C   UNL     1      -1.387  -8.836   1.565  1.00  0.00     0.029 A 
ATOM     52  C   UNL     1      -1.225  -9.998   2.437  1.00  0.00     0.049 A 
ATOM     53  H   UNL     1      -0.326 -10.050   4.314  1.00  0.00     0.167 HD
ATOM     54  C   UNL     1       1.266 -10.006   8.366  1.00  0.00     0.037 A 
ATOM     55  C   UNL     1      -1.640 -11.252   2.164  1.00  0.00     0.037 A 
ATOM     56  C   UNL     1       0.792 -11.351   8.189  1.00  0.00     0.049 A 
ATOM     57  C   UNL     1      -1.469 -12.341   3.192  1.00  0.00     0.074 A 
ATOM     58  C   UNL     1       0.825 -12.403   9.087  1.00  0.00     0.029 A 
ATOM     59  N   UNL     1       0.205 -11.833   7.029  1.00  0.00    -0.354 N 
ATOM     60  N   UNL     1      -0.981 -12.268   4.405  1.00  0.00    -0.248 NA
ATOM     61  C   UNL     1      -1.924 -13.688   2.811  1.00  0.00     0.031 C 
ATOM     62  C   UNL     1       0.300 -13.536   8.455  1.00  0.00     0.029 A 
ATOM     63  C   UNL     1      -0.101 -13.177   7.179  1.00  0.00     0.049 A 
ATOM     64  H   UNL     1       0.032 -11.301   6.220  1.00  0.00     0.167 HD
ATOM     65  C   UNL     1      -1.091 -13.546   4.940  1.00  0.00     0.074 A 
ATOM     66  C   UNL     1      -1.707 -14.374   3.925  1.00  0.00     0.031 C 
ATOM     67  C   UNL     1      -0.715 -13.993   6.164  1.00  0.00     0.037 A 
BRANCH  54  68
ATOM     68  C   UNL     1       1.927  -9.653   9.665  1.00  0.00     0.064 A 
ATOM     69  C   UNL     1       1.284  -8.849  10.618  1.00  0.00     0.173 A 
ATOM     70  C   UNL     1       3.206 -10.141   9.966  1.00  0.00     0.173 A 
ATOM     71  F   UNL     1       0.066  -8.346  10.367  1.00  0.00    -0.203 F 
ATOM     72  C   UNL     1       1.911  -8.525  11.818  1.00  0.00     0.198 A 
ATOM     73  C   UNL     1       3.820  -9.835  11.177  1.00  0.00     0.198 A 
ATOM     74  F   UNL     1       3.860 -10.914   9.087  1.00  0.00    -0.203 F 
ATOM     75  F   UNL     1       1.300  -7.717  12.695  1.00  0.00    -0.200 F 
ATOM     76  C   UNL     1       3.176  -9.022  12.098  1.00  0.00     0.200 A 
ATOM     77  F   UNL     1       5.038 -10.321  11.451  1.00  0.00    -0.200 F 
ATOM     78  F   UNL     1       3.778  -8.710  13.254  1.00  0.00    -0.200 F 
ENDBRANCH  54  68
BRANCH  55  79
ATOM     79  C   UNL     1      -2.280 -11.551   0.857  1.00  0.00     0.064 A 
ATOM     80  C   UNL     1      -3.644 -11.859   0.769  1.00  0.00     0.173 A 
ATOM     81  C   UNL     1      -1.528 -11.569  -0.327  1.00  0.00     0.173 A 
ATOM     82  F   UNL     1      -4.397 -11.886   1.879  1.00  0.00    -0.203 F 
ATOM     83  C   UNL     1      -4.230 -12.190  -0.451  1.00  0.00     0.198 A 
ATOM     84  C   UNL     1      -2.119 -11.877  -1.550  1.00  0.00     0.198 A 
ATOM     85  F   UNL     1      -0.217 -11.291  -0.293  1.00  0.00    -0.203 F 
ATOM     86  F   UNL     1      -5.526 -12.528  -0.501  1.00  0.00    -0.200 F 
ATOM     87  C   UNL     1      -3.468 -12.195  -1.610  1.00  0.00     0.200 A 
ATOM     88  F   UNL     1      -1.381 -11.878  -2.667  1.00  0.00    -0.200 F 
ATOM     89  F   UNL     1      -4.030 -12.518  -2.783  1.00  0.00    -0.200 F 
ENDBRANCH  55  79
BRANCH  67  90
ATOM     90  C   UNL     1      -0.974 -15.437   6.486  1.00  0.00     0.064 A 
ATOM     91  C   UNL     1      -0.219 -16.465   5.904  1.00  0.00     0.173 A 
ATOM     92  C   UNL     1      -1.962 -15.793   7.417  1.00  0.00     0.173 A 
ATOM     93  F   UNL     1       0.729 -16.177   4.998  1.00  0.00    -0.203 F 
ATOM     94  C   UNL     1      -0.459 -17.799   6.224  1.00  0.00     0.198 A 
ATOM     95  C   UNL     1      -2.181 -17.126   7.755  1.00  0.00     0.198 A 
ATOM     96  F   UNL     1      -2.707 -14.848   8.009  1.00  0.00    -0.203 F 
ATOM     97  F   UNL     1       0.246 -18.768   5.623  1.00  0.00    -0.200 F 
ATOM     98  C   UNL     1      -1.435 -18.128   7.153  1.00  0.00     0.200 A 
ATOM     99  F   UNL     1      -3.115 -17.442   8.662  1.00  0.00    -0.200 F 
ATOM    100  F   UNL     1      -1.660 -19.412   7.464  1.00  0.00    -0.200 F 
ENDBRANCH  67  90
ENDBRANCH  41  42
ENDBRANCH  34  36
ENDBRANCH  33  34
ENDBRANCH  32  33
ENDBRANCH  31  32
ENDBRANCH   1  31
TORSDOF 18
