REMARK SMILES CN(C(=O)c1cccn1CC(=O)OCCOCCOC(=O)c1ccc(-c2c3nc(c(-c4c(F)c(F)c(F)c(F)c4F)c4ccc([nH]4)c(-c4c(F)c(F)c(F)c(F)c4F)c4nc(c(-c5c(F)c(F)c(F)c(F)c5F)c5ccc2[nH]5)C=C4)C=C3)cc1)c1ccc(F)cc1
REMARK SMILES IDX 15 1 14 2 13 3 11 4 12 5 10 6 9 7 5 8 6 9 7 10 8 11 3 12
REMARK SMILES IDX 4 13 2 14 1 15 85 16 86 17 91 18 87 19 90 20 88 21 89 22
REMARK SMILES IDX 16 23 17 24 18 25 19 26 20 27 21 28 22 29 23 30 84 31 24 32
REMARK SMILES IDX 83 33 25 34 26 35 27 36 77 37 28 38 82 39 76 40 78 41 29 42
REMARK SMILES IDX 81 43 75 44 74 45 30 47 62 48 42 49 61 50 43 51 46 52 60 53
REMARK SMILES IDX 79 54 44 55 45 56 59 58 80 59 47 60 31 61 32 62 40 63 33 64
REMARK SMILES IDX 34 65 38 66 41 67 35 68 36 69 39 70 37 71 63 72 64 73 72 74
REMARK SMILES IDX 65 75 66 76 70 77 73 78 67 79 68 80 71 81 69 82 48 83 49 84
REMARK SMILES IDX 57 85 50 86 51 87 55 88 58 89 52 90 53 91 56 92 54 93
REMARK H PARENT 78 46 46 57
REMARK Flexibility Score: inf
ROOT
ATOM      1  C   UNL     1       2.626  -5.908  -3.756  1.00  0.00     0.202 C 
ENDROOT
BRANCH   1   2
ATOM      2  C   UNL     1       2.619  -4.441  -4.184  1.00  0.00     0.261 C 
BRANCH   2   3
ATOM      3  O   UNL     1       1.484  -3.715  -3.669  1.00  0.00    -0.462 OA
BRANCH   3   4
ATOM      4  C   UNL     1       0.618  -3.264  -4.615  1.00  0.00     0.326 C 
ATOM      5  O   UNL     1       0.795  -3.398  -5.824  1.00  0.00    -0.250 OA
BRANCH   4   6
ATOM      6  C   UNL     1      -0.641  -2.624  -4.095  1.00  0.00     0.244 C 
BRANCH   6   7
ATOM      7  N   UNL     1      -0.874  -2.617  -2.650  1.00  0.00    -0.332 N 
ATOM      8  C   UNL     1      -0.690  -1.551  -1.774  1.00  0.00     0.108 A 
ATOM      9  C   UNL     1      -1.210  -1.956  -0.549  1.00  0.00     0.033 A 
ATOM     10  C   UNL     1      -1.734  -3.260  -0.688  1.00  0.00     0.020 A 
ATOM     11  C   UNL     1      -1.559  -3.621  -2.000  1.00  0.00     0.087 A 
BRANCH   8  12
ATOM     12  C   UNL     1      -0.196  -0.240  -2.178  1.00  0.00     0.274 C 
ATOM     13  O   UNL     1      -0.544   0.204  -3.272  1.00  0.00    -0.267 OA
BRANCH  12  14
ATOM     14  N   UNL     1       0.692   0.472  -1.342  1.00  0.00    -0.310 N 
ATOM     15  C   UNL     1       1.322  -0.099  -0.152  1.00  0.00     0.153 C 
BRANCH  14  16
ATOM     16  C   UNL     1       1.067   1.816  -1.712  1.00  0.00     0.044 A 
ATOM     17  C   UNL     1       0.140   2.677  -2.330  1.00  0.00     0.029 A 
ATOM     18  C   UNL     1       2.372   2.294  -1.514  1.00  0.00     0.029 A 
ATOM     19  C   UNL     1       0.514   3.943  -2.787  1.00  0.00     0.041 A 
ATOM     20  C   UNL     1       2.751   3.558  -1.980  1.00  0.00     0.041 A 
ATOM     21  C   UNL     1       1.822   4.367  -2.619  1.00  0.00     0.123 A 
ATOM     22  F   UNL     1       2.195   5.565  -3.084  1.00  0.00    -0.207 F 
ENDBRANCH  14  16
ENDBRANCH  12  14
ENDBRANCH   8  12
ENDBRANCH   6   7
ENDBRANCH   4   6
ENDBRANCH   3   4
ENDBRANCH   2   3
ENDBRANCH   1   2
BRANCH   1  23
ATOM     23  O   UNL     1       1.534  -6.727  -4.170  1.00  0.00    -0.374 OA
BRANCH  23  24
ATOM     24  C   UNL     1       0.241  -6.497  -3.625  1.00  0.00     0.202 C 
BRANCH  24  25
ATOM     25  C   UNL     1      -0.016  -6.886  -2.175  1.00  0.00     0.261 C 
BRANCH  25  26
ATOM     26  O   UNL     1       0.853  -6.254  -1.246  1.00  0.00    -0.460 OA
BRANCH  26  27
ATOM     27  C   UNL     1       1.869  -7.070  -0.891  1.00  0.00     0.338 C 
ATOM     28  O   UNL     1       2.311  -8.018  -1.517  1.00  0.00    -0.246 OA
BRANCH  27  29
ATOM     29  C   UNL     1       2.274  -6.800   0.484  1.00  0.00     0.060 A 
ATOM     30  C   UNL     1       3.412  -7.488   0.913  1.00  0.00     0.016 A 
ATOM     31  C   UNL     1       1.379  -6.188   1.372  1.00  0.00     0.016 A 
ATOM     32  C   UNL     1       3.571  -7.716   2.256  1.00  0.00     0.010 A 
ATOM     33  C   UNL     1       1.527  -6.432   2.720  1.00  0.00     0.010 A 
ATOM     34  C   UNL     1       2.604  -7.224   3.139  1.00  0.00    -0.014 A 
BRANCH  34  35
ATOM     35  C   UNL     1       2.881  -7.378   4.564  1.00  0.00     0.031 A 
ATOM     36  C   UNL     1       3.751  -6.203   5.052  1.00  0.00     0.074 A 
ATOM     37  C   UNL     1       2.367  -8.511   5.132  1.00  0.00     0.049 A 
ATOM     38  N   UNL     1       4.424  -6.061   6.148  1.00  0.00    -0.248 NA
ATOM     39  C   UNL     1       3.920  -5.001   4.175  1.00  0.00     0.031 C 
ATOM     40  C   UNL     1       1.521  -9.515   4.438  1.00  0.00     0.029 A 
ATOM     41  N   UNL     1       2.456  -9.066   6.388  1.00  0.00    -0.354 N 
ATOM     42  C   UNL     1       4.870  -4.722   6.201  1.00  0.00     0.074 A 
ATOM     43  C   UNL     1       4.620  -4.148   4.920  1.00  0.00     0.031 C 
ATOM     44  C   UNL     1       1.266 -10.574   5.239  1.00  0.00     0.029 A 
ATOM     45  C   UNL     1       1.880 -10.359   6.534  1.00  0.00     0.049 A 
ATOM     46  H   UNL     1       2.891  -8.599   7.138  1.00  0.00     0.167 HD
ATOM     47  C   UNL     1       5.295  -4.136   7.355  1.00  0.00     0.037 A 
ATOM     48  C   UNL     1       1.938 -11.197   7.618  1.00  0.00     0.037 A 
ATOM     49  C   UNL     1       5.392  -5.113   8.382  1.00  0.00     0.049 A 
ATOM     50  C   UNL     1       2.521 -10.363   8.676  1.00  0.00     0.074 A 
ATOM     51  C   UNL     1       6.298  -6.120   8.579  1.00  0.00     0.029 A 
ATOM     52  N   UNL     1       4.265  -5.361   9.124  1.00  0.00    -0.354 N 
ATOM     53  N   UNL     1       1.887  -9.403   9.280  1.00  0.00    -0.248 NA
ATOM     54  C   UNL     1       3.938 -10.536   9.013  1.00  0.00     0.031 C 
ATOM     55  C   UNL     1       5.506  -7.179   9.062  1.00  0.00     0.029 A 
ATOM     56  C   UNL     1       4.218  -6.714   9.355  1.00  0.00     0.049 A 
ATOM     57  H   UNL     1       3.611  -4.693   9.434  1.00  0.00     0.167 HD
ATOM     58  C   UNL     1       2.919  -8.663   9.801  1.00  0.00     0.074 A 
ATOM     59  C   UNL     1       4.058  -9.549   9.896  1.00  0.00     0.031 C 
ATOM     60  C   UNL     1       2.936  -7.318   9.620  1.00  0.00     0.037 A 
BRANCH  47  61
ATOM     61  C   UNL     1       5.451  -2.697   7.746  1.00  0.00     0.064 A 
ATOM     62  C   UNL     1       6.207  -2.409   8.909  1.00  0.00     0.173 A 
ATOM     63  C   UNL     1       4.605  -1.681   7.285  1.00  0.00     0.173 A 
ATOM     64  F   UNL     1       7.096  -3.293   9.387  1.00  0.00    -0.203 F 
ATOM     65  C   UNL     1       5.995  -1.254   9.656  1.00  0.00     0.198 A 
ATOM     66  C   UNL     1       4.435  -0.499   8.011  1.00  0.00     0.198 A 
ATOM     67  F   UNL     1       3.851  -1.846   6.191  1.00  0.00    -0.203 F 
ATOM     68  F   UNL     1       6.613  -1.101  10.835  1.00  0.00    -0.200 F 
ATOM     69  C   UNL     1       5.089  -0.310   9.219  1.00  0.00     0.200 A 
ATOM     70  F   UNL     1       3.567   0.425   7.576  1.00  0.00    -0.200 F 
ATOM     71  F   UNL     1       4.819   0.763   9.973  1.00  0.00    -0.200 F 
ENDBRANCH  47  61
BRANCH  48  72
ATOM     72  C   UNL     1       1.651 -12.636   7.992  1.00  0.00     0.064 A 
ATOM     73  C   UNL     1       1.024 -13.596   7.191  1.00  0.00     0.173 A 
ATOM     74  C   UNL     1       2.139 -13.150   9.233  1.00  0.00     0.173 A 
ATOM     75  F   UNL     1       0.408 -13.249   6.056  1.00  0.00    -0.203 F 
ATOM     76  C   UNL     1       1.003 -14.963   7.542  1.00  0.00     0.198 A 
ATOM     77  C   UNL     1       2.173 -14.507   9.553  1.00  0.00     0.198 A 
ATOM     78  F   UNL     1       2.617 -12.347  10.192  1.00  0.00    -0.203 F 
ATOM     79  F   UNL     1       0.396 -15.847   6.738  1.00  0.00    -0.200 F 
ATOM     80  C   UNL     1       1.618 -15.421   8.695  1.00  0.00     0.200 A 
ATOM     81  F   UNL     1       2.770 -14.906  10.685  1.00  0.00    -0.200 F 
ATOM     82  F   UNL     1       1.668 -16.729   8.983  1.00  0.00    -0.200 F 
ENDBRANCH  48  72
BRANCH  60  83
ATOM     83  C   UNL     1       1.570  -6.715   9.340  1.00  0.00     0.064 A 
ATOM     84  C   UNL     1       0.558  -6.811  10.309  1.00  0.00     0.173 A 
ATOM     85  C   UNL     1       1.185  -6.158   8.108  1.00  0.00     0.173 A 
ATOM     86  F   UNL     1       0.843  -7.304  11.523  1.00  0.00    -0.203 F 
ATOM     87  C   UNL     1      -0.754  -6.404  10.049  1.00  0.00     0.198 A 
ATOM     88  C   UNL     1      -0.126  -5.750   7.843  1.00  0.00     0.198 A 
ATOM     89  F   UNL     1       2.072  -5.981   7.133  1.00  0.00    -0.203 F 
ATOM     90  F   UNL     1      -1.688  -6.514  11.003  1.00  0.00    -0.200 F 
ATOM     91  C   UNL     1      -1.098  -5.880   8.813  1.00  0.00     0.200 A 
ATOM     92  F   UNL     1      -0.436  -5.224   6.647  1.00  0.00    -0.200 F 
ATOM     93  F   UNL     1      -2.354  -5.481   8.568  1.00  0.00    -0.200 F 
ENDBRANCH  60  83
ENDBRANCH  34  35
ENDBRANCH  27  29
ENDBRANCH  26  27
ENDBRANCH  25  26
ENDBRANCH  24  25
ENDBRANCH  23  24
ENDBRANCH   1  23
TORSDOF 18
