REMARK SMILES Cc1cc(C)cc(Oc2nc3ccccn3c(=O)c2/C=C2\SC(=S)N(CCC(=O)OCCOCCOC(=O)c3ccc(-c4c5nc(c(-c6c(F)c(F)c(F)c(F)c6F)c6ccc([nH]6)c(-c6c(F)c(F)c(F)c(F)c6F)c6nc(c(-c7c(F)c(F)c(F)c(F)c7F)c7ccc4[nH]7)C=C6)C=C5)cc3)C2=O)c1
REMARK SMILES IDX 31 1 30 2 28 3 29 4 27 5 26 6 25 7 20 8 21 9 22 10 102 11
REMARK SMILES IDX 23 12 103 13 24 14 19 15 9 16 10 17 11 18 17 19 12 20 16 21
REMARK SMILES IDX 18 22 13 23 15 24 14 25 8 26 7 27 1 28 2 29 3 30 104 31 4 32
REMARK SMILES IDX 5 33 6 34 32 35 33 36 34 37 35 38 36 39 37 40 38 41 39 42
REMARK SMILES IDX 40 43 101 44 41 45 100 46 42 47 43 48 44 49 94 50 45 51
REMARK SMILES IDX 99 52 93 53 95 54 46 55 98 56 92 57 91 58 47 60 79 61 59 62
REMARK SMILES IDX 78 63 60 64 63 65 77 66 96 67 61 68 62 69 76 71 97 72 64 73
REMARK SMILES IDX 48 74 49 75 57 76 50 77 51 78 55 79 58 80 52 81 53 82 56 83
REMARK SMILES IDX 54 84 80 85 81 86 89 87 82 88 83 89 87 90 90 91 84 92 85 93
REMARK SMILES IDX 88 94 86 95 65 96 66 97 74 98 67 99 68 100 72 101 75 102
REMARK SMILES IDX 69 103 70 104 73 105 71 106
REMARK H PARENT 95 59 63 70
REMARK Flexibility Score: inf
ROOT
ATOM      1  C   UNL     1      -0.909   0.482   4.201  1.00  0.00     0.261 C 
ENDROOT
BRANCH   1   2
ATOM      2  O   UNL     1       0.326   1.038   3.701  1.00  0.00    -0.463 OA
BRANCH   2   3
ATOM      3  C   UNL     1       0.794   2.156   4.303  1.00  0.00     0.307 C 
ATOM      4  O   UNL     1       0.212   2.782   5.179  1.00  0.00    -0.252 OA
BRANCH   3   5
ATOM      5  C   UNL     1       2.138   2.578   3.746  1.00  0.00     0.144 C 
BRANCH   5   6
ATOM      6  C   UNL     1       3.328   1.690   4.130  1.00  0.00     0.139 C 
BRANCH   6   7
ATOM      7  N   UNL     1       3.649   0.643   3.146  1.00  0.00    -0.292 N 
ATOM      8  C   UNL     1       2.448  -2.362   1.620  1.00  0.00     0.041 C 
ATOM      9  C   UNL     1       3.271  -1.378   2.005  1.00  0.00     0.081 C 
ATOM     10  S   UNL     1       4.725  -0.819   1.300  1.00  0.00    -0.054 SA
ATOM     11  C   UNL     1       2.911  -0.516   3.139  1.00  0.00     0.266 C 
ATOM     12  C   UNL     1       4.717   0.657   2.272  1.00  0.00     0.148 C 
ATOM     13  O   UNL     1       2.089  -0.856   3.974  1.00  0.00    -0.268 OA
ATOM     14  S   UNL     1       5.874   1.842   2.078  1.00  0.00    -0.052 S 
BRANCH   8  15
ATOM     15  C   UNL     1       2.660  -3.269   0.508  1.00  0.00     0.104 A 
ATOM     16  C   UNL     1       1.838  -3.394  -0.556  1.00  0.00     0.234 A 
ATOM     17  N   UNL     1       2.032  -4.329  -1.538  1.00  0.00    -0.194 NA
ATOM     18  C   UNL     1       2.987  -5.190  -1.413  1.00  0.00     0.143 A 
ATOM     19  C   UNL     1       3.801  -4.233   0.615  1.00  0.00     0.269 A 
ATOM     20  C   UNL     1       3.141  -6.253  -2.446  1.00  0.00     0.048 A 
ATOM     21  N   UNL     1       3.894  -5.194  -0.372  1.00  0.00    -0.267 N 
ATOM     22  O   UNL     1       4.556  -4.185   1.591  1.00  0.00    -0.268 OA
ATOM     23  C   UNL     1       4.119  -7.159  -2.333  1.00  0.00     0.005 A 
ATOM     24  C   UNL     1       4.897  -6.155  -0.295  1.00  0.00     0.096 A 
ATOM     25  C   UNL     1       5.031  -7.109  -1.222  1.00  0.00     0.019 A 
BRANCH  16  26
ATOM     26  O   UNL     1       0.616  -2.725  -0.683  1.00  0.00    -0.438 OA
BRANCH  26  27
ATOM     27  C   UNL     1       0.471  -1.370  -0.537  1.00  0.00     0.130 A 
ATOM     28  C   UNL     1       2.444   1.860  -0.455  1.00  0.00     0.044 C 
ATOM     29  C   UNL     1       1.297   0.898  -0.418  1.00  0.00    -0.047 A 
ATOM     30  C   UNL     1       0.004   1.345  -0.118  1.00  0.00     0.007 A 
ATOM     31  C   UNL     1       1.507  -0.456  -0.690  1.00  0.00     0.050 A 
ATOM     32  C   UNL     1      -1.072   0.449  -0.071  1.00  0.00    -0.047 A 
ATOM     33  C   UNL     1      -2.465   0.968   0.138  1.00  0.00     0.044 C 
ATOM     34  C   UNL     1      -0.823  -0.916  -0.259  1.00  0.00     0.050 A 
ENDBRANCH  26  27
ENDBRANCH  16  26
ENDBRANCH   8  15
ENDBRANCH   6   7
ENDBRANCH   5   6
ENDBRANCH   3   5
ENDBRANCH   2   3
ENDBRANCH   1   2
BRANCH   1  35
ATOM     35  C   UNL     1      -0.712  -0.657   5.217  1.00  0.00     0.202 C 
BRANCH  35  36
ATOM     36  O   UNL     1      -0.353  -0.262   6.543  1.00  0.00    -0.374 OA
BRANCH  36  37
ATOM     37  C   UNL     1       1.039  -0.071   6.780  1.00  0.00     0.202 C 
BRANCH  37  38
ATOM     38  C   UNL     1       1.835  -1.307   7.234  1.00  0.00     0.261 C 
BRANCH  38  39
ATOM     39  O   UNL     1       1.921  -2.332   6.227  1.00  0.00    -0.460 OA
BRANCH  39  40
ATOM     40  C   UNL     1       0.977  -3.297   6.301  1.00  0.00     0.338 C 
ATOM     41  O   UNL     1       0.171  -3.462   7.202  1.00  0.00    -0.246 OA
BRANCH  40  42
ATOM     42  C   UNL     1       0.927  -4.080   5.043  1.00  0.00     0.060 A 
ATOM     43  C   UNL     1      -0.337  -4.410   4.535  1.00  0.00     0.016 A 
ATOM     44  C   UNL     1       2.069  -4.538   4.389  1.00  0.00     0.016 A 
ATOM     45  C   UNL     1      -0.468  -5.232   3.409  1.00  0.00     0.010 A 
ATOM     46  C   UNL     1       1.931  -5.356   3.255  1.00  0.00     0.010 A 
ATOM     47  C   UNL     1       0.664  -5.738   2.760  1.00  0.00    -0.014 A 
BRANCH  47  48
ATOM     48  C   UNL     1       0.551  -6.756   1.664  1.00  0.00     0.031 A 
ATOM     49  C   UNL     1       1.175  -8.118   1.864  1.00  0.00     0.074 A 
ATOM     50  C   UNL     1      -0.091  -6.517   0.500  1.00  0.00     0.049 A 
ATOM     51  N   UNL     1       1.298  -9.115   1.020  1.00  0.00    -0.248 NA
ATOM     52  C   UNL     1       1.731  -8.398   3.198  1.00  0.00     0.031 C 
ATOM     53  C   UNL     1      -0.815  -5.297   0.155  1.00  0.00     0.029 A 
ATOM     54  N   UNL     1      -0.186  -7.283  -0.644  1.00  0.00    -0.354 N 
ATOM     55  C   UNL     1       1.904 -10.140   1.734  1.00  0.00     0.074 A 
ATOM     56  C   UNL     1       2.239  -9.609   3.036  1.00  0.00     0.031 C 
ATOM     57  C   UNL     1      -1.190  -5.350  -1.136  1.00  0.00     0.029 A 
ATOM     58  C   UNL     1      -0.739  -6.611  -1.713  1.00  0.00     0.049 A 
ATOM     59  H   UNL     1       0.111  -8.221  -0.692  1.00  0.00     0.167 HD
ATOM     60  C   UNL     1       2.100 -11.431   1.376  1.00  0.00     0.037 A 
ATOM     61  C   UNL     1      -0.843  -6.951  -3.014  1.00  0.00     0.037 A 
ATOM     62  C   UNL     1       1.755 -11.988   0.096  1.00  0.00     0.049 A 
ATOM     63  C   UNL     1      -0.442  -8.334  -3.456  1.00  0.00     0.074 A 
ATOM     64  C   UNL     1       1.872 -13.298  -0.335  1.00  0.00     0.029 A 
ATOM     65  N   UNL     1       1.228 -11.265  -0.963  1.00  0.00    -0.354 N 
ATOM     66  N   UNL     1       0.077  -9.310  -2.754  1.00  0.00    -0.248 NA
ATOM     67  C   UNL     1      -0.695  -8.682  -4.863  1.00  0.00     0.031 C 
ATOM     68  C   UNL     1       1.470 -13.358  -1.672  1.00  0.00     0.029 A 
ATOM     69  C   UNL     1       1.044 -12.098  -2.056  1.00  0.00     0.049 A 
ATOM     70  H   UNL     1       1.017 -10.304  -0.942  1.00  0.00     0.167 HD
ATOM     71  C   UNL     1       0.119 -10.409  -3.603  1.00  0.00     0.074 A 
ATOM     72  C   UNL     1      -0.390  -9.971  -4.883  1.00  0.00     0.031 C 
ATOM     73  C   UNL     1       0.511 -11.676  -3.325  1.00  0.00     0.037 A 
BRANCH  60  74
ATOM     74  C   UNL     1       2.680 -12.351   2.411  1.00  0.00     0.064 A 
ATOM     75  C   UNL     1       1.947 -12.718   3.552  1.00  0.00     0.173 A 
ATOM     76  C   UNL     1       3.958 -12.903   2.247  1.00  0.00     0.173 A 
ATOM     77  F   UNL     1       0.723 -12.210   3.760  1.00  0.00    -0.203 F 
ATOM     78  C   UNL     1       2.485 -13.578   4.504  1.00  0.00     0.198 A 
ATOM     79  C   UNL     1       4.479 -13.791   3.184  1.00  0.00     0.198 A 
ATOM     80  F   UNL     1       4.697 -12.592   1.171  1.00  0.00    -0.203 F 
ATOM     81  F   UNL     1       1.788 -13.871   5.610  1.00  0.00    -0.200 F 
ATOM     82  C   UNL     1       3.747 -14.120   4.316  1.00  0.00     0.200 A 
ATOM     83  F   UNL     1       5.692 -14.328   2.993  1.00  0.00    -0.200 F 
ATOM     84  F   UNL     1       4.261 -14.957   5.228  1.00  0.00    -0.200 F 
ENDBRANCH  60  74
BRANCH  61  85
ATOM     85  C   UNL     1      -1.372  -5.984  -4.017  1.00  0.00     0.064 A 
ATOM     86  C   UNL     1      -2.636  -6.159  -4.596  1.00  0.00     0.173 A 
ATOM     87  C   UNL     1      -0.585  -4.924  -4.489  1.00  0.00     0.173 A 
ATOM     88  F   UNL     1      -3.407  -7.189  -4.218  1.00  0.00    -0.203 F 
ATOM     89  C   UNL     1      -3.078  -5.331  -5.628  1.00  0.00     0.198 A 
ATOM     90  C   UNL     1      -1.040  -4.075  -5.497  1.00  0.00     0.198 A 
ATOM     91  F   UNL     1       0.654  -4.742  -4.016  1.00  0.00    -0.203 F 
ATOM     92  F   UNL     1      -4.256  -5.573  -6.219  1.00  0.00    -0.200 F 
ATOM     93  C   UNL     1      -2.282  -4.287  -6.074  1.00  0.00     0.200 A 
ATOM     94  F   UNL     1      -0.261  -3.077  -5.936  1.00  0.00    -0.200 F 
ATOM     95  F   UNL     1      -2.698  -3.506  -7.081  1.00  0.00    -0.200 F 
ENDBRANCH  61  85
BRANCH  73  96
ATOM     96  C   UNL     1       0.322 -12.718  -4.392  1.00  0.00     0.064 A 
ATOM     97  C   UNL     1       1.087 -12.734  -5.566  1.00  0.00     0.173 A 
ATOM     98  C   UNL     1      -0.622 -13.743  -4.212  1.00  0.00     0.173 A 
ATOM     99  F   UNL     1       1.993 -11.771  -5.795  1.00  0.00    -0.203 F 
ATOM    100  C   UNL     1       0.894 -13.718  -6.534  1.00  0.00     0.198 A 
ATOM    101  C   UNL     1      -0.787 -14.745  -5.164  1.00  0.00     0.198 A 
ATOM    102  F   UNL     1      -1.378 -13.781  -3.104  1.00  0.00    -0.203 F 
ATOM    103  F   UNL     1       1.599 -13.680  -7.673  1.00  0.00    -0.200 F 
ATOM    104  C   UNL     1      -0.035 -14.727  -6.328  1.00  0.00     0.200 A 
ATOM    105  F   UNL     1      -1.672 -15.729  -4.953  1.00  0.00    -0.200 F 
ATOM    106  F   UNL     1      -0.211 -15.678  -7.255  1.00  0.00    -0.200 F 
ENDBRANCH  73  96
ENDBRANCH  47  48
ENDBRANCH  40  42
ENDBRANCH  39  40
ENDBRANCH  38  39
ENDBRANCH  37  38
ENDBRANCH  36  37
ENDBRANCH  35  36
ENDBRANCH   1  35
TORSDOF 19
