REMARK SMILES O=C(OCCOCCOC(=O)c1c(C2CC2)nn(-c2ccc(Cl)c(F)c2)c1Cl)c1ccc(-c2c3nc(c(-c4c(F)c(F)c(F)c(F)c4F)c4ccc([nH]4)c(-c4c(F)c(F)c(F)c(F)c4F)c4nc(c(-c5c(F)c(F)c(F)c(F)c5F)c5ccc2[nH]5)C=C4)C=C3)cc1
REMARK SMILES IDX 5 1 4 2 3 3 2 4 1 5 29 6 30 7 91 8 31 9 90 10 32 11 33 12
REMARK SMILES IDX 34 13 84 14 35 15 89 16 83 17 85 18 36 19 88 20 82 21 81 22
REMARK SMILES IDX 37 24 69 25 49 26 68 27 50 28 53 29 67 30 86 31 51 32 52 33
REMARK SMILES IDX 66 35 87 36 54 37 38 38 39 39 47 40 40 41 41 42 45 43 48 44
REMARK SMILES IDX 42 45 43 46 46 47 44 48 70 49 71 50 79 51 72 52 73 53 77 54
REMARK SMILES IDX 80 55 74 56 75 57 78 58 76 59 55 60 56 61 64 62 57 63 58 64
REMARK SMILES IDX 62 65 65 66 59 67 60 68 63 69 61 70 6 71 7 72 8 73 9 74
REMARK SMILES IDX 10 75 11 76 12 77 13 78 27 79 17 80 18 81 28 82 14 83 15 84
REMARK SMILES IDX 16 85 19 86 20 87 26 88 21 89 24 90 22 91 25 92 23 93
REMARK H PARENT 85 23 53 34
REMARK Flexibility Score: inf
ROOT
ATOM      1  C   UNL     1       4.242  -0.505   0.441  1.00  0.00     0.202 C 
ENDROOT
BRANCH   1   2
ATOM      2  C   UNL     1       3.924   0.860   1.036  1.00  0.00     0.261 C 
BRANCH   2   3
ATOM      3  O   UNL     1       2.523   1.123   1.181  1.00  0.00    -0.460 OA
BRANCH   3   4
ATOM      4  C   UNL     1       1.669   0.842   0.172  1.00  0.00     0.338 C 
ATOM      5  O   UNL     1       0.711   0.093   0.309  1.00  0.00    -0.246 OA
BRANCH   4   6
ATOM      6  C   UNL     1       1.726   1.831  -0.921  1.00  0.00     0.060 A 
ATOM      7  C   UNL     1       2.904   2.447  -1.343  1.00  0.00     0.016 A 
ATOM      8  C   UNL     1       0.488   2.258  -1.410  1.00  0.00     0.016 A 
ATOM      9  C   UNL     1       2.831   3.649  -2.004  1.00  0.00     0.010 A 
ATOM     10  C   UNL     1       0.413   3.419  -2.149  1.00  0.00     0.010 A 
ATOM     11  C   UNL     1       1.577   4.149  -2.356  1.00  0.00    -0.014 A 
BRANCH  11  12
ATOM     12  C   UNL     1       1.563   5.383  -3.111  1.00  0.00     0.031 A 
ATOM     13  C   UNL     1       2.305   5.267  -4.389  1.00  0.00     0.074 A 
ATOM     14  C   UNL     1       0.911   6.487  -2.705  1.00  0.00     0.049 A 
ATOM     15  N   UNL     1       3.416   5.846  -4.698  1.00  0.00    -0.248 NA
ATOM     16  C   UNL     1       1.876   4.235  -5.348  1.00  0.00     0.031 C 
ATOM     17  C   UNL     1      -0.029   6.639  -1.596  1.00  0.00     0.029 A 
ATOM     18  N   UNL     1       0.906   7.718  -3.279  1.00  0.00    -0.354 N 
ATOM     19  C   UNL     1       3.729   5.404  -5.978  1.00  0.00     0.074 A 
ATOM     20  C   UNL     1       2.852   4.298  -6.255  1.00  0.00     0.031 C 
ATOM     21  C   UNL     1      -0.691   7.812  -1.732  1.00  0.00     0.029 A 
ATOM     22  C   UNL     1      -0.117   8.549  -2.846  1.00  0.00     0.049 A 
ATOM     23  H   UNL     1       1.573   7.997  -3.948  1.00  0.00     0.167 HD
ATOM     24  C   UNL     1       4.511   6.163  -6.790  1.00  0.00     0.037 A 
ATOM     25  C   UNL     1      -0.488   9.719  -3.424  1.00  0.00     0.037 A 
ATOM     26  C   UNL     1       5.284   7.108  -6.023  1.00  0.00     0.049 A 
ATOM     27  C   UNL     1       0.655  10.188  -4.251  1.00  0.00     0.074 A 
ATOM     28  C   UNL     1       6.241   6.997  -5.033  1.00  0.00     0.029 A 
ATOM     29  N   UNL     1       4.827   8.401  -5.957  1.00  0.00    -0.354 N 
ATOM     30  N   UNL     1       1.781  10.612  -3.748  1.00  0.00    -0.248 NA
ATOM     31  C   UNL     1       0.722   9.729  -5.632  1.00  0.00     0.031 C 
ATOM     32  C   UNL     1       5.960   8.061  -4.125  1.00  0.00     0.029 A 
ATOM     33  C   UNL     1       4.905   8.807  -4.651  1.00  0.00     0.049 A 
ATOM     34  H   UNL     1       4.502   8.941  -6.714  1.00  0.00     0.167 HD
ATOM     35  C   UNL     1       2.757  10.054  -4.560  1.00  0.00     0.074 A 
ATOM     36  C   UNL     1       2.046   9.588  -5.748  1.00  0.00     0.031 C 
ATOM     37  C   UNL     1       3.994   9.758  -4.063  1.00  0.00     0.037 A 
BRANCH  24  38
ATOM     38  C   UNL     1       4.248   6.345  -8.265  1.00  0.00     0.064 A 
ATOM     39  C   UNL     1       5.150   7.117  -9.024  1.00  0.00     0.173 A 
ATOM     40  C   UNL     1       3.004   6.083  -8.881  1.00  0.00     0.173 A 
ATOM     41  F   UNL     1       6.356   7.438  -8.532  1.00  0.00    -0.203 F 
ATOM     42  C   UNL     1       4.792   7.668 -10.257  1.00  0.00     0.198 A 
ATOM     43  C   UNL     1       2.670   6.592 -10.133  1.00  0.00     0.198 A 
ATOM     44  F   UNL     1       2.016   5.431  -8.259  1.00  0.00    -0.203 F 
ATOM     45  F   UNL     1       5.629   8.511 -10.875  1.00  0.00    -0.200 F 
ATOM     46  C   UNL     1       3.549   7.413 -10.805  1.00  0.00     0.200 A 
ATOM     47  F   UNL     1       1.452   6.349 -10.637  1.00  0.00    -0.200 F 
ATOM     48  F   UNL     1       3.177   7.997 -11.951  1.00  0.00    -0.200 F 
ENDBRANCH  24  38
BRANCH  25  49
ATOM     49  C   UNL     1      -1.854  10.272  -3.592  1.00  0.00     0.064 A 
ATOM     50  C   UNL     1      -2.049  11.608  -3.979  1.00  0.00     0.173 A 
ATOM     51  C   UNL     1      -2.980   9.429  -3.667  1.00  0.00     0.173 A 
ATOM     52  F   UNL     1      -1.018  12.466  -3.981  1.00  0.00    -0.203 F 
ATOM     53  C   UNL     1      -3.286  12.066  -4.445  1.00  0.00     0.198 A 
ATOM     54  C   UNL     1      -4.216   9.888  -4.127  1.00  0.00     0.198 A 
ATOM     55  F   UNL     1      -2.881   8.120  -3.394  1.00  0.00    -0.203 F 
ATOM     56  F   UNL     1      -3.415  13.331  -4.870  1.00  0.00    -0.200 F 
ATOM     57  C   UNL     1      -4.365  11.202  -4.530  1.00  0.00     0.200 A 
ATOM     58  F   UNL     1      -5.241   9.032  -4.242  1.00  0.00    -0.200 F 
ATOM     59  F   UNL     1      -5.532  11.621  -5.039  1.00  0.00    -0.200 F 
ENDBRANCH  25  49
BRANCH  37  60
ATOM     60  C   UNL     1       4.355  10.306  -2.710  1.00  0.00     0.064 A 
ATOM     61  C   UNL     1       3.672  10.004  -1.518  1.00  0.00     0.173 A 
ATOM     62  C   UNL     1       5.520  11.077  -2.606  1.00  0.00     0.173 A 
ATOM     63  F   UNL     1       2.612   9.185  -1.516  1.00  0.00    -0.203 F 
ATOM     64  C   UNL     1       4.108  10.502  -0.291  1.00  0.00     0.198 A 
ATOM     65  C   UNL     1       5.976  11.538  -1.376  1.00  0.00     0.198 A 
ATOM     66  F   UNL     1       6.246  11.350  -3.702  1.00  0.00    -0.203 F 
ATOM     67  F   UNL     1       3.428  10.219   0.830  1.00  0.00    -0.200 F 
ATOM     68  C   UNL     1       5.262  11.264  -0.221  1.00  0.00     0.200 A 
ATOM     69  F   UNL     1       7.122  12.229  -1.308  1.00  0.00    -0.200 F 
ATOM     70  F   UNL     1       5.703  11.713   0.963  1.00  0.00    -0.200 F 
ENDBRANCH  37  60
ENDBRANCH  11  12
ENDBRANCH   4   6
ENDBRANCH   3   4
ENDBRANCH   2   3
ENDBRANCH   1   2
BRANCH   1  71
ATOM     71  O   UNL     1       3.826  -0.741  -0.901  1.00  0.00    -0.374 OA
BRANCH  71  72
ATOM     72  C   UNL     1       2.898  -1.827  -1.063  1.00  0.00     0.202 C 
BRANCH  72  73
ATOM     73  C   UNL     1       3.379  -3.248  -0.734  1.00  0.00     0.261 C 
BRANCH  73  74
ATOM     74  O   UNL     1       3.736  -3.398   0.649  1.00  0.00    -0.460 OA
BRANCH  74  75
ATOM     75  C   UNL     1       5.056  -3.320   1.009  1.00  0.00     0.343 C 
ATOM     76  O   UNL     1       5.976  -3.202   0.223  1.00  0.00    -0.246 OA
BRANCH  75  77
ATOM     77  C   UNL     1       5.197  -3.331   2.455  1.00  0.00     0.121 A 
ATOM     78  C   UNL     1       6.070  -2.691   3.390  1.00  0.00     0.082 A 
ATOM     79  C   UNL     1       4.423  -4.134   3.265  1.00  0.00     0.147 A 
ATOM     80  N   UNL     1       5.789  -3.033   4.661  1.00  0.00    -0.170 NA
ATOM     81  N   UNL     1       4.860  -3.999   4.553  1.00  0.00    -0.221 N 
ATOM     82  Cl  UNL     1       3.107  -5.178   2.903  1.00  0.00    -0.061 Cl
BRANCH  78  83
ATOM     83  C   UNL     1       7.243  -1.718   3.229  1.00  0.00     0.041 C 
ATOM     84  C   UNL     1       7.774  -1.192   1.927  1.00  0.00     0.011 C 
ATOM     85  C   UNL     1       7.006  -0.284   2.833  1.00  0.00     0.011 C 
ENDBRANCH  78  83
BRANCH  81  86
ATOM     86  C   UNL     1       4.548  -4.818   5.654  1.00  0.00     0.069 A 
ATOM     87  C   UNL     1       4.058  -4.248   6.832  1.00  0.00     0.030 A 
ATOM     88  C   UNL     1       4.656  -6.206   5.508  1.00  0.00     0.069 A 
ATOM     89  C   UNL     1       3.574  -5.093   7.835  1.00  0.00     0.026 A 
ATOM     90  C   UNL     1       4.200  -7.029   6.524  1.00  0.00     0.143 A 
ATOM     91  C   UNL     1       3.634  -6.482   7.674  1.00  0.00     0.076 A 
ATOM     92  F   UNL     1       4.293  -8.356   6.360  1.00  0.00    -0.205 F 
ATOM     93  Cl  UNL     1       2.979  -7.508   8.889  1.00  0.00    -0.081 Cl
ENDBRANCH  81  86
ENDBRANCH  75  77
ENDBRANCH  74  75
ENDBRANCH  73  74
ENDBRANCH  72  73
ENDBRANCH  71  72
ENDBRANCH   1  71
TORSDOF 16
