REMARK SMILES Cc1nn(Cc2ccc(Cl)cc2Cl)c(C)c1NC(=O)c1c(C(=O)OCCOCCOC(=O)c2ccc(-c3c4nc(c(-c5c(F)c(F)c(F)c(F)c5F)c5ccc([nH]5)c(-c5c(F)c(F)c(F)c(F)c5F)c5nc(c(-c6c(F)c(F)c(F)c(F)c6F)c6ccc3[nH]6)C=C5)C=C4)cc2)cnn1C
REMARK SMILES IDX 26 1 25 2 24 3 22 4 23 5 21 6 20 7 98 8 96 9 97 10 99 11
REMARK SMILES IDX 18 12 17 13 19 15 16 16 1 17 2 18 3 19 4 20 14 21 15 22 5 23
REMARK SMILES IDX 6 24 7 25 12 26 8 27 11 28 13 29 9 30 10 31 27 32 28 33
REMARK SMILES IDX 29 34 30 35 31 36 32 37 33 38 34 39 95 40 35 41 94 42 36 43
REMARK SMILES IDX 37 44 38 45 88 46 39 47 93 48 87 49 89 50 40 51 92 52 86 53
REMARK SMILES IDX 85 54 41 56 73 57 53 58 72 59 54 60 57 61 71 62 90 63 55 64
REMARK SMILES IDX 56 65 70 67 91 68 58 69 42 70 43 71 51 72 44 73 45 74 49 75
REMARK SMILES IDX 52 76 46 77 47 78 50 79 48 80 74 81 75 82 83 83 76 84 77 85
REMARK SMILES IDX 81 86 84 87 78 88 79 89 82 90 80 91 59 92 60 93 68 94 61 95
REMARK SMILES IDX 62 96 66 97 69 98 63 99 64 100 67 101 65 102
REMARK H PARENT 17 14 89 55 57 66
REMARK Flexibility Score: inf
ROOT
ATOM      1  C   UNL     1       4.180  -0.564   4.737  1.00  0.00     0.202 C 
ENDROOT
BRANCH   1   2
ATOM      2  C   UNL     1       3.693   0.516   5.720  1.00  0.00     0.261 C 
BRANCH   2   3
ATOM      3  O   UNL     1       2.291   0.874   5.694  1.00  0.00    -0.460 OA
BRANCH   3   4
ATOM      4  C   UNL     1       2.013   2.107   5.152  1.00  0.00     0.342 C 
ATOM      5  O   UNL     1       2.808   2.764   4.501  1.00  0.00    -0.246 OA
BRANCH   4   6
ATOM      6  C   UNL     1       0.678   2.593   5.448  1.00  0.00     0.111 A 
ATOM      7  C   UNL     1      -0.210   3.228   4.580  1.00  0.00     0.140 A 
ATOM      8  N   UNL     1      -1.172   3.781   5.389  1.00  0.00    -0.262 N 
ATOM      9  C   UNL     1       0.047   2.669   6.708  1.00  0.00     0.151 A 
ATOM     10  N   UNL     1      -1.090   3.367   6.672  1.00  0.00    -0.180 NA
ATOM     11  C   UNL     1      -2.289   4.612   4.993  1.00  0.00     0.174 C 
BRANCH   7  12
ATOM     12  C   UNL     1      -0.148   3.440   3.159  1.00  0.00     0.274 C 
ATOM     13  N   UNL     1      -0.442   2.422   2.280  1.00  0.00    -0.317 N 
ATOM     14  H   UNL     1      -0.221   2.626   1.342  1.00  0.00     0.170 HD
ATOM     15  O   UNL     1       0.172   4.529   2.684  1.00  0.00    -0.267 OA
BRANCH  13  16
ATOM     16  C   UNL     1      -0.989   1.168   2.467  1.00  0.00     0.085 A 
ATOM     17  C   UNL     1      -0.188  -0.010   0.228  1.00  0.00     0.071 C 
ATOM     18  C   UNL     1      -0.862   0.075   1.550  1.00  0.00     0.083 A 
ATOM     19  N   UNL     1      -1.289  -1.061   2.104  1.00  0.00    -0.175 NA
ATOM     20  N   UNL     1      -1.656  -0.696   3.348  1.00  0.00    -0.263 N 
ATOM     21  C   UNL     1      -1.781   0.657   3.480  1.00  0.00     0.060 A 
ATOM     22  C   UNL     1      -2.627   1.183   4.569  1.00  0.00     0.069 C 
BRANCH  20  23
ATOM     23  C   UNL     1      -1.579  -1.657   4.454  1.00  0.00     0.181 C 
BRANCH  23  24
ATOM     24  C   UNL     1      -2.626  -2.703   4.274  1.00  0.00    -0.008 A 
ATOM     25  C   UNL     1      -2.512  -3.507   3.131  1.00  0.00     0.009 A 
ATOM     26  C   UNL     1      -3.811  -2.691   5.007  1.00  0.00     0.047 A 
ATOM     27  C   UNL     1      -3.664  -3.971   2.525  1.00  0.00     0.021 A 
ATOM     28  C   UNL     1      -4.957  -3.217   4.435  1.00  0.00     0.041 A 
ATOM     29  Cl  UNL     1      -3.901  -1.995   6.582  1.00  0.00    -0.084 Cl
ATOM     30  C   UNL     1      -4.891  -3.755   3.148  1.00  0.00     0.042 A 
ATOM     31  Cl  UNL     1      -6.339  -4.196   2.334  1.00  0.00    -0.084 Cl
ENDBRANCH  23  24
ENDBRANCH  20  23
ENDBRANCH  13  16
ENDBRANCH   7  12
ENDBRANCH   4   6
ENDBRANCH   3   4
ENDBRANCH   2   3
ENDBRANCH   1   2
BRANCH   1  32
ATOM     32  O   UNL     1       4.034  -0.334   3.345  1.00  0.00    -0.374 OA
BRANCH  32  33
ATOM     33  C   UNL     1       2.725  -0.184   2.846  1.00  0.00     0.202 C 
BRANCH  33  34
ATOM     34  C   UNL     1       1.709  -1.282   3.116  1.00  0.00     0.261 C 
BRANCH  34  35
ATOM     35  O   UNL     1       1.857  -2.124   4.253  1.00  0.00    -0.460 OA
BRANCH  35  36
ATOM     36  C   UNL     1       2.136  -3.415   3.946  1.00  0.00     0.338 C 
ATOM     37  O   UNL     1       2.709  -3.806   2.947  1.00  0.00    -0.246 OA
BRANCH  36  38
ATOM     38  C   UNL     1       1.369  -4.308   4.853  1.00  0.00     0.060 A 
ATOM     39  C   UNL     1       1.326  -5.664   4.517  1.00  0.00     0.016 A 
ATOM     40  C   UNL     1       0.487  -3.796   5.811  1.00  0.00     0.016 A 
ATOM     41  C   UNL     1       0.273  -6.450   4.968  1.00  0.00     0.010 A 
ATOM     42  C   UNL     1      -0.604  -4.560   6.199  1.00  0.00     0.010 A 
ATOM     43  C   UNL     1      -0.746  -5.866   5.723  1.00  0.00    -0.014 A 
BRANCH  43  44
ATOM     44  C   UNL     1      -1.813  -6.690   6.282  1.00  0.00     0.031 A 
ATOM     45  C   UNL     1      -1.373  -7.372   7.508  1.00  0.00     0.074 A 
ATOM     46  C   UNL     1      -3.059  -6.864   5.801  1.00  0.00     0.049 A 
ATOM     47  N   UNL     1      -1.080  -8.629   7.559  1.00  0.00    -0.248 NA
ATOM     48  C   UNL     1      -0.991  -6.606   8.696  1.00  0.00     0.031 C 
ATOM     49  C   UNL     1      -3.612  -6.396   4.548  1.00  0.00     0.029 A 
ATOM     50  N   UNL     1      -4.120  -7.534   6.359  1.00  0.00    -0.354 N 
ATOM     51  C   UNL     1      -0.674  -8.857   8.858  1.00  0.00     0.074 A 
ATOM     52  C   UNL     1      -0.426  -7.562   9.435  1.00  0.00     0.031 C 
ATOM     53  C   UNL     1      -4.952  -6.588   4.527  1.00  0.00     0.029 A 
ATOM     54  C   UNL     1      -5.344  -7.275   5.739  1.00  0.00     0.049 A 
ATOM     55  H   UNL     1      -4.027  -8.143   7.128  1.00  0.00     0.167 HD
ATOM     56  C   UNL     1      -0.887 -10.075   9.419  1.00  0.00     0.037 A 
ATOM     57  C   UNL     1      -6.571  -7.830   5.927  1.00  0.00     0.037 A 
ATOM     58  C   UNL     1      -1.095 -11.083   8.404  1.00  0.00     0.049 A 
ATOM     59  C   UNL     1      -6.330  -9.173   6.490  1.00  0.00     0.074 A 
ATOM     60  C   UNL     1      -0.332 -11.614   7.383  1.00  0.00     0.029 A 
ATOM     61  N   UNL     1      -2.392 -11.433   8.119  1.00  0.00    -0.354 N 
ATOM     62  N   UNL     1      -5.830 -10.141   5.774  1.00  0.00    -0.248 NA
ATOM     63  C   UNL     1      -6.133  -9.276   7.926  1.00  0.00     0.031 C 
ATOM     64  C   UNL     1      -1.247 -11.876   6.319  1.00  0.00     0.029 A 
ATOM     65  C   UNL     1      -2.530 -11.559   6.761  1.00  0.00     0.049 A 
ATOM     66  H   UNL     1      -3.107 -11.570   8.782  1.00  0.00     0.167 HD
ATOM     67  C   UNL     1      -4.867 -10.707   6.594  1.00  0.00     0.074 A 
ATOM     68  C   UNL     1      -5.149 -10.181   7.931  1.00  0.00     0.031 C 
ATOM     69  C   UNL     1      -3.768 -11.314   6.059  1.00  0.00     0.037 A 
BRANCH  56  70
ATOM     70  C   UNL     1      -1.350 -10.245  10.845  1.00  0.00     0.064 A 
ATOM     71  C   UNL     1      -1.483 -11.548  11.357  1.00  0.00     0.173 A 
ATOM     72  C   UNL     1      -1.949  -9.224  11.619  1.00  0.00     0.173 A 
ATOM     73  F   UNL     1      -0.970 -12.597  10.696  1.00  0.00    -0.203 F 
ATOM     74  C   UNL     1      -2.232 -11.815  12.505  1.00  0.00     0.198 A 
ATOM     75  C   UNL     1      -2.649  -9.488  12.792  1.00  0.00     0.198 A 
ATOM     76  F   UNL     1      -1.992  -7.946  11.229  1.00  0.00    -0.203 F 
ATOM     77  F   UNL     1      -2.442 -13.083  12.880  1.00  0.00    -0.200 F 
ATOM     78  C   UNL     1      -2.820 -10.786  13.218  1.00  0.00     0.200 A 
ATOM     79  F   UNL     1      -3.227  -8.475  13.453  1.00  0.00    -0.200 F 
ATOM     80  F   UNL     1      -3.592 -11.044  14.280  1.00  0.00    -0.200 F 
ENDBRANCH  56  70
BRANCH  57  81
ATOM     81  C   UNL     1      -7.837  -7.073   6.155  1.00  0.00     0.064 A 
ATOM     82  C   UNL     1      -9.085  -7.722   6.176  1.00  0.00     0.173 A 
ATOM     83  C   UNL     1      -7.836  -5.726   6.569  1.00  0.00     0.173 A 
ATOM     84  F   UNL     1      -9.175  -9.015   5.832  1.00  0.00    -0.203 F 
ATOM     85  C   UNL     1     -10.253  -7.071   6.599  1.00  0.00     0.198 A 
ATOM     86  C   UNL     1      -9.000  -5.078   6.996  1.00  0.00     0.198 A 
ATOM     87  F   UNL     1      -6.689  -5.035   6.640  1.00  0.00    -0.203 F 
ATOM     88  F   UNL     1     -11.416  -7.738   6.643  1.00  0.00    -0.200 F 
ATOM     89  C   UNL     1     -10.207  -5.752   7.019  1.00  0.00     0.200 A 
ATOM     90  F   UNL     1      -8.936  -3.812   7.431  1.00  0.00    -0.200 F 
ATOM     91  F   UNL     1     -11.313  -5.144   7.472  1.00  0.00    -0.200 F 
ENDBRANCH  57  81
BRANCH  69  92
ATOM     92  C   UNL     1      -3.775 -11.578   4.577  1.00  0.00     0.064 A 
ATOM     93  C   UNL     1      -3.700 -10.572   3.597  1.00  0.00     0.173 A 
ATOM     94  C   UNL     1      -3.712 -12.905   4.137  1.00  0.00     0.173 A 
ATOM     95  F   UNL     1      -3.660  -9.281   3.943  1.00  0.00    -0.203 F 
ATOM     96  C   UNL     1      -3.601 -10.884   2.240  1.00  0.00     0.198 A 
ATOM     97  C   UNL     1      -3.580 -13.215   2.786  1.00  0.00     0.198 A 
ATOM     98  F   UNL     1      -3.724 -13.906   5.031  1.00  0.00    -0.203 F 
ATOM     99  F   UNL     1      -3.531  -9.903   1.326  1.00  0.00    -0.200 F 
ATOM    100  C   UNL     1      -3.533 -12.206   1.837  1.00  0.00     0.200 A 
ATOM    101  F   UNL     1      -3.463 -14.495   2.406  1.00  0.00    -0.200 F 
ATOM    102  F   UNL     1      -3.393 -12.509   0.538  1.00  0.00    -0.200 F 
ENDBRANCH  69  92
ENDBRANCH  43  44
ENDBRANCH  36  38
ENDBRANCH  35  36
ENDBRANCH  34  35
ENDBRANCH  33  34
ENDBRANCH  32  33
ENDBRANCH   1  32
TORSDOF 18
