REMARK SMILES CCO[P@TB12](C)(=O)C[N@@H+]1CCC[C@@H]1C(=O)OCCOCCOC(=O)c1ccc(-c2c3nc(c(-c4c(F)c(F)c(F)c(F)c4F)c4ccc([nH]4)c(-c4c(F)c(F)c(F)c(F)c4F)c4nc(c(-c5c(F)c(F)c(F)c(F)c5F)c5ccc2[nH]5)C=C4)C=C3)cc1
REMARK SMILES IDX 17 1 16 2 15 3 13 4 14 5 12 6 8 7 9 8 10 10 11 11 7 12 4 13
REMARK SMILES IDX 6 14 5 15 3 16 2 17 1 18 18 19 19 20 20 21 21 22 22 23 23 24
REMARK SMILES IDX 24 25 25 26 86 27 26 28 85 29 27 30 28 31 29 32 79 33 30 34
REMARK SMILES IDX 84 35 78 36 80 37 31 38 83 39 77 40 76 41 32 43 64 44 44 45
REMARK SMILES IDX 63 46 45 47 48 48 62 49 81 50 46 51 47 52 61 54 82 55 49 56
REMARK SMILES IDX 33 57 34 58 42 59 35 60 36 61 40 62 43 63 37 64 38 65 41 66
REMARK SMILES IDX 39 67 65 68 66 69 74 70 67 71 68 72 72 73 75 74 69 75 70 76
REMARK SMILES IDX 73 77 71 78 50 79 51 80 59 81 52 82 53 83 57 84 60 85 54 86
REMARK SMILES IDX 55 87 58 88 56 89
REMARK H PARENT 8 9 80 42 48 53
REMARK Flexibility Score: inf
ROOT
ATOM      1  C   UNL     1       3.334   7.140   2.709  1.00  0.00       nan C 
ENDROOT
BRANCH   1   2
ATOM      2  C   UNL     1       3.139   5.860   1.895  1.00  0.00       nan C 
BRANCH   2   3
ATOM      3  O   UNL     1       4.336   5.355   1.271  1.00  0.00       nan OA
BRANCH   3   4
ATOM      4  C   UNL     1       4.381   5.489  -0.085  1.00  0.00       nan C 
ATOM      5  O   UNL     1       3.687   6.273  -0.730  1.00  0.00       nan OA
BRANCH   4   6
ATOM      6  C   UNL     1       5.426   4.598  -0.749  1.00  0.00       nan C 
ATOM      7  N   UNL     1       5.184   3.107  -0.889  1.00  0.00       nan N 
ATOM      8  C   UNL     1       6.556   2.610  -1.130  1.00  0.00       nan C 
ATOM      9  H   UNL     1       4.491   2.920  -1.615  1.00  0.00       nan HD
ATOM     10  C   UNL     1       7.458   3.422  -0.213  1.00  0.00       nan C 
ATOM     11  C   UNL     1       6.833   4.804  -0.197  1.00  0.00       nan C 
BRANCH   7  12
ATOM     12  C   UNL     1       4.599   2.424   0.294  1.00  0.00       nan C 
BRANCH  12  13
ATOM     13  P   UNL     1       2.769   2.424   0.294  1.00  0.00       nan P 
ATOM     14  O   UNL     1       2.746   2.745   1.797  1.00  0.00       nan OA
ATOM     15  C   UNL     1       0.939   2.424   0.294  1.00  0.00       nan C 
BRANCH  13  16
ATOM     16  O   UNL     1       2.623   3.806  -0.589  1.00  0.00       nan OA
BRANCH  16  17
ATOM     17  C   UNL     1       2.204   3.774  -1.952  1.00  0.00       nan C 
ATOM     18  C   UNL     1       1.027   4.725  -2.119  1.00  0.00       nan C 
ENDBRANCH  16  17
ENDBRANCH  13  16
ENDBRANCH  12  13
ENDBRANCH   7  12
ENDBRANCH   4   6
ENDBRANCH   3   4
ENDBRANCH   2   3
ENDBRANCH   1   2
BRANCH   1  19
ATOM     19  O   UNL     1       3.551   8.357   2.004  1.00  0.00       nan OA
BRANCH  19  20
ATOM     20  C   UNL     1       4.765   8.511   1.280  1.00  0.00       nan C 
BRANCH  20  21
ATOM     21  C   UNL     1       6.042   8.747   2.088  1.00  0.00       nan C 
BRANCH  21  22
ATOM     22  O   UNL     1       6.342   7.670   2.994  1.00  0.00       nan OA
BRANCH  22  23
ATOM     23  C   UNL     1       6.217   8.006   4.298  1.00  0.00       inf C 
ATOM     24  O   UNL     1       5.944   9.107   4.757  1.00  0.00    -0.246 OA
BRANCH  23  25
ATOM     25  C   UNL     1       6.344   6.832   5.176  1.00  0.00     0.060 A 
ATOM     26  C   UNL     1       5.335   6.642   6.127  1.00  0.00     0.016 A 
ATOM     27  C   UNL     1       7.510   6.064   5.209  1.00  0.00     0.016 A 
ATOM     28  C   UNL     1       5.533   5.760   7.183  1.00  0.00     0.010 A 
ATOM     29  C   UNL     1       7.711   5.178   6.275  1.00  0.00     0.010 A 
ATOM     30  C   UNL     1       6.751   5.078   7.299  1.00  0.00    -0.014 A 
BRANCH  30  31
ATOM     31  C   UNL     1       7.079   4.450   8.602  1.00  0.00     0.031 A 
ATOM     32  C   UNL     1       7.902   5.227   9.595  1.00  0.00     0.074 A 
ATOM     33  C   UNL     1       6.571   3.252   8.935  1.00  0.00     0.049 A 
ATOM     34  N   UNL     1       8.238   4.918  10.822  1.00  0.00    -0.248 NA
ATOM     35  C   UNL     1       8.414   6.532   9.145  1.00  0.00     0.031 C 
ATOM     36  C   UNL     1       5.734   2.422   8.074  1.00  0.00     0.029 A 
ATOM     37  N   UNL     1       6.680   2.534  10.099  1.00  0.00    -0.354 N 
ATOM     38  C   UNL     1       8.995   5.986  11.287  1.00  0.00     0.074 A 
ATOM     39  C   UNL     1       9.100   6.937  10.203  1.00  0.00     0.031 C 
ATOM     40  C   UNL     1       5.400   1.303   8.740  1.00  0.00     0.029 A 
ATOM     41  C   UNL     1       6.012   1.336  10.068  1.00  0.00     0.049 A 
ATOM     42  H   UNL     1       7.188   2.848  10.882  1.00  0.00     0.167 HD
ATOM     43  C   UNL     1       9.540   6.166  12.514  1.00  0.00     0.037 A 
ATOM     44  C   UNL     1       5.908   0.377  11.007  1.00  0.00     0.037 A 
ATOM     45  C   UNL     1       9.427   5.227  13.598  1.00  0.00     0.049 A 
ATOM     46  C   UNL     1       6.551   0.586  12.353  1.00  0.00     0.074 A 
ATOM     47  C   UNL     1       9.927   5.326  14.884  1.00  0.00     0.029 A 
ATOM     48  N   UNL     1       8.765   4.010  13.518  1.00  0.00    -0.354 N 
ATOM     49  N   UNL     1       7.237   1.612  12.794  1.00  0.00    -0.248 NA
ATOM     50  C   UNL     1       6.390  -0.494  13.337  1.00  0.00     0.031 C 
ATOM     51  C   UNL     1       9.603   4.150  15.571  1.00  0.00     0.029 A 
ATOM     52  C   UNL     1       8.863   3.339  14.726  1.00  0.00     0.049 A 
ATOM     53  H   UNL     1       8.296   3.674  12.720  1.00  0.00     0.167 HD
ATOM     54  C   UNL     1       7.569   1.314  14.109  1.00  0.00     0.074 A 
ATOM     55  C   UNL     1       6.996   0.016  14.400  1.00  0.00     0.031 C 
ATOM     56  C   UNL     1       8.285   2.048  14.997  1.00  0.00     0.037 A 
BRANCH  43  57
ATOM     57  C   UNL     1      10.327   7.422  12.742  1.00  0.00     0.064 A 
ATOM     58  C   UNL     1       9.701   8.670  12.877  1.00  0.00     0.173 A 
ATOM     59  C   UNL     1      11.725   7.372  12.853  1.00  0.00     0.173 A 
ATOM     60  F   UNL     1       8.368   8.772  12.764  1.00  0.00    -0.203 F 
ATOM     61  C   UNL     1      10.448   9.825  13.093  1.00  0.00     0.198 A 
ATOM     62  C   UNL     1      12.466   8.525  13.093  1.00  0.00     0.198 A 
ATOM     63  F   UNL     1      12.371   6.202  12.733  1.00  0.00    -0.203 F 
ATOM     64  F   UNL     1       9.833  11.013  13.179  1.00  0.00    -0.200 F 
ATOM     65  C   UNL     1      11.828   9.752  13.207  1.00  0.00     0.200 A 
ATOM     66  F   UNL     1      13.799   8.451  13.212  1.00  0.00    -0.200 F 
ATOM     67  F   UNL     1      12.545  10.864  13.420  1.00  0.00    -0.200 F 
ENDBRANCH  43  57
BRANCH  44  68
ATOM     68  C   UNL     1       5.155  -0.867  10.707  1.00  0.00     0.064 A 
ATOM     69  C   UNL     1       3.924  -1.137  11.319  1.00  0.00     0.173 A 
ATOM     70  C   UNL     1       5.660  -1.814   9.804  1.00  0.00     0.173 A 
ATOM     71  F   UNL     1       3.415  -0.273  12.210  1.00  0.00    -0.203 F 
ATOM     72  C   UNL     1       3.231  -2.315  11.049  1.00  0.00     0.198 A 
ATOM     73  C   UNL     1       4.954  -2.979   9.516  1.00  0.00     0.198 A 
ATOM     74  F   UNL     1       6.835  -1.602   9.195  1.00  0.00    -0.203 F 
ATOM     75  F   UNL     1       2.076  -2.569  11.678  1.00  0.00    -0.200 F 
ATOM     76  C   UNL     1       3.744  -3.232  10.143  1.00  0.00     0.200 A 
ATOM     77  F   UNL     1       5.448  -3.858   8.634  1.00  0.00    -0.200 F 
ATOM     78  F   UNL     1       3.075  -4.364   9.882  1.00  0.00    -0.200 F 
ENDBRANCH  44  68
BRANCH  56  79
ATOM     79  C   UNL     1       8.467   1.474  16.371  1.00  0.00     0.064 A 
ATOM     80  C   UNL     1       9.329   0.393  16.606  1.00  0.00     0.173 A 
ATOM     81  C   UNL     1       7.793   2.030  17.469  1.00  0.00     0.173 A 
ATOM     82  F   UNL     1       9.985  -0.181  15.586  1.00  0.00    -0.203 F 
ATOM     83  C   UNL     1       9.486  -0.131  17.887  1.00  0.00     0.198 A 
ATOM     84  C   UNL     1       7.973   1.521  18.752  1.00  0.00     0.198 A 
ATOM     85  F   UNL     1       6.964   3.070  17.297  1.00  0.00    -0.203 F 
ATOM     86  F   UNL     1      10.277  -1.195  18.081  1.00  0.00    -0.200 F 
ATOM     87  C   UNL     1       8.813   0.436  18.958  1.00  0.00     0.200 A 
ATOM     88  F   UNL     1       7.331   2.077  19.788  1.00  0.00    -0.200 F 
ATOM     89  F   UNL     1       8.966  -0.068  20.190  1.00  0.00    -0.200 F 
ENDBRANCH  56  79
ENDBRANCH  30  31
ENDBRANCH  23  25
ENDBRANCH  22  23
ENDBRANCH  21  22
ENDBRANCH  20  21
ENDBRANCH  19  20
ENDBRANCH   1  19
TORSDOF 18
