REMARK SMILES COC[C@@H](C)CC(=O)N1CCCC[C@@H]1CC(=O)OCCOCCOC(=O)c1ccc(-c2c3nc(c(-c4c(F)c(F)c(F)c(F)c4F)c4ccc([nH]4)c(-c4c(F)c(F)c(F)c(F)c4F)c4nc(c(-c5c(F)c(F)c(F)c(F)c5F)c5ccc2[nH]5)C=C4)C=C3)cc1
REMARK SMILES IDX 19 1 18 2 16 3 17 4 15 5 14 6 9 7 10 8 11 9 13 10 12 11 7 12
REMARK SMILES IDX 8 13 6 14 4 15 5 16 3 17 2 18 1 19 20 20 21 21 22 22 23 23
REMARK SMILES IDX 24 24 25 25 26 26 27 27 28 28 89 29 29 30 88 31 30 32 31 33
REMARK SMILES IDX 32 34 82 35 33 36 87 37 81 38 83 39 34 40 86 41 80 42 79 43
REMARK SMILES IDX 35 45 67 46 47 47 66 48 48 49 51 50 65 51 84 52 49 53 50 54
REMARK SMILES IDX 64 56 85 57 52 58 36 59 37 60 45 61 38 62 39 63 43 64 46 65
REMARK SMILES IDX 40 66 41 67 44 68 42 69 68 70 69 71 77 72 70 73 71 74 75 75
REMARK SMILES IDX 78 76 72 77 73 78 76 79 74 80 53 81 54 82 62 83 55 84 56 85
REMARK SMILES IDX 60 86 63 87 57 88 58 89 61 90 59 91
REMARK H PARENT 83 44 51 55
REMARK Flexibility Score: inf
ROOT
ATOM      1  C   UNL     1      -0.554   1.143   3.156  1.00  0.00     0.261 C 
ENDROOT
BRANCH   1   2
ATOM      2  O   UNL     1      -0.564  -0.297   3.137  1.00  0.00    -0.463 OA
BRANCH   2   3
ATOM      3  C   UNL     1      -1.266  -0.832   2.103  1.00  0.00     0.307 C 
ATOM      4  O   UNL     1      -1.972  -0.177   1.342  1.00  0.00    -0.252 OA
BRANCH   3   5
ATOM      5  C   UNL     1      -1.172  -2.339   1.986  1.00  0.00     0.147 C 
BRANCH   5   6
ATOM      6  C   UNL     1      -0.047  -3.059   2.756  1.00  0.00     0.096 C 
ATOM      7  N   UNL     1       0.413  -4.331   2.124  1.00  0.00    -0.339 N 
ATOM      8  C   UNL     1       1.101  -5.315   2.955  1.00  0.00     0.120 C 
ATOM      9  C   UNL     1       0.362  -5.588   4.255  1.00  0.00     0.022 C 
ATOM     10  C   UNL     1      -0.574  -3.287   4.202  1.00  0.00     0.026 C 
ATOM     11  C   UNL     1       0.216  -4.290   5.030  1.00  0.00     0.004 C 
BRANCH   7  12
ATOM     12  C   UNL     1       0.224  -4.682   0.796  1.00  0.00     0.223 C 
ATOM     13  O   UNL     1      -0.591  -5.558   0.497  1.00  0.00    -0.275 OA
BRANCH  12  14
ATOM     14  C   UNL     1       1.239  -4.185  -0.245  1.00  0.00     0.106 C 
BRANCH  14  15
ATOM     15  C   UNL     1       1.057  -2.746  -0.759  1.00  0.00     0.021 C 
ATOM     16  C   UNL     1       1.378  -2.641  -2.257  1.00  0.00     0.010 C 
BRANCH  15  17
ATOM     17  C   UNL     1       1.947  -1.773   0.025  1.00  0.00     0.163 C 
BRANCH  17  18
ATOM     18  O   UNL     1       1.231  -0.578   0.319  1.00  0.00    -0.384 OA
ATOM     19  C   UNL     1       1.554   0.514  -0.529  1.00  0.00     0.194 C 
ENDBRANCH  17  18
ENDBRANCH  15  17
ENDBRANCH  14  15
ENDBRANCH  12  14
ENDBRANCH   7  12
ENDBRANCH   5   6
ENDBRANCH   3   5
ENDBRANCH   2   3
ENDBRANCH   1   2
BRANCH   1  20
ATOM     20  C   UNL     1       0.727   1.731   3.761  1.00  0.00     0.202 C 
BRANCH  20  21
ATOM     21  O   UNL     1       1.959   1.434   3.111  1.00  0.00    -0.374 OA
BRANCH  21  22
ATOM     22  C   UNL     1       2.395   0.077   3.135  1.00  0.00     0.202 C 
BRANCH  22  23
ATOM     23  C   UNL     1       2.873  -0.481   4.480  1.00  0.00     0.261 C 
BRANCH  23  24
ATOM     24  O   UNL     1       1.794  -0.627   5.423  1.00  0.00    -0.460 OA
BRANCH  24  25
ATOM     25  C   UNL     1       1.907   0.125   6.542  1.00  0.00     0.338 C 
ATOM     26  O   UNL     1       2.849   0.835   6.872  1.00  0.00    -0.246 OA
BRANCH  25  27
ATOM     27  C   UNL     1       0.627   0.140   7.267  1.00  0.00     0.060 A 
ATOM     28  C   UNL     1      -0.016   1.375   7.429  1.00  0.00     0.016 A 
ATOM     29  C   UNL     1       0.114  -1.014   7.860  1.00  0.00     0.016 A 
ATOM     30  C   UNL     1      -1.160   1.468   8.215  1.00  0.00     0.010 A 
ATOM     31  C   UNL     1      -1.027  -0.916   8.663  1.00  0.00     0.010 A 
ATOM     32  C   UNL     1      -1.648   0.331   8.870  1.00  0.00    -0.014 A 
BRANCH  32  33
ATOM     33  C   UNL     1      -2.709   0.484   9.893  1.00  0.00     0.031 A 
ATOM     34  C   UNL     1      -2.320   0.519  11.345  1.00  0.00     0.074 A 
ATOM     35  C   UNL     1      -3.995   0.633   9.532  1.00  0.00     0.049 A 
ATOM     36  N   UNL     1      -3.077   0.611  12.408  1.00  0.00    -0.248 NA
ATOM     37  C   UNL     1      -0.880   0.441  11.636  1.00  0.00     0.031 C 
ATOM     38  C   UNL     1      -4.486   0.669   8.156  1.00  0.00     0.029 A 
ATOM     39  N   UNL     1      -5.125   0.778  10.298  1.00  0.00    -0.354 N 
ATOM     40  C   UNL     1      -2.209   0.593  13.492  1.00  0.00     0.074 A 
ATOM     41  C   UNL     1      -0.870   0.451  12.961  1.00  0.00     0.031 C 
ATOM     42  C   UNL     1      -5.822   0.814   8.175  1.00  0.00     0.029 A 
ATOM     43  C   UNL     1      -6.281   0.845   9.562  1.00  0.00     0.049 A 
ATOM     44  H   UNL     1      -5.107   0.830  11.281  1.00  0.00     0.167 HD
ATOM     45  C   UNL     1      -2.503   0.694  14.810  1.00  0.00     0.037 A 
ATOM     46  C   UNL     1      -7.565   0.898   9.967  1.00  0.00     0.037 A 
ATOM     47  C   UNL     1      -3.837   0.835  15.331  1.00  0.00     0.049 A 
ATOM     48  C   UNL     1      -7.871   0.927  11.443  1.00  0.00     0.074 A 
ATOM     49  C   UNL     1      -4.241   0.961  16.649  1.00  0.00     0.029 A 
ATOM     50  N   UNL     1      -4.989   0.860  14.557  1.00  0.00    -0.354 N 
ATOM     51  N   UNL     1      -7.045   0.931  12.462  1.00  0.00    -0.248 NA
ATOM     52  C   UNL     1      -9.290   0.964  11.825  1.00  0.00     0.031 C 
ATOM     53  C   UNL     1      -5.638   1.000  16.677  1.00  0.00     0.029 A 
ATOM     54  C   UNL     1      -6.105   0.967  15.372  1.00  0.00     0.049 A 
ATOM     55  H   UNL     1      -5.010   0.808  13.574  1.00  0.00     0.167 HD
ATOM     56  C   UNL     1      -7.840   1.003  13.600  1.00  0.00     0.074 A 
ATOM     57  C   UNL     1      -9.213   1.054  13.145  1.00  0.00     0.031 C 
ATOM     58  C   UNL     1      -7.466   1.026  14.903  1.00  0.00     0.037 A 
BRANCH  45  59
ATOM     59  C   UNL     1      -1.362   0.622  15.784  1.00  0.00     0.064 A 
ATOM     60  C   UNL     1      -0.422   1.657  15.903  1.00  0.00     0.173 A 
ATOM     61  C   UNL     1      -1.228  -0.485  16.635  1.00  0.00     0.173 A 
ATOM     62  F   UNL     1      -0.496   2.732  15.103  1.00  0.00    -0.203 F 
ATOM     63  C   UNL     1       0.626   1.572  16.817  1.00  0.00     0.198 A 
ATOM     64  C   UNL     1      -0.198  -0.552  17.570  1.00  0.00     0.198 A 
ATOM     65  F   UNL     1      -2.101  -1.501  16.567  1.00  0.00    -0.203 F 
ATOM     66  F   UNL     1       1.541   2.550  16.878  1.00  0.00    -0.200 F 
ATOM     67  C   UNL     1       0.732   0.473  17.655  1.00  0.00     0.200 A 
ATOM     68  F   UNL     1      -0.106  -1.609  18.389  1.00  0.00    -0.200 F 
ATOM     69  F   UNL     1       1.736   0.396  18.540  1.00  0.00    -0.200 F 
ENDBRANCH  45  59
BRANCH  46  70
ATOM     70  C   UNL     1      -8.662   0.910   8.963  1.00  0.00     0.064 A 
ATOM     71  C   UNL     1      -9.483   2.034   8.800  1.00  0.00     0.173 A 
ATOM     72  C   UNL     1      -8.924  -0.211   8.161  1.00  0.00     0.173 A 
ATOM     73  F   UNL     1      -9.290   3.121   9.562  1.00  0.00    -0.203 F 
ATOM     74  C   UNL     1     -10.539   2.028   7.890  1.00  0.00     0.198 A 
ATOM     75  C   UNL     1      -9.959  -0.204   7.228  1.00  0.00     0.198 A 
ATOM     76  F   UNL     1      -8.169  -1.313   8.279  1.00  0.00    -0.203 F 
ATOM     77  F   UNL     1     -11.341   3.097   7.792  1.00  0.00    -0.200 F 
ATOM     78  C   UNL     1     -10.771   0.912   7.100  1.00  0.00     0.200 A 
ATOM     79  F   UNL     1     -10.172  -1.280   6.460  1.00  0.00    -0.200 F 
ATOM     80  F   UNL     1     -11.785   0.908   6.224  1.00  0.00    -0.200 F 
ENDBRANCH  46  70
BRANCH  58  81
ATOM     81  C   UNL     1      -8.554   1.155  15.933  1.00  0.00     0.064 A 
ATOM     82  C   UNL     1      -9.448   0.109  16.201  1.00  0.00     0.173 A 
ATOM     83  C   UNL     1      -8.675   2.331  16.691  1.00  0.00     0.173 A 
ATOM     84  F   UNL     1      -9.385  -1.031  15.497  1.00  0.00    -0.203 F 
ATOM     85  C   UNL     1     -10.441   0.245  17.169  1.00  0.00     0.198 A 
ATOM     86  C   UNL     1      -9.645   2.450  17.681  1.00  0.00     0.198 A 
ATOM     87  F   UNL     1      -7.839   3.360  16.482  1.00  0.00    -0.203 F 
ATOM     88  F   UNL     1     -11.317  -0.749  17.371  1.00  0.00    -0.200 F 
ATOM     89  C   UNL     1     -10.533   1.411  17.913  1.00  0.00     0.200 A 
ATOM     90  F   UNL     1      -9.721   3.572  18.411  1.00  0.00    -0.200 F 
ATOM     91  F   UNL     1     -11.483   1.537  18.850  1.00  0.00    -0.200 F 
ENDBRANCH  58  81
ENDBRANCH  32  33
ENDBRANCH  25  27
ENDBRANCH  24  25
ENDBRANCH  23  24
ENDBRANCH  22  23
ENDBRANCH  21  22
ENDBRANCH  20  21
ENDBRANCH   1  20
TORSDOF 20
