REMARK SMILES COc1cc(/C=C/C(=O)OCCOCCOC(=O)c2ccc(-c3c4nc(c(-c5c(F)c(F)c(F)c(F)c5F)c5ccc([nH]5)c(-c5c(F)c(F)c(F)c(F)c5F)c5nc(c(-c6c(F)c(F)c(F)c(F)c6F)c6ccc3[nH]6)C=C5)C=C4)cc2)cc(OC)c1O
REMARK SMILES IDX 13 1 12 2 11 3 10 4 8 5 9 6 7 7 6 8 5 9 3 10 4 11 86 12
REMARK SMILES IDX 83 13 82 14 2 15 1 16 87 17 84 19 85 20 14 21 15 22 16 23
REMARK SMILES IDX 17 24 18 25 19 26 20 27 81 28 21 29 80 30 22 31 23 32 24 33
REMARK SMILES IDX 74 34 25 35 79 36 73 37 75 38 26 39 78 40 72 41 71 42 27 44
REMARK SMILES IDX 59 45 39 46 58 47 40 48 43 49 57 50 76 51 41 52 42 53 56 55
REMARK SMILES IDX 77 56 44 57 28 58 29 59 37 60 30 61 31 62 35 63 38 64 32 65
REMARK SMILES IDX 33 66 36 67 34 68 60 69 61 70 69 71 62 72 63 73 67 74 70 75
REMARK SMILES IDX 64 76 65 77 68 78 66 79 45 80 46 81 54 82 47 83 48 84 52 85
REMARK SMILES IDX 55 86 49 87 50 88 53 89 51 90
REMARK H PARENT 87 18 75 43 43 54
REMARK Flexibility Score: inf
ROOT
ATOM      1  O   UNL     1      -2.557   3.731  -8.561  1.00  0.00    -0.374 OA
ENDROOT
BRANCH   1   2
ATOM      2  C   UNL     1      -2.397   2.747  -9.579  1.00  0.00     0.202 C 
BRANCH   2   3
ATOM      3  C   UNL     1      -1.075   1.978  -9.562  1.00  0.00     0.261 C 
BRANCH   3   4
ATOM      4  O   UNL     1      -0.919   1.226  -8.347  1.00  0.00    -0.460 OA
BRANCH   4   5
ATOM      5  C   UNL     1       0.085   1.650  -7.544  1.00  0.00     0.330 C 
ATOM      6  O   UNL     1       0.903   2.522  -7.800  1.00  0.00    -0.247 OA
BRANCH   5   7
ATOM      7  C   UNL     1       0.080   0.987  -6.227  1.00  0.00     0.094 C 
ATOM      8  C   UNL     1      -0.698  -0.033  -5.827  1.00  0.00     0.016 C 
BRANCH   8   9
ATOM      9  C   UNL     1      -0.584  -0.596  -4.469  1.00  0.00    -0.018 A 
ATOM     10  C   UNL     1      -0.078  -0.334  -2.087  1.00  0.00     0.165 A 
ATOM     11  C   UNL     1      -0.290   0.207  -3.362  1.00  0.00     0.058 A 
ATOM     12  C   UNL     1      -0.208  -1.718  -1.906  1.00  0.00     0.200 A 
ATOM     13  C   UNL     1      -0.582  -2.539  -2.985  1.00  0.00     0.165 A 
ATOM     14  C   UNL     1      -0.767  -1.964  -4.255  1.00  0.00     0.058 A 
BRANCH  10  15
ATOM     15  O   UNL     1       0.240   0.633  -1.173  1.00  0.00    -0.493 OA
ATOM     16  C   UNL     1       0.715   0.265   0.110  1.00  0.00     0.278 C 
ENDBRANCH  10  15
BRANCH  12  17
ATOM     17  O   UNL     1       0.048  -2.275  -0.685  1.00  0.00    -0.502 OA
ATOM     18  H   UNL     1       0.297  -1.730   0.035  1.00  0.00     0.293 HD
ENDBRANCH  12  17
BRANCH  13  19
ATOM     19  O   UNL     1      -0.774  -3.896  -2.997  1.00  0.00    -0.493 OA
ATOM     20  C   UNL     1      -0.630  -4.626  -1.788  1.00  0.00     0.278 C 
ENDBRANCH  13  19
ENDBRANCH   8   9
ENDBRANCH   5   7
ENDBRANCH   4   5
ENDBRANCH   3   4
ENDBRANCH   2   3
ENDBRANCH   1   2
BRANCH   1  21
ATOM     21  C   UNL     1      -2.996   3.274  -7.279  1.00  0.00     0.202 C 
BRANCH  21  22
ATOM     22  C   UNL     1      -4.495   2.972  -7.158  1.00  0.00     0.261 C 
BRANCH  22  23
ATOM     23  O   UNL     1      -4.852   1.762  -7.853  1.00  0.00    -0.460 OA
BRANCH  23  24
ATOM     24  C   UNL     1      -5.612   1.928  -8.959  1.00  0.00     0.338 C 
ATOM     25  O   UNL     1      -6.082   2.974  -9.391  1.00  0.00    -0.246 OA
BRANCH  24  26
ATOM     26  C   UNL     1      -5.666   0.664  -9.714  1.00  0.00     0.060 A 
ATOM     27  C   UNL     1      -5.335   0.695 -11.077  1.00  0.00     0.016 A 
ATOM     28  C   UNL     1      -6.089  -0.521  -9.113  1.00  0.00     0.016 A 
ATOM     29  C   UNL     1      -5.468  -0.455 -11.855  1.00  0.00     0.010 A 
ATOM     30  C   UNL     1      -6.234  -1.668  -9.896  1.00  0.00     0.010 A 
ATOM     31  C   UNL     1      -5.956  -1.632 -11.275  1.00  0.00    -0.014 A 
BRANCH  31  32
ATOM     32  C   UNL     1      -6.338  -2.789 -12.118  1.00  0.00     0.031 A 
ATOM     33  C   UNL     1      -7.789  -2.981 -12.454  1.00  0.00     0.074 A 
ATOM     34  C   UNL     1      -5.419  -3.672 -12.543  1.00  0.00     0.049 A 
ATOM     35  N   UNL     1      -8.386  -3.999 -13.017  1.00  0.00    -0.248 NA
ATOM     36  C   UNL     1      -8.691  -1.875 -12.094  1.00  0.00     0.031 C 
ATOM     37  C   UNL     1      -3.979  -3.563 -12.328  1.00  0.00     0.029 A 
ATOM     38  N   UNL     1      -5.572  -4.855 -13.223  1.00  0.00    -0.354 N 
ATOM     39  C   UNL     1      -9.734  -3.667 -13.058  1.00  0.00     0.074 A 
ATOM     40  C   UNL     1      -9.871  -2.361 -12.451  1.00  0.00     0.031 C 
ATOM     41  C   UNL     1      -3.379  -4.652 -12.841  1.00  0.00     0.029 A 
ATOM     42  C   UNL     1      -4.399  -5.552 -13.376  1.00  0.00     0.049 A 
ATOM     43  H   UNL     1      -6.438  -5.173 -13.566  1.00  0.00     0.167 HD
ATOM     44  C   UNL     1     -10.764  -4.392 -13.555  1.00  0.00     0.037 A 
ATOM     45  C   UNL     1      -4.185  -6.793 -13.857  1.00  0.00     0.037 A 
ATOM     46  C   UNL     1     -10.619  -5.689 -14.160  1.00  0.00     0.049 A 
ATOM     47  C   UNL     1      -5.355  -7.611 -14.340  1.00  0.00     0.074 A 
ATOM     48  C   UNL     1     -11.597  -6.503 -14.702  1.00  0.00     0.029 A 
ATOM     49  N   UNL     1      -9.414  -6.362 -14.299  1.00  0.00    -0.354 N 
ATOM     50  N   UNL     1      -6.627  -7.295 -14.378  1.00  0.00    -0.248 NA
ATOM     51  C   UNL     1      -5.061  -8.960 -14.845  1.00  0.00     0.031 C 
ATOM     52  C   UNL     1     -10.991  -7.689 -15.128  1.00  0.00     0.029 A 
ATOM     53  C   UNL     1      -9.627  -7.590 -14.902  1.00  0.00     0.049 A 
ATOM     54  H   UNL     1      -8.538  -6.017 -14.011  1.00  0.00     0.167 HD
ATOM     55  C   UNL     1      -7.277  -8.384 -14.946  1.00  0.00     0.074 A 
ATOM     56  C   UNL     1      -6.259  -9.373 -15.234  1.00  0.00     0.031 C 
ATOM     57  C   UNL     1      -8.596  -8.547 -15.210  1.00  0.00     0.037 A 
BRANCH  44  58
ATOM     58  C   UNL     1     -12.142  -3.813 -13.434  1.00  0.00     0.064 A 
ATOM     59  C   UNL     1     -12.554  -2.718 -14.209  1.00  0.00     0.173 A 
ATOM     60  C   UNL     1     -13.074  -4.382 -12.553  1.00  0.00     0.173 A 
ATOM     61  F   UNL     1     -11.696  -2.129 -15.055  1.00  0.00    -0.203 F 
ATOM     62  C   UNL     1     -13.841  -2.200 -14.088  1.00  0.00     0.198 A 
ATOM     63  C   UNL     1     -14.368  -3.879 -12.456  1.00  0.00     0.198 A 
ATOM     64  F   UNL     1     -12.731  -5.432 -11.792  1.00  0.00    -0.203 F 
ATOM     65  F   UNL     1     -14.199  -1.125 -14.804  1.00  0.00    -0.200 F 
ATOM     66  C   UNL     1     -14.749  -2.785 -13.217  1.00  0.00     0.200 A 
ATOM     67  F   UNL     1     -15.248  -4.454 -11.623  1.00  0.00    -0.200 F 
ATOM     68  F   UNL     1     -15.989  -2.290 -13.107  1.00  0.00    -0.200 F 
ENDBRANCH  44  58
BRANCH  45  69
ATOM     69  C   UNL     1      -2.807  -7.350 -13.885  1.00  0.00     0.064 A 
ATOM     70  C   UNL     1      -2.145  -7.576 -15.099  1.00  0.00     0.173 A 
ATOM     71  C   UNL     1      -2.131  -7.681 -12.702  1.00  0.00     0.173 A 
ATOM     72  F   UNL     1      -2.761  -7.300 -16.258  1.00  0.00    -0.203 F 
ATOM     73  C   UNL     1      -0.866  -8.128 -15.130  1.00  0.00     0.198 A 
ATOM     74  C   UNL     1      -0.841  -8.207 -12.732  1.00  0.00     0.198 A 
ATOM     75  F   UNL     1      -2.721  -7.487 -11.513  1.00  0.00    -0.203 F 
ATOM     76  F   UNL     1      -0.274  -8.376 -16.306  1.00  0.00    -0.200 F 
ATOM     77  C   UNL     1      -0.212  -8.437 -13.947  1.00  0.00     0.200 A 
ATOM     78  F   UNL     1      -0.209  -8.495 -11.586  1.00  0.00    -0.200 F 
ATOM     79  F   UNL     1       1.018  -8.966 -13.977  1.00  0.00    -0.200 F 
ENDBRANCH  45  69
BRANCH  57  80
ATOM     80  C   UNL     1      -9.017  -9.807 -15.908  1.00  0.00     0.064 A 
ATOM     81  C   UNL     1      -9.067 -11.041 -15.245  1.00  0.00     0.173 A 
ATOM     82  C   UNL     1      -9.452  -9.758 -17.242  1.00  0.00     0.173 A 
ATOM     83  F   UNL     1      -8.651 -11.141 -13.974  1.00  0.00    -0.203 F 
ATOM     84  C   UNL     1      -9.526 -12.183 -15.896  1.00  0.00     0.198 A 
ATOM     85  C   UNL     1      -9.935 -10.896 -17.881  1.00  0.00     0.198 A 
ATOM     86  F   UNL     1      -9.430  -8.599 -17.918  1.00  0.00    -0.203 F 
ATOM     87  F   UNL     1      -9.537 -13.359 -15.254  1.00  0.00    -0.200 F 
ATOM     88  C   UNL     1      -9.969 -12.108 -17.209  1.00  0.00     0.200 A 
ATOM     89  F   UNL     1     -10.376 -10.817 -19.144  1.00  0.00    -0.200 F 
ATOM     90  F   UNL     1     -10.425 -13.205 -17.828  1.00  0.00    -0.200 F 
ENDBRANCH  57  80
ENDBRANCH  31  32
ENDBRANCH  24  26
ENDBRANCH  23  24
ENDBRANCH  22  23
ENDBRANCH  21  22
ENDBRANCH   1  21
TORSDOF 18
