REMARK SMILES CCOc1ccc(-c2cnc(N)cc2C(=O)OCCOCCOC(=O)c2ccc(-c3c4nc(c(-c5c(F)c(F)c(F)c(F)c5F)c5ccc([nH]5)c(-c5c(F)c(F)c(F)c(F)c5F)c5nc(c(-c6c(F)c(F)c(F)c(F)c6F)c6ccc3[nH]6)C=C5)C=C4)cc2)c(Cl)c1
REMARK SMILES IDX 19 1 18 2 17 3 15 4 16 5 14 6 8 7 9 8 10 9 13 10 11 11 7 12
REMARK SMILES IDX 4 13 5 14 91 15 6 16 89 17 90 18 3 19 2 20 1 21 12 22 20 25
REMARK SMILES IDX 21 26 22 27 23 28 24 29 25 30 26 31 27 32 88 33 28 34 87 35
REMARK SMILES IDX 29 36 30 37 31 38 81 39 32 40 86 41 80 42 82 43 33 44 85 45
REMARK SMILES IDX 79 46 78 47 34 49 66 50 46 51 65 52 47 53 50 54 64 55 83 56
REMARK SMILES IDX 48 57 49 58 63 60 84 61 51 62 35 63 36 64 44 65 37 66 38 67
REMARK SMILES IDX 42 68 45 69 39 70 40 71 43 72 41 73 67 74 68 75 76 76 69 77
REMARK SMILES IDX 70 78 74 79 77 80 71 81 72 82 75 83 73 84 52 85 53 86 61 87
REMARK SMILES IDX 54 88 55 89 59 90 62 91 56 92 57 93 60 94 58 95
REMARK H PARENT 12 23 12 24 82 48 50 59
REMARK Flexibility Score: inf
ROOT
ATOM      1  C   UNL     1       5.984  -6.287  -2.108  1.00  0.00     0.202 C 
ENDROOT
BRANCH   1   2
ATOM      2  C   UNL     1       6.612  -4.903  -2.278  1.00  0.00     0.261 C 
BRANCH   2   3
ATOM      3  O   UNL     1       7.249  -4.475  -1.060  1.00  0.00    -0.460 OA
BRANCH   3   4
ATOM      4  C   UNL     1       6.815  -3.288  -0.563  1.00  0.00     0.339 C 
ATOM      5  O   UNL     1       6.042  -2.518  -1.104  1.00  0.00    -0.246 OA
BRANCH   4   6
ATOM      6  C   UNL     1       7.379  -3.084   0.793  1.00  0.00     0.073 A 
ATOM      7  C   UNL     1       6.578  -2.648   1.864  1.00  0.00     0.016 A 
ATOM      8  C   UNL     1       7.253  -2.392   3.052  1.00  0.00     0.123 A 
ATOM      9  N   UNL     1       8.588  -2.541   3.229  1.00  0.00    -0.239 NA
ATOM     10  C   UNL     1       8.754  -3.277   0.966  1.00  0.00     0.062 A 
ATOM     11  C   UNL     1       9.314  -2.991   2.196  1.00  0.00     0.124 A 
BRANCH   7  12
ATOM     12  C   UNL     1       5.125  -2.433   1.781  1.00  0.00     0.003 A 
ATOM     13  C   UNL     1       2.362  -1.994   1.383  1.00  0.00     0.120 A 
ATOM     14  C   UNL     1       3.289  -1.028   1.010  1.00  0.00     0.047 A 
ATOM     15  C   UNL     1       2.798  -3.141   2.041  1.00  0.00     0.067 A 
ATOM     16  C   UNL     1       4.653  -1.251   1.192  1.00  0.00     0.014 A 
ATOM     17  C   UNL     1       4.166  -3.344   2.265  1.00  0.00     0.052 A 
ATOM     18  Cl  UNL     1       4.622  -4.723   3.207  1.00  0.00    -0.084 Cl
BRANCH  13  19
ATOM     19  O   UNL     1       1.013  -1.830   1.248  1.00  0.00    -0.494 OA
BRANCH  19  20
ATOM     20  C   UNL     1       0.569  -1.438  -0.058  1.00  0.00     0.226 C 
ATOM     21  C   UNL     1       0.452   0.072  -0.196  1.00  0.00     0.049 C 
ENDBRANCH  19  20
ENDBRANCH  13  19
ENDBRANCH   7  12
BRANCH  11  22
ATOM     22  N   UNL     1      10.675  -3.070   2.392  1.00  0.00    -0.384 N 
ATOM     23  H   UNL     1      11.058  -2.863   3.275  1.00  0.00     0.158 HD
ATOM     24  H   UNL     1      11.265  -3.334   1.649  1.00  0.00     0.158 HD
ENDBRANCH  11  22
ENDBRANCH   4   6
ENDBRANCH   3   4
ENDBRANCH   2   3
ENDBRANCH   1   2
BRANCH   1  25
ATOM     25  O   UNL     1       4.843  -6.396  -1.258  1.00  0.00    -0.374 OA
BRANCH  25  26
ATOM     26  C   UNL     1       5.037  -6.211   0.140  1.00  0.00     0.202 C 
BRANCH  26  27
ATOM     27  C   UNL     1       5.643  -7.364   0.956  1.00  0.00     0.261 C 
BRANCH  27  28
ATOM     28  O   UNL     1       6.749  -8.006   0.319  1.00  0.00    -0.460 OA
BRANCH  28  29
ATOM     29  C   UNL     1       6.410  -9.120  -0.370  1.00  0.00     0.338 C 
ATOM     30  O   UNL     1       5.317  -9.659  -0.442  1.00  0.00    -0.246 OA
BRANCH  29  31
ATOM     31  C   UNL     1       7.557  -9.518  -1.196  1.00  0.00     0.060 A 
ATOM     32  C   UNL     1       7.362  -9.606  -2.579  1.00  0.00     0.016 A 
ATOM     33  C   UNL     1       8.797  -9.804  -0.621  1.00  0.00     0.016 A 
ATOM     34  C   UNL     1       8.409 -10.009  -3.398  1.00  0.00     0.010 A 
ATOM     35  C   UNL     1       9.844 -10.218  -1.444  1.00  0.00     0.010 A 
ATOM     36  C   UNL     1       9.644 -10.345  -2.830  1.00  0.00    -0.014 A 
BRANCH  36  37
ATOM     37  C   UNL     1      10.697 -10.944  -3.677  1.00  0.00     0.031 A 
ATOM     38  C   UNL     1      10.915 -12.426  -3.624  1.00  0.00     0.074 A 
ATOM     39  C   UNL     1      11.441 -10.166  -4.480  1.00  0.00     0.049 A 
ATOM     40  N   UNL     1      11.812 -13.156  -4.234  1.00  0.00    -0.248 NA
ATOM     41  C   UNL     1      10.002 -13.188  -2.758  1.00  0.00     0.031 C 
ATOM     42  C   UNL     1      11.295  -8.719  -4.621  1.00  0.00     0.029 A 
ATOM     43  N   UNL     1      12.480 -10.486  -5.316  1.00  0.00    -0.354 N 
ATOM     44  C   UNL     1      11.579 -14.460  -3.818  1.00  0.00     0.074 A 
ATOM     45  C   UNL     1      10.480 -14.417  -2.878  1.00  0.00     0.031 C 
ATOM     46  C   UNL     1      12.227  -8.270  -5.478  1.00  0.00     0.029 A 
ATOM     47  C   UNL     1      13.055  -9.393  -5.913  1.00  0.00     0.049 A 
ATOM     48  H   UNL     1      12.784 -11.409  -5.471  1.00  0.00     0.167 HD
ATOM     49  C   UNL     1      12.224 -15.589  -4.195  1.00  0.00     0.037 A 
ATOM     50  C   UNL     1      14.148  -9.309  -6.695  1.00  0.00     0.037 A 
ATOM     51  C   UNL     1      13.320 -15.612  -5.128  1.00  0.00     0.049 A 
ATOM     52  C   UNL     1      14.888 -10.570  -7.055  1.00  0.00     0.074 A 
ATOM     53  C   UNL     1      14.019 -16.702  -5.614  1.00  0.00     0.029 A 
ATOM     54  N   UNL     1      13.890 -14.483  -5.704  1.00  0.00    -0.354 N 
ATOM     55  N   UNL     1      14.635 -11.807  -6.699  1.00  0.00    -0.248 NA
ATOM     56  C   UNL     1      16.060 -10.425  -7.927  1.00  0.00     0.031 C 
ATOM     57  C   UNL     1      15.056 -16.230  -6.425  1.00  0.00     0.029 A 
ATOM     58  C   UNL     1      14.960 -14.849  -6.505  1.00  0.00     0.049 A 
ATOM     59  H   UNL     1      13.579 -13.560  -5.564  1.00  0.00     0.167 HD
ATOM     60  C   UNL     1      15.603 -12.589  -7.316  1.00  0.00     0.074 A 
ATOM     61  C   UNL     1      16.436 -11.687  -8.085  1.00  0.00     0.031 C 
ATOM     62  C   UNL     1      15.786 -13.932  -7.254  1.00  0.00     0.037 A 
BRANCH  49  63
ATOM     63  C   UNL     1      11.788 -16.879  -3.562  1.00  0.00     0.064 A 
ATOM     64  C   UNL     1      10.533 -17.451  -3.822  1.00  0.00     0.173 A 
ATOM     65  C   UNL     1      12.645 -17.558  -2.682  1.00  0.00     0.173 A 
ATOM     66  F   UNL     1       9.669 -16.838  -4.645  1.00  0.00    -0.203 F 
ATOM     67  C   UNL     1      10.138 -18.631  -3.195  1.00  0.00     0.198 A 
ATOM     68  C   UNL     1      12.261 -18.756  -2.085  1.00  0.00     0.198 A 
ATOM     69  F   UNL     1      13.858 -17.060  -2.399  1.00  0.00    -0.203 F 
ATOM     70  F   UNL     1       8.910 -19.123  -3.410  1.00  0.00    -0.200 F 
ATOM     71  C   UNL     1      11.004 -19.285  -2.332  1.00  0.00     0.200 A 
ATOM     72  F   UNL     1      13.105 -19.394  -1.262  1.00  0.00    -0.200 F 
ATOM     73  F   UNL     1      10.623 -20.420  -1.730  1.00  0.00    -0.200 F 
ENDBRANCH  49  63
BRANCH  50  74
ATOM     74  C   UNL     1      14.614  -7.977  -7.161  1.00  0.00     0.064 A 
ATOM     75  C   UNL     1      14.538  -7.610  -8.511  1.00  0.00     0.173 A 
ATOM     76  C   UNL     1      15.126  -7.034  -6.256  1.00  0.00     0.173 A 
ATOM     77  F   UNL     1      14.076  -8.483  -9.417  1.00  0.00    -0.203 F 
ATOM     78  C   UNL     1      14.967  -6.355  -8.939  1.00  0.00     0.198 A 
ATOM     79  C   UNL     1      15.524  -5.769  -6.680  1.00  0.00     0.198 A 
ATOM     80  F   UNL     1      15.216  -7.335  -4.952  1.00  0.00    -0.203 F 
ATOM     81  F   UNL     1      14.918  -6.042 -10.241  1.00  0.00    -0.200 F 
ATOM     82  C   UNL     1      15.450  -5.433  -8.023  1.00  0.00     0.200 A 
ATOM     83  F   UNL     1      15.973  -4.876  -5.788  1.00  0.00    -0.200 F 
ATOM     84  F   UNL     1      15.848  -4.221  -8.434  1.00  0.00    -0.200 F 
ENDBRANCH  50  74
BRANCH  62  85
ATOM     85  C   UNL     1      16.921 -14.511  -8.051  1.00  0.00     0.064 A 
ATOM     86  C   UNL     1      18.259 -14.300  -7.688  1.00  0.00     0.173 A 
ATOM     87  C   UNL     1      16.665 -15.327  -9.164  1.00  0.00     0.173 A 
ATOM     88  F   UNL     1      18.560 -13.517  -6.641  1.00  0.00    -0.203 F 
ATOM     89  C   UNL     1      19.299 -14.863  -8.424  1.00  0.00     0.198 A 
ATOM     90  C   UNL     1      17.705 -15.917  -9.876  1.00  0.00     0.198 A 
ATOM     91  F   UNL     1      15.403 -15.568  -9.550  1.00  0.00    -0.203 F 
ATOM     92  F   UNL     1      20.571 -14.607  -8.089  1.00  0.00    -0.200 F 
ATOM     93  C   UNL     1      19.020 -15.678  -9.511  1.00  0.00     0.200 A 
ATOM     94  F   UNL     1      17.433 -16.718 -10.915  1.00  0.00    -0.200 F 
ATOM     95  F   UNL     1      20.022 -16.229 -10.211  1.00  0.00    -0.200 F 
ENDBRANCH  62  85
ENDBRANCH  36  37
ENDBRANCH  29  31
ENDBRANCH  28  29
ENDBRANCH  27  28
ENDBRANCH  26  27
ENDBRANCH  25  26
ENDBRANCH   1  25
TORSDOF 18
