REMARK SMILES CCc1ccc(C(=O)N2Cc3nc[nH]c3C[C@@H]2C(=O)OCCOCCOC(=O)c2ccc(-c3c4nc(c(-c5c(F)c(F)c(F)c(F)c5F)c5ccc([nH]5)c(-c5c(F)c(F)c(F)c(F)c5F)c5nc(c(-c6c(F)c(F)c(F)c(F)c6F)c6ccc3[nH]6)C=C5)C=C4)cc2)o1
REMARK SMILES IDX 22 1 21 2 20 3 18 4 19 5 17 6 9 7 10 8 11 9 16 10 12 11
REMARK SMILES IDX 15 12 13 13 14 14 7 16 8 17 6 18 3 19 4 20 92 21 5 22 2 23
REMARK SMILES IDX 1 24 23 25 24 26 25 27 26 28 27 29 28 30 29 31 30 32 91 33
REMARK SMILES IDX 31 34 90 35 32 36 33 37 34 38 84 39 35 40 89 41 83 42 85 43
REMARK SMILES IDX 36 44 88 45 82 46 81 47 37 49 69 50 49 51 68 52 50 53 53 54
REMARK SMILES IDX 67 55 86 56 51 57 52 58 66 60 87 61 54 62 38 63 39 64 47 65
REMARK SMILES IDX 40 66 41 67 45 68 48 69 42 70 43 71 46 72 44 73 70 74 71 75
REMARK SMILES IDX 79 76 72 77 73 78 77 79 80 80 74 81 75 82 78 83 76 84 55 85
REMARK SMILES IDX 56 86 64 87 57 88 58 89 62 90 65 91 59 92 60 93 63 94 61 95
REMARK H PARENT 14 15 85 48 53 59
REMARK Flexibility Score: inf
ROOT
ATOM      1  C   UNL     1      -1.642   5.121   6.552  1.00  0.00     0.202 C 
ENDROOT
BRANCH   1   2
ATOM      2  C   UNL     1      -0.332   5.702   7.081  1.00  0.00     0.261 C 
BRANCH   2   3
ATOM      3  O   UNL     1       0.460   6.216   5.994  1.00  0.00    -0.462 OA
BRANCH   3   4
ATOM      4  C   UNL     1       1.761   5.791   5.953  1.00  0.00     0.329 C 
ATOM      5  O   UNL     1       2.316   5.162   6.839  1.00  0.00    -0.250 OA
BRANCH   4   6
ATOM      6  C   UNL     1       2.420   6.320   4.667  1.00  0.00     0.201 C 
ATOM      7  N   UNL     1       3.337   5.387   3.939  1.00  0.00    -0.316 N 
ATOM      8  C   UNL     1       4.189   5.912   2.857  1.00  0.00     0.179 C 
ATOM      9  C   UNL     1       4.697   7.256   3.221  1.00  0.00     0.081 A 
ATOM     10  C   UNL     1       3.105   7.633   5.153  1.00  0.00     0.093 C 
ATOM     11  N   UNL     1       5.721   7.910   2.593  1.00  0.00    -0.240 NA
ATOM     12  C   UNL     1       4.187   8.027   4.235  1.00  0.00     0.042 A 
ATOM     13  C   UNL     1       5.867   9.037   3.259  1.00  0.00     0.197 A 
ATOM     14  N   UNL     1       4.952   9.154   4.272  1.00  0.00    -0.348 N 
ATOM     15  H   UNL     1       4.864   9.905   4.903  1.00  0.00     0.167 HD
BRANCH   7  16
ATOM     16  C   UNL     1       3.055   4.020   3.925  1.00  0.00     0.290 C 
ATOM     17  O   UNL     1       3.414   3.324   4.872  1.00  0.00    -0.265 OA
BRANCH  16  18
ATOM     18  C   UNL     1       2.292   3.484   2.804  1.00  0.00     0.191 A 
ATOM     19  C   UNL     1       1.221   1.850   1.753  1.00  0.00     0.104 A 
ATOM     20  C   UNL     1       0.983   2.996   1.029  1.00  0.00     0.046 A 
ATOM     21  O   UNL     1       2.010   2.139   2.823  1.00  0.00    -0.456 OA
ATOM     22  C   UNL     1       1.679   4.039   1.693  1.00  0.00     0.056 A 
BRANCH  19  23
ATOM     23  C   UNL     1       0.775   0.438   1.616  1.00  0.00     0.072 C 
ATOM     24  C   UNL     1       1.109  -0.131   0.246  1.00  0.00     0.012 C 
ENDBRANCH  19  23
ENDBRANCH  16  18
ENDBRANCH   7  16
ENDBRANCH   4   6
ENDBRANCH   3   4
ENDBRANCH   2   3
ENDBRANCH   1   2
BRANCH   1  25
ATOM     25  O   UNL     1      -1.545   3.896   5.822  1.00  0.00    -0.374 OA
BRANCH  25  26
ATOM     26  C   UNL     1      -0.802   3.866   4.609  1.00  0.00     0.202 C 
BRANCH  26  27
ATOM     27  C   UNL     1      -1.452   4.500   3.388  1.00  0.00     0.261 C 
BRANCH  27  28
ATOM     28  O   UNL     1      -1.868   5.836   3.607  1.00  0.00    -0.460 OA
BRANCH  28  29
ATOM     29  C   UNL     1      -3.191   5.934   3.876  1.00  0.00     0.338 C 
ATOM     30  O   UNL     1      -3.943   5.047   4.230  1.00  0.00    -0.246 OA
BRANCH  29  31
ATOM     31  C   UNL     1      -3.641   7.266   3.463  1.00  0.00     0.060 A 
ATOM     32  C   UNL     1      -5.022   7.457   3.455  1.00  0.00     0.016 A 
ATOM     33  C   UNL     1      -2.758   8.158   2.832  1.00  0.00     0.016 A 
ATOM     34  C   UNL     1      -5.537   8.430   2.635  1.00  0.00     0.010 A 
ATOM     35  C   UNL     1      -3.275   9.124   2.001  1.00  0.00     0.010 A 
ATOM     36  C   UNL     1      -4.656   9.191   1.857  1.00  0.00    -0.014 A 
BRANCH  36  37
ATOM     37  C   UNL     1      -5.253  10.113   0.921  1.00  0.00     0.031 A 
ATOM     38  C   UNL     1      -5.774  11.329   1.563  1.00  0.00     0.074 A 
ATOM     39  C   UNL     1      -5.291   9.882  -0.402  1.00  0.00     0.049 A 
ATOM     40  N   UNL     1      -7.008  11.674   1.712  1.00  0.00    -0.248 NA
ATOM     41  C   UNL     1      -4.809  12.196   2.254  1.00  0.00     0.031 C 
ATOM     42  C   UNL     1      -4.518   8.888  -1.151  1.00  0.00     0.029 A 
ATOM     43  N   UNL     1      -5.965  10.561  -1.373  1.00  0.00    -0.354 N 
ATOM     44  C   UNL     1      -6.964  12.913   2.338  1.00  0.00     0.074 A 
ATOM     45  C   UNL     1      -5.619  13.090   2.818  1.00  0.00     0.031 C 
ATOM     46  C   UNL     1      -4.603   9.169  -2.470  1.00  0.00     0.029 A 
ATOM     47  C   UNL     1      -5.548  10.258  -2.658  1.00  0.00     0.049 A 
ATOM     48  H   UNL     1      -6.682  11.207  -1.178  1.00  0.00     0.167 HD
ATOM     49  C   UNL     1      -7.956  13.817   2.136  1.00  0.00     0.037 A 
ATOM     50  C   UNL     1      -5.912  10.904  -3.788  1.00  0.00     0.037 A 
ATOM     51  C   UNL     1      -9.126  13.204   1.565  1.00  0.00     0.049 A 
ATOM     52  C   UNL     1      -7.181  11.627  -3.533  1.00  0.00     0.074 A 
ATOM     53  C   UNL     1     -10.232  12.527   2.026  1.00  0.00     0.029 A 
ATOM     54  N   UNL     1      -9.048  12.988   0.216  1.00  0.00    -0.354 N 
ATOM     55  N   UNL     1      -8.320  11.033  -3.305  1.00  0.00    -0.248 NA
ATOM     56  C   UNL     1      -7.148  13.053  -3.216  1.00  0.00     0.031 C 
ATOM     57  C   UNL     1     -10.766  11.812   0.911  1.00  0.00     0.029 A 
ATOM     58  C   UNL     1      -9.973  12.069  -0.203  1.00  0.00     0.049 A 
ATOM     59  H   UNL     1      -8.405  13.438  -0.380  1.00  0.00     0.167 HD
ATOM     60  C   UNL     1      -8.990  11.892  -2.458  1.00  0.00     0.074 A 
ATOM     61  C   UNL     1      -8.316  13.174  -2.580  1.00  0.00     0.031 C 
ATOM     62  C   UNL     1      -9.809  11.416  -1.480  1.00  0.00     0.037 A 
BRANCH  49  63
ATOM     63  C   UNL     1      -7.725  15.302   2.010  1.00  0.00     0.064 A 
ATOM     64  C   UNL     1      -8.836  16.165   1.977  1.00  0.00     0.173 A 
ATOM     65  C   UNL     1      -6.495  15.876   1.616  1.00  0.00     0.173 A 
ATOM     66  F   UNL     1     -10.058  15.718   2.303  1.00  0.00    -0.203 F 
ATOM     67  C   UNL     1      -8.731  17.485   1.530  1.00  0.00     0.198 A 
ATOM     68  C   UNL     1      -6.384  17.209   1.228  1.00  0.00     0.198 A 
ATOM     69  F   UNL     1      -5.380  15.150   1.475  1.00  0.00    -0.203 F 
ATOM     70  F   UNL     1      -9.834  18.235   1.406  1.00  0.00    -0.200 F 
ATOM     71  C   UNL     1      -7.505  18.006   1.157  1.00  0.00     0.200 A 
ATOM     72  F   UNL     1      -5.189  17.686   0.848  1.00  0.00    -0.200 F 
ATOM     73  F   UNL     1      -7.410  19.255   0.684  1.00  0.00    -0.200 F 
ENDBRANCH  49  63
BRANCH  50  74
ATOM     74  C   UNL     1      -5.099  11.137  -5.000  1.00  0.00     0.064 A 
ATOM     75  C   UNL     1      -5.701  11.455  -6.225  1.00  0.00     0.173 A 
ATOM     76  C   UNL     1      -3.706  11.320  -4.912  1.00  0.00     0.173 A 
ATOM     77  F   UNL     1      -7.029  11.344  -6.372  1.00  0.00    -0.203 F 
ATOM     78  C   UNL     1      -4.956  11.960  -7.294  1.00  0.00     0.198 A 
ATOM     79  C   UNL     1      -2.962  11.816  -5.981  1.00  0.00     0.198 A 
ATOM     80  F   UNL     1      -3.056  11.114  -3.756  1.00  0.00    -0.203 F 
ATOM     81  F   UNL     1      -5.574  12.317  -8.428  1.00  0.00    -0.200 F 
ATOM     82  C   UNL     1      -3.590  12.151  -7.167  1.00  0.00     0.200 A 
ATOM     83  F   UNL     1      -1.646  12.028  -5.834  1.00  0.00    -0.200 F 
ATOM     84  F   UNL     1      -2.885  12.696  -8.168  1.00  0.00    -0.200 F 
ENDBRANCH  50  74
BRANCH  62  85
ATOM     85  C   UNL     1     -10.405  10.062  -1.682  1.00  0.00     0.064 A 
ATOM     86  C   UNL     1      -9.666   8.869  -1.673  1.00  0.00     0.173 A 
ATOM     87  C   UNL     1     -11.793   9.970  -1.843  1.00  0.00     0.173 A 
ATOM     88  F   UNL     1      -8.345   8.881  -1.452  1.00  0.00    -0.203 F 
ATOM     89  C   UNL     1     -10.294   7.638  -1.861  1.00  0.00     0.198 A 
ATOM     90  C   UNL     1     -12.421   8.739  -1.996  1.00  0.00     0.198 A 
ATOM     91  F   UNL     1     -12.548  11.080  -1.822  1.00  0.00    -0.203 F 
ATOM     92  F   UNL     1      -9.569   6.510  -1.872  1.00  0.00    -0.200 F 
ATOM     93  C   UNL     1     -11.670   7.574  -2.016  1.00  0.00     0.200 A 
ATOM     94  F   UNL     1     -13.755   8.680  -2.108  1.00  0.00    -0.200 F 
ATOM     95  F   UNL     1     -12.276   6.388  -2.168  1.00  0.00    -0.200 F 
ENDBRANCH  62  85
ENDBRANCH  36  37
ENDBRANCH  29  31
ENDBRANCH  28  29
ENDBRANCH  27  28
ENDBRANCH  26  27
ENDBRANCH  25  26
ENDBRANCH   1  25
TORSDOF 17
