REMARK SMILES CCc1ccc(C(=O)NCc2ccc(C(=O)OCCOCCOC(=O)c3ccc(-c4c5nc(c(-c6c(F)c(F)c(F)c(F)c6F)c6ccc([nH]6)c(-c6c(F)c(F)c(F)c(F)c6F)c6nc(c(-c7c(F)c(F)c(F)c(F)c7F)c7ccc4[nH]7)C=C6)C=C5)cc3)cc2)cc1
REMARK SMILES IDX 19 1 18 2 17 3 15 4 16 5 14 6 11 7 12 8 90 9 13 10 89 11
REMARK SMILES IDX 10 12 9 13 7 14 8 15 6 17 3 18 4 19 92 20 5 21 91 22 2 23
REMARK SMILES IDX 1 24 20 25 21 26 22 27 23 28 24 29 25 30 26 31 27 32 88 33
REMARK SMILES IDX 28 34 87 35 29 36 30 37 31 38 81 39 32 40 86 41 80 42 82 43
REMARK SMILES IDX 33 44 85 45 79 46 78 47 34 49 66 50 46 51 65 52 47 53 50 54
REMARK SMILES IDX 64 55 83 56 48 57 49 58 63 60 84 61 51 62 35 63 36 64 44 65
REMARK SMILES IDX 37 66 38 67 42 68 45 69 39 70 40 71 43 72 41 73 67 74 68 75
REMARK SMILES IDX 76 76 69 77 70 78 74 79 77 80 71 81 72 82 75 83 73 84 52 85
REMARK SMILES IDX 53 86 61 87 54 88 55 89 59 90 62 91 56 92 57 93 60 94 58 95
REMARK H PARENT 9 16 82 48 50 59
REMARK Flexibility Score: inf
ROOT
ATOM      1  C   UNL     1      11.812  -1.281  -6.213  1.00  0.00     0.202 C 
ENDROOT
BRANCH   1   2
ATOM      2  C   UNL     1      11.162  -0.912  -7.550  1.00  0.00     0.261 C 
BRANCH   2   3
ATOM      3  O   UNL     1       9.746  -0.704  -7.422  1.00  0.00    -0.460 OA
BRANCH   3   4
ATOM      4  C   UNL     1       8.996  -1.683  -7.985  1.00  0.00     0.338 C 
ATOM      5  O   UNL     1       9.404  -2.613  -8.664  1.00  0.00    -0.246 OA
BRANCH   4   6
ATOM      6  C   UNL     1       7.577  -1.578  -7.580  1.00  0.00     0.060 A 
ATOM      7  C   UNL     1       4.800  -1.573  -7.112  1.00  0.00    -0.029 A 
ATOM      8  C   UNL     1       5.517  -2.779  -7.187  1.00  0.00     0.006 A 
ATOM      9  C   UNL     1       5.515  -0.365  -7.202  1.00  0.00     0.006 A 
ATOM     10  C   UNL     1       6.888  -2.782  -7.421  1.00  0.00     0.016 A 
ATOM     11  C   UNL     1       6.902  -0.364  -7.424  1.00  0.00     0.016 A 
BRANCH   7  12
ATOM     12  C   UNL     1       3.283  -1.572  -7.095  1.00  0.00     0.152 C 
BRANCH  12  13
ATOM     13  N   UNL     1       2.739  -2.798  -6.545  1.00  0.00    -0.348 N 
ATOM     14  C   UNL     1       2.160  -3.139  -5.357  1.00  0.00     0.251 C 
ATOM     15  O   UNL     1       1.859  -4.325  -5.205  1.00  0.00    -0.269 OA
ATOM     16  H   UNL     1       2.803  -3.556  -7.169  1.00  0.00     0.164 HD
BRANCH  14  17
ATOM     17  C   UNL     1       1.812  -2.167  -4.290  1.00  0.00     0.039 A 
ATOM     18  C   UNL     1       0.917  -0.419  -2.263  1.00  0.00    -0.048 A 
ATOM     19  C   UNL     1       0.287  -1.651  -2.459  1.00  0.00     0.004 A 
ATOM     20  C   UNL     1       2.030  -0.094  -3.048  1.00  0.00     0.004 A 
ATOM     21  C   UNL     1       0.728  -2.511  -3.466  1.00  0.00     0.014 A 
ATOM     22  C   UNL     1       2.490  -0.973  -4.038  1.00  0.00     0.014 A 
BRANCH  18  23
ATOM     23  C   UNL     1       0.422   0.523  -1.196  1.00  0.00     0.032 C 
ATOM     24  C   UNL     1       0.986   0.177   0.173  1.00  0.00     0.009 C 
ENDBRANCH  18  23
ENDBRANCH  14  17
ENDBRANCH  12  13
ENDBRANCH   7  12
ENDBRANCH   4   6
ENDBRANCH   3   4
ENDBRANCH   2   3
ENDBRANCH   1   2
BRANCH   1  25
ATOM     25  O   UNL     1      11.320  -2.450  -5.563  1.00  0.00    -0.374 OA
BRANCH  25  26
ATOM     26  C   UNL     1      10.113  -2.322  -4.809  1.00  0.00     0.202 C 
BRANCH  26  27
ATOM     27  C   UNL     1      10.234  -1.644  -3.438  1.00  0.00     0.261 C 
BRANCH  27  28
ATOM     28  O   UNL     1      10.533  -0.240  -3.561  1.00  0.00    -0.460 OA
BRANCH  28  29
ATOM     29  C   UNL     1      11.752   0.128  -3.107  1.00  0.00     0.338 C 
ATOM     30  O   UNL     1      12.573  -0.571  -2.526  1.00  0.00    -0.246 OA
BRANCH  29  31
ATOM     31  C   UNL     1      12.072   1.490  -3.572  1.00  0.00     0.060 A 
ATOM     32  C   UNL     1      13.279   1.673  -4.259  1.00  0.00     0.016 A 
ATOM     33  C   UNL     1      11.246   2.578  -3.285  1.00  0.00     0.016 A 
ATOM     34  C   UNL     1      13.691   2.954  -4.619  1.00  0.00     0.010 A 
ATOM     35  C   UNL     1      11.666   3.866  -3.637  1.00  0.00     0.010 A 
ATOM     36  C   UNL     1      12.905   4.062  -4.274  1.00  0.00    -0.014 A 
BRANCH  36  37
ATOM     37  C   UNL     1      13.453   5.428  -4.448  1.00  0.00     0.031 A 
ATOM     38  C   UNL     1      14.059   6.126  -3.262  1.00  0.00     0.074 A 
ATOM     39  C   UNL     1      13.438   6.029  -5.651  1.00  0.00     0.049 A 
ATOM     40  N   UNL     1      14.568   7.329  -3.175  1.00  0.00    -0.248 NA
ATOM     41  C   UNL     1      14.095   5.364  -2.004  1.00  0.00     0.031 C 
ATOM     42  C   UNL     1      12.915   5.440  -6.881  1.00  0.00     0.029 A 
ATOM     43  N   UNL     1      13.873   7.274  -6.029  1.00  0.00    -0.354 N 
ATOM     44  C   UNL     1      14.979   7.469  -1.856  1.00  0.00     0.074 A 
ATOM     45  C   UNL     1      14.634   6.242  -1.171  1.00  0.00     0.031 C 
ATOM     46  C   UNL     1      13.049   6.329  -7.880  1.00  0.00     0.029 A 
ATOM     47  C   UNL     1      13.640   7.558  -7.352  1.00  0.00     0.049 A 
ATOM     48  H   UNL     1      14.311   7.904  -5.412  1.00  0.00     0.167 HD
ATOM     49  C   UNL     1      15.598   8.522  -1.272  1.00  0.00     0.037 A 
ATOM     50  C   UNL     1      13.860   8.690  -8.049  1.00  0.00     0.037 A 
ATOM     51  C   UNL     1      15.944   9.741  -1.955  1.00  0.00     0.049 A 
ATOM     52  C   UNL     1      14.486   9.874  -7.358  1.00  0.00     0.074 A 
ATOM     53  C   UNL     1      16.592  10.857  -1.456  1.00  0.00     0.029 A 
ATOM     54  N   UNL     1      15.662  10.005  -3.287  1.00  0.00    -0.354 N 
ATOM     55  N   UNL     1      14.896   9.989  -6.118  1.00  0.00    -0.248 NA
ATOM     56  C   UNL     1      14.682  11.086  -8.168  1.00  0.00     0.031 C 
ATOM     57  C   UNL     1      16.658  11.816  -2.473  1.00  0.00     0.029 A 
ATOM     58  C   UNL     1      16.097  11.277  -3.620  1.00  0.00     0.049 A 
ATOM     59  H   UNL     1      15.217   9.380  -3.905  1.00  0.00     0.167 HD
ATOM     60  C   UNL     1      15.421  11.270  -6.006  1.00  0.00     0.074 A 
ATOM     61  C   UNL     1      15.290  11.891  -7.307  1.00  0.00     0.031 C 
ATOM     62  C   UNL     1      15.964  11.878  -4.922  1.00  0.00     0.037 A 
BRANCH  49  63
ATOM     63  C   UNL     1      15.921   8.413   0.190  1.00  0.00     0.064 A 
ATOM     64  C   UNL     1      16.941   7.571   0.659  1.00  0.00     0.173 A 
ATOM     65  C   UNL     1      15.222   9.184   1.130  1.00  0.00     0.173 A 
ATOM     66  F   UNL     1      17.629   6.802  -0.199  1.00  0.00    -0.203 F 
ATOM     67  C   UNL     1      17.232   7.489   2.018  1.00  0.00     0.198 A 
ATOM     68  C   UNL     1      15.534   9.120   2.485  1.00  0.00     0.198 A 
ATOM     69  F   UNL     1      14.239  10.007   0.733  1.00  0.00    -0.203 F 
ATOM     70  F   UNL     1      18.181   6.646   2.448  1.00  0.00    -0.200 F 
ATOM     71  C   UNL     1      16.534   8.268   2.929  1.00  0.00     0.200 A 
ATOM     72  F   UNL     1      14.866   9.882   3.362  1.00  0.00    -0.200 F 
ATOM     73  F   UNL     1      16.820   8.193   4.236  1.00  0.00    -0.200 F 
ENDBRANCH  49  63
BRANCH  50  74
ATOM     74  C   UNL     1      13.473   8.766  -9.482  1.00  0.00     0.064 A 
ATOM     75  C   UNL     1      14.444   8.848 -10.490  1.00  0.00     0.173 A 
ATOM     76  C   UNL     1      12.126   8.776  -9.870  1.00  0.00     0.173 A 
ATOM     77  F   UNL     1      15.745   8.869 -10.166  1.00  0.00    -0.203 F 
ATOM     78  C   UNL     1      14.080   8.956 -11.831  1.00  0.00     0.198 A 
ATOM     79  C   UNL     1      11.764   8.855 -11.213  1.00  0.00     0.198 A 
ATOM     80  F   UNL     1      11.159   8.702  -8.944  1.00  0.00    -0.203 F 
ATOM     81  F   UNL     1      15.027   9.080 -12.771  1.00  0.00    -0.200 F 
ATOM     82  C   UNL     1      12.741   8.953 -12.192  1.00  0.00     0.200 A 
ATOM     83  F   UNL     1      10.469   8.842 -11.558  1.00  0.00    -0.200 F 
ATOM     84  F   UNL     1      12.392   9.054 -13.481  1.00  0.00    -0.200 F 
ENDBRANCH  50  74
BRANCH  62  85
ATOM     85  C   UNL     1      16.486  13.274  -5.104  1.00  0.00     0.064 A 
ATOM     86  C   UNL     1      15.624  14.369  -5.260  1.00  0.00     0.173 A 
ATOM     87  C   UNL     1      17.867  13.524  -5.078  1.00  0.00     0.173 A 
ATOM     88  F   UNL     1      14.296  14.181  -5.306  1.00  0.00    -0.203 F 
ATOM     89  C   UNL     1      16.125  15.660  -5.408  1.00  0.00     0.198 A 
ATOM     90  C   UNL     1      18.364  14.819  -5.197  1.00  0.00     0.198 A 
ATOM     91  F   UNL     1      18.735  12.513  -4.923  1.00  0.00    -0.203 F 
ATOM     92  F   UNL     1      15.284  16.685  -5.602  1.00  0.00    -0.200 F 
ATOM     93  C   UNL     1      17.493  15.885  -5.369  1.00  0.00     0.200 A 
ATOM     94  F   UNL     1      19.685  15.036  -5.145  1.00  0.00    -0.200 F 
ATOM     95  F   UNL     1      17.973  17.128  -5.505  1.00  0.00    -0.200 F 
ENDBRANCH  62  85
ENDBRANCH  36  37
ENDBRANCH  29  31
ENDBRANCH  28  29
ENDBRANCH  27  28
ENDBRANCH  26  27
ENDBRANCH  25  26
ENDBRANCH   1  25
TORSDOF 18
