REMARK SMILES C[C@H]1[C@H](C(=O)OCCOCCOC(=O)c2ccc(-c3c4nc(c(-c5c(F)c(F)c(F)c(F)c5F)c5ccc([nH]5)c(-c5c(F)c(F)c(F)c(F)c5F)c5nc(c(-c6c(F)c(F)c(F)c(F)c6F)c6ccc3[nH]6)C=C5)C=C4)cc2)CCN1C(=O)Nc1ccc(F)cc1
REMARK SMILES IDX 9 1 8 2 7 3 6 4 4 5 5 6 3 7 1 8 2 9 80 10 78 11 79 12 81 13
REMARK SMILES IDX 82 14 83 15 84 17 85 18 90 19 86 20 89 21 87 22 88 23 10 24
REMARK SMILES IDX 11 25 12 26 13 27 14 28 15 29 16 30 77 31 17 32 76 33 18 34
REMARK SMILES IDX 19 35 20 36 70 37 21 38 75 39 69 40 71 41 22 42 74 43 68 44
REMARK SMILES IDX 67 45 23 47 55 48 35 49 54 50 36 51 39 52 53 53 72 54 37 55
REMARK SMILES IDX 38 56 52 58 73 59 40 60 24 61 25 62 33 63 26 64 27 65 31 66
REMARK SMILES IDX 34 67 28 68 29 69 32 70 30 71 56 72 57 73 65 74 58 75 59 76
REMARK SMILES IDX 63 77 66 78 60 79 61 80 64 81 62 82 41 83 42 84 50 85 43 86
REMARK SMILES IDX 44 87 48 88 51 89 45 90 46 91 49 92 47 93
REMARK H PARENT 83 16 71 46 39 57
REMARK Flexibility Score: inf
ROOT
ATOM      1  O   UNL     1       1.036   4.669   2.256  1.00  0.00    -0.374 OA
ENDROOT
BRANCH   1   2
ATOM      2  C   UNL     1       0.108   4.232   3.242  1.00  0.00     0.202 C 
BRANCH   2   3
ATOM      3  C   UNL     1      -1.080   3.395   2.755  1.00  0.00     0.261 C 
BRANCH   3   4
ATOM      4  O   UNL     1      -0.720   2.243   1.972  1.00  0.00    -0.463 OA
BRANCH   4   5
ATOM      5  C   UNL     1      -0.977   2.350   0.639  1.00  0.00     0.311 C 
ATOM      6  O   UNL     1      -1.416   3.355   0.090  1.00  0.00    -0.252 OA
BRANCH   5   7
ATOM      7  C   UNL     1      -0.780   1.058  -0.116  1.00  0.00     0.123 C 
ATOM      8  C   UNL     1       1.534   0.342  -0.753  1.00  0.00     0.032 C 
ATOM      9  C   UNL     1       0.418   0.156   0.281  1.00  0.00     0.098 C 
ATOM     10  N   UNL     1      -0.133  -1.216   0.298  1.00  0.00    -0.321 N 
ATOM     11  C   UNL     1      -2.017   0.193   0.067  1.00  0.00     0.039 C 
ATOM     12  C   UNL     1      -1.505  -1.199  -0.193  1.00  0.00     0.122 C 
BRANCH  10  13
ATOM     13  C   UNL     1       0.403  -2.450   0.518  1.00  0.00     0.322 C 
ATOM     14  O   UNL     1      -0.287  -3.468   0.364  1.00  0.00    -0.248 OA
ATOM     15  N   UNL     1       1.707  -2.695   0.731  1.00  0.00    -0.308 N 
ATOM     16  H   UNL     1       1.951  -3.593   0.410  1.00  0.00     0.171 HD
BRANCH  15  17
ATOM     17  C   UNL     1       2.814  -2.047   1.275  1.00  0.00     0.043 A 
ATOM     18  C   UNL     1       4.071  -2.490   0.825  1.00  0.00     0.029 A 
ATOM     19  C   UNL     1       2.749  -1.081   2.272  1.00  0.00     0.029 A 
ATOM     20  C   UNL     1       5.247  -1.918   1.306  1.00  0.00     0.041 A 
ATOM     21  C   UNL     1       3.935  -0.526   2.770  1.00  0.00     0.041 A 
ATOM     22  C   UNL     1       5.167  -0.932   2.273  1.00  0.00     0.123 A 
ATOM     23  F   UNL     1       6.287  -0.374   2.748  1.00  0.00    -0.207 F 
ENDBRANCH  15  17
ENDBRANCH  10  13
ENDBRANCH   5   7
ENDBRANCH   4   5
ENDBRANCH   3   4
ENDBRANCH   2   3
ENDBRANCH   1   2
BRANCH   1  24
ATOM     24  C   UNL     1       1.926   3.703   1.699  1.00  0.00     0.202 C 
BRANCH  24  25
ATOM     25  C   UNL     1       2.921   3.060   2.666  1.00  0.00     0.261 C 
BRANCH  25  26
ATOM     26  O   UNL     1       2.266   2.233   3.651  1.00  0.00    -0.460 OA
BRANCH  26  27
ATOM     27  C   UNL     1       2.767   2.373   4.901  1.00  0.00     0.338 C 
ATOM     28  O   UNL     1       3.751   3.022   5.230  1.00  0.00    -0.246 OA
BRANCH  27  29
ATOM     29  C   UNL     1       1.925   1.707   5.908  1.00  0.00     0.060 A 
ATOM     30  C   UNL     1       1.394   2.507   6.924  1.00  0.00     0.016 A 
ATOM     31  C   UNL     1       1.830   0.315   5.981  1.00  0.00     0.016 A 
ATOM     32  C   UNL     1       0.839   1.914   8.056  1.00  0.00     0.010 A 
ATOM     33  C   UNL     1       1.267  -0.280   7.117  1.00  0.00     0.010 A 
ATOM     34  C   UNL     1       0.820   0.517   8.182  1.00  0.00    -0.014 A 
BRANCH  34  35
ATOM     35  C   UNL     1       0.462  -0.080   9.492  1.00  0.00     0.031 A 
ATOM     36  C   UNL     1       1.552  -0.497  10.442  1.00  0.00     0.074 A 
ATOM     37  C   UNL     1      -0.827  -0.187   9.858  1.00  0.00     0.049 A 
ATOM     38  N   UNL     1       1.458  -0.923  11.678  1.00  0.00    -0.248 NA
ATOM     39  C   UNL     1       2.931  -0.429   9.935  1.00  0.00     0.031 C 
ATOM     40  C   UNL     1      -1.971   0.172   9.025  1.00  0.00     0.029 A 
ATOM     41  N   UNL     1      -1.385  -0.620  11.034  1.00  0.00    -0.354 N 
ATOM     42  C   UNL     1       2.760  -1.162  12.096  1.00  0.00     0.074 A 
ATOM     43  C   UNL     1       3.625  -0.876  10.972  1.00  0.00     0.031 C 
ATOM     44  C   UNL     1      -3.100  -0.044   9.720  1.00  0.00     0.029 A 
ATOM     45  C   UNL     1      -2.756  -0.559  11.045  1.00  0.00     0.049 A 
ATOM     46  H   UNL     1      -0.854  -0.943  11.797  1.00  0.00     0.167 HD
ATOM     47  C   UNL     1       3.198  -1.565  13.313  1.00  0.00     0.037 A 
ATOM     48  C   UNL     1      -3.631  -0.870  12.019  1.00  0.00     0.037 A 
ATOM     49  C   UNL     1       2.341  -1.846  14.435  1.00  0.00     0.049 A 
ATOM     50  C   UNL     1      -3.121  -1.321  13.361  1.00  0.00     0.074 A 
ATOM     51  C   UNL     1       2.693  -2.228  15.719  1.00  0.00     0.029 A 
ATOM     52  N   UNL     1       0.957  -1.780  14.404  1.00  0.00    -0.354 N 
ATOM     53  N   UNL     1      -1.885  -1.478  13.767  1.00  0.00    -0.248 NA
ATOM     54  C   UNL     1      -4.131  -1.619  14.386  1.00  0.00     0.031 C 
ATOM     55  C   UNL     1       1.519  -2.426  16.454  1.00  0.00     0.029 A 
ATOM     56  C   UNL     1       0.438  -2.131  15.640  1.00  0.00     0.049 A 
ATOM     57  H   UNL     1       0.421  -1.522  13.619  1.00  0.00     0.167 HD
ATOM     58  C   UNL     1      -1.966  -1.869  15.096  1.00  0.00     0.074 A 
ATOM     59  C   UNL     1      -3.374  -1.911  15.434  1.00  0.00     0.031 C 
ATOM     60  C   UNL     1      -0.965  -2.164  15.960  1.00  0.00     0.037 A 
BRANCH  47  61
ATOM     61  C   UNL     1       4.678  -1.726  13.497  1.00  0.00     0.064 A 
ATOM     62  C   UNL     1       5.526  -0.614  13.606  1.00  0.00     0.173 A 
ATOM     63  C   UNL     1       5.249  -3.002  13.607  1.00  0.00     0.173 A 
ATOM     64  F   UNL     1       5.029   0.627  13.496  1.00  0.00    -0.203 F 
ATOM     65  C   UNL     1       6.896  -0.775  13.798  1.00  0.00     0.198 A 
ATOM     66  C   UNL     1       6.616  -3.159  13.822  1.00  0.00     0.198 A 
ATOM     67  F   UNL     1       4.479  -4.097  13.515  1.00  0.00    -0.203 F 
ATOM     68  F   UNL     1       7.692   0.301  13.864  1.00  0.00    -0.200 F 
ATOM     69  C   UNL     1       7.438  -2.046  13.911  1.00  0.00     0.200 A 
ATOM     70  F   UNL     1       7.138  -4.388  13.940  1.00  0.00    -0.200 F 
ATOM     71  F   UNL     1       8.756  -2.199  14.102  1.00  0.00    -0.200 F 
ENDBRANCH  47  61
BRANCH  48  72
ATOM     72  C   UNL     1      -5.087  -0.726  11.770  1.00  0.00     0.064 A 
ATOM     73  C   UNL     1      -5.822   0.308  12.364  1.00  0.00     0.173 A 
ATOM     74  C   UNL     1      -5.769  -1.619  10.931  1.00  0.00     0.173 A 
ATOM     75  F   UNL     1      -5.214   1.172  13.190  1.00  0.00    -0.203 F 
ATOM     76  C   UNL     1      -7.190   0.437  12.138  1.00  0.00     0.198 A 
ATOM     77  C   UNL     1      -7.132  -1.476  10.688  1.00  0.00     0.198 A 
ATOM     78  F   UNL     1      -5.106  -2.623  10.339  1.00  0.00    -0.203 F 
ATOM     79  F   UNL     1      -7.878   1.414  12.745  1.00  0.00    -0.200 F 
ATOM     80  C   UNL     1      -7.843  -0.451  11.296  1.00  0.00     0.200 A 
ATOM     81  F   UNL     1      -7.758  -2.330   9.867  1.00  0.00    -0.200 F 
ATOM     82  F   UNL     1      -9.159  -0.324  11.076  1.00  0.00    -0.200 F 
ENDBRANCH  48  72
BRANCH  60  83
ATOM     83  C   UNL     1      -1.355  -2.537  17.360  1.00  0.00     0.064 A 
ATOM     84  C   UNL     1      -1.920  -3.787  17.654  1.00  0.00     0.173 A 
ATOM     85  C   UNL     1      -1.138  -1.645  18.420  1.00  0.00     0.173 A 
ATOM     86  F   UNL     1      -2.160  -4.667  16.671  1.00  0.00    -0.203 F 
ATOM     87  C   UNL     1      -2.277  -4.120  18.958  1.00  0.00     0.198 A 
ATOM     88  C   UNL     1      -1.475  -1.991  19.726  1.00  0.00     0.198 A 
ATOM     89  F   UNL     1      -0.596  -0.440  18.190  1.00  0.00    -0.203 F 
ATOM     90  F   UNL     1      -2.857  -5.301  19.211  1.00  0.00    -0.200 F 
ATOM     91  C   UNL     1      -2.050  -3.224  19.993  1.00  0.00     0.200 A 
ATOM     92  F   UNL     1      -1.248  -1.128  20.726  1.00  0.00    -0.200 F 
ATOM     93  F   UNL     1      -2.395  -3.547  21.247  1.00  0.00    -0.200 F 
ENDBRANCH  60  83
ENDBRANCH  34  35
ENDBRANCH  27  29
ENDBRANCH  26  27
ENDBRANCH  25  26
ENDBRANCH  24  25
ENDBRANCH   1  24
TORSDOF 16
