REMARK SMILES O=C(CSc1nnc(Cc2ccncc2)n1-c1ccccc1Cl)OCCOCCOC(=O)c1ccc(-c2c3nc(c(-c4c(F)c(F)c(F)c(F)c4F)c4ccc([nH]4)c(-c4c(F)c(F)c(F)c(F)c4F)c4nc(c(-c5c(F)c(F)c(F)c(F)c5F)c5ccc2[nH]5)C=C4)C=C3)cc1
REMARK SMILES IDX 26 1 25 2 24 3 2 4 1 5 3 6 4 7 5 8 6 9 16 10 7 11 8 12 17 13
REMARK SMILES IDX 18 14 22 15 19 16 21 17 23 18 20 19 9 20 10 21 11 22 15 23
REMARK SMILES IDX 12 24 14 25 13 26 27 27 28 28 29 29 30 30 31 31 32 32 33 33
REMARK SMILES IDX 34 34 95 35 35 36 94 37 36 38 37 39 38 40 88 41 39 42 93 43
REMARK SMILES IDX 87 44 89 45 40 46 92 47 86 48 85 49 41 51 73 52 53 53 72 54
REMARK SMILES IDX 54 55 57 56 71 57 90 58 55 59 56 60 70 62 91 63 58 64 42 65
REMARK SMILES IDX 43 66 51 67 44 68 45 69 49 70 52 71 46 72 47 73 50 74 48 75
REMARK SMILES IDX 74 76 75 77 83 78 76 79 77 80 81 81 84 82 78 83 79 84 82 85
REMARK SMILES IDX 80 86 59 87 60 88 68 89 61 90 62 91 66 92 69 93 63 94 64 95
REMARK SMILES IDX 67 96 65 97
REMARK H PARENT 89 50 57 61
REMARK Flexibility Score: inf
ROOT
ATOM      1  C   UNL     1       4.856  -0.368   0.945  1.00  0.00     0.202 C 
ENDROOT
BRANCH   1   2
ATOM      2  C   UNL     1       4.518   0.758  -0.012  1.00  0.00     0.261 C 
BRANCH   2   3
ATOM      3  O   UNL     1       3.103   0.987  -0.131  1.00  0.00    -0.463 OA
BRANCH   3   4
ATOM      4  C   UNL     1       2.261   0.406  -1.016  1.00  0.00     0.316 C 
ATOM      5  O   UNL     1       1.071   0.717  -0.972  1.00  0.00    -0.251 OA
BRANCH   4   6
ATOM      6  C   UNL     1       2.754  -0.655  -1.977  1.00  0.00     0.200 C 
BRANCH   6   7
ATOM      7  S   UNL     1       3.975  -0.088  -3.172  1.00  0.00    -0.074 SA
BRANCH   7   8
ATOM      8  C   UNL     1       3.085   1.224  -3.837  1.00  0.00     0.196 A 
ATOM      9  N   UNL     1       1.944   1.031  -4.455  1.00  0.00    -0.123 NA
ATOM     10  N   UNL     1       3.279   2.567  -3.575  1.00  0.00    -0.272 N 
ATOM     11  N   UNL     1       1.385   2.248  -4.683  1.00  0.00    -0.134 NA
ATOM     12  C   UNL     1       2.212   3.168  -4.227  1.00  0.00     0.142 A 
BRANCH  10  13
ATOM     13  C   UNL     1       4.204   3.211  -2.705  1.00  0.00     0.068 A 
ATOM     14  C   UNL     1       3.676   4.079  -1.727  1.00  0.00     0.028 A 
ATOM     15  C   UNL     1       5.591   3.028  -2.778  1.00  0.00     0.065 A 
ATOM     16  C   UNL     1       4.519   4.753  -0.841  1.00  0.00     0.002 A 
ATOM     17  C   UNL     1       6.426   3.691  -1.864  1.00  0.00     0.023 A 
ATOM     18  Cl  UNL     1       6.378   2.154  -4.039  1.00  0.00    -0.082 Cl
ATOM     19  C   UNL     1       5.894   4.554  -0.904  1.00  0.00     0.002 A 
ENDBRANCH  10  13
BRANCH  12  20
ATOM     20  C   UNL     1       2.123   4.611  -4.577  1.00  0.00     0.113 C 
BRANCH  20  21
ATOM     21  C   UNL     1       2.640   4.846  -5.977  1.00  0.00    -0.037 A 
ATOM     22  C   UNL     1       1.951   4.323  -7.078  1.00  0.00     0.024 A 
ATOM     23  C   UNL     1       3.838   5.525  -6.203  1.00  0.00     0.024 A 
ATOM     24  C   UNL     1       2.477   4.509  -8.344  1.00  0.00     0.111 A 
ATOM     25  C   UNL     1       4.277   5.668  -7.511  1.00  0.00     0.111 A 
ATOM     26  N   UNL     1       3.622   5.180  -8.586  1.00  0.00    -0.265 NA
ENDBRANCH  20  21
ENDBRANCH  12  20
ENDBRANCH   7   8
ENDBRANCH   6   7
ENDBRANCH   4   6
ENDBRANCH   3   4
ENDBRANCH   2   3
ENDBRANCH   1   2
BRANCH   1  27
ATOM     27  O   UNL     1       4.411  -1.667   0.555  1.00  0.00    -0.374 OA
BRANCH  27  28
ATOM     28  C   UNL     1       3.100  -2.074   0.959  1.00  0.00     0.202 C 
BRANCH  28  29
ATOM     29  C   UNL     1       2.973  -2.649   2.357  1.00  0.00     0.261 C 
BRANCH  29  30
ATOM     30  O   UNL     1       3.135  -1.601   3.292  1.00  0.00    -0.460 OA
BRANCH  30  31
ATOM     31  C   UNL     1       4.401  -1.391   3.721  1.00  0.00     0.338 C 
ATOM     32  O   UNL     1       5.401  -2.012   3.430  1.00  0.00    -0.246 OA
BRANCH  31  33
ATOM     33  C   UNL     1       4.330  -0.312   4.726  1.00  0.00     0.060 A 
ATOM     34  C   UNL     1       5.271  -0.506   5.728  1.00  0.00     0.016 A 
ATOM     35  C   UNL     1       3.064   0.245   4.970  1.00  0.00     0.016 A 
ATOM     36  C   UNL     1       4.779  -0.611   7.000  1.00  0.00     0.010 A 
ATOM     37  C   UNL     1       2.562   0.110   6.236  1.00  0.00     0.010 A 
ATOM     38  C   UNL     1       3.404  -0.420   7.208  1.00  0.00    -0.014 A 
BRANCH  38  39
ATOM     39  C   UNL     1       2.924  -0.570   8.556  1.00  0.00     0.031 A 
ATOM     40  C   UNL     1       3.369   0.579   9.365  1.00  0.00     0.074 A 
ATOM     41  C   UNL     1       2.146  -1.580   8.976  1.00  0.00     0.049 A 
ATOM     42  N   UNL     1       4.345   0.594  10.208  1.00  0.00    -0.248 NA
ATOM     43  C   UNL     1       2.884   1.911   8.970  1.00  0.00     0.031 C 
ATOM     44  C   UNL     1       1.458  -2.605   8.194  1.00  0.00     0.029 A 
ATOM     45  N   UNL     1       1.743  -1.838  10.248  1.00  0.00    -0.354 N 
ATOM     46  C   UNL     1       4.438   1.916  10.620  1.00  0.00     0.074 A 
ATOM     47  C   UNL     1       3.727   2.692   9.645  1.00  0.00     0.031 C 
ATOM     48  C   UNL     1       0.546  -3.224   8.982  1.00  0.00     0.029 A 
ATOM     49  C   UNL     1       0.682  -2.729  10.341  1.00  0.00     0.049 A 
ATOM     50  H   UNL     1       2.167  -1.429  11.036  1.00  0.00     0.167 HD
ATOM     51  C   UNL     1       4.781   2.197  11.904  1.00  0.00     0.037 A 
ATOM     52  C   UNL     1      -0.064  -2.927  11.459  1.00  0.00     0.037 A 
ATOM     53  C   UNL     1       5.453   1.066  12.505  1.00  0.00     0.049 A 
ATOM     54  C   UNL     1       0.739  -2.435  12.614  1.00  0.00     0.074 A 
ATOM     55  C   UNL     1       6.606   0.356  12.227  1.00  0.00     0.029 A 
ATOM     56  N   UNL     1       4.711   0.261  13.336  1.00  0.00    -0.354 N 
ATOM     57  N   UNL     1       1.835  -3.010  13.027  1.00  0.00    -0.248 NA
ATOM     58  C   UNL     1       0.592  -1.035  12.991  1.00  0.00     0.031 C 
ATOM     59  C   UNL     1       6.296  -1.002  12.537  1.00  0.00     0.029 A 
ATOM     60  C   UNL     1       4.997  -1.045  13.045  1.00  0.00     0.049 A 
ATOM     61  H   UNL     1       4.079   0.572  14.024  1.00  0.00     0.167 HD
ATOM     62  C   UNL     1       2.696  -1.962  13.322  1.00  0.00     0.074 A 
ATOM     63  C   UNL     1       1.851  -0.771  13.351  1.00  0.00     0.031 C 
ATOM     64  C   UNL     1       4.049  -2.120  13.216  1.00  0.00     0.037 A 
BRANCH  51  65
ATOM     65  C   UNL     1       4.071   3.251  12.732  1.00  0.00     0.064 A 
ATOM     66  C   UNL     1       4.477   3.411  14.071  1.00  0.00     0.173 A 
ATOM     67  C   UNL     1       2.834   3.854  12.403  1.00  0.00     0.173 A 
ATOM     68  F   UNL     1       5.644   2.905  14.496  1.00  0.00    -0.203 F 
ATOM     69  C   UNL     1       3.644   3.990  15.030  1.00  0.00     0.198 A 
ATOM     70  C   UNL     1       2.026   4.470  13.354  1.00  0.00     0.198 A 
ATOM     71  F   UNL     1       2.290   3.802  11.185  1.00  0.00    -0.203 F 
ATOM     72  F   UNL     1       4.010   3.977  16.318  1.00  0.00    -0.200 F 
ATOM     73  C   UNL     1       2.410   4.500  14.674  1.00  0.00     0.200 A 
ATOM     74  F   UNL     1       0.832   4.954  12.984  1.00  0.00    -0.200 F 
ATOM     75  F   UNL     1       1.575   4.980  15.603  1.00  0.00    -0.200 F 
ENDBRANCH  51  65
BRANCH  52  76
ATOM     76  C   UNL     1      -1.528  -3.145  11.553  1.00  0.00     0.064 A 
ATOM     77  C   UNL     1      -2.119  -3.575  12.754  1.00  0.00     0.173 A 
ATOM     78  C   UNL     1      -2.408  -2.662  10.565  1.00  0.00     0.173 A 
ATOM     79  F   UNL     1      -1.351  -4.000  13.768  1.00  0.00    -0.203 F 
ATOM     80  C   UNL     1      -3.501  -3.503  12.961  1.00  0.00     0.198 A 
ATOM     81  C   UNL     1      -3.787  -2.598  10.769  1.00  0.00     0.198 A 
ATOM     82  F   UNL     1      -1.941  -2.150   9.417  1.00  0.00    -0.203 F 
ATOM     83  F   UNL     1      -4.021  -3.863  14.143  1.00  0.00    -0.200 F 
ATOM     84  C   UNL     1      -4.333  -3.006  11.972  1.00  0.00     0.200 A 
ATOM     85  F   UNL     1      -4.575  -2.075   9.819  1.00  0.00    -0.200 F 
ATOM     86  F   UNL     1      -5.649  -2.878  12.191  1.00  0.00    -0.200 F 
ENDBRANCH  52  76
BRANCH  64  87
ATOM     87  C   UNL     1       4.575  -3.518  13.057  1.00  0.00     0.064 A 
ATOM     88  C   UNL     1       4.309  -4.342  11.949  1.00  0.00     0.173 A 
ATOM     89  C   UNL     1       5.496  -3.985  14.004  1.00  0.00     0.173 A 
ATOM     90  F   UNL     1       3.516  -3.924  10.954  1.00  0.00    -0.203 F 
ATOM     91  C   UNL     1       4.909  -5.595  11.823  1.00  0.00     0.198 A 
ATOM     92  C   UNL     1       6.121  -5.219  13.856  1.00  0.00     0.198 A 
ATOM     93  F   UNL     1       5.826  -3.217  15.054  1.00  0.00    -0.203 F 
ATOM     94  F   UNL     1       4.631  -6.371  10.764  1.00  0.00    -0.200 F 
ATOM     95  C   UNL     1       5.819  -6.028  12.773  1.00  0.00     0.200 A 
ATOM     96  F   UNL     1       7.038  -5.610  14.752  1.00  0.00    -0.200 F 
ATOM     97  F   UNL     1       6.428  -7.214  12.632  1.00  0.00    -0.200 F 
ENDBRANCH  64  87
ENDBRANCH  38  39
ENDBRANCH  31  33
ENDBRANCH  30  31
ENDBRANCH  29  30
ENDBRANCH  28  29
ENDBRANCH  27  28
ENDBRANCH   1  27
TORSDOF 19
