REMARK SMILES Cc1nc(-c2ccccc2Cl)sc1C(=O)NC[C@H]1CC[C@@H](C(=O)OCCOCCOC(=O)c2ccc(-c3c4nc(c(-c5c(F)c(F)c(F)c(F)c5F)c5ccc([nH]5)c(-c5c(F)c(F)c(F)c(F)c5F)c5nc(c(-c6c(F)c(F)c(F)c(F)c6F)c6ccc3[nH]6)C=C5)C=C4)cc2)CC1
REMARK SMILES IDX 26 1 25 2 24 3 22 4 23 5 21 6 18 7 19 8 97 9 20 10 96 11
REMARK SMILES IDX 17 12 16 13 14 14 15 15 13 17 1 18 2 19 3 20 4 21 12 22 5 23
REMARK SMILES IDX 6 24 10 25 7 26 9 27 11 28 8 29 27 30 28 31 29 32 30 33
REMARK SMILES IDX 31 34 32 35 33 36 34 37 95 38 35 39 94 40 36 41 37 42 38 43
REMARK SMILES IDX 88 44 39 45 93 46 87 47 89 48 40 49 92 50 86 51 85 52 41 54
REMARK SMILES IDX 73 55 53 56 72 57 54 58 57 59 71 60 90 61 55 62 56 63 70 65
REMARK SMILES IDX 91 66 58 67 42 68 43 69 51 70 44 71 45 72 49 73 52 74 46 75
REMARK SMILES IDX 47 76 50 77 48 78 74 79 75 80 83 81 76 82 77 83 81 84 84 85
REMARK SMILES IDX 78 86 79 87 82 88 80 89 59 90 60 91 68 92 61 93 62 94 66 95
REMARK SMILES IDX 69 96 63 97 64 98 67 99 65 100
REMARK H PARENT 16 16 89 53 57 64
REMARK Flexibility Score: inf
ROOT
ATOM      1  C   UNL     1      -8.927  -3.091   1.130  1.00  0.00     0.202 C 
ENDROOT
BRANCH   1   2
ATOM      2  C   UNL     1      -8.009  -4.228   0.667  1.00  0.00     0.261 C 
BRANCH   2   3
ATOM      3  O   UNL     1      -7.081  -3.773  -0.332  1.00  0.00    -0.463 OA
BRANCH   3   4
ATOM      4  C   UNL     1      -7.001  -4.500  -1.476  1.00  0.00     0.309 C 
ATOM      5  O   UNL     1      -7.591  -5.555  -1.674  1.00  0.00    -0.252 OA
BRANCH   4   6
ATOM      6  C   UNL     1      -6.042  -3.893  -2.499  1.00  0.00     0.099 C 
ATOM      7  C   UNL     1      -3.583  -2.901  -1.082  1.00  0.00     0.008 C 
ATOM      8  C   UNL     1      -3.870  -4.401  -1.303  1.00  0.00     0.006 C 
ATOM      9  C   UNL     1      -4.863  -2.054  -1.166  1.00  0.00     0.006 C 
ATOM     10  C   UNL     1      -4.734  -4.681  -2.530  1.00  0.00     0.015 C 
ATOM     11  C   UNL     1      -5.744  -2.401  -2.362  1.00  0.00     0.015 C 
BRANCH   7  12
ATOM     12  C   UNL     1      -2.872  -2.701   0.276  1.00  0.00     0.119 C 
BRANCH  12  13
ATOM     13  N   UNL     1      -1.452  -2.951   0.166  1.00  0.00    -0.351 N 
ATOM     14  C   UNL     1      -0.306  -2.204   0.077  1.00  0.00     0.263 C 
ATOM     15  O   UNL     1       0.696  -2.928  -0.010  1.00  0.00    -0.268 OA
ATOM     16  H   UNL     1      -1.255  -3.916   0.151  1.00  0.00     0.163 HD
BRANCH  14  17
ATOM     17  C   UNL     1      -0.205  -0.745   0.088  1.00  0.00     0.115 A 
ATOM     18  C   UNL     1      -2.510   0.500  -0.014  1.00  0.00     0.068 C 
ATOM     19  C   UNL     1      -1.044   0.367   0.066  1.00  0.00     0.062 A 
ATOM     20  N   UNL     1      -0.412   1.601   0.087  1.00  0.00    -0.240 NA
ATOM     21  C   UNL     1       0.888   1.471   0.035  1.00  0.00     0.125 A 
ATOM     22  S   UNL     1       1.445  -0.134   0.112  1.00  0.00    -0.108 S 
BRANCH  21  23
ATOM     23  C   UNL     1       1.790   2.620   0.023  1.00  0.00     0.029 A 
ATOM     24  C   UNL     1       1.671   3.542   1.080  1.00  0.00     0.013 A 
ATOM     25  C   UNL     1       2.672   2.913  -1.028  1.00  0.00     0.051 A 
ATOM     26  C   UNL     1       2.420   4.718   1.098  1.00  0.00     0.001 A 
ATOM     27  C   UNL     1       3.425   4.093  -1.005  1.00  0.00     0.021 A 
ATOM     28  Cl  UNL     1       2.834   1.904  -2.424  1.00  0.00    -0.084 Cl
ATOM     29  C   UNL     1       3.298   4.994   0.054  1.00  0.00     0.002 A 
ENDBRANCH  21  23
ENDBRANCH  14  17
ENDBRANCH  12  13
ENDBRANCH   7  12
ENDBRANCH   4   6
ENDBRANCH   3   4
ENDBRANCH   2   3
ENDBRANCH   1   2
BRANCH   1  30
ATOM     30  O   UNL     1      -9.842  -2.591   0.156  1.00  0.00    -0.374 OA
BRANCH  30  31
ATOM     31  C   UNL     1      -9.308  -1.778  -0.888  1.00  0.00     0.202 C 
BRANCH  31  32
ATOM     32  C   UNL     1      -8.944  -0.338  -0.503  1.00  0.00     0.261 C 
BRANCH  32  33
ATOM     33  O   UNL     1      -7.878  -0.270   0.466  1.00  0.00    -0.460 OA
BRANCH  33  34
ATOM     34  C   UNL     1      -8.214   0.344   1.625  1.00  0.00     0.338 C 
ATOM     35  O   UNL     1      -9.276   0.890   1.899  1.00  0.00    -0.246 OA
BRANCH  34  36
ATOM     36  C   UNL     1      -7.160   0.176   2.638  1.00  0.00     0.060 A 
ATOM     37  C   UNL     1      -7.504  -0.480   3.826  1.00  0.00     0.016 A 
ATOM     38  C   UNL     1      -5.912   0.789   2.501  1.00  0.00     0.016 A 
ATOM     39  C   UNL     1      -6.622  -0.477   4.905  1.00  0.00     0.010 A 
ATOM     40  C   UNL     1      -5.029   0.794   3.589  1.00  0.00     0.010 A 
ATOM     41  C   UNL     1      -5.397   0.198   4.809  1.00  0.00    -0.014 A 
BRANCH  41  42
ATOM     42  C   UNL     1      -4.580   0.396   6.034  1.00  0.00     0.031 A 
ATOM     43  C   UNL     1      -4.673   1.700   6.780  1.00  0.00     0.074 A 
ATOM     44  C   UNL     1      -3.802  -0.592   6.509  1.00  0.00     0.049 A 
ATOM     45  N   UNL     1      -4.059   2.079   7.873  1.00  0.00    -0.248 NA
ATOM     46  C   UNL     1      -5.583   2.713   6.221  1.00  0.00     0.031 C 
ATOM     47  C   UNL     1      -3.654  -1.913   5.902  1.00  0.00     0.029 A 
ATOM     48  N   UNL     1      -2.991  -0.634   7.615  1.00  0.00    -0.354 N 
ATOM     49  C   UNL     1      -4.504   3.369   8.130  1.00  0.00     0.074 A 
ATOM     50  C   UNL     1      -5.419   3.721   7.065  1.00  0.00     0.031 C 
ATOM     51  C   UNL     1      -2.795  -2.636   6.641  1.00  0.00     0.029 A 
ATOM     52  C   UNL     1      -2.318  -1.822   7.758  1.00  0.00     0.049 A 
ATOM     53  H   UNL     1      -2.900   0.116   8.246  1.00  0.00     0.167 HD
ATOM     54  C   UNL     1      -4.189   4.184   9.166  1.00  0.00     0.037 A 
ATOM     55  C   UNL     1      -1.410  -2.203   8.678  1.00  0.00     0.037 A 
ATOM     56  C   UNL     1      -3.285   3.837  10.231  1.00  0.00     0.049 A 
ATOM     57  C   UNL     1      -1.032  -1.257   9.788  1.00  0.00     0.074 A 
ATOM     58  C   UNL     1      -2.920   4.590  11.334  1.00  0.00     0.029 A 
ATOM     59  N   UNL     1      -2.599   2.636  10.323  1.00  0.00    -0.354 N 
ATOM     60  N   UNL     1      -1.480  -0.051  10.037  1.00  0.00    -0.248 NA
ATOM     61  C   UNL     1      -0.025  -1.731  10.749  1.00  0.00     0.031 C 
ATOM     62  C   UNL     1      -1.980   3.861  12.071  1.00  0.00     0.029 A 
ATOM     63  C   UNL     1      -1.794   2.636  11.451  1.00  0.00     0.049 A 
ATOM     64  H   UNL     1      -2.672   1.893   9.681  1.00  0.00     0.167 HD
ATOM     65  C   UNL     1      -0.832   0.367  11.192  1.00  0.00     0.074 A 
ATOM     66  C   UNL     1       0.033  -0.719  11.603  1.00  0.00     0.031 C 
ATOM     67  C   UNL     1      -0.943   1.546  11.852  1.00  0.00     0.037 A 
BRANCH  54  68
ATOM     68  C   UNL     1      -4.814   5.547   9.189  1.00  0.00     0.064 A 
ATOM     69  C   UNL     1      -6.166   5.730   9.513  1.00  0.00     0.173 A 
ATOM     70  C   UNL     1      -4.041   6.687   8.924  1.00  0.00     0.173 A 
ATOM     71  F   UNL     1      -6.950   4.670   9.762  1.00  0.00    -0.203 F 
ATOM     72  C   UNL     1      -6.727   7.005   9.550  1.00  0.00     0.198 A 
ATOM     73  C   UNL     1      -4.598   7.961   8.986  1.00  0.00     0.198 A 
ATOM     74  F   UNL     1      -2.741   6.566   8.614  1.00  0.00    -0.203 F 
ATOM     75  F   UNL     1      -8.030   7.154   9.824  1.00  0.00    -0.200 F 
ATOM     76  C   UNL     1      -5.941   8.119   9.293  1.00  0.00     0.200 A 
ATOM     77  F   UNL     1      -3.836   9.037   8.748  1.00  0.00    -0.200 F 
ATOM     78  F   UNL     1      -6.481   9.345   9.336  1.00  0.00    -0.200 F 
ENDBRANCH  54  68
BRANCH  55  79
ATOM     79  C   UNL     1      -0.786  -3.547   8.586  1.00  0.00     0.064 A 
ATOM     80  C   UNL     1      -1.078  -4.547   9.524  1.00  0.00     0.173 A 
ATOM     81  C   UNL     1       0.126  -3.854   7.566  1.00  0.00     0.173 A 
ATOM     82  F   UNL     1      -1.925  -4.292  10.532  1.00  0.00    -0.203 F 
ATOM     83  C   UNL     1      -0.470  -5.799   9.453  1.00  0.00     0.198 A 
ATOM     84  C   UNL     1       0.714  -5.113   7.481  1.00  0.00     0.198 A 
ATOM     85  F   UNL     1       0.439  -2.929   6.646  1.00  0.00    -0.203 F 
ATOM     86  F   UNL     1      -0.735  -6.724  10.385  1.00  0.00    -0.200 F 
ATOM     87  C   UNL     1       0.421  -6.083   8.428  1.00  0.00     0.200 A 
ATOM     88  F   UNL     1       1.566  -5.387   6.484  1.00  0.00    -0.200 F 
ATOM     89  F   UNL     1       1.002  -7.288   8.358  1.00  0.00    -0.200 F 
ENDBRANCH  55  79
BRANCH  67  90
ATOM     90  C   UNL     1      -0.135   1.713  13.106  1.00  0.00     0.064 A 
ATOM     91  C   UNL     1       1.252   1.911  13.065  1.00  0.00     0.173 A 
ATOM     92  C   UNL     1      -0.763   1.713  14.361  1.00  0.00     0.173 A 
ATOM     93  F   UNL     1       1.900   1.905  11.890  1.00  0.00    -0.203 F 
ATOM     94  C   UNL     1       1.986   2.080  14.237  1.00  0.00     0.198 A 
ATOM     95  C   UNL     1      -0.030   1.908  15.529  1.00  0.00     0.198 A 
ATOM     96  F   UNL     1      -2.089   1.534  14.454  1.00  0.00    -0.203 F 
ATOM     97  F   UNL     1       3.317   2.226  14.177  1.00  0.00    -0.200 F 
ATOM     98  C   UNL     1       1.344   2.085  15.466  1.00  0.00     0.200 A 
ATOM     99  F   UNL     1      -0.654   1.923  16.715  1.00  0.00    -0.200 F 
ATOM    100  F   UNL     1       2.051   2.253  16.592  1.00  0.00    -0.200 F 
ENDBRANCH  67  90
ENDBRANCH  41  42
ENDBRANCH  34  36
ENDBRANCH  33  34
ENDBRANCH  32  33
ENDBRANCH  31  32
ENDBRANCH  30  31
ENDBRANCH   1  30
TORSDOF 18
