REMARK SMILES CC/C=C/C/C=C/C/C=C/C/C=C/CC/C=C/COCC(=O)OCCOCCOC(=O)c1ccc(-c2c3nc(c(-c4c(F)c(F)c(F)c(F)c4F)c4ccc([nH]4)c(-c4c(F)c(F)c(F)c(F)c4F)c4nc(c(-c5c(F)c(F)c(F)c(F)c5F)c5ccc2[nH]5)C=C4)C=C3)cc1
REMARK SMILES IDX 20 1 19 2 18 3 17 4 16 5 15 6 14 7 13 8 12 9 11 10 10 11
REMARK SMILES IDX 9 12 8 13 7 14 6 15 5 16 4 17 3 18 2 19 1 20 21 21 22 22
REMARK SMILES IDX 23 23 24 24 25 25 26 26 27 27 28 28 29 29 30 30 31 31 32 32
REMARK SMILES IDX 33 33 94 34 34 35 93 36 35 37 36 38 37 39 87 40 38 41 92 42
REMARK SMILES IDX 86 43 88 44 39 45 91 46 85 47 84 48 40 50 72 51 52 52 71 53
REMARK SMILES IDX 53 54 56 55 70 56 89 57 54 58 55 59 69 61 90 62 57 63 41 64
REMARK SMILES IDX 42 65 50 66 43 67 44 68 48 69 51 70 45 71 46 72 49 73 47 74
REMARK SMILES IDX 73 75 74 76 82 77 75 78 76 79 80 80 83 81 77 82 78 83 81 84
REMARK SMILES IDX 79 85 58 86 59 87 67 88 60 89 61 90 65 91 68 92 62 93 63 94
REMARK SMILES IDX 66 95 64 96
REMARK H PARENT 88 49 56 60
REMARK Flexibility Score: inf
ROOT
ATOM      1  C   UNL     1     -10.474  13.357  -0.468  1.00  0.00     0.283 C 
ENDROOT
BRANCH   1   2
ATOM      2  O   UNL     1      -9.974  14.677  -0.383  1.00  0.00    -0.366 OA
BRANCH   2   3
ATOM      3  C   UNL     1      -8.575  14.842  -0.167  1.00  0.00     0.188 C 
BRANCH   3   4
ATOM      4  C   UNL     1      -8.016  13.973   0.924  1.00  0.00    -0.003 C 
ATOM      5  C   UNL     1      -6.924  13.200   0.796  1.00  0.00    -0.029 C 
BRANCH   5   6
ATOM      6  C   UNL     1      -6.373  12.289   1.860  1.00  0.00     0.031 C 
BRANCH   6   7
ATOM      7  C   UNL     1      -6.790  10.818   1.692  1.00  0.00     0.031 C 
BRANCH   7   8
ATOM      8  C   UNL     1      -6.266  10.147   0.449  1.00  0.00    -0.031 C 
ATOM      9  C   UNL     1      -5.417   9.105   0.443  1.00  0.00    -0.027 C 
BRANCH   9  10
ATOM     10  C   UNL     1      -4.947   8.404  -0.803  1.00  0.00     0.054 C 
BRANCH  10  11
ATOM     11  C   UNL     1      -3.446   8.355  -0.864  1.00  0.00    -0.027 C 
ATOM     12  C   UNL     1      -2.731   7.219  -0.927  1.00  0.00    -0.027 C 
BRANCH  12  13
ATOM     13  C   UNL     1      -1.230   7.165  -0.966  1.00  0.00     0.054 C 
BRANCH  13  14
ATOM     14  C   UNL     1      -0.695   6.407   0.216  1.00  0.00    -0.027 C 
ATOM     15  C   UNL     1       0.077   5.311   0.127  1.00  0.00    -0.027 C 
BRANCH  15  16
ATOM     16  C   UNL     1       0.593   4.545   1.312  1.00  0.00     0.054 C 
BRANCH  16  17
ATOM     17  C   UNL     1       0.125   3.119   1.272  1.00  0.00    -0.027 C 
ATOM     18  C   UNL     1       0.945   2.056   1.224  1.00  0.00    -0.031 C 
BRANCH  18  19
ATOM     19  C   UNL     1       0.469   0.633   1.174  1.00  0.00     0.023 C 
ATOM     20  C   UNL     1       0.954  -0.066  -0.087  1.00  0.00     0.008 C 
ENDBRANCH  18  19
ENDBRANCH  16  17
ENDBRANCH  15  16
ENDBRANCH  13  14
ENDBRANCH  12  13
ENDBRANCH  10  11
ENDBRANCH   9  10
ENDBRANCH   7   8
ENDBRANCH   6   7
ENDBRANCH   5   6
ENDBRANCH   3   4
ENDBRANCH   2   3
ENDBRANCH   1   2
BRANCH   1  21
ATOM     21  C   UNL     1     -10.120  12.374  -1.589  1.00  0.00     0.332 C 
ATOM     22  O   UNL     1     -10.040  11.165  -1.405  1.00  0.00    -0.250 OA
BRANCH  21  23
ATOM     23  O   UNL     1      -9.991  12.986  -2.799  1.00  0.00    -0.462 OA
BRANCH  23  24
ATOM     24  C   UNL     1      -9.801  12.104  -3.925  1.00  0.00     0.261 C 
BRANCH  24  25
ATOM     25  C   UNL     1      -8.425  12.271  -4.573  1.00  0.00     0.202 C 
BRANCH  25  26
ATOM     26  O   UNL     1      -7.304  11.794  -3.832  1.00  0.00    -0.374 OA
BRANCH  26  27
ATOM     27  C   UNL     1      -6.863  12.615  -2.757  1.00  0.00     0.202 C 
BRANCH  27  28
ATOM     28  C   UNL     1      -5.962  13.802  -3.122  1.00  0.00     0.261 C 
BRANCH  28  29
ATOM     29  O   UNL     1      -6.633  14.736  -3.980  1.00  0.00    -0.460 OA
BRANCH  29  30
ATOM     30  C   UNL     1      -6.147  14.773  -5.244  1.00  0.00     0.338 C 
ATOM     31  O   UNL     1      -5.141  14.238  -5.673  1.00  0.00    -0.246 OA
BRANCH  30  32
ATOM     32  C   UNL     1      -7.141  15.404  -6.128  1.00  0.00     0.060 A 
ATOM     33  C   UNL     1      -7.591  14.647  -7.216  1.00  0.00     0.016 A 
ATOM     34  C   UNL     1      -7.596  16.708  -5.925  1.00  0.00     0.016 A 
ATOM     35  C   UNL     1      -8.472  15.206  -8.135  1.00  0.00     0.010 A 
ATOM     36  C   UNL     1      -8.472  17.273  -6.857  1.00  0.00     0.010 A 
ATOM     37  C   UNL     1      -8.889  16.534  -7.979  1.00  0.00    -0.014 A 
BRANCH  37  38
ATOM     38  C   UNL     1      -9.662  17.182  -9.063  1.00  0.00     0.031 A 
ATOM     39  C   UNL     1      -8.947  18.082 -10.029  1.00  0.00     0.074 A 
ATOM     40  C   UNL     1     -10.977  16.942  -9.198  1.00  0.00     0.049 A 
ATOM     41  N   UNL     1      -9.430  18.790 -11.017  1.00  0.00    -0.248 NA
ATOM     42  C   UNL     1      -7.489  18.197  -9.861  1.00  0.00     0.031 C 
ATOM     43  C   UNL     1     -11.760  16.046  -8.350  1.00  0.00     0.029 A 
ATOM     44  N   UNL     1     -11.887  17.439 -10.096  1.00  0.00    -0.354 N 
ATOM     45  C   UNL     1      -8.341  19.441 -11.581  1.00  0.00     0.074 A 
ATOM     46  C   UNL     1      -7.175  19.064 -10.812  1.00  0.00     0.031 C 
ATOM     47  C   UNL     1     -13.040  16.069  -8.758  1.00  0.00     0.029 A 
ATOM     48  C   UNL     1     -13.171  17.012  -9.867  1.00  0.00     0.049 A 
ATOM     49  H   UNL     1     -11.642  18.043 -10.834  1.00  0.00     0.167 HD
ATOM     50  C   UNL     1      -8.320  20.273 -12.649  1.00  0.00     0.037 A 
ATOM     51  C   UNL     1     -14.324  17.373 -10.462  1.00  0.00     0.037 A 
ATOM     52  C   UNL     1      -9.487  20.638 -13.408  1.00  0.00     0.049 A 
ATOM     53  C   UNL     1     -14.285  18.374 -11.588  1.00  0.00     0.074 A 
ATOM     54  C   UNL     1      -9.569  21.448 -14.527  1.00  0.00     0.029 A 
ATOM     55  N   UNL     1     -10.779  20.225 -13.117  1.00  0.00    -0.354 N 
ATOM     56  N   UNL     1     -13.250  18.962 -12.138  1.00  0.00    -0.248 NA
ATOM     57  C   UNL     1     -15.575  18.766 -12.173  1.00  0.00     0.031 C 
ATOM     58  C   UNL     1     -10.918  21.579 -14.872  1.00  0.00     0.029 A 
ATOM     59  C   UNL     1     -11.671  20.800 -14.008  1.00  0.00     0.049 A 
ATOM     60  H   UNL     1     -11.026  19.614 -12.385  1.00  0.00     0.167 HD
ATOM     61  C   UNL     1     -13.759  19.775 -13.142  1.00  0.00     0.074 A 
ATOM     62  C   UNL     1     -15.195  19.589 -13.140  1.00  0.00     0.031 C 
ATOM     63  C   UNL     1     -13.099  20.604 -13.988  1.00  0.00     0.037 A 
BRANCH  50  64
ATOM     64  C   UNL     1      -7.003  20.877 -13.040  1.00  0.00     0.064 A 
ATOM     65  C   UNL     1      -5.981  20.113 -13.623  1.00  0.00     0.173 A 
ATOM     66  C   UNL     1      -6.778  22.252 -12.870  1.00  0.00     0.173 A 
ATOM     67  F   UNL     1      -6.139  18.792 -13.796  1.00  0.00    -0.203 F 
ATOM     68  C   UNL     1      -4.775  20.700 -14.001  1.00  0.00     0.198 A 
ATOM     69  C   UNL     1      -5.584  22.840 -13.276  1.00  0.00     0.198 A 
ATOM     70  F   UNL     1      -7.724  23.028 -12.320  1.00  0.00    -0.203 F 
ATOM     71  F   UNL     1      -3.796  19.944 -14.517  1.00  0.00    -0.200 F 
ATOM     72  C   UNL     1      -4.581  22.063 -13.835  1.00  0.00     0.200 A 
ATOM     73  F   UNL     1      -5.405  24.160 -13.128  1.00  0.00    -0.200 F 
ATOM     74  F   UNL     1      -3.425  22.628 -14.210  1.00  0.00    -0.200 F 
ENDBRANCH  50  64
BRANCH  51  75
ATOM     75  C   UNL     1     -15.615  16.816  -9.980  1.00  0.00     0.064 A 
ATOM     76  C   UNL     1     -16.388  15.969 -10.785  1.00  0.00     0.173 A 
ATOM     77  C   UNL     1     -16.112  17.135  -8.706  1.00  0.00     0.173 A 
ATOM     78  F   UNL     1     -15.969  15.655 -12.020  1.00  0.00    -0.203 F 
ATOM     79  C   UNL     1     -17.615  15.477 -10.343  1.00  0.00     0.198 A 
ATOM     80  C   UNL     1     -17.323  16.617  -8.253  1.00  0.00     0.198 A 
ATOM     81  F   UNL     1     -15.414  17.945  -7.896  1.00  0.00    -0.203 F 
ATOM     82  F   UNL     1     -18.356  14.709 -11.153  1.00  0.00    -0.200 F 
ATOM     83  C   UNL     1     -18.078  15.796  -9.076  1.00  0.00     0.200 A 
ATOM     84  F   UNL     1     -17.759  16.917  -7.022  1.00  0.00    -0.200 F 
ATOM     85  F   UNL     1     -19.255  15.319  -8.650  1.00  0.00    -0.200 F 
ENDBRANCH  51  75
BRANCH  63  86
ATOM     86  C   UNL     1     -13.917  21.362 -14.994  1.00  0.00     0.064 A 
ATOM     87  C   UNL     1     -14.745  22.428 -14.612  1.00  0.00     0.173 A 
ATOM     88  C   UNL     1     -13.827  21.058 -16.361  1.00  0.00     0.173 A 
ATOM     89  F   UNL     1     -14.878  22.749 -13.316  1.00  0.00    -0.203 F 
ATOM     90  C   UNL     1     -15.466  23.149 -15.560  1.00  0.00     0.198 A 
ATOM     91  C   UNL     1     -14.523  21.802 -17.309  1.00  0.00     0.198 A 
ATOM     92  F   UNL     1     -13.044  20.052 -16.780  1.00  0.00    -0.203 F 
ATOM     93  F   UNL     1     -16.283  24.137 -15.169  1.00  0.00    -0.200 F 
ATOM     94  C   UNL     1     -15.347  22.843 -16.908  1.00  0.00     0.200 A 
ATOM     95  F   UNL     1     -14.394  21.514 -18.611  1.00  0.00    -0.200 F 
ATOM     96  F   UNL     1     -16.029  23.548 -17.820  1.00  0.00    -0.200 F 
ENDBRANCH  63  86
ENDBRANCH  37  38
ENDBRANCH  30  32
ENDBRANCH  29  30
ENDBRANCH  28  29
ENDBRANCH  27  28
ENDBRANCH  26  27
ENDBRANCH  25  26
ENDBRANCH  24  25
ENDBRANCH  23  24
ENDBRANCH  21  23
ENDBRANCH   1  21
TORSDOF 27
