REMARK SMILES Cc1ccc(C(=O)OCCOCCOC(=O)c2ccc(-c3c4nc(c(-c5c(F)c(F)c(F)c(F)c5F)c5ccc([nH]5)c(-c5c(F)c(F)c(F)c(F)c5F)c5nc(c(-c6c(F)c(F)c(F)c(F)c6F)c6ccc3[nH]6)C=C5)C=C4)cc2)c(Oc2cccc(F)c2C(N)=O)c1
REMARK SMILES IDX 10 1 9 2 8 3 6 4 7 5 5 6 1 7 2 8 3 9 92 10 4 11 80 12 81 13
REMARK SMILES IDX 82 14 83 15 88 16 84 17 86 18 85 19 87 20 89 21 90 22 91 23
REMARK SMILES IDX 11 26 12 27 13 28 14 29 15 30 16 31 17 32 18 33 79 34 19 35
REMARK SMILES IDX 78 36 20 37 21 38 22 39 72 40 23 41 77 42 71 43 73 44 24 45
REMARK SMILES IDX 76 46 70 47 69 48 25 50 57 51 37 52 56 53 38 54 41 55 55 56
REMARK SMILES IDX 74 57 39 58 40 59 54 61 75 62 42 63 26 64 27 65 35 66 28 67
REMARK SMILES IDX 29 68 33 69 36 70 30 71 31 72 34 73 32 74 58 75 59 76 67 77
REMARK SMILES IDX 60 78 61 79 65 80 68 81 62 82 63 83 66 84 64 85 43 86 44 87
REMARK SMILES IDX 52 88 45 89 46 90 50 91 53 92 47 93 48 94 51 95 49 96
REMARK H PARENT 90 24 90 25 73 49 41 60
REMARK Flexibility Score: inf
ROOT
ATOM      1  C   UNL     1      -3.819   1.007  -2.495  1.00  0.00     0.202 C 
ENDROOT
BRANCH   1   2
ATOM      2  C   UNL     1      -3.897   1.494  -1.092  1.00  0.00     0.261 C 
BRANCH   2   3
ATOM      3  O   UNL     1      -2.648   1.282  -0.430  1.00  0.00    -0.460 OA
BRANCH   3   4
ATOM      4  C   UNL     1      -2.378   0.107   0.204  1.00  0.00     0.342 C 
ATOM      5  O   UNL     1      -3.147  -0.787   0.471  1.00  0.00    -0.246 OA
BRANCH   4   6
ATOM      6  C   UNL     1      -0.899   0.031   0.353  1.00  0.00     0.102 A 
ATOM      7  C   UNL     1       3.349  -0.354  -0.061  1.00  0.00     0.044 C 
ATOM      8  C   UNL     1       1.871  -0.214   0.154  1.00  0.00    -0.047 A 
ATOM      9  C   UNL     1       1.064  -1.359   0.211  1.00  0.00     0.004 A 
ATOM     10  C   UNL     1       1.294   1.058   0.275  1.00  0.00     0.051 A 
ATOM     11  C   UNL     1      -0.320  -1.240   0.319  1.00  0.00     0.020 A 
ATOM     12  C   UNL     1      -0.088   1.186   0.371  1.00  0.00     0.142 A 
BRANCH  12  13
ATOM     13  O   UNL     1      -0.747   2.385   0.501  1.00  0.00    -0.455 OA
BRANCH  13  14
ATOM     14  C   UNL     1      -0.187   3.590   0.179  1.00  0.00     0.143 A 
ATOM     15  C   UNL     1      -0.275   4.512   1.234  1.00  0.00     0.048 A 
ATOM     16  C   UNL     1       0.275   3.999  -1.082  1.00  0.00     0.117 A 
ATOM     17  C   UNL     1       0.139   5.828   1.067  1.00  0.00     0.007 A 
ATOM     18  C   UNL     1       0.697   5.327  -1.225  1.00  0.00     0.139 A 
ATOM     19  C   UNL     1       0.635   6.232  -0.165  1.00  0.00     0.040 A 
ATOM     20  F   UNL     1       1.128   5.797  -2.405  1.00  0.00    -0.206 F 
BRANCH  16  21
ATOM     21  C   UNL     1       0.320   3.154  -2.300  1.00  0.00     0.255 C 
ATOM     22  N   UNL     1      -0.636   2.197  -2.443  1.00  0.00    -0.365 N 
ATOM     23  O   UNL     1       1.167   3.296  -3.172  1.00  0.00    -0.269 OA
ATOM     24  H   UNL     1      -1.321   2.077  -1.746  1.00  0.00     0.159 HD
ATOM     25  H   UNL     1      -0.644   1.624  -3.244  1.00  0.00     0.159 HD
ENDBRANCH  16  21
ENDBRANCH  13  14
ENDBRANCH  12  13
ENDBRANCH   4   6
ENDBRANCH   3   4
ENDBRANCH   2   3
ENDBRANCH   1   2
BRANCH   1  26
ATOM     26  O   UNL     1      -3.814  -0.406  -2.391  1.00  0.00    -0.374 OA
BRANCH  26  27
ATOM     27  C   UNL     1      -3.607  -1.090  -3.610  1.00  0.00     0.202 C 
BRANCH  27  28
ATOM     28  C   UNL     1      -4.594  -0.661  -4.704  1.00  0.00     0.261 C 
BRANCH  28  29
ATOM     29  O   UNL     1      -5.945  -0.947  -4.270  1.00  0.00    -0.460 OA
BRANCH  29  30
ATOM     30  C   UNL     1      -6.708   0.117  -3.885  1.00  0.00     0.338 C 
ATOM     31  O   UNL     1      -6.830   1.159  -4.508  1.00  0.00    -0.246 OA
BRANCH  30  32
ATOM     32  C   UNL     1      -7.104  -0.039  -2.448  1.00  0.00     0.060 A 
ATOM     33  C   UNL     1      -7.624   1.056  -1.726  1.00  0.00     0.016 A 
ATOM     34  C   UNL     1      -6.625  -1.147  -1.758  1.00  0.00     0.016 A 
ATOM     35  C   UNL     1      -7.516   1.101  -0.324  1.00  0.00     0.010 A 
ATOM     36  C   UNL     1      -6.404  -1.036  -0.401  1.00  0.00     0.010 A 
ATOM     37  C   UNL     1      -6.814   0.095   0.330  1.00  0.00    -0.014 A 
BRANCH  37  38
ATOM     38  C   UNL     1      -6.321   0.117   1.718  1.00  0.00     0.031 A 
ATOM     39  C   UNL     1      -6.698  -1.029   2.591  1.00  0.00     0.074 A 
ATOM     40  C   UNL     1      -5.278   0.913   2.079  1.00  0.00     0.049 A 
ATOM     41  N   UNL     1      -6.356  -1.146   3.825  1.00  0.00    -0.248 NA
ATOM     42  C   UNL     1      -7.525  -2.151   2.147  1.00  0.00     0.031 C 
ATOM     43  C   UNL     1      -4.267   0.652   3.110  1.00  0.00     0.029 A 
ATOM     44  N   UNL     1      -4.849   2.152   1.566  1.00  0.00    -0.354 N 
ATOM     45  C   UNL     1      -6.543  -2.460   4.192  1.00  0.00     0.074 A 
ATOM     46  C   UNL     1      -7.407  -2.995   3.175  1.00  0.00     0.031 C 
ATOM     47  C   UNL     1      -3.576   1.776   3.372  1.00  0.00     0.029 A 
ATOM     48  C   UNL     1      -4.205   2.839   2.613  1.00  0.00     0.049 A 
ATOM     49  H   UNL     1      -4.975   2.478   0.646  1.00  0.00     0.167 HD
ATOM     50  C   UNL     1      -5.802  -2.939   5.234  1.00  0.00     0.037 A 
ATOM     51  C   UNL     1      -4.670   4.033   3.067  1.00  0.00     0.037 A 
ATOM     52  C   UNL     1      -5.081  -1.829   5.887  1.00  0.00     0.049 A 
ATOM     53  C   UNL     1      -5.051   3.845   4.502  1.00  0.00     0.074 A 
ATOM     54  C   UNL     1      -3.748  -1.458   5.945  1.00  0.00     0.029 A 
ATOM     55  N   UNL     1      -5.809  -0.725   6.344  1.00  0.00    -0.354 N 
ATOM     56  N   UNL     1      -5.416   2.680   4.968  1.00  0.00    -0.248 NA
ATOM     57  C   UNL     1      -4.895   4.854   5.542  1.00  0.00     0.031 C 
ATOM     58  C   UNL     1      -3.691  -0.095   6.362  1.00  0.00     0.029 A 
ATOM     59  C   UNL     1      -4.985   0.359   6.580  1.00  0.00     0.049 A 
ATOM     60  H   UNL     1      -6.784  -0.722   6.481  1.00  0.00     0.167 HD
ATOM     61  C   UNL     1      -5.391   2.724   6.325  1.00  0.00     0.074 A 
ATOM     62  C   UNL     1      -5.136   4.120   6.644  1.00  0.00     0.031 C 
ATOM     63  C   UNL     1      -5.520   1.613   7.100  1.00  0.00     0.037 A 
BRANCH  50  64
ATOM     64  C   UNL     1      -5.533  -4.408   5.559  1.00  0.00     0.064 A 
ATOM     65  C   UNL     1      -4.609  -4.751   6.576  1.00  0.00     0.173 A 
ATOM     66  C   UNL     1      -6.070  -5.527   4.884  1.00  0.00     0.173 A 
ATOM     67  F   UNL     1      -4.030  -3.813   7.338  1.00  0.00    -0.203 F 
ATOM     68  C   UNL     1      -4.234  -6.073   6.855  1.00  0.00     0.198 A 
ATOM     69  C   UNL     1      -5.710  -6.849   5.177  1.00  0.00     0.198 A 
ATOM     70  F   UNL     1      -6.961  -5.417   3.901  1.00  0.00    -0.203 F 
ATOM     71  F   UNL     1      -3.324  -6.318   7.808  1.00  0.00    -0.200 F 
ATOM     72  C   UNL     1      -4.784  -7.123   6.154  1.00  0.00     0.200 A 
ATOM     73  F   UNL     1      -6.270  -7.855   4.487  1.00  0.00    -0.200 F 
ATOM     74  F   UNL     1      -4.428  -8.387   6.418  1.00  0.00    -0.200 F 
ENDBRANCH  50  64
BRANCH  51  75
ATOM     75  C   UNL     1      -5.332   4.804   1.972  1.00  0.00     0.064 A 
ATOM     76  C   UNL     1      -4.477   5.233   0.930  1.00  0.00     0.173 A 
ATOM     77  C   UNL     1      -6.681   4.611   1.648  1.00  0.00     0.173 A 
ATOM     78  F   UNL     1      -3.176   5.445   1.183  1.00  0.00    -0.203 F 
ATOM     79  C   UNL     1      -4.900   5.257  -0.399  1.00  0.00     0.198 A 
ATOM     80  C   UNL     1      -7.109   4.669   0.315  1.00  0.00     0.198 A 
ATOM     81  F   UNL     1      -7.550   4.208   2.585  1.00  0.00    -0.203 F 
ATOM     82  F   UNL     1      -4.009   5.462  -1.381  1.00  0.00    -0.200 F 
ATOM     83  C   UNL     1      -6.207   4.930  -0.709  1.00  0.00     0.200 A 
ATOM     84  F   UNL     1      -8.374   4.351   0.004  1.00  0.00    -0.200 F 
ATOM     85  F   UNL     1      -6.580   4.799  -1.990  1.00  0.00    -0.200 F 
ENDBRANCH  51  75
BRANCH  63  86
ATOM     86  C   UNL     1      -6.115   1.660   8.475  1.00  0.00     0.064 A 
ATOM     87  C   UNL     1      -6.985   2.686   8.886  1.00  0.00     0.173 A 
ATOM     88  C   UNL     1      -5.999   0.559   9.350  1.00  0.00     0.173 A 
ATOM     89  F   UNL     1      -7.281   3.721   8.088  1.00  0.00    -0.203 F 
ATOM     90  C   UNL     1      -7.631   2.649  10.118  1.00  0.00     0.198 A 
ATOM     91  C   UNL     1      -6.704   0.493  10.546  1.00  0.00     0.198 A 
ATOM     92  F   UNL     1      -5.235  -0.502   9.052  1.00  0.00    -0.203 F 
ATOM     93  F   UNL     1      -8.408   3.676  10.485  1.00  0.00    -0.200 F 
ATOM     94  C   UNL     1      -7.502   1.548  10.940  1.00  0.00     0.200 A 
ATOM     95  F   UNL     1      -6.626  -0.611  11.301  1.00  0.00    -0.200 F 
ATOM     96  F   UNL     1      -8.165   1.493  12.101  1.00  0.00    -0.200 F 
ENDBRANCH  63  86
ENDBRANCH  37  38
ENDBRANCH  30  32
ENDBRANCH  29  30
ENDBRANCH  28  29
ENDBRANCH  27  28
ENDBRANCH  26  27
ENDBRANCH   1  26
TORSDOF 17
