REMARK SMILES O=C(Cc1cncnc1N1CCC2(CC1)OCCC[C@@H]2O)OCCOCCOC(=O)c1ccc(-c2c3nc(c(-c4c(F)c(F)c(F)c(F)c4F)c4ccc([nH]4)c(-c4c(F)c(F)c(F)c(F)c4F)c4nc(c(-c5c(F)c(F)c(F)c(F)c5F)c5ccc2[nH]5)C=C4)C=C3)cc1
REMARK SMILES IDX 24 1 23 2 22 3 2 4 1 5 3 6 4 7 5 8 9 9 6 10 8 11 7 12 10 13
REMARK SMILES IDX 11 14 15 15 12 16 14 17 13 18 16 19 20 20 17 21 19 22 18 23
REMARK SMILES IDX 21 24 25 26 26 27 27 28 28 29 29 30 30 31 31 32 32 33 93 34
REMARK SMILES IDX 33 35 92 36 34 37 35 38 36 39 86 40 37 41 91 42 85 43 87 44
REMARK SMILES IDX 38 45 90 46 84 47 83 48 39 50 71 51 51 52 70 53 52 54 55 55
REMARK SMILES IDX 69 56 88 57 53 58 54 59 68 61 89 62 56 63 40 64 41 65 49 66
REMARK SMILES IDX 42 67 43 68 47 69 50 70 44 71 45 72 48 73 46 74 72 75 73 76
REMARK SMILES IDX 81 77 74 78 75 79 79 80 82 81 76 82 77 83 80 84 78 85 57 86
REMARK SMILES IDX 58 87 66 88 59 89 60 90 64 91 67 92 61 93 62 94 65 95 63 96
REMARK H PARENT 21 25 87 49 55 60
REMARK Flexibility Score: inf
ROOT
ATOM      1  C   UNL     1       5.034  -1.310   0.600  1.00  0.00     0.202 C 
ENDROOT
BRANCH   1   2
ATOM      2  C   UNL     1       4.860   0.196   0.778  1.00  0.00     0.261 C 
BRANCH   2   3
ATOM      3  O   UNL     1       3.489   0.603   0.849  1.00  0.00    -0.463 OA
BRANCH   3   4
ATOM      4  C   UNL     1       2.639   0.195  -0.116  1.00  0.00     0.310 C 
ATOM      5  O   UNL     1       1.619  -0.415   0.199  1.00  0.00    -0.252 OA
BRANCH   4   6
ATOM      6  C   UNL     1       2.985   0.535  -1.559  1.00  0.00     0.163 C 
BRANCH   6   7
ATOM      7  C   UNL     1       3.709   1.831  -1.723  1.00  0.00     0.024 A 
ATOM      8  C   UNL     1       5.049   1.838  -2.077  1.00  0.00     0.121 A 
ATOM      9  C   UNL     1       3.115   3.066  -1.518  1.00  0.00     0.135 A 
ATOM     10  N   UNL     1       5.807   2.940  -2.108  1.00  0.00    -0.244 NA
ATOM     11  N   UNL     1       3.843   4.195  -1.572  1.00  0.00    -0.219 NA
ATOM     12  C   UNL     1       5.156   4.073  -1.825  1.00  0.00     0.224 A 
BRANCH   9  13
ATOM     13  N   UNL     1       1.750   3.187  -1.446  1.00  0.00    -0.356 N 
ATOM     14  C   UNL     1       1.080   3.844  -2.550  1.00  0.00     0.121 C 
ATOM     15  C   UNL     1       0.924   2.840  -0.304  1.00  0.00     0.121 C 
ATOM     16  C   UNL     1       0.042   2.865  -3.092  1.00  0.00     0.060 C 
ATOM     17  C   UNL     1      -0.179   1.878  -0.764  1.00  0.00     0.060 C 
ATOM     18  C   UNL     1      -0.950   2.396  -1.995  1.00  0.00     0.097 C 
ATOM     19  O   UNL     1      -1.759   3.474  -1.491  1.00  0.00    -0.372 OA
ATOM     20  C   UNL     1      -1.863   1.266  -2.562  1.00  0.00     0.146 C 
ATOM     21  C   UNL     1      -2.664   4.048  -2.426  1.00  0.00     0.161 C 
ATOM     22  C   UNL     1      -2.879   1.814  -3.563  1.00  0.00     0.037 C 
ATOM     23  C   UNL     1      -3.627   3.008  -2.977  1.00  0.00     0.031 C 
BRANCH  20  24
ATOM     24  O   UNL     1      -2.594   0.608  -1.521  1.00  0.00    -0.390 OA
ATOM     25  H   UNL     1      -3.184   1.245  -1.088  1.00  0.00     0.211 HD
ENDBRANCH  20  24
ENDBRANCH   9  13
ENDBRANCH   6   7
ENDBRANCH   4   6
ENDBRANCH   3   4
ENDBRANCH   2   3
ENDBRANCH   1   2
BRANCH   1  26
ATOM     26  O   UNL     1       4.763  -1.871  -0.679  1.00  0.00    -0.374 OA
BRANCH  26  27
ATOM     27  C   UNL     1       3.613  -2.713  -0.853  1.00  0.00     0.202 C 
BRANCH  27  28
ATOM     28  C   UNL     1       3.336  -3.954   0.014  1.00  0.00     0.261 C 
BRANCH  28  29
ATOM     29  O   UNL     1       3.607  -3.810   1.407  1.00  0.00    -0.460 OA
BRANCH  29  30
ATOM     30  C   UNL     1       4.870  -4.146   1.753  1.00  0.00     0.338 C 
ATOM     31  O   UNL     1       5.734  -4.620   1.027  1.00  0.00    -0.246 OA
BRANCH  30  32
ATOM     32  C   UNL     1       5.151  -3.630   3.103  1.00  0.00     0.060 A 
ATOM     33  C   UNL     1       6.343  -2.916   3.287  1.00  0.00     0.016 A 
ATOM     34  C   UNL     1       4.272  -3.844   4.166  1.00  0.00     0.016 A 
ATOM     35  C   UNL     1       6.697  -2.467   4.551  1.00  0.00     0.010 A 
ATOM     36  C   UNL     1       4.639  -3.417   5.441  1.00  0.00     0.010 A 
ATOM     37  C   UNL     1       5.875  -2.775   5.639  1.00  0.00    -0.014 A 
BRANCH  37  38
ATOM     38  C   UNL     1       6.421  -2.641   7.003  1.00  0.00     0.031 A 
ATOM     39  C   UNL     1       6.976  -3.873   7.659  1.00  0.00     0.074 A 
ATOM     40  C   UNL     1       6.450  -1.450   7.620  1.00  0.00     0.049 A 
ATOM     41  N   UNL     1       7.452  -4.031   8.866  1.00  0.00    -0.248 NA
ATOM     42  C   UNL     1       6.989  -5.099   6.842  1.00  0.00     0.031 C 
ATOM     43  C   UNL     1       5.982  -0.191   7.046  1.00  0.00     0.029 A 
ATOM     44  N   UNL     1       6.884  -1.113   8.875  1.00  0.00    -0.354 N 
ATOM     45  C   UNL     1       7.802  -5.372   8.956  1.00  0.00     0.074 A 
ATOM     46  C   UNL     1       7.459  -5.992   7.697  1.00  0.00     0.031 C 
ATOM     47  C   UNL     1       6.138   0.785   7.957  1.00  0.00     0.029 A 
ATOM     48  C   UNL     1       6.680   0.207   9.185  1.00  0.00     0.049 A 
ATOM     49  H   UNL     1       7.302  -1.756   9.493  1.00  0.00     0.167 HD
ATOM     50  C   UNL     1       8.366  -6.021  10.001  1.00  0.00     0.037 A 
ATOM     51  C   UNL     1       6.882   0.858  10.346  1.00  0.00     0.037 A 
ATOM     52  C   UNL     1       8.704  -5.384  11.245  1.00  0.00     0.049 A 
ATOM     53  C   UNL     1       7.450   0.098  11.516  1.00  0.00     0.074 A 
ATOM     54  C   UNL     1       9.300  -5.936  12.363  1.00  0.00     0.029 A 
ATOM     55  N   UNL     1       8.462  -4.048  11.536  1.00  0.00    -0.354 N 
ATOM     56  N   UNL     1       7.802  -1.164  11.594  1.00  0.00    -0.248 NA
ATOM     57  C   UNL     1       7.654   0.853  12.759  1.00  0.00     0.031 C 
ATOM     58  C   UNL     1       9.361  -4.951  13.354  1.00  0.00     0.029 A 
ATOM     59  C   UNL     1       8.869  -3.765  12.829  1.00  0.00     0.049 A 
ATOM     60  H   UNL     1       8.061  -3.398  10.914  1.00  0.00     0.167 HD
ATOM     61  C   UNL     1       8.296  -1.347  12.880  1.00  0.00     0.074 A 
ATOM     62  C   UNL     1       8.211  -0.060  13.541  1.00  0.00     0.031 C 
ATOM     63  C   UNL     1       8.778  -2.473  13.461  1.00  0.00     0.037 A 
BRANCH  50  64
ATOM     64  C   UNL     1       8.615  -7.494   9.854  1.00  0.00     0.064 A 
ATOM     65  C   UNL     1       9.590  -8.001   8.982  1.00  0.00     0.173 A 
ATOM     66  C   UNL     1       7.880  -8.413  10.618  1.00  0.00     0.173 A 
ATOM     67  F   UNL     1      10.309  -7.169   8.213  1.00  0.00    -0.203 F 
ATOM     68  C   UNL     1       9.803  -9.373   8.864  1.00  0.00     0.198 A 
ATOM     69  C   UNL     1       8.118  -9.781  10.522  1.00  0.00     0.198 A 
ATOM     70  F   UNL     1       6.933  -7.983  11.466  1.00  0.00    -0.203 F 
ATOM     71  F   UNL     1      10.704  -9.837   7.987  1.00  0.00    -0.200 F 
ATOM     72  C   UNL     1       9.073 -10.261   9.640  1.00  0.00     0.200 A 
ATOM     73  F   UNL     1       7.420 -10.636  11.283  1.00  0.00    -0.200 F 
ATOM     74  F   UNL     1       9.286 -11.579   9.532  1.00  0.00    -0.200 F 
ENDBRANCH  50  64
BRANCH  51  75
ATOM     75  C   UNL     1       6.533   2.298  10.458  1.00  0.00     0.064 A 
ATOM     76  C   UNL     1       7.524   3.274  10.628  1.00  0.00     0.173 A 
ATOM     77  C   UNL     1       5.198   2.728  10.401  1.00  0.00     0.173 A 
ATOM     78  F   UNL     1       8.813   2.911  10.710  1.00  0.00    -0.203 F 
ATOM     79  C   UNL     1       7.193   4.622  10.756  1.00  0.00     0.198 A 
ATOM     80  C   UNL     1       4.871   4.079  10.497  1.00  0.00     0.198 A 
ATOM     81  F   UNL     1       4.210   1.836  10.239  1.00  0.00    -0.203 F 
ATOM     82  F   UNL     1       8.158   5.528  10.965  1.00  0.00    -0.200 F 
ATOM     83  C   UNL     1       5.868   5.024  10.683  1.00  0.00     0.200 A 
ATOM     84  F   UNL     1       3.590   4.464  10.411  1.00  0.00    -0.200 F 
ATOM     85  F   UNL     1       5.552   6.321  10.801  1.00  0.00    -0.200 F 
ENDBRANCH  51  75
BRANCH  63  86
ATOM     86  C   UNL     1       9.291  -2.356  14.869  1.00  0.00     0.064 A 
ATOM     87  C   UNL     1       8.429  -2.151  15.956  1.00  0.00     0.173 A 
ATOM     88  C   UNL     1      10.662  -2.498  15.135  1.00  0.00     0.173 A 
ATOM     89  F   UNL     1       7.112  -1.998  15.754  1.00  0.00    -0.203 F 
ATOM     90  C   UNL     1       8.925  -2.062  17.254  1.00  0.00     0.198 A 
ATOM     91  C   UNL     1      11.149  -2.445  16.437  1.00  0.00     0.198 A 
ATOM     92  F   UNL     1      11.528  -2.706  14.132  1.00  0.00    -0.203 F 
ATOM     93  F   UNL     1       8.090  -1.811  18.271  1.00  0.00    -0.200 F 
ATOM     94  C   UNL     1      10.282  -2.217  17.494  1.00  0.00     0.200 A 
ATOM     95  F   UNL     1      12.458  -2.615  16.668  1.00  0.00    -0.200 F 
ATOM     96  F   UNL     1      10.756  -2.141  18.745  1.00  0.00    -0.200 F 
ENDBRANCH  63  86
ENDBRANCH  37  38
ENDBRANCH  30  32
ENDBRANCH  29  30
ENDBRANCH  28  29
ENDBRANCH  27  28
ENDBRANCH  26  27
ENDBRANCH   1  26
TORSDOF 17
