REMARK SMILES CCC[C@H](c1ccccc1)[C@@](C)(O)C(=O)OCCOCCOC(=O)c1ccc(-c2c3nc(c(-c4c(F)c(F)c(F)c(F)c4F)c4ccc([nH]4)c(-c4c(F)c(F)c(F)c(F)c4F)c4nc(c(-c5c(F)c(F)c(F)c(F)c5F)c5ccc2[nH]5)C=C4)C=C3)cc1
REMARK SMILES IDX 18 1 17 2 16 3 14 4 15 5 11 6 12 7 4 8 3 9 2 10 1 11 5 12
REMARK SMILES IDX 6 13 10 14 7 15 9 16 8 17 13 18 19 20 20 21 21 22 22 23
REMARK SMILES IDX 23 24 24 25 25 26 26 27 87 28 27 29 86 30 28 31 29 32 30 33
REMARK SMILES IDX 80 34 31 35 85 36 79 37 81 38 32 39 84 40 78 41 77 42 33 44
REMARK SMILES IDX 65 45 45 46 64 47 46 48 49 49 63 50 82 51 47 52 48 53 62 55
REMARK SMILES IDX 83 56 50 57 34 58 35 59 43 60 36 61 37 62 41 63 44 64 38 65
REMARK SMILES IDX 39 66 42 67 40 68 66 69 67 70 75 71 68 72 69 73 73 74 76 75
REMARK SMILES IDX 70 76 71 77 74 78 72 79 51 80 52 81 60 82 53 83 54 84 58 85
REMARK SMILES IDX 61 86 55 87 56 88 59 89 57 90
REMARK H PARENT 13 19 81 43 49 54
REMARK Flexibility Score: inf
ROOT
ATOM      1  C   UNL     1      -0.989   0.789   7.542  1.00  0.00     0.202 C 
ENDROOT
BRANCH   1   2
ATOM      2  C   UNL     1       0.444   0.619   7.039  1.00  0.00     0.261 C 
BRANCH   2   3
ATOM      3  O   UNL     1       0.699   1.543   5.972  1.00  0.00    -0.461 OA
BRANCH   3   4
ATOM      4  C   UNL     1       1.403   1.033   4.922  1.00  0.00     0.338 C 
ATOM      5  O   UNL     1       2.009  -0.030   4.976  1.00  0.00    -0.249 OA
BRANCH   4   6
ATOM      6  C   UNL     1       1.401   1.999   3.697  1.00  0.00     0.165 C 
ATOM      7  C   UNL     1       2.881   2.377   3.499  1.00  0.00     0.055 C 
BRANCH   6   8
ATOM      8  C   UNL     1       0.750   1.369   2.383  1.00  0.00     0.062 C 
BRANCH   8   9
ATOM      9  C   UNL     1      -0.774   1.706   2.220  1.00  0.00     0.012 C 
BRANCH   9  10
ATOM     10  C   UNL     1      -1.181   2.237   0.835  1.00  0.00    -0.003 C 
ATOM     11  C   UNL     1      -0.936   1.282  -0.318  1.00  0.00     0.004 C 
ENDBRANCH   9  10
ENDBRANCH   8   9
BRANCH   8  12
ATOM     12  C   UNL     1       1.106  -0.111   2.178  1.00  0.00    -0.041 A 
ATOM     13  C   UNL     1       0.213  -1.166   2.433  1.00  0.00     0.004 A 
ATOM     14  C   UNL     1       2.426  -0.453   1.835  1.00  0.00     0.004 A 
ATOM     15  C   UNL     1       0.637  -2.499   2.401  1.00  0.00     0.000 A 
ATOM     16  C   UNL     1       2.859  -1.782   1.843  1.00  0.00     0.000 A 
ATOM     17  C   UNL     1       1.966  -2.805   2.135  1.00  0.00     0.000 A 
ENDBRANCH   8  12
ENDBRANCH   6   8
BRANCH   6  18
ATOM     18  O   UNL     1       0.748   3.253   3.980  1.00  0.00    -0.378 OA
ATOM     19  H   UNL     1       0.773   3.816   3.190  1.00  0.00     0.212 HD
ENDBRANCH   6  18
ENDBRANCH   4   6
ENDBRANCH   3   4
ENDBRANCH   2   3
ENDBRANCH   1   2
BRANCH   1  20
ATOM     20  O   UNL     1      -2.035   0.466   6.622  1.00  0.00    -0.374 OA
BRANCH  20  21
ATOM     21  C   UNL     1      -2.183   1.298   5.472  1.00  0.00     0.202 C 
BRANCH  21  22
ATOM     22  C   UNL     1      -2.846   2.667   5.671  1.00  0.00     0.261 C 
BRANCH  22  23
ATOM     23  O   UNL     1      -2.192   3.474   6.661  1.00  0.00    -0.460 OA
BRANCH  23  24
ATOM     24  C   UNL     1      -2.880   3.604   7.816  1.00  0.00     0.338 C 
ATOM     25  O   UNL     1      -4.018   3.211   8.054  1.00  0.00    -0.246 OA
BRANCH  24  26
ATOM     26  C   UNL     1      -2.015   4.150   8.873  1.00  0.00     0.060 A 
ATOM     27  C   UNL     1      -1.950   3.431  10.072  1.00  0.00     0.016 A 
ATOM     28  C   UNL     1      -1.358   5.376   8.738  1.00  0.00     0.016 A 
ATOM     29  C   UNL     1      -1.294   3.971  11.171  1.00  0.00     0.010 A 
ATOM     30  C   UNL     1      -0.707   5.925   9.849  1.00  0.00     0.010 A 
ATOM     31  C   UNL     1      -0.722   5.247  11.082  1.00  0.00    -0.014 A 
BRANCH  31  32
ATOM     32  C   UNL     1      -0.351   5.930  12.343  1.00  0.00     0.031 A 
ATOM     33  C   UNL     1      -1.356   6.853  12.978  1.00  0.00     0.074 A 
ATOM     34  C   UNL     1       0.807   5.652  12.964  1.00  0.00     0.049 A 
ATOM     35  N   UNL     1      -1.306   7.475  14.128  1.00  0.00    -0.248 NA
ATOM     36  C   UNL     1      -2.591   7.101  12.215  1.00  0.00     0.031 C 
ATOM     37  C   UNL     1       1.839   4.750  12.460  1.00  0.00     0.029 A 
ATOM     38  N   UNL     1       1.298   6.093  14.166  1.00  0.00    -0.354 N 
ATOM     39  C   UNL     1      -2.499   8.179  14.227  1.00  0.00     0.074 A 
ATOM     40  C   UNL     1      -3.237   7.942  13.007  1.00  0.00     0.031 C 
ATOM     41  C   UNL     1       2.844   4.698  13.352  1.00  0.00     0.029 A 
ATOM     42  C   UNL     1       2.528   5.572  14.480  1.00  0.00     0.049 A 
ATOM     43  H   UNL     1       0.815   6.723  14.748  1.00  0.00     0.167 HD
ATOM     44  C   UNL     1      -2.947   8.941  15.253  1.00  0.00     0.037 A 
ATOM     45  C   UNL     1       3.305   5.779  15.561  1.00  0.00     0.037 A 
ATOM     46  C   UNL     1      -2.212   9.175  16.466  1.00  0.00     0.049 A 
ATOM     47  C   UNL     1       2.803   6.668  16.669  1.00  0.00     0.074 A 
ATOM     48  C   UNL     1      -2.578   9.926  17.569  1.00  0.00     0.029 A 
ATOM     49  N   UNL     1      -0.951   8.660  16.732  1.00  0.00    -0.354 N 
ATOM     50  N   UNL     1       1.660   7.303  16.769  1.00  0.00    -0.248 NA
ATOM     51  C   UNL     1       3.696   6.856  17.821  1.00  0.00     0.031 C 
ATOM     52  C   UNL     1      -1.520   9.900  18.485  1.00  0.00     0.029 A 
ATOM     53  C   UNL     1      -0.515   9.094  17.973  1.00  0.00     0.049 A 
ATOM     54  H   UNL     1      -0.442   8.073  16.127  1.00  0.00     0.167 HD
ATOM     55  C   UNL     1       1.685   7.944  18.001  1.00  0.00     0.074 A 
ATOM     56  C   UNL     1       2.950   7.605  18.620  1.00  0.00     0.031 C 
ATOM     57  C   UNL     1       0.747   8.742  18.571  1.00  0.00     0.037 A 
BRANCH  44  58
ATOM     58  C   UNL     1      -4.289   9.593  15.091  1.00  0.00     0.064 A 
ATOM     59  C   UNL     1      -5.479   8.850  15.137  1.00  0.00     0.173 A 
ATOM     60  C   UNL     1      -4.387  10.979  14.901  1.00  0.00     0.173 A 
ATOM     61  F   UNL     1      -5.438   7.519  15.299  1.00  0.00    -0.203 F 
ATOM     62  C   UNL     1      -6.716   9.469  14.975  1.00  0.00     0.198 A 
ATOM     63  C   UNL     1      -5.626  11.598  14.766  1.00  0.00     0.198 A 
ATOM     64  F   UNL     1      -3.279  11.734  14.849  1.00  0.00    -0.203 F 
ATOM     65  F   UNL     1      -7.837   8.735  14.976  1.00  0.00    -0.200 F 
ATOM     66  C   UNL     1      -6.789  10.843  14.795  1.00  0.00     0.200 A 
ATOM     67  F   UNL     1      -5.696  12.926  14.600  1.00  0.00    -0.200 F 
ATOM     68  F   UNL     1      -7.980  11.438  14.642  1.00  0.00    -0.200 F 
ENDBRANCH  44  58
BRANCH  45  69
ATOM     69  C   UNL     1       4.635   5.123  15.655  1.00  0.00     0.064 A 
ATOM     70  C   UNL     1       4.883   4.112  16.594  1.00  0.00     0.173 A 
ATOM     71  C   UNL     1       5.691   5.509  14.816  1.00  0.00     0.173 A 
ATOM     72  F   UNL     1       3.912   3.727  17.434  1.00  0.00    -0.203 F 
ATOM     73  C   UNL     1       6.142   3.525  16.703  1.00  0.00     0.198 A 
ATOM     74  C   UNL     1       6.942   4.902  14.909  1.00  0.00     0.198 A 
ATOM     75  F   UNL     1       5.506   6.473  13.903  1.00  0.00    -0.203 F 
ATOM     76  F   UNL     1       6.365   2.594  17.640  1.00  0.00    -0.200 F 
ATOM     77  C   UNL     1       7.169   3.917  15.857  1.00  0.00     0.200 A 
ATOM     78  F   UNL     1       7.929   5.277  14.083  1.00  0.00    -0.200 F 
ATOM     79  F   UNL     1       8.379   3.352  15.962  1.00  0.00    -0.200 F 
ENDBRANCH  45  69
BRANCH  57  80
ATOM     80  C   UNL     1       1.046   9.278  19.941  1.00  0.00     0.064 A 
ATOM     81  C   UNL     1       2.011  10.275  20.146  1.00  0.00     0.173 A 
ATOM     82  C   UNL     1       0.339   8.806  21.057  1.00  0.00     0.173 A 
ATOM     83  F   UNL     1       2.722  10.749  19.111  1.00  0.00    -0.203 F 
ATOM     84  C   UNL     1       2.281  10.756  21.424  1.00  0.00     0.198 A 
ATOM     85  C   UNL     1       0.591   9.311  22.330  1.00  0.00     0.198 A 
ATOM     86  F   UNL     1      -0.601   7.860  20.913  1.00  0.00    -0.203 F 
ATOM     87  F   UNL     1       3.245  11.670  21.603  1.00  0.00    -0.200 F 
ATOM     88  C   UNL     1       1.567  10.278  22.513  1.00  0.00     0.200 A 
ATOM     89  F   UNL     1      -0.108   8.858  23.379  1.00  0.00    -0.200 F 
ATOM     90  F   UNL     1       1.829  10.743  23.742  1.00  0.00    -0.200 F 
ENDBRANCH  57  80
ENDBRANCH  31  32
ENDBRANCH  24  26
ENDBRANCH  23  24
ENDBRANCH  22  23
ENDBRANCH  21  22
ENDBRANCH  20  21
ENDBRANCH   1  20
TORSDOF 19
