REMARK SMILES Cc1coc2cc3c(cc12)[C@@H](C)[C@H](CCC(=O)N[C@@H](Cc1c[nH]c2ccccc12)C(=O)OCCOCCOC(=O)c1ccc(-c2c4nc(c(-c5c(F)c(F)c(F)c(F)c5F)c5ccc([nH]5)c(-c5c(F)c(F)c(F)c(F)c5F)c5nc(c(-c6c(F)c(F)c(F)c(F)c6F)c6ccc2[nH]6)C=C5)C=C4)cc1)C(=O)O3
REMARK SMILES IDX 34 1 33 2 32 3 30 4 31 5 19 6 18 7 16 8 17 9 15 11 14 12
REMARK SMILES IDX 13 13 1 14 2 15 3 16 10 17 4 18 5 19 9 20 6 21 8 22 7 23
REMARK SMILES IDX 11 24 106 25 12 26 104 27 105 28 20 29 21 30 22 31 29 32
REMARK SMILES IDX 23 33 24 34 28 35 25 37 27 38 26 39 35 40 36 41 37 42 38 43
REMARK SMILES IDX 39 44 40 45 41 46 42 47 103 48 43 49 102 50 44 51 45 52
REMARK SMILES IDX 46 53 96 54 47 55 101 56 95 57 97 58 48 59 100 60 94 61
REMARK SMILES IDX 93 62 49 64 81 65 61 66 80 67 62 68 65 69 79 70 98 71 63 72
REMARK SMILES IDX 64 73 78 75 99 76 66 77 50 78 51 79 59 80 52 81 53 82 57 83
REMARK SMILES IDX 60 84 54 85 55 86 58 87 56 88 82 89 83 90 91 91 84 92 85 93
REMARK SMILES IDX 89 94 92 95 86 96 87 97 90 98 88 99 67 100 68 101 76 102
REMARK SMILES IDX 69 103 70 104 74 105 77 106 71 107 72 108 75 109 73 110
REMARK H PARENT 18 10 23 36 97 63 65 74
REMARK Flexibility Score: inf
ROOT
ATOM      1  C   UNL     1      -1.602  -0.338  12.548  1.00  0.00     0.202 C 
ENDROOT
BRANCH   1   2
ATOM      2  C   UNL     1      -0.352  -0.286  11.680  1.00  0.00     0.261 C 
BRANCH   2   3
ATOM      3  O   UNL     1      -0.658   0.296  10.441  1.00  0.00    -0.462 OA
BRANCH   3   4
ATOM      4  C   UNL     1      -0.935  -0.670   9.553  1.00  0.00     0.329 C 
ATOM      5  O   UNL     1      -0.735  -1.873   9.688  1.00  0.00    -0.250 OA
BRANCH   4   6
ATOM      6  C   UNL     1      -1.443  -0.089   8.280  1.00  0.00     0.196 C 
BRANCH   6   7
ATOM      7  N   UNL     1      -2.376   1.085   8.286  1.00  0.00    -0.342 N 
ATOM      8  C   UNL     1      -3.621   1.320   7.723  1.00  0.00     0.220 C 
ATOM      9  O   UNL     1      -4.097   2.457   7.814  1.00  0.00    -0.275 OA
ATOM     10  H   UNL     1      -2.032   1.852   8.799  1.00  0.00     0.164 HD
BRANCH   8  11
ATOM     11  C   UNL     1      -4.432   0.251   6.948  1.00  0.00     0.101 C 
BRANCH  11  12
ATOM     12  C   UNL     1      -3.951  -0.248   5.556  1.00  0.00     0.026 C 
BRANCH  12  13
ATOM     13  C   UNL     1      -2.441  -0.196   5.460  1.00  0.00     0.107 C 
ATOM     14  C   UNL     1       1.288  -0.033  -0.395  1.00  0.00     0.048 C 
ATOM     15  C   UNL     1       1.019   1.085   0.524  1.00  0.00    -0.005 A 
ATOM     16  C   UNL     1       1.201   2.438   0.329  1.00  0.00     0.199 A 
ATOM     17  C   UNL     1       0.381   0.950   1.772  1.00  0.00     0.024 A 
ATOM     18  O   UNL     1       0.755   3.148   1.391  1.00  0.00    -0.464 OA
ATOM     19  C   UNL     1       0.178   2.250   2.217  1.00  0.00     0.137 A 
ATOM     20  C   UNL     1      -0.122  -0.146   2.487  1.00  0.00     0.020 A 
ATOM     21  C   UNL     1      -0.623   2.589   3.264  1.00  0.00     0.095 A 
ATOM     22  C   UNL     1      -1.049   0.141   3.461  1.00  0.00    -0.001 A 
ATOM     23  C   UNL     1      -1.375   1.503   3.675  1.00  0.00     0.138 A 
ATOM     24  C   UNL     1      -1.669  -0.928   4.336  1.00  0.00     0.034 C 
ATOM     25  O   UNL     1      -2.541   1.836   4.297  1.00  0.00    -0.426 OA
ATOM     26  C   UNL     1      -0.558  -1.898   4.909  1.00  0.00     0.014 C 
ATOM     27  C   UNL     1      -2.115   1.317   5.443  1.00  0.00     0.314 C 
ATOM     28  O   UNL     1      -1.533   2.039   6.263  1.00  0.00    -0.251 OA
ENDBRANCH  12  13
ENDBRANCH  11  12
ENDBRANCH   8  11
ENDBRANCH   6   7
BRANCH   6  29
ATOM     29  C   UNL     1      -0.117  -0.006   7.439  1.00  0.00     0.074 C 
BRANCH  29  30
ATOM     30  C   UNL     1       0.909   1.036   7.747  1.00  0.00    -0.020 A 
ATOM     31  C   UNL     1       1.167   2.231   7.098  1.00  0.00     0.087 A 
ATOM     32  C   UNL     1       1.927   0.887   8.717  1.00  0.00     0.003 A 
ATOM     33  N   UNL     1       2.125   2.904   7.804  1.00  0.00    -0.361 N 
ATOM     34  C   UNL     1       2.585   2.107   8.821  1.00  0.00     0.046 A 
ATOM     35  C   UNL     1       2.277  -0.176   9.562  1.00  0.00     0.010 A 
ATOM     36  H   UNL     1       2.435   3.818   7.613  1.00  0.00     0.166 HD
ATOM     37  C   UNL     1       3.512   2.358   9.825  1.00  0.00     0.026 A 
ATOM     38  C   UNL     1       3.149   0.068  10.605  1.00  0.00     0.001 A 
ATOM     39  C   UNL     1       3.750   1.314  10.725  1.00  0.00     0.002 A 
ENDBRANCH  29  30
ENDBRANCH   6  29
ENDBRANCH   4   6
ENDBRANCH   3   4
ENDBRANCH   2   3
ENDBRANCH   1   2
BRANCH   1  40
ATOM     40  O   UNL     1      -2.847  -0.736  11.995  1.00  0.00    -0.374 OA
BRANCH  40  41
ATOM     41  C   UNL     1      -3.486   0.163  11.076  1.00  0.00     0.202 C 
BRANCH  41  42
ATOM     42  C   UNL     1      -3.613   1.696  11.309  1.00  0.00     0.261 C 
BRANCH  42  43
ATOM     43  O   UNL     1      -2.339   2.373  11.516  1.00  0.00    -0.460 OA
BRANCH  43  44
ATOM     44  C   UNL     1      -2.142   2.906  12.759  1.00  0.00     0.338 C 
ATOM     45  O   UNL     1      -3.022   3.115  13.582  1.00  0.00    -0.246 OA
BRANCH  44  46
ATOM     46  C   UNL     1      -0.711   2.704  13.182  1.00  0.00     0.060 A 
ATOM     47  C   UNL     1       0.448   3.050  12.508  1.00  0.00     0.016 A 
ATOM     48  C   UNL     1      -0.543   1.940  14.340  1.00  0.00     0.016 A 
ATOM     49  C   UNL     1       1.675   2.377  12.864  1.00  0.00     0.010 A 
ATOM     50  C   UNL     1       0.706   1.414  14.715  1.00  0.00     0.010 A 
ATOM     51  C   UNL     1       1.768   1.312  13.836  1.00  0.00    -0.014 A 
BRANCH  51  52
ATOM     52  C   UNL     1       3.082   0.593  14.346  1.00  0.00     0.031 A 
ATOM     53  C   UNL     1       3.949   1.824  14.680  1.00  0.00     0.074 A 
ATOM     54  C   UNL     1       3.495  -0.781  14.524  1.00  0.00     0.049 A 
ATOM     55  N   UNL     1       4.886   2.268  13.906  1.00  0.00    -0.248 NA
ATOM     56  C   UNL     1       3.549   2.894  15.645  1.00  0.00     0.031 C 
ATOM     57  C   UNL     1       2.831  -2.123  14.260  1.00  0.00     0.029 A 
ATOM     58  N   UNL     1       4.762  -1.347  14.966  1.00  0.00    -0.354 N 
ATOM     59  C   UNL     1       5.435   3.393  14.521  1.00  0.00     0.074 A 
ATOM     60  C   UNL     1       4.452   3.862  15.435  1.00  0.00     0.031 C 
ATOM     61  C   UNL     1       3.506  -3.196  14.809  1.00  0.00     0.029 A 
ATOM     62  C   UNL     1       4.765  -2.771  15.413  1.00  0.00     0.049 A 
ATOM     63  H   UNL     1       5.587  -0.810  14.970  1.00  0.00     0.167 HD
ATOM     64  C   UNL     1       6.785   3.550  14.461  1.00  0.00     0.037 A 
ATOM     65  C   UNL     1       5.829  -3.616  15.831  1.00  0.00     0.037 A 
ATOM     66  C   UNL     1       7.283   2.733  13.380  1.00  0.00     0.049 A 
ATOM     67  C   UNL     1       7.068  -2.918  15.439  1.00  0.00     0.074 A 
ATOM     68  C   UNL     1       7.178   2.764  12.006  1.00  0.00     0.029 A 
ATOM     69  N   UNL     1       7.390   1.418  13.745  1.00  0.00    -0.354 N 
ATOM     70  N   UNL     1       7.414  -2.806  14.193  1.00  0.00    -0.248 NA
ATOM     71  C   UNL     1       7.473  -1.872  16.363  1.00  0.00     0.031 C 
ATOM     72  C   UNL     1       7.080   1.405  11.584  1.00  0.00     0.029 A 
ATOM     73  C   UNL     1       7.289   0.580  12.680  1.00  0.00     0.049 A 
ATOM     74  H   UNL     1       7.525   1.115  14.672  1.00  0.00     0.167 HD
ATOM     75  C   UNL     1       7.587  -1.446  14.058  1.00  0.00     0.074 A 
ATOM     76  C   UNL     1       7.630  -0.920  15.440  1.00  0.00     0.031 C 
ATOM     77  C   UNL     1       7.309  -0.840  12.866  1.00  0.00     0.037 A 
BRANCH  64  78
ATOM     78  C   UNL     1       7.669   3.890  15.645  1.00  0.00     0.064 A 
ATOM     79  C   UNL     1       9.056   4.022  15.422  1.00  0.00     0.173 A 
ATOM     80  C   UNL     1       7.284   3.793  17.001  1.00  0.00     0.173 A 
ATOM     81  F   UNL     1       9.540   4.075  14.172  1.00  0.00    -0.203 F 
ATOM     82  C   UNL     1       9.984   4.027  16.468  1.00  0.00     0.198 A 
ATOM     83  C   UNL     1       8.211   3.842  18.047  1.00  0.00     0.198 A 
ATOM     84  F   UNL     1       6.019   3.550  17.365  1.00  0.00    -0.203 F 
ATOM     85  F   UNL     1      11.295   4.069  16.195  1.00  0.00    -0.200 F 
ATOM     86  C   UNL     1       9.561   3.943  17.781  1.00  0.00     0.200 A 
ATOM     87  F   UNL     1       7.787   3.728  19.315  1.00  0.00    -0.200 F 
ATOM     88  F   UNL     1      10.450   3.925  18.783  1.00  0.00    -0.200 F 
ENDBRANCH  64  78
BRANCH  65  89
ATOM     89  C   UNL     1       6.038  -4.645  16.990  1.00  0.00     0.064 A 
ATOM     90  C   UNL     1       7.219  -5.435  17.253  1.00  0.00     0.173 A 
ATOM     91  C   UNL     1       5.179  -4.549  18.087  1.00  0.00     0.173 A 
ATOM     92  F   UNL     1       8.160  -5.613  16.311  1.00  0.00    -0.203 F 
ATOM     93  C   UNL     1       7.496  -6.019  18.525  1.00  0.00     0.198 A 
ATOM     94  C   UNL     1       5.471  -5.100  19.351  1.00  0.00     0.198 A 
ATOM     95  F   UNL     1       4.068  -3.815  17.976  1.00  0.00    -0.203 F 
ATOM     96  F   UNL     1       8.626  -6.718  18.745  1.00  0.00    -0.200 F 
ATOM     97  C   UNL     1       6.629  -5.819  19.581  1.00  0.00     0.200 A 
ATOM     98  F   UNL     1       4.636  -4.860  20.372  1.00  0.00    -0.200 F 
ATOM     99  F   UNL     1       6.914  -6.276  20.812  1.00  0.00    -0.200 F 
ENDBRANCH  65  89
BRANCH  77 100
ATOM    100  C   UNL     1       7.068  -1.690  11.649  1.00  0.00     0.064 A 
ATOM    101  C   UNL     1       5.902  -2.415  11.337  1.00  0.00     0.173 A 
ATOM    102  C   UNL     1       8.056  -1.622  10.665  1.00  0.00     0.173 A 
ATOM    103  F   UNL     1       4.853  -2.428  12.169  1.00  0.00    -0.203 F 
ATOM    104  C   UNL     1       5.771  -3.086  10.114  1.00  0.00     0.198 A 
ATOM    105  C   UNL     1       7.911  -2.254   9.438  1.00  0.00     0.198 A 
ATOM    106  F   UNL     1       9.148  -0.872  10.876  1.00  0.00    -0.203 F 
ATOM    107  F   UNL     1       4.656  -3.779   9.833  1.00  0.00    -0.200 F 
ATOM    108  C   UNL     1       6.782  -3.007   9.169  1.00  0.00     0.200 A 
ATOM    109  F   UNL     1       8.859  -2.100   8.506  1.00  0.00    -0.200 F 
ATOM    110  F   UNL     1       6.664  -3.637   7.992  1.00  0.00    -0.200 F 
ENDBRANCH  77 100
ENDBRANCH  51  52
ENDBRANCH  44  46
ENDBRANCH  43  44
ENDBRANCH  42  43
ENDBRANCH  41  42
ENDBRANCH  40  41
ENDBRANCH   1  40
TORSDOF 20
