REMARK SMILES CC(C)C[C@H](NC(=O)[C@H]1N2C(=O)c3ccccc3[C@@H]2SC1(C)C)C(=O)N[C@@H](C)C(=O)OCCOCCOC(=O)c1ccc(-c2c3nc(c(-c4c(F)c(F)c(F)c(F)c4F)c4ccc([nH]4)c(-c4c(F)c(F)c(F)c(F)c4F)c4nc(c(-c5c(F)c(F)c(F)c(F)c5F)c5ccc2[nH]5)C=C4)C=C3)cc1
REMARK SMILES IDX 33 1 32 2 31 3 29 4 30 5 27 6 28 7 26 8 24 9 25 10 5 12 4 13
REMARK SMILES IDX 2 14 1 15 3 16 6 17 7 18 8 20 9 21 10 22 21 23 11 24 19 25
REMARK SMILES IDX 20 26 22 27 23 28 12 29 13 30 18 31 14 32 17 33 15 34 16 35
REMARK SMILES IDX 34 36 35 37 36 38 37 39 38 40 39 41 40 42 41 43 102 44 42 45
REMARK SMILES IDX 101 46 43 47 44 48 45 49 95 50 46 51 100 52 94 53 96 54
REMARK SMILES IDX 47 55 99 56 93 57 92 58 48 60 80 61 60 62 79 63 61 64 64 65
REMARK SMILES IDX 78 66 97 67 62 68 63 69 77 71 98 72 65 73 49 74 50 75 58 76
REMARK SMILES IDX 51 77 52 78 56 79 59 80 53 81 54 82 57 83 55 84 81 85 82 86
REMARK SMILES IDX 90 87 83 88 84 89 88 90 91 91 85 92 86 93 89 94 87 95 66 96
REMARK SMILES IDX 67 97 75 98 68 99 69 100 73 101 76 102 70 103 71 104 74 105
REMARK SMILES IDX 72 106
REMARK H PARENT 26 11 6 19 96 59 64 70
REMARK Flexibility Score: inf
ROOT
ATOM      1  C   UNL     1      -5.186   5.629   4.158  1.00  0.00     0.202 C 
ENDROOT
BRANCH   1   2
ATOM      2  C   UNL     1      -5.054   6.083   2.701  1.00  0.00     0.261 C 
BRANCH   2   3
ATOM      3  O   UNL     1      -4.808   4.955   1.832  1.00  0.00    -0.462 OA
BRANCH   3   4
ATOM      4  C   UNL     1      -3.677   5.041   1.081  1.00  0.00     0.328 C 
ATOM      5  O   UNL     1      -3.039   6.076   0.918  1.00  0.00    -0.250 OA
BRANCH   4   6
ATOM      6  C   UNL     1      -3.304   3.726   0.360  1.00  0.00     0.189 C 
ATOM      7  C   UNL     1      -3.702   3.888  -1.100  1.00  0.00     0.043 C 
BRANCH   6   8
ATOM      8  N   UNL     1      -3.816   2.459   0.882  1.00  0.00    -0.341 N 
ATOM      9  C   UNL     1      -3.206   1.254   1.097  1.00  0.00     0.243 C 
ATOM     10  O   UNL     1      -3.962   0.341   1.454  1.00  0.00    -0.273 OA
ATOM     11  H   UNL     1      -4.770   2.477   1.123  1.00  0.00     0.164 HD
BRANCH   9  12
ATOM     12  C   UNL     1      -1.643   1.010   1.101  1.00  0.00     0.171 C 
BRANCH  12  13
ATOM     13  C   UNL     1      -0.976   1.120   2.482  1.00  0.00     0.038 C 
BRANCH  13  14
ATOM     14  C   UNL     1      -1.813   0.903   3.740  1.00  0.00    -0.015 C 
ATOM     15  C   UNL     1      -2.205  -0.535   4.037  1.00  0.00     0.007 C 
ATOM     16  C   UNL     1      -1.105   1.501   4.967  1.00  0.00     0.007 C 
ENDBRANCH  13  14
ENDBRANCH  12  13
BRANCH  12  17
ATOM     17  N   UNL     1      -0.947   1.742   0.015  1.00  0.00    -0.342 N 
ATOM     18  C   UNL     1       0.238   2.397  -0.172  1.00  0.00     0.244 C 
ATOM     19  H   UNL     1      -1.493   1.762  -0.804  1.00  0.00     0.164 HD
ATOM     20  O   UNL     1       0.422   2.813  -1.323  1.00  0.00    -0.273 OA
BRANCH  18  21
ATOM     21  C   UNL     1       1.268   2.700   0.951  1.00  0.00     0.191 C 
ATOM     22  N   UNL     1       2.618   2.773   0.391  1.00  0.00    -0.309 N 
ATOM     23  C   UNL     1       1.085   4.056   1.711  1.00  0.00     0.042 C 
ATOM     24  C   UNL     1       3.676   1.960   0.739  1.00  0.00     0.256 C 
ATOM     25  C   UNL     1       3.035   4.054  -0.118  1.00  0.00     0.176 C 
ATOM     26  S   UNL     1       2.192   5.279   0.884  1.00  0.00    -0.123 SA
ATOM     27  C   UNL     1      -0.288   4.707   1.657  1.00  0.00     0.026 C 
ATOM     28  C   UNL     1       1.551   3.932   3.170  1.00  0.00     0.026 C 
ATOM     29  O   UNL     1       3.635   0.858   1.249  1.00  0.00    -0.269 OA
ATOM     30  C   UNL     1       4.897   2.760   0.526  1.00  0.00     0.046 A 
ATOM     31  C   UNL     1       4.510   4.026   0.083  1.00  0.00    -0.002 A 
ATOM     32  C   UNL     1       6.209   2.458   0.836  1.00  0.00     0.014 A 
ATOM     33  C   UNL     1       5.441   5.041  -0.060  1.00  0.00     0.007 A 
ATOM     34  C   UNL     1       7.154   3.479   0.695  1.00  0.00     0.001 A 
ATOM     35  C   UNL     1       6.771   4.761   0.259  1.00  0.00     0.000 A 
ENDBRANCH  18  21
ENDBRANCH  12  17
ENDBRANCH   9  12
ENDBRANCH   6   8
ENDBRANCH   4   6
ENDBRANCH   3   4
ENDBRANCH   2   3
ENDBRANCH   1   2
BRANCH   1  36
ATOM     36  O   UNL     1      -4.024   5.002   4.698  1.00  0.00    -0.374 OA
BRANCH  36  37
ATOM     37  C   UNL     1      -3.800   3.654   4.297  1.00  0.00     0.202 C 
BRANCH  37  38
ATOM     38  C   UNL     1      -4.437   2.584   5.185  1.00  0.00     0.261 C 
BRANCH  38  39
ATOM     39  O   UNL     1      -5.845   2.601   5.003  1.00  0.00    -0.460 OA
BRANCH  39  40
ATOM     40  C   UNL     1      -6.548   3.050   6.056  1.00  0.00     0.338 C 
ATOM     41  O   UNL     1      -6.153   3.320   7.177  1.00  0.00    -0.246 OA
BRANCH  40  42
ATOM     42  C   UNL     1      -7.859   3.404   5.513  1.00  0.00     0.060 A 
ATOM     43  C   UNL     1      -8.517   2.556   4.614  1.00  0.00     0.016 A 
ATOM     44  C   UNL     1      -8.359   4.667   5.836  1.00  0.00     0.016 A 
ATOM     45  C   UNL     1      -9.712   2.973   4.052  1.00  0.00     0.010 A 
ATOM     46  C   UNL     1      -9.561   5.076   5.288  1.00  0.00     0.010 A 
ATOM     47  C   UNL     1     -10.250   4.217   4.420  1.00  0.00    -0.014 A 
BRANCH  47  48
ATOM     48  C   UNL     1     -11.633   4.547   4.051  1.00  0.00     0.031 A 
ATOM     49  C   UNL     1     -11.932   5.587   3.030  1.00  0.00     0.074 A 
ATOM     50  C   UNL     1     -12.603   3.902   4.721  1.00  0.00     0.049 A 
ATOM     51  N   UNL     1     -13.094   5.996   2.597  1.00  0.00    -0.248 NA
ATOM     52  C   UNL     1     -10.780   6.269   2.424  1.00  0.00     0.031 C 
ATOM     53  C   UNL     1     -12.371   2.892   5.757  1.00  0.00     0.029 A 
ATOM     54  N   UNL     1     -13.962   3.989   4.633  1.00  0.00    -0.354 N 
ATOM     55  C   UNL     1     -12.818   6.970   1.653  1.00  0.00     0.074 A 
ATOM     56  C   UNL     1     -11.380   7.137   1.621  1.00  0.00     0.031 C 
ATOM     57  C   UNL     1     -13.550   2.417   6.176  1.00  0.00     0.029 A 
ATOM     58  C   UNL     1     -14.614   3.124   5.475  1.00  0.00     0.049 A 
ATOM     59  H   UNL     1     -14.428   4.609   4.027  1.00  0.00     0.167 HD
ATOM     60  C   UNL     1     -13.699   7.641   0.873  1.00  0.00     0.037 A 
ATOM     61  C   UNL     1     -15.930   2.926   5.654  1.00  0.00     0.037 A 
ATOM     62  C   UNL     1     -15.127   7.472   0.964  1.00  0.00     0.049 A 
ATOM     63  C   UNL     1     -16.885   3.735   4.830  1.00  0.00     0.074 A 
ATOM     64  C   UNL     1     -16.120   8.094   0.231  1.00  0.00     0.029 A 
ATOM     65  N   UNL     1     -15.767   6.624   1.863  1.00  0.00    -0.354 N 
ATOM     66  N   UNL     1     -16.624   4.622   3.900  1.00  0.00    -0.248 NA
ATOM     67  C   UNL     1     -18.313   3.520   5.079  1.00  0.00     0.031 C 
ATOM     68  C   UNL     1     -17.358   7.667   0.723  1.00  0.00     0.029 A 
ATOM     69  C   UNL     1     -17.142   6.729   1.722  1.00  0.00     0.049 A 
ATOM     70  H   UNL     1     -15.310   6.034   2.505  1.00  0.00     0.167 HD
ATOM     71  C   UNL     1     -17.853   5.063   3.436  1.00  0.00     0.074 A 
ATOM     72  C   UNL     1     -18.860   4.327   4.179  1.00  0.00     0.031 C 
ATOM     73  C   UNL     1     -18.123   5.992   2.486  1.00  0.00     0.037 A 
BRANCH  60  74
ATOM     74  C   UNL     1     -13.135   8.611  -0.124  1.00  0.00     0.064 A 
ATOM     75  C   UNL     1     -12.366   8.175  -1.216  1.00  0.00     0.173 A 
ATOM     76  C   UNL     1     -13.366   9.989   0.000  1.00  0.00     0.173 A 
ATOM     77  F   UNL     1     -12.101   6.870  -1.378  1.00  0.00    -0.203 F 
ATOM     78  C   UNL     1     -11.819   9.083  -2.119  1.00  0.00     0.198 A 
ATOM     79  C   UNL     1     -12.847  10.892  -0.925  1.00  0.00     0.198 A 
ATOM     80  F   UNL     1     -14.095  10.464   1.021  1.00  0.00    -0.203 F 
ATOM     81  F   UNL     1     -11.035   8.645  -3.114  1.00  0.00    -0.200 F 
ATOM     82  C   UNL     1     -12.064  10.440  -1.977  1.00  0.00     0.200 A 
ATOM     83  F   UNL     1     -13.095  12.202  -0.793  1.00  0.00    -0.200 F 
ATOM     84  F   UNL     1     -11.537  11.312  -2.846  1.00  0.00    -0.200 F 
ENDBRANCH  60  74
BRANCH  61  85
ATOM     85  C   UNL     1     -16.376   1.875   6.598  1.00  0.00     0.064 A 
ATOM     86  C   UNL     1     -16.918   0.676   6.117  1.00  0.00     0.173 A 
ATOM     87  C   UNL     1     -16.172   1.993   7.982  1.00  0.00     0.173 A 
ATOM     88  F   UNL     1     -17.133   0.520   4.803  1.00  0.00    -0.203 F 
ATOM     89  C   UNL     1     -17.234  -0.368   6.983  1.00  0.00     0.198 A 
ATOM     90  C   UNL     1     -16.463   0.938   8.843  1.00  0.00     0.198 A 
ATOM     91  F   UNL     1     -15.637   3.114   8.488  1.00  0.00    -0.203 F 
ATOM     92  F   UNL     1     -17.757  -1.502   6.497  1.00  0.00    -0.200 F 
ATOM     93  C   UNL     1     -16.995  -0.241   8.343  1.00  0.00     0.200 A 
ATOM     94  F   UNL     1     -16.206   1.055  10.153  1.00  0.00    -0.200 F 
ATOM     95  F   UNL     1     -17.270  -1.258   9.171  1.00  0.00    -0.200 F 
ENDBRANCH  61  85
BRANCH  73  96
ATOM     96  C   UNL     1     -19.569   6.265   2.192  1.00  0.00     0.064 A 
ATOM     97  C   UNL     1     -20.386   6.949   3.104  1.00  0.00     0.173 A 
ATOM     98  C   UNL     1     -20.125   5.899   0.956  1.00  0.00     0.173 A 
ATOM     99  F   UNL     1     -19.906   7.304   4.306  1.00  0.00    -0.203 F 
ATOM    100  C   UNL     1     -21.711   7.243   2.796  1.00  0.00     0.198 A 
ATOM    101  C   UNL     1     -21.439   6.227   0.638  1.00  0.00     0.198 A 
ATOM    102  F   UNL     1     -19.384   5.248   0.047  1.00  0.00    -0.203 F 
ATOM    103  F   UNL     1     -22.485   7.861   3.699  1.00  0.00    -0.200 F 
ATOM    104  C   UNL     1     -22.232   6.894   1.559  1.00  0.00     0.200 A 
ATOM    105  F   UNL     1     -21.935   5.904  -0.565  1.00  0.00    -0.200 F 
ATOM    106  F   UNL     1     -23.501   7.197   1.256  1.00  0.00    -0.200 F 
ENDBRANCH  73  96
ENDBRANCH  47  48
ENDBRANCH  40  42
ENDBRANCH  39  40
ENDBRANCH  38  39
ENDBRANCH  37  38
ENDBRANCH  36  37
ENDBRANCH   1  36
TORSDOF 20
