REMARK SMILES O=C(OCCOCCOC(=O)c1cc(-c2ccc[nH]c2=O)ccc1Cl)c1ccc(-c2c3nc(c(-c4c(F)c(F)c(F)c(F)c4F)c4ccc([nH]4)c(-c4c(F)c(F)c(F)c(F)c4F)c4nc(c(-c5c(F)c(F)c(F)c(F)c5F)c5ccc2[nH]5)C=C4)C=C3)cc1
REMARK SMILES IDX 5 1 4 2 3 3 2 4 1 5 26 6 27 7 88 8 28 9 87 10 29 11 30 12
REMARK SMILES IDX 31 13 81 14 32 15 86 16 80 17 82 18 33 19 85 20 79 21 78 22
REMARK SMILES IDX 34 24 66 25 46 26 65 27 47 28 50 29 64 30 83 31 48 32 49 33
REMARK SMILES IDX 63 35 84 36 51 37 35 38 36 39 44 40 37 41 38 42 42 43 45 44
REMARK SMILES IDX 39 45 40 46 43 47 41 48 67 49 68 50 76 51 69 52 70 53 74 54
REMARK SMILES IDX 77 55 71 56 72 57 75 58 73 59 52 60 53 61 61 62 54 63 55 64
REMARK SMILES IDX 59 65 62 66 56 67 57 68 60 69 58 70 6 71 7 72 8 73 9 74
REMARK SMILES IDX 10 75 11 76 12 77 13 78 24 79 14 80 23 81 25 82 22 83 15 84
REMARK SMILES IDX 16 85 20 86 17 87 19 88 21 89 18 90
REMARK H PARENT 82 23 50 34 19 91
REMARK Flexibility Score: inf
ROOT
ATOM      1  C   UNL     1       4.354   0.544  -1.691  1.00  0.00     0.202 C 
ENDROOT
BRANCH   1   2
ATOM      2  C   UNL     1       4.026  -0.834  -1.108  1.00  0.00     0.261 C 
BRANCH   2   3
ATOM      3  O   UNL     1       2.648  -0.893  -0.705  1.00  0.00    -0.460 OA
BRANCH   3   4
ATOM      4  C   UNL     1       2.129  -0.858   0.544  1.00  0.00     0.338 C 
ATOM      5  O   UNL     1       0.917  -1.010   0.681  1.00  0.00    -0.246 OA
BRANCH   4   6
ATOM      6  C   UNL     1       2.946  -0.651   1.779  1.00  0.00     0.060 A 
ATOM      7  C   UNL     1       4.157   0.039   1.829  1.00  0.00     0.016 A 
ATOM      8  C   UNL     1       2.398  -1.104   2.992  1.00  0.00     0.016 A 
ATOM      9  C   UNL     1       4.838   0.231   3.022  1.00  0.00     0.010 A 
ATOM     10  C   UNL     1       3.055  -0.880   4.207  1.00  0.00     0.010 A 
ATOM     11  C   UNL     1       4.286  -0.219   4.217  1.00  0.00    -0.014 A 
BRANCH  11  12
ATOM     12  C   UNL     1       5.080  -0.041   5.443  1.00  0.00     0.031 A 
ATOM     13  C   UNL     1       5.830  -1.214   5.985  1.00  0.00     0.074 A 
ATOM     14  C   UNL     1       5.227   1.194   5.955  1.00  0.00     0.049 A 
ATOM     15  N   UNL     1       6.589  -1.294   7.044  1.00  0.00    -0.248 NA
ATOM     16  C   UNL     1       5.727  -2.466   5.217  1.00  0.00     0.031 C 
ATOM     17  C   UNL     1       4.623   2.409   5.403  1.00  0.00     0.029 A 
ATOM     18  N   UNL     1       5.954   1.639   7.025  1.00  0.00    -0.354 N 
ATOM     19  C   UNL     1       7.032  -2.608   7.084  1.00  0.00     0.074 A 
ATOM     20  C   UNL     1       6.463  -3.291   5.945  1.00  0.00     0.031 C 
ATOM     21  C   UNL     1       5.025   3.466   6.127  1.00  0.00     0.029 A 
ATOM     22  C   UNL     1       5.858   2.994   7.227  1.00  0.00     0.049 A 
ATOM     23  H   UNL     1       6.495   1.045   7.595  1.00  0.00     0.167 HD
ATOM     24  C   UNL     1       7.837  -3.184   8.006  1.00  0.00     0.037 A 
ATOM     25  C   UNL     1       6.365   3.752   8.216  1.00  0.00     0.037 A 
ATOM     26  C   UNL     1       8.383  -2.473   9.130  1.00  0.00     0.049 A 
ATOM     27  C   UNL     1       7.187   3.069   9.275  1.00  0.00     0.074 A 
ATOM     28  C   UNL     1       9.153  -2.954  10.171  1.00  0.00     0.029 A 
ATOM     29  N   UNL     1       8.206  -1.112   9.353  1.00  0.00    -0.354 N 
ATOM     30  N   UNL     1       7.549   1.810   9.354  1.00  0.00    -0.248 NA
ATOM     31  C   UNL     1       7.657   3.901  10.389  1.00  0.00     0.031 C 
ATOM     32  C   UNL     1       9.407  -1.892  11.047  1.00  0.00     0.029 A 
ATOM     33  C   UNL     1       8.838  -0.739  10.526  1.00  0.00     0.049 A 
ATOM     34  H   UNL     1       7.706  -0.504   8.763  1.00  0.00     0.167 HD
ATOM     35  C   UNL     1       8.295   1.697  10.517  1.00  0.00     0.074 A 
ATOM     36  C   UNL     1       8.354   3.024  11.099  1.00  0.00     0.031 C 
ATOM     37  C   UNL     1       8.873   0.599  11.064  1.00  0.00     0.037 A 
BRANCH  24  38
ATOM     38  C   UNL     1       8.090  -4.654   7.866  1.00  0.00     0.064 A 
ATOM     39  C   UNL     1       8.912  -5.177   6.856  1.00  0.00     0.173 A 
ATOM     40  C   UNL     1       7.461  -5.560   8.734  1.00  0.00     0.173 A 
ATOM     41  F   UNL     1       9.511  -4.356   5.981  1.00  0.00    -0.203 F 
ATOM     42  C   UNL     1       9.071  -6.553   6.703  1.00  0.00     0.198 A 
ATOM     43  C   UNL     1       7.642  -6.933   8.593  1.00  0.00     0.198 A 
ATOM     44  F   UNL     1       6.656  -5.113   9.709  1.00  0.00    -0.203 F 
ATOM     45  F   UNL     1       9.812  -7.032   5.694  1.00  0.00    -0.200 F 
ATOM     46  C   UNL     1       8.438  -7.429   7.573  1.00  0.00     0.200 A 
ATOM     47  F   UNL     1       7.029  -7.777   9.435  1.00  0.00    -0.200 F 
ATOM     48  F   UNL     1       8.583  -8.752   7.416  1.00  0.00    -0.200 F 
ENDBRANCH  24  38
BRANCH  25  49
ATOM     49  C   UNL     1       6.066   5.209   8.272  1.00  0.00     0.064 A 
ATOM     50  C   UNL     1       7.077   6.169   8.130  1.00  0.00     0.173 A 
ATOM     51  C   UNL     1       4.756   5.672   8.473  1.00  0.00     0.173 A 
ATOM     52  F   UNL     1       8.350   5.782   7.960  1.00  0.00    -0.203 F 
ATOM     53  C   UNL     1       6.791   7.533   8.199  1.00  0.00     0.198 A 
ATOM     54  C   UNL     1       4.466   7.034   8.510  1.00  0.00     0.198 A 
ATOM     55  F   UNL     1       3.749   4.798   8.620  1.00  0.00    -0.203 F 
ATOM     56  F   UNL     1       7.783   8.429   8.104  1.00  0.00    -0.200 F 
ATOM     57  C   UNL     1       5.486   7.964   8.381  1.00  0.00     0.200 A 
ATOM     58  F   UNL     1       3.201   7.444   8.673  1.00  0.00    -0.200 F 
ATOM     59  F   UNL     1       5.211   9.274   8.442  1.00  0.00    -0.200 F 
ENDBRANCH  25  49
BRANCH  37  60
ATOM     60  C   UNL     1       9.631   0.800  12.341  1.00  0.00     0.064 A 
ATOM     61  C   UNL     1       8.969   1.012  13.558  1.00  0.00     0.173 A 
ATOM     62  C   UNL     1      11.031   0.726  12.350  1.00  0.00     0.173 A 
ATOM     63  F   UNL     1       7.631   1.105  13.593  1.00  0.00    -0.203 F 
ATOM     64  C   UNL     1       9.686   1.163  14.741  1.00  0.00     0.198 A 
ATOM     65  C   UNL     1      11.743   0.848  13.539  1.00  0.00     0.198 A 
ATOM     66  F   UNL     1      11.705   0.517  11.209  1.00  0.00    -0.203 F 
ATOM     67  F   UNL     1       9.039   1.405  15.888  1.00  0.00    -0.200 F 
ATOM     68  C   UNL     1      11.071   1.072  14.731  1.00  0.00     0.200 A 
ATOM     69  F   UNL     1      13.079   0.747  13.530  1.00  0.00    -0.200 F 
ATOM     70  F   UNL     1      11.759   1.206  15.873  1.00  0.00    -0.200 F 
ENDBRANCH  37  60
ENDBRANCH  11  12
ENDBRANCH   4   6
ENDBRANCH   3   4
ENDBRANCH   2   3
ENDBRANCH   1   2
BRANCH   1  71
ATOM     71  O   UNL     1       4.152   1.623  -0.778  1.00  0.00    -0.374 OA
BRANCH  71  72
ATOM     72  C   UNL     1       2.829   2.175  -0.761  1.00  0.00     0.202 C 
BRANCH  72  73
ATOM     73  C   UNL     1       2.904   3.668  -1.074  1.00  0.00     0.261 C 
BRANCH  73  74
ATOM     74  O   UNL     1       3.400   3.808  -2.413  1.00  0.00    -0.460 OA
BRANCH  74  75
ATOM     75  C   UNL     1       4.737   3.991  -2.540  1.00  0.00     0.339 C 
ATOM     76  O   UNL     1       5.535   4.275  -1.663  1.00  0.00    -0.246 OA
BRANCH  75  77
ATOM     77  C   UNL     1       5.122   3.503  -3.878  1.00  0.00     0.079 A 
ATOM     78  C   UNL     1       6.153   2.546  -3.926  1.00  0.00     0.026 A 
ATOM     79  C   UNL     1       4.451   3.875  -5.047  1.00  0.00     0.055 A 
ATOM     80  C   UNL     1       6.471   1.912  -5.132  1.00  0.00    -0.012 A 
ATOM     81  C   UNL     1       4.776   3.247  -6.251  1.00  0.00     0.022 A 
ATOM     82  Cl  UNL     1       3.248   5.113  -5.096  1.00  0.00    -0.083 Cl
ATOM     83  C   UNL     1       5.769   2.264  -6.291  1.00  0.00     0.010 A 
BRANCH  80  84
ATOM     84  C   UNL     1       7.507   0.874  -5.208  1.00  0.00     0.047 A 
ATOM     85  C   UNL     1       7.238  -0.400  -4.863  1.00  0.00     0.016 A 
ATOM     86  C   UNL     1       8.867   1.193  -5.767  1.00  0.00     0.255 A 
ATOM     87  C   UNL     1       8.221  -1.448  -5.032  1.00  0.00     0.019 A 
ATOM     88  N   UNL     1       9.727   0.127  -5.902  1.00  0.00    -0.329 N 
ATOM     89  O   UNL     1       9.192   2.329  -6.096  1.00  0.00    -0.269 OA
ATOM     90  C   UNL     1       9.421  -1.160  -5.551  1.00  0.00     0.086 A 
ATOM     91  H   UNL     1      10.621   0.302  -6.276  1.00  0.00     0.169 HD
ENDBRANCH  80  84
ENDBRANCH  75  77
ENDBRANCH  74  75
ENDBRANCH  73  74
ENDBRANCH  72  73
ENDBRANCH  71  72
ENDBRANCH   1  71
TORSDOF 15
