REMARK SMILES CCNC(=O)c1cccc(-c2ccc(Cl)c(C(=O)OCCOCCOC(=O)c3ccc(-c4c5nc(c(-c6c(F)c(F)c(F)c(F)c6F)c6ccc([nH]6)c(-c6c(F)c(F)c(F)c(F)c6F)c6nc(c(-c7c(F)c(F)c(F)c(F)c7F)c7ccc4[nH]7)C=C6)C=C5)cc3)c2)c1
REMARK SMILES IDX 21 1 20 2 19 3 17 4 18 5 16 6 11 7 12 8 91 9 13 10 14 11
REMARK SMILES IDX 15 12 10 13 6 14 7 15 92 16 8 17 9 18 4 19 3 20 5 22 2 23
REMARK SMILES IDX 1 24 22 25 23 26 24 27 25 28 26 29 27 30 28 31 29 32 90 33
REMARK SMILES IDX 30 34 89 35 31 36 32 37 33 38 83 39 34 40 88 41 82 42 84 43
REMARK SMILES IDX 35 44 87 45 81 46 80 47 36 49 68 50 48 51 67 52 49 53 52 54
REMARK SMILES IDX 66 55 85 56 50 57 51 58 65 60 86 61 53 62 37 63 38 64 46 65
REMARK SMILES IDX 39 66 40 67 44 68 47 69 41 70 42 71 45 72 43 73 69 74 70 75
REMARK SMILES IDX 78 76 71 77 72 78 76 79 79 80 73 81 74 82 77 83 75 84 54 85
REMARK SMILES IDX 55 86 63 87 56 88 57 89 61 90 64 91 58 92 59 93 62 94 60 95
REMARK H PARENT 3 21 84 48 52 59
REMARK Flexibility Score: inf
ROOT
ATOM      1  C   UNL     1      -3.604  -2.286   9.294  1.00  0.00     0.202 C 
ENDROOT
BRANCH   1   2
ATOM      2  C   UNL     1      -2.566  -2.763   8.275  1.00  0.00     0.261 C 
BRANCH   2   3
ATOM      3  O   UNL     1      -2.852  -2.207   6.983  1.00  0.00    -0.460 OA
BRANCH   3   4
ATOM      4  C   UNL     1      -3.019  -3.106   5.980  1.00  0.00     0.339 C 
ATOM      5  O   UNL     1      -2.720  -4.285   6.002  1.00  0.00    -0.246 OA
BRANCH   4   6
ATOM      6  C   UNL     1      -3.706  -2.428   4.857  1.00  0.00     0.079 A 
ATOM      7  C   UNL     1      -3.867  -0.464   3.392  1.00  0.00    -0.017 A 
ATOM      8  C   UNL     1      -4.917  -1.106   2.716  1.00  0.00     0.010 A 
ATOM      9  C   UNL     1      -3.282  -1.143   4.477  1.00  0.00     0.026 A 
ATOM     10  C   UNL     1      -5.372  -2.368   3.113  1.00  0.00     0.022 A 
ATOM     11  C   UNL     1      -4.771  -3.032   4.184  1.00  0.00     0.055 A 
ATOM     12  Cl  UNL     1      -5.453  -4.546   4.653  1.00  0.00    -0.083 Cl
BRANCH   7  13
ATOM     13  C   UNL     1      -3.347   0.843   2.944  1.00  0.00    -0.018 A 
ATOM     14  C   UNL     1      -1.432   2.269   2.416  1.00  0.00     0.040 A 
ATOM     15  C   UNL     1      -2.286   3.282   1.978  1.00  0.00     0.014 A 
ATOM     16  C   UNL     1      -1.963   1.085   2.935  1.00  0.00     0.022 A 
ATOM     17  C   UNL     1      -3.664   3.080   2.010  1.00  0.00     0.001 A 
ATOM     18  C   UNL     1      -4.187   1.869   2.477  1.00  0.00     0.009 A 
BRANCH  14  19
ATOM     19  C   UNL     1       0.030   2.486   2.374  1.00  0.00     0.251 C 
ATOM     20  N   UNL     1       0.873   1.498   1.926  1.00  0.00    -0.352 N 
ATOM     21  H   UNL     1       1.830   1.670   2.080  1.00  0.00     0.163 HD
ATOM     22  O   UNL     1       0.489   3.562   2.748  1.00  0.00    -0.269 OA
BRANCH  20  23
ATOM     23  C   UNL     1       0.577   0.239   1.261  1.00  0.00     0.112 C 
ATOM     24  C   UNL     1       1.226   0.177  -0.108  1.00  0.00     0.027 C 
ENDBRANCH  20  23
ENDBRANCH  14  19
ENDBRANCH   7  13
ENDBRANCH   4   6
ENDBRANCH   3   4
ENDBRANCH   2   3
ENDBRANCH   1   2
BRANCH   1  25
ATOM     25  O   UNL     1      -4.953  -2.693   9.065  1.00  0.00    -0.374 OA
BRANCH  25  26
ATOM     26  C   UNL     1      -5.686  -2.024   8.039  1.00  0.00     0.202 C 
BRANCH  26  27
ATOM     27  C   UNL     1      -6.238  -0.633   8.370  1.00  0.00     0.261 C 
BRANCH  27  28
ATOM     28  O   UNL     1      -5.202   0.324   8.651  1.00  0.00    -0.460 OA
BRANCH  28  29
ATOM     29  C   UNL     1      -5.098   0.666   9.958  1.00  0.00     0.338 C 
ATOM     30  O   UNL     1      -5.810   0.303  10.879  1.00  0.00    -0.246 OA
BRANCH  29  31
ATOM     31  C   UNL     1      -3.867   1.446  10.182  1.00  0.00     0.060 A 
ATOM     32  C   UNL     1      -2.996   1.002  11.185  1.00  0.00     0.016 A 
ATOM     33  C   UNL     1      -3.620   2.639   9.501  1.00  0.00     0.016 A 
ATOM     34  C   UNL     1      -1.906   1.782  11.557  1.00  0.00     0.010 A 
ATOM     35  C   UNL     1      -2.526   3.425   9.880  1.00  0.00     0.010 A 
ATOM     36  C   UNL     1      -1.692   3.022  10.939  1.00  0.00    -0.014 A 
BRANCH  36  37
ATOM     37  C   UNL     1      -0.708   3.966  11.522  1.00  0.00     0.031 A 
ATOM     38  C   UNL     1      -1.206   5.085  12.395  1.00  0.00     0.074 A 
ATOM     39  C   UNL     1       0.610   3.808  11.311  1.00  0.00     0.049 A 
ATOM     40  N   UNL     1      -0.538   6.041  12.988  1.00  0.00    -0.248 NA
ATOM     41  C   UNL     1      -2.658   5.131  12.631  1.00  0.00     0.031 C 
ATOM     42  C   UNL     1       1.216   2.738  10.523  1.00  0.00     0.029 A 
ATOM     43  N   UNL     1       1.675   4.555  11.744  1.00  0.00    -0.354 N 
ATOM     44  C   UNL     1      -1.485   6.804  13.658  1.00  0.00     0.074 A 
ATOM     45  C   UNL     1      -2.779   6.223  13.370  1.00  0.00     0.031 C 
ATOM     46  C   UNL     1       2.550   2.900  10.523  1.00  0.00     0.029 A 
ATOM     47  C   UNL     1       2.886   4.102  11.284  1.00  0.00     0.049 A 
ATOM     48  H   UNL     1       1.581   5.342  12.329  1.00  0.00     0.167 HD
ATOM     49  C   UNL     1      -1.294   7.885  14.452  1.00  0.00     0.037 A 
ATOM     50  C   UNL     1       4.122   4.614  11.446  1.00  0.00     0.037 A 
ATOM     51  C   UNL     1      -0.005   8.462  14.734  1.00  0.00     0.049 A 
ATOM     52  C   UNL     1       4.302   5.861  12.272  1.00  0.00     0.074 A 
ATOM     53  C   UNL     1       0.298   9.555  15.527  1.00  0.00     0.029 A 
ATOM     54  N   UNL     1       1.197   7.993  14.224  1.00  0.00    -0.354 N 
ATOM     55  N   UNL     1       3.405   6.568  12.917  1.00  0.00    -0.248 NA
ATOM     56  C   UNL     1       5.673   6.378  12.398  1.00  0.00     0.031 C 
ATOM     57  C   UNL     1       1.677   9.778  15.456  1.00  0.00     0.029 A 
ATOM     58  C   UNL     1       2.242   8.787  14.670  1.00  0.00     0.049 A 
ATOM     59  H   UNL     1       1.294   7.212  13.633  1.00  0.00     0.167 HD
ATOM     60  C   UNL     1       4.104   7.584  13.556  1.00  0.00     0.074 A 
ATOM     61  C   UNL     1       5.502   7.399  13.226  1.00  0.00     0.031 C 
ATOM     62  C   UNL     1       3.632   8.578  14.349  1.00  0.00     0.037 A 
BRANCH  49  63
ATOM     63  C   UNL     1      -2.513   8.530  15.047  1.00  0.00     0.064 A 
ATOM     64  C   UNL     1      -3.269   7.898  16.047  1.00  0.00     0.173 A 
ATOM     65  C   UNL     1      -2.922   9.803  14.624  1.00  0.00     0.173 A 
ATOM     66  F   UNL     1      -2.931   6.673  16.478  1.00  0.00    -0.203 F 
ATOM     67  C   UNL     1      -4.407   8.503  16.575  1.00  0.00     0.198 A 
ATOM     68  C   UNL     1      -4.041  10.419  15.178  1.00  0.00     0.198 A 
ATOM     69  F   UNL     1      -2.233  10.454  13.675  1.00  0.00    -0.203 F 
ATOM     70  F   UNL     1      -5.146   7.856  17.488  1.00  0.00    -0.200 F 
ATOM     71  C   UNL     1      -4.788   9.765  16.145  1.00  0.00     0.200 A 
ATOM     72  F   UNL     1      -4.400  11.645  14.771  1.00  0.00    -0.200 F 
ATOM     73  F   UNL     1      -5.881  10.347  16.657  1.00  0.00    -0.200 F 
ENDBRANCH  49  63
BRANCH  50  74
ATOM     74  C   UNL     1       5.291   3.944  10.818  1.00  0.00     0.064 A 
ATOM     75  C   UNL     1       6.269   3.315  11.601  1.00  0.00     0.173 A 
ATOM     76  C   UNL     1       5.463   3.933   9.426  1.00  0.00     0.173 A 
ATOM     77  F   UNL     1       6.162   3.321  12.938  1.00  0.00    -0.203 F 
ATOM     78  C   UNL     1       7.384   2.717  11.017  1.00  0.00     0.198 A 
ATOM     79  C   UNL     1       6.563   3.309   8.841  1.00  0.00     0.198 A 
ATOM     80  F   UNL     1       4.557   4.521   8.632  1.00  0.00    -0.203 F 
ATOM     81  F   UNL     1       8.328   2.166  11.791  1.00  0.00    -0.200 F 
ATOM     82  C   UNL     1       7.527   2.709   9.638  1.00  0.00     0.200 A 
ATOM     83  F   UNL     1       6.692   3.292   7.508  1.00  0.00    -0.200 F 
ATOM     84  F   UNL     1       8.598   2.131   9.076  1.00  0.00    -0.200 F 
ENDBRANCH  50  74
BRANCH  62  85
ATOM     85  C   UNL     1       4.638   9.506  14.969  1.00  0.00     0.064 A 
ATOM     86  C   UNL     1       5.348  10.449  14.211  1.00  0.00     0.173 A 
ATOM     87  C   UNL     1       4.868   9.472  16.354  1.00  0.00     0.173 A 
ATOM     88  F   UNL     1       5.176  10.515  12.882  1.00  0.00    -0.203 F 
ATOM     89  C   UNL     1       6.273  11.300  14.811  1.00  0.00     0.198 A 
ATOM     90  C   UNL     1       5.768  10.347  16.955  1.00  0.00     0.198 A 
ATOM     91  F   UNL     1       4.210   8.595  17.128  1.00  0.00    -0.203 F 
ATOM     92  F   UNL     1       6.979  12.156  14.059  1.00  0.00    -0.200 F 
ATOM     93  C   UNL     1       6.476  11.254  16.182  1.00  0.00     0.200 A 
ATOM     94  F   UNL     1       5.951  10.311  18.282  1.00  0.00    -0.200 F 
ATOM     95  F   UNL     1       7.362  12.078  16.758  1.00  0.00    -0.200 F 
ENDBRANCH  62  85
ENDBRANCH  36  37
ENDBRANCH  29  31
ENDBRANCH  28  29
ENDBRANCH  27  28
ENDBRANCH  26  27
ENDBRANCH  25  26
ENDBRANCH   1  25
TORSDOF 17
