REMARK SMILES Cc1cc(NC(=O)N2CCO[C@@H](CC(=O)OCCOCCOC(=O)c3ccc(-c4c5nc(c(-c6c(F)c(F)c(F)c(F)c6F)c6ccc([nH]6)c(-c6c(F)c(F)c(F)c(F)c6F)c6nc(c(-c7c(F)c(F)c(F)c(F)c7F)c7ccc4[nH]7)C=C6)C=C5)cc3)C2)ccc1F
REMARK SMILES IDX 18 1 17 2 16 3 14 4 15 5 13 6 12 7 8 8 9 9 88 10 10 11 11 12
REMARK SMILES IDX 6 13 5 14 7 16 4 17 1 18 2 19 3 20 91 21 90 22 92 23 89 24
REMARK SMILES IDX 19 25 20 26 21 27 22 28 23 29 24 30 25 31 26 32 87 33 27 34
REMARK SMILES IDX 86 35 28 36 29 37 30 38 80 39 31 40 85 41 79 42 81 43 32 44
REMARK SMILES IDX 84 45 78 46 77 47 33 49 65 50 45 51 64 52 46 53 49 54 63 55
REMARK SMILES IDX 82 56 47 57 48 58 62 60 83 61 50 62 34 63 35 64 43 65 36 66
REMARK SMILES IDX 37 67 41 68 44 69 38 70 39 71 42 72 40 73 66 74 67 75 75 76
REMARK SMILES IDX 68 77 69 78 73 79 76 80 70 81 71 82 74 83 72 84 51 85 52 86
REMARK SMILES IDX 60 87 53 88 54 89 58 90 61 91 55 92 56 93 59 94 57 95
REMARK H PARENT 5 15 81 48 49 59
REMARK Flexibility Score: inf
ROOT
ATOM      1  C   UNL     1      -7.977  -3.839  -4.177  1.00  0.00     0.202 C 
ENDROOT
BRANCH   1   2
ATOM      2  C   UNL     1      -8.371  -4.031  -2.711  1.00  0.00     0.261 C 
BRANCH   2   3
ATOM      3  O   UNL     1      -7.283  -3.906  -1.771  1.00  0.00    -0.463 OA
BRANCH   3   4
ATOM      4  C   UNL     1      -6.978  -5.059  -1.124  1.00  0.00     0.308 C 
ATOM      5  O   UNL     1      -7.491  -6.147  -1.366  1.00  0.00    -0.252 OA
BRANCH   4   6
ATOM      6  C   UNL     1      -6.000  -4.906   0.004  1.00  0.00     0.156 C 
BRANCH   6   7
ATOM      7  C   UNL     1      -4.894  -3.857  -0.051  1.00  0.00     0.149 C 
ATOM      8  N   UNL     1      -4.246  -1.530   0.575  1.00  0.00    -0.320 N 
ATOM      9  C   UNL     1      -3.326  -2.073   1.577  1.00  0.00     0.150 C 
ATOM     10  C   UNL     1      -5.376  -2.424   0.278  1.00  0.00     0.154 C 
ATOM     11  C   UNL     1      -2.842  -3.453   1.154  1.00  0.00     0.182 C 
ATOM     12  O   UNL     1      -3.952  -4.328   0.952  1.00  0.00    -0.374 OA
BRANCH   8  13
ATOM     13  C   UNL     1      -4.380  -0.176   0.392  1.00  0.00     0.322 C 
ATOM     14  N   UNL     1      -3.269   0.612   0.289  1.00  0.00    -0.308 N 
ATOM     15  H   UNL     1      -3.423   1.555   0.527  1.00  0.00     0.171 HD
ATOM     16  O   UNL     1      -5.485   0.366   0.339  1.00  0.00    -0.248 OA
BRANCH  14  17
ATOM     17  C   UNL     1      -1.943   0.329  -0.095  1.00  0.00     0.043 A 
ATOM     18  C   UNL     1       1.455   2.042   0.240  1.00  0.00     0.047 C 
ATOM     19  C   UNL     1       0.393   1.037  -0.088  1.00  0.00    -0.013 A 
ATOM     20  C   UNL     1      -0.962   1.294   0.177  1.00  0.00     0.032 A 
ATOM     21  C   UNL     1       0.748  -0.206  -0.613  1.00  0.00     0.126 A 
ATOM     22  C   UNL     1      -0.218  -1.140  -0.959  1.00  0.00     0.041 A 
ATOM     23  F   UNL     1       2.040  -0.510  -0.801  1.00  0.00    -0.207 F 
ATOM     24  C   UNL     1      -1.566  -0.853  -0.736  1.00  0.00     0.029 A 
ENDBRANCH  14  17
ENDBRANCH   8  13
ENDBRANCH   6   7
ENDBRANCH   4   6
ENDBRANCH   3   4
ENDBRANCH   2   3
ENDBRANCH   1   2
BRANCH   1  25
ATOM     25  O   UNL     1      -7.022  -4.721  -4.757  1.00  0.00    -0.374 OA
BRANCH  25  26
ATOM     26  C   UNL     1      -5.691  -4.773  -4.255  1.00  0.00     0.202 C 
BRANCH  26  27
ATOM     27  C   UNL     1      -4.790  -3.564  -4.493  1.00  0.00     0.261 C 
BRANCH  27  28
ATOM     28  O   UNL     1      -5.313  -2.397  -3.867  1.00  0.00    -0.460 OA
BRANCH  28  29
ATOM     29  C   UNL     1      -5.883  -1.529  -4.734  1.00  0.00     0.338 C 
ATOM     30  O   UNL     1      -5.997  -1.641  -5.940  1.00  0.00    -0.246 OA
BRANCH  29  31
ATOM     31  C   UNL     1      -6.363  -0.351  -4.008  1.00  0.00     0.060 A 
ATOM     32  C   UNL     1      -7.337   0.443  -4.631  1.00  0.00     0.016 A 
ATOM     33  C   UNL     1      -5.606   0.104  -2.934  1.00  0.00     0.016 A 
ATOM     34  C   UNL     1      -7.357   1.798  -4.362  1.00  0.00     0.010 A 
ATOM     35  C   UNL     1      -5.636   1.446  -2.658  1.00  0.00     0.010 A 
ATOM     36  C   UNL     1      -6.411   2.285  -3.466  1.00  0.00    -0.014 A 
BRANCH  36  37
ATOM     37  C   UNL     1      -5.917   3.644  -3.524  1.00  0.00     0.031 A 
ATOM     38  C   UNL     1      -6.420   4.668  -2.612  1.00  0.00     0.074 A 
ATOM     39  C   UNL     1      -4.843   3.856  -4.316  1.00  0.00     0.049 A 
ATOM     40  N   UNL     1      -6.295   5.931  -2.828  1.00  0.00    -0.248 NA
ATOM     41  C   UNL     1      -7.135   4.348  -1.385  1.00  0.00     0.031 C 
ATOM     42  C   UNL     1      -3.902   4.966  -4.268  1.00  0.00     0.029 A 
ATOM     43  N   UNL     1      -4.461   3.117  -5.451  1.00  0.00    -0.354 N 
ATOM     44  C   UNL     1      -6.636   6.576  -1.667  1.00  0.00     0.074 A 
ATOM     45  C   UNL     1      -7.234   5.560  -0.828  1.00  0.00     0.031 C 
ATOM     46  C   UNL     1      -3.220   5.005  -5.425  1.00  0.00     0.029 A 
ATOM     47  C   UNL     1      -3.836   4.035  -6.316  1.00  0.00     0.049 A 
ATOM     48  H   UNL     1      -4.601   2.155  -5.607  1.00  0.00     0.167 HD
ATOM     49  C   UNL     1      -6.226   7.864  -1.490  1.00  0.00     0.037 A 
ATOM     50  C   UNL     1      -4.394   4.353  -7.521  1.00  0.00     0.037 A 
ATOM     51  C   UNL     1      -5.472   8.341  -2.647  1.00  0.00     0.049 A 
ATOM     52  C   UNL     1      -4.731   5.817  -7.658  1.00  0.00     0.074 A 
ATOM     53  C   UNL     1      -4.111   8.419  -2.901  1.00  0.00     0.029 A 
ATOM     54  N   UNL     1      -6.108   8.489  -3.876  1.00  0.00    -0.354 N 
ATOM     55  N   UNL     1      -4.993   6.603  -6.651  1.00  0.00    -0.248 NA
ATOM     56  C   UNL     1      -4.799   6.504  -8.942  1.00  0.00     0.031 C 
ATOM     57  C   UNL     1      -3.929   8.609  -4.291  1.00  0.00     0.029 A 
ATOM     58  C   UNL     1      -5.179   8.656  -4.885  1.00  0.00     0.049 A 
ATOM     59  H   UNL     1      -7.083   8.477  -4.008  1.00  0.00     0.167 HD
ATOM     60  C   UNL     1      -5.262   7.865  -7.116  1.00  0.00     0.074 A 
ATOM     61  C   UNL     1      -5.113   7.753  -8.555  1.00  0.00     0.031 C 
ATOM     62  C   UNL     1      -5.586   8.885  -6.264  1.00  0.00     0.037 A 
BRANCH  49  63
ATOM     63  C   UNL     1      -6.234   8.552  -0.147  1.00  0.00     0.064 A 
ATOM     64  C   UNL     1      -5.218   9.464   0.212  1.00  0.00     0.173 A 
ATOM     65  C   UNL     1      -7.197   8.315   0.850  1.00  0.00     0.173 A 
ATOM     66  F   UNL     1      -4.290   9.865  -0.666  1.00  0.00    -0.203 F 
ATOM     67  C   UNL     1      -5.108   9.995   1.498  1.00  0.00     0.198 A 
ATOM     68  C   UNL     1      -7.059   8.803   2.153  1.00  0.00     0.198 A 
ATOM     69  F   UNL     1      -8.320   7.636   0.578  1.00  0.00    -0.203 F 
ATOM     70  F   UNL     1      -4.111  10.845   1.782  1.00  0.00    -0.200 F 
ATOM     71  C   UNL     1      -6.006   9.634   2.480  1.00  0.00     0.200 A 
ATOM     72  F   UNL     1      -7.951   8.458   3.092  1.00  0.00    -0.200 F 
ATOM     73  F   UNL     1      -5.870  10.103   3.728  1.00  0.00    -0.200 F 
ENDBRANCH  49  63
BRANCH  50  74
ATOM     74  C   UNL     1      -5.189   3.251  -8.125  1.00  0.00     0.064 A 
ATOM     75  C   UNL     1      -4.517   2.112  -8.605  1.00  0.00     0.173 A 
ATOM     76  C   UNL     1      -6.571   3.149  -7.925  1.00  0.00     0.173 A 
ATOM     77  F   UNL     1      -3.190   2.154  -8.807  1.00  0.00    -0.203 F 
ATOM     78  C   UNL     1      -5.185   0.903  -8.804  1.00  0.00     0.198 A 
ATOM     79  C   UNL     1      -7.236   1.937  -8.120  1.00  0.00     0.198 A 
ATOM     80  F   UNL     1      -7.267   4.193  -7.452  1.00  0.00    -0.203 F 
ATOM     81  F   UNL     1      -4.502  -0.179  -9.204  1.00  0.00    -0.200 F 
ATOM     82  C   UNL     1      -6.542   0.812  -8.540  1.00  0.00     0.200 A 
ATOM     83  F   UNL     1      -8.544   1.841  -7.837  1.00  0.00    -0.200 F 
ATOM     84  F   UNL     1      -7.179  -0.360  -8.675  1.00  0.00    -0.200 F 
ENDBRANCH  50  74
BRANCH  62  85
ATOM     85  C   UNL     1      -6.199  10.226  -6.623  1.00  0.00     0.064 A 
ATOM     86  C   UNL     1      -6.851  10.506  -7.835  1.00  0.00     0.173 A 
ATOM     87  C   UNL     1      -6.274  11.263  -5.655  1.00  0.00     0.173 A 
ATOM     88  F   UNL     1      -6.976   9.586  -8.798  1.00  0.00    -0.203 F 
ATOM     89  C   UNL     1      -7.468  11.738  -8.084  1.00  0.00     0.198 A 
ATOM     90  C   UNL     1      -6.948  12.463  -5.881  1.00  0.00     0.198 A 
ATOM     91  F   UNL     1      -5.725  11.140  -4.438  1.00  0.00    -0.203 F 
ATOM     92  F   UNL     1      -8.034  11.964  -9.277  1.00  0.00    -0.200 F 
ATOM     93  C   UNL     1      -7.530  12.709  -7.104  1.00  0.00     0.200 A 
ATOM     94  F   UNL     1      -7.047  13.366  -4.895  1.00  0.00    -0.200 F 
ATOM     95  F   UNL     1      -8.170  13.864  -7.328  1.00  0.00    -0.200 F 
ENDBRANCH  62  85
ENDBRANCH  36  37
ENDBRANCH  29  31
ENDBRANCH  28  29
ENDBRANCH  27  28
ENDBRANCH  26  27
ENDBRANCH  25  26
ENDBRANCH   1  25
TORSDOF 17
