REMARK SMILES O=C(Cc1ccc(S(=O)(=O)C[C@H]2CCCO2)cc1)OCCOCCOC(=O)c1ccc(-c2c3nc(c(-c4c(F)c(F)c(F)c(F)c4F)c4ccc([nH]4)c(-c4c(F)c(F)c(F)c(F)c4F)c4nc(c(-c5c(F)c(F)c(F)c(F)c5F)c5ccc2[nH]5)C=C4)C=C3)cc1
REMARK SMILES IDX 21 1 20 2 19 3 2 4 1 5 3 6 4 7 5 8 18 9 6 10 17 11 7 12 8 13
REMARK SMILES IDX 9 14 10 15 11 16 12 17 13 18 16 19 14 20 15 21 22 22 23 23
REMARK SMILES IDX 24 24 25 25 26 26 27 27 28 28 29 29 90 30 30 31 89 32 31 33
REMARK SMILES IDX 32 34 33 35 83 36 34 37 88 38 82 39 84 40 35 41 87 42 81 43
REMARK SMILES IDX 80 44 36 46 68 47 48 48 67 49 49 50 52 51 66 52 85 53 50 54
REMARK SMILES IDX 51 55 65 57 86 58 53 59 37 60 38 61 46 62 39 63 40 64 44 65
REMARK SMILES IDX 47 66 41 67 42 68 45 69 43 70 69 71 70 72 78 73 71 74 72 75
REMARK SMILES IDX 76 76 79 77 73 78 74 79 77 80 75 81 54 82 55 83 63 84 56 85
REMARK SMILES IDX 57 86 61 87 64 88 58 89 59 90 62 91 60 92
REMARK H PARENT 84 45 52 56
REMARK Flexibility Score: inf
ROOT
ATOM      1  C   UNL     1       6.424  -0.488   1.652  1.00  0.00     0.202 C 
ENDROOT
BRANCH   1   2
ATOM      2  C   UNL     1       6.814   0.058   0.282  1.00  0.00     0.261 C 
BRANCH   2   3
ATOM      3  O   UNL     1       6.667   1.480   0.172  1.00  0.00    -0.463 OA
BRANCH   3   4
ATOM      4  C   UNL     1       5.593   2.128  -0.336  1.00  0.00     0.310 C 
ATOM      5  O   UNL     1       5.712   3.318  -0.634  1.00  0.00    -0.252 OA
BRANCH   4   6
ATOM      6  C   UNL     1       4.239   1.451  -0.432  1.00  0.00     0.158 C 
BRANCH   6   7
ATOM      7  C   UNL     1       4.057   0.477  -1.563  1.00  0.00    -0.037 A 
ATOM      8  C   UNL     1       3.852   0.946  -2.865  1.00  0.00     0.005 A 
ATOM      9  C   UNL     1       4.119  -0.907  -1.335  1.00  0.00     0.005 A 
ATOM     10  C   UNL     1       3.841   0.055  -3.937  1.00  0.00     0.020 A 
ATOM     11  C   UNL     1       4.156  -1.799  -2.404  1.00  0.00     0.020 A 
ATOM     12  C   UNL     1       4.063  -1.305  -3.706  1.00  0.00     0.067 A 
BRANCH  12  13
ATOM     13  S   UNL     1       4.319  -2.386  -5.091  1.00  0.00     0.180 S 
ATOM     14  O   UNL     1       3.134  -3.225  -5.153  1.00  0.00    -0.224 OA
ATOM     15  O   UNL     1       4.686  -1.570  -6.233  1.00  0.00    -0.224 OA
BRANCH  13  16
ATOM     16  C   UNL     1       5.688  -3.442  -4.710  1.00  0.00     0.174 C 
BRANCH  16  17
ATOM     17  C   UNL     1       7.051  -2.804  -4.475  1.00  0.00     0.133 C 
ATOM     18  C   UNL     1       7.862  -2.438  -5.707  1.00  0.00     0.035 C 
ATOM     19  O   UNL     1       6.993  -1.649  -3.636  1.00  0.00    -0.377 OA
ATOM     20  C   UNL     1       7.809  -0.935  -5.758  1.00  0.00     0.031 C 
ATOM     21  C   UNL     1       7.602  -0.539  -4.314  1.00  0.00     0.160 C 
ENDBRANCH  16  17
ENDBRANCH  13  16
ENDBRANCH  12  13
ENDBRANCH   6   7
ENDBRANCH   4   6
ENDBRANCH   3   4
ENDBRANCH   2   3
ENDBRANCH   1   2
BRANCH   1  22
ATOM     22  O   UNL     1       5.133  -0.118   2.130  1.00  0.00    -0.374 OA
BRANCH  22  23
ATOM     23  C   UNL     1       5.100   1.089   2.909  1.00  0.00     0.202 C 
BRANCH  23  24
ATOM     24  C   UNL     1       5.330   0.886   4.410  1.00  0.00     0.261 C 
BRANCH  24  25
ATOM     25  O   UNL     1       6.657   0.408   4.664  1.00  0.00    -0.460 OA
BRANCH  25  26
ATOM     26  C   UNL     1       6.771  -0.935   4.794  1.00  0.00     0.338 C 
ATOM     27  O   UNL     1       5.873  -1.756   4.877  1.00  0.00    -0.246 OA
BRANCH  26  28
ATOM     28  C   UNL     1       8.189  -1.294   4.592  1.00  0.00     0.060 A 
ATOM     29  C   UNL     1       8.480  -2.422   3.809  1.00  0.00     0.016 A 
ATOM     30  C   UNL     1       9.216  -0.512   5.125  1.00  0.00     0.016 A 
ATOM     31  C   UNL     1       9.803  -2.799   3.594  1.00  0.00     0.010 A 
ATOM     32  C   UNL     1      10.537  -0.892   4.915  1.00  0.00     0.010 A 
ATOM     33  C   UNL     1      10.831  -2.058   4.184  1.00  0.00    -0.014 A 
BRANCH  33  34
ATOM     34  C   UNL     1      12.207  -2.592   4.255  1.00  0.00     0.031 A 
ATOM     35  C   UNL     1      12.633  -3.231   5.543  1.00  0.00     0.074 A 
ATOM     36  C   UNL     1      13.070  -2.432   3.241  1.00  0.00     0.049 A 
ATOM     37  N   UNL     1      13.825  -3.575   5.950  1.00  0.00    -0.248 NA
ATOM     38  C   UNL     1      11.561  -3.488   6.519  1.00  0.00     0.031 C 
ATOM     39  C   UNL     1      12.748  -1.852   1.941  1.00  0.00     0.029 A 
ATOM     40  N   UNL     1      14.412  -2.707   3.173  1.00  0.00    -0.354 N 
ATOM     41  C   UNL     1      13.652  -4.054   7.242  1.00  0.00     0.074 A 
ATOM     42  C   UNL     1      12.246  -3.933   7.559  1.00  0.00     0.031 C 
ATOM     43  C   UNL     1      13.875  -1.773   1.213  1.00  0.00     0.029 A 
ATOM     44  C   UNL     1      14.998  -2.254   2.018  1.00  0.00     0.049 A 
ATOM     45  H   UNL     1      14.905  -3.181   3.881  1.00  0.00     0.167 HD
ATOM     46  C   UNL     1      14.588  -4.546   8.086  1.00  0.00     0.037 A 
ATOM     47  C   UNL     1      16.299  -2.192   1.677  1.00  0.00     0.037 A 
ATOM     48  C   UNL     1      15.982  -4.651   7.751  1.00  0.00     0.049 A 
ATOM     49  C   UNL     1      17.336  -2.701   2.645  1.00  0.00     0.074 A 
ATOM     50  C   UNL     1      17.016  -5.170   8.507  1.00  0.00     0.029 A 
ATOM     51  N   UNL     1      16.538  -4.209   6.557  1.00  0.00    -0.354 N 
ATOM     52  N   UNL     1      17.173  -3.186   3.853  1.00  0.00    -0.248 NA
ATOM     53  C   UNL     1      18.736  -2.659   2.202  1.00  0.00     0.031 C 
ATOM     54  C   UNL     1      18.207  -4.982   7.799  1.00  0.00     0.029 A 
ATOM     55  C   UNL     1      17.907  -4.414   6.569  1.00  0.00     0.049 A 
ATOM     56  H   UNL     1      16.034  -3.808   5.813  1.00  0.00     0.167 HD
ATOM     57  C   UNL     1      18.440  -3.535   4.303  1.00  0.00     0.074 A 
ATOM     58  C   UNL     1      19.363  -3.205   3.236  1.00  0.00     0.031 C 
ATOM     59  C   UNL     1      18.805  -4.087   5.488  1.00  0.00     0.037 A 
BRANCH  46  60
ATOM     60  C   UNL     1      14.131  -4.949   9.459  1.00  0.00     0.064 A 
ATOM     61  C   UNL     1      13.265  -6.034   9.669  1.00  0.00     0.173 A 
ATOM     62  C   UNL     1      14.550  -4.221  10.583  1.00  0.00     0.173 A 
ATOM     63  F   UNL     1      12.820  -6.755   8.629  1.00  0.00    -0.203 F 
ATOM     64  C   UNL     1      12.796  -6.342  10.944  1.00  0.00     0.198 A 
ATOM     65  C   UNL     1      14.111  -4.556  11.861  1.00  0.00     0.198 A 
ATOM     66  F   UNL     1      15.379  -3.176  10.443  1.00  0.00    -0.203 F 
ATOM     67  F   UNL     1      11.908  -7.332  11.109  1.00  0.00    -0.200 F 
ATOM     68  C   UNL     1      13.223  -5.606  12.039  1.00  0.00     0.200 A 
ATOM     69  F   UNL     1      14.534  -3.851  12.919  1.00  0.00    -0.200 F 
ATOM     70  F   UNL     1      12.767  -5.899  13.265  1.00  0.00    -0.200 F 
ENDBRANCH  46  60
BRANCH  47  71
ATOM     71  C   UNL     1      16.680  -1.610   0.365  1.00  0.00     0.064 A 
ATOM     72  C   UNL     1      17.160  -2.420  -0.672  1.00  0.00     0.173 A 
ATOM     73  C   UNL     1      16.527  -0.239   0.106  1.00  0.00     0.173 A 
ATOM     74  F   UNL     1      17.342  -3.733  -0.466  1.00  0.00    -0.203 F 
ATOM     75  C   UNL     1      17.474  -1.882  -1.918  1.00  0.00     0.198 A 
ATOM     76  C   UNL     1      16.816   0.293  -1.149  1.00  0.00     0.198 A 
ATOM     77  F   UNL     1      16.067   0.578   1.065  1.00  0.00    -0.203 F 
ATOM     78  F   UNL     1      17.953  -2.676  -2.886  1.00  0.00    -0.200 F 
ATOM     79  C   UNL     1      17.291  -0.529  -2.159  1.00  0.00     0.200 A 
ATOM     80  F   UNL     1      16.620   1.598  -1.382  1.00  0.00    -0.200 F 
ATOM     81  F   UNL     1      17.572  -0.017  -3.365  1.00  0.00    -0.200 F 
ENDBRANCH  47  71
BRANCH  59  82
ATOM     82  C   UNL     1      20.256  -4.424   5.681  1.00  0.00     0.064 A 
ATOM     83  C   UNL     1      21.229  -3.436   5.885  1.00  0.00     0.173 A 
ATOM     84  C   UNL     1      20.661  -5.768   5.744  1.00  0.00     0.173 A 
ATOM     85  F   UNL     1      20.896  -2.138   5.822  1.00  0.00    -0.203 F 
ATOM     86  C   UNL     1      22.556  -3.779   6.129  1.00  0.00     0.198 A 
ATOM     87  C   UNL     1      21.981  -6.107   6.021  1.00  0.00     0.198 A 
ATOM     88  F   UNL     1      19.767  -6.752   5.564  1.00  0.00    -0.203 F 
ATOM     89  F   UNL     1      23.477  -2.818   6.285  1.00  0.00    -0.200 F 
ATOM     90  C   UNL     1      22.929  -5.114   6.208  1.00  0.00     0.200 A 
ATOM     91  F   UNL     1      22.334  -7.397   6.115  1.00  0.00    -0.200 F 
ATOM     92  F   UNL     1      24.203  -5.441   6.464  1.00  0.00    -0.200 F 
ENDBRANCH  59  82
ENDBRANCH  33  34
ENDBRANCH  26  28
ENDBRANCH  25  26
ENDBRANCH  24  25
ENDBRANCH  23  24
ENDBRANCH  22  23
ENDBRANCH   1  22
TORSDOF 18
