REMARK SMILES CC(C)(C)c1nnsc1C(=O)N[C@](C)(C(=O)OCCOCCOC(=O)c1ccc(-c2c3nc(c(-c4c(F)c(F)c(F)c(F)c4F)c4ccc([nH]4)c(-c4c(F)c(F)c(F)c(F)c4F)c4nc(c(-c5c(F)c(F)c(F)c(F)c5F)c5ccc2[nH]5)C=C4)C=C3)cc1)C(F)(F)F
REMARK SMILES IDX 19 1 18 2 17 3 15 4 16 5 13 6 14 7 12 8 10 9 11 10 9 12 5 13
REMARK SMILES IDX 6 14 7 15 8 16 2 17 1 18 3 19 4 20 89 21 90 22 91 23 92 24
REMARK SMILES IDX 20 25 21 26 22 27 23 28 24 29 25 30 26 31 27 32 88 33 28 34
REMARK SMILES IDX 87 35 29 36 30 37 31 38 81 39 32 40 86 41 80 42 82 43 33 44
REMARK SMILES IDX 85 45 79 46 78 47 34 49 66 50 46 51 65 52 47 53 50 54 64 55
REMARK SMILES IDX 83 56 48 57 49 58 63 60 84 61 51 62 35 63 36 64 44 65 37 66
REMARK SMILES IDX 38 67 42 68 45 69 39 70 40 71 43 72 41 73 67 74 68 75 76 76
REMARK SMILES IDX 69 77 70 78 74 79 77 80 71 81 72 82 75 83 73 84 52 85 53 86
REMARK SMILES IDX 61 87 54 88 55 89 59 90 62 91 56 92 57 93 60 94 58 95
REMARK H PARENT 12 11 82 48 50 59
REMARK Flexibility Score: inf
ROOT
ATOM      1  C   UNL     1       3.267   2.985  -1.380  1.00  0.00     0.202 C 
ENDROOT
BRANCH   1   2
ATOM      2  C   UNL     1       1.842   3.033  -0.810  1.00  0.00     0.261 C 
BRANCH   2   3
ATOM      3  O   UNL     1       1.657   2.134   0.323  1.00  0.00    -0.461 OA
BRANCH   3   4
ATOM      4  C   UNL     1       0.419   1.585   0.474  1.00  0.00     0.341 C 
ATOM      5  O   UNL     1      -0.422   1.688  -0.412  1.00  0.00    -0.249 OA
BRANCH   4   6
ATOM      6  C   UNL     1       0.104   1.035   1.906  1.00  0.00     0.231 C 
ATOM      7  C   UNL     1       0.910  -0.049   2.639  1.00  0.00     0.058 C 
BRANCH   6   8
ATOM      8  N   UNL     1       0.004   2.177   2.863  1.00  0.00    -0.328 N 
ATOM      9  C   UNL     1       0.949   3.006   3.440  1.00  0.00     0.266 C 
ATOM     10  O   UNL     1       0.530   3.583   4.450  1.00  0.00    -0.268 OA
ATOM     11  H   UNL     1      -0.919   2.380   3.139  1.00  0.00     0.165 HD
BRANCH   9  12
ATOM     12  C   UNL     1       2.248   3.342   2.870  1.00  0.00     0.137 A 
ATOM     13  C   UNL     1       3.499   2.779   2.539  1.00  0.00     0.094 A 
ATOM     14  N   UNL     1       4.395   3.719   1.989  1.00  0.00    -0.142 NA
ATOM     15  N   UNL     1       3.945   4.951   1.998  1.00  0.00    -0.090 NA
ATOM     16  S   UNL     1       2.427   5.069   2.640  1.00  0.00    -0.006 S 
BRANCH  13  17
ATOM     17  C   UNL     1       4.113   1.367   2.655  1.00  0.00     0.008 C 
ATOM     18  C   UNL     1       3.736   0.468   1.468  1.00  0.00     0.018 C 
ATOM     19  C   UNL     1       3.864   0.723   4.027  1.00  0.00     0.018 C 
ATOM     20  C   UNL     1       5.655   1.404   2.510  1.00  0.00     0.018 C 
ENDBRANCH  13  17
ENDBRANCH   9  12
ENDBRANCH   6   8
BRANCH   6  21
ATOM     21  C   UNL     1      -1.234   0.271   1.635  1.00  0.00     0.422 C 
ATOM     22  F   UNL     1      -1.006  -0.796   0.825  1.00  0.00    -0.168 F 
ATOM     23  F   UNL     1      -1.741  -0.235   2.793  1.00  0.00    -0.168 F 
ATOM     24  F   UNL     1      -2.219   1.017   1.107  1.00  0.00    -0.168 F 
ENDBRANCH   6  21
ENDBRANCH   4   6
ENDBRANCH   3   4
ENDBRANCH   2   3
ENDBRANCH   1   2
BRANCH   1  25
ATOM     25  O   UNL     1       3.428   2.077  -2.476  1.00  0.00    -0.374 OA
BRANCH  25  26
ATOM     26  C   UNL     1       3.809   0.746  -2.141  1.00  0.00     0.202 C 
BRANCH  26  27
ATOM     27  C   UNL     1       5.313   0.537  -1.861  1.00  0.00     0.261 C 
BRANCH  27  28
ATOM     28  O   UNL     1       5.878   1.535  -0.992  1.00  0.00    -0.460 OA
BRANCH  28  29
ATOM     29  C   UNL     1       6.803   2.353  -1.549  1.00  0.00     0.338 C 
ATOM     30  O   UNL     1       7.285   2.272  -2.662  1.00  0.00    -0.246 OA
BRANCH  29  31
ATOM     31  C   UNL     1       7.119   3.468  -0.630  1.00  0.00     0.060 A 
ATOM     32  C   UNL     1       6.905   4.770  -1.083  1.00  0.00     0.016 A 
ATOM     33  C   UNL     1       7.734   3.250   0.606  1.00  0.00     0.016 A 
ATOM     34  C   UNL     1       7.382   5.852  -0.339  1.00  0.00     0.010 A 
ATOM     35  C   UNL     1       8.135   4.338   1.391  1.00  0.00     0.010 A 
ATOM     36  C   UNL     1       8.047   5.643   0.880  1.00  0.00    -0.014 A 
BRANCH  36  37
ATOM     37  C   UNL     1       8.855   6.749   1.470  1.00  0.00     0.031 A 
ATOM     38  C   UNL     1      10.364   6.661   1.408  1.00  0.00     0.074 A 
ATOM     39  C   UNL     1       8.278   7.859   1.967  1.00  0.00     0.049 A 
ATOM     40  N   UNL     1      11.270   7.535   1.776  1.00  0.00    -0.248 NA
ATOM     41  C   UNL     1      10.933   5.417   0.865  1.00  0.00     0.031 C 
ATOM     42  C   UNL     1       6.839   8.086   2.081  1.00  0.00     0.029 A 
ATOM     43  N   UNL     1       8.840   9.017   2.453  1.00  0.00    -0.354 N 
ATOM     44  C   UNL     1      12.499   6.944   1.508  1.00  0.00     0.074 A 
ATOM     45  C   UNL     1      12.232   5.613   1.015  1.00  0.00     0.031 C 
ATOM     46  C   UNL     1       6.630   9.318   2.577  1.00  0.00     0.029 A 
ATOM     47  C   UNL     1       7.918   9.958   2.842  1.00  0.00     0.049 A 
ATOM     48  H   UNL     1       9.812   9.158   2.515  1.00  0.00     0.167 HD
ATOM     49  C   UNL     1      13.743   7.466   1.625  1.00  0.00     0.037 A 
ATOM     50  C   UNL     1       8.095  11.193   3.354  1.00  0.00     0.037 A 
ATOM     51  C   UNL     1      14.022   8.796   2.096  1.00  0.00     0.049 A 
ATOM     52  C   UNL     1       9.493  11.734   3.530  1.00  0.00     0.074 A 
ATOM     53  C   UNL     1      15.247   9.425   2.228  1.00  0.00     0.029 A 
ATOM     54  N   UNL     1      13.059   9.700   2.516  1.00  0.00    -0.354 N 
ATOM     55  N   UNL     1      10.644  11.182   3.227  1.00  0.00    -0.248 NA
ATOM     56  C   UNL     1       9.615  13.079   4.113  1.00  0.00     0.031 C 
ATOM     57  C   UNL     1      15.031  10.688   2.786  1.00  0.00     0.029 A 
ATOM     58  C   UNL     1      13.666  10.873   2.934  1.00  0.00     0.049 A 
ATOM     59  H   UNL     1      12.088   9.534   2.517  1.00  0.00     0.167 HD
ATOM     60  C   UNL     1      11.617  12.124   3.543  1.00  0.00     0.074 A 
ATOM     61  C   UNL     1      10.922  13.287   4.050  1.00  0.00     0.031 C 
ATOM     62  C   UNL     1      12.965  12.034   3.421  1.00  0.00     0.037 A 
BRANCH  49  63
ATOM     63  C   UNL     1      14.903   6.590   1.245  1.00  0.00     0.064 A 
ATOM     64  C   UNL     1      15.146   6.220  -0.088  1.00  0.00     0.173 A 
ATOM     65  C   UNL     1      15.801   6.136   2.223  1.00  0.00     0.173 A 
ATOM     66  F   UNL     1      14.311   6.614  -1.061  1.00  0.00    -0.203 F 
ATOM     67  C   UNL     1      16.224   5.402  -0.420  1.00  0.00     0.198 A 
ATOM     68  C   UNL     1      16.898   5.349   1.882  1.00  0.00     0.198 A 
ATOM     69  F   UNL     1      15.620   6.463   3.512  1.00  0.00    -0.203 F 
ATOM     70  F   UNL     1      16.402   5.016  -1.691  1.00  0.00    -0.200 F 
ATOM     71  C   UNL     1      17.103   4.975   0.563  1.00  0.00     0.200 A 
ATOM     72  F   UNL     1      17.755   4.950   2.832  1.00  0.00    -0.200 F 
ATOM     73  F   UNL     1      18.144   4.196   0.240  1.00  0.00    -0.200 F 
ENDBRANCH  49  63
BRANCH  50  74
ATOM     74  C   UNL     1       6.917  12.021   3.732  1.00  0.00     0.064 A 
ATOM     75  C   UNL     1       6.611  13.208   3.051  1.00  0.00     0.173 A 
ATOM     76  C   UNL     1       6.095  11.661   4.811  1.00  0.00     0.173 A 
ATOM     77  F   UNL     1       7.382  13.613   2.031  1.00  0.00    -0.203 F 
ATOM     78  C   UNL     1       5.546  14.015   3.449  1.00  0.00     0.198 A 
ATOM     79  C   UNL     1       5.010  12.452   5.187  1.00  0.00     0.198 A 
ATOM     80  F   UNL     1       6.345  10.539   5.502  1.00  0.00    -0.203 F 
ATOM     81  F   UNL     1       5.315  15.175   2.819  1.00  0.00    -0.200 F 
ATOM     82  C   UNL     1       4.744  13.633   4.513  1.00  0.00     0.200 A 
ATOM     83  F   UNL     1       4.231  12.073   6.209  1.00  0.00    -0.200 F 
ATOM     84  F   UNL     1       3.722  14.410   4.897  1.00  0.00    -0.200 F 
ENDBRANCH  50  74
BRANCH  62  85
ATOM     85  C   UNL     1      13.783  13.240   3.787  1.00  0.00     0.064 A 
ATOM     86  C   UNL     1      13.922  13.669   5.115  1.00  0.00     0.173 A 
ATOM     87  C   UNL     1      14.480  13.949   2.795  1.00  0.00     0.173 A 
ATOM     88  F   UNL     1      13.272  13.033   6.102  1.00  0.00    -0.203 F 
ATOM     89  C   UNL     1      14.701  14.780   5.432  1.00  0.00     0.198 A 
ATOM     90  C   UNL     1      15.286  15.036   3.119  1.00  0.00     0.198 A 
ATOM     91  F   UNL     1      14.393  13.575   1.509  1.00  0.00    -0.203 F 
ATOM     92  F   UNL     1      14.776  15.203   6.701  1.00  0.00    -0.200 F 
ATOM     93  C   UNL     1      15.389  15.457   4.436  1.00  0.00     0.200 A 
ATOM     94  F   UNL     1      15.965  15.676   2.157  1.00  0.00    -0.200 F 
ATOM     95  F   UNL     1      16.145  16.519   4.744  1.00  0.00    -0.200 F 
ENDBRANCH  62  85
ENDBRANCH  36  37
ENDBRANCH  29  31
ENDBRANCH  28  29
ENDBRANCH  27  28
ENDBRANCH  26  27
ENDBRANCH  25  26
ENDBRANCH   1  25
TORSDOF 18
