REMARK SMILES O=C(OCCOCCOC(=O)c1nnn(-c2cccc(C(F)(F)F)c2)c1[C@H]1COc2ccccc2O1)c1ccc(-c2c3nc(c(-c4c(F)c(F)c(F)c(F)c4F)c4ccc([nH]4)c(-c4c(F)c(F)c(F)c(F)c4F)c4nc(c(-c5c(F)c(F)c(F)c(F)c5F)c5ccc2[nH]5)C=C4)C=C3)cc1
REMARK SMILES IDX 6 1 5 2 4 3 3 4 2 5 1 6 37 7 38 8 99 9 39 10 98 11 40 12
REMARK SMILES IDX 41 13 42 14 92 15 43 16 97 17 91 18 93 19 44 20 96 21 90 22
REMARK SMILES IDX 89 23 45 25 77 26 57 27 76 28 58 29 61 30 75 31 94 32 59 33
REMARK SMILES IDX 60 34 74 36 95 37 62 38 46 39 47 40 55 41 48 42 49 43 53 44
REMARK SMILES IDX 56 45 50 46 51 47 54 48 52 49 78 50 79 51 87 52 80 53 81 54
REMARK SMILES IDX 85 55 88 56 82 57 83 58 86 59 84 60 63 61 64 62 72 63 65 64
REMARK SMILES IDX 66 65 70 66 73 67 67 68 68 69 71 70 69 71 7 72 8 73 9 74
REMARK SMILES IDX 10 75 11 76 12 77 13 78 26 79 14 80 15 81 27 82 28 83 36 84
REMARK SMILES IDX 29 85 35 86 30 87 34 88 31 89 33 90 32 91 16 92 17 93 25 94
REMARK SMILES IDX 18 95 20 96 19 97 21 98 22 99 23 100 24 101
REMARK H PARENT 93 24 61 35
REMARK Flexibility Score: inf
ROOT
ATOM      1  O   UNL     1      -2.005  -1.508  -3.780  1.00  0.00    -0.374 OA
ENDROOT
BRANCH   1   2
ATOM      2  C   UNL     1      -1.238  -0.727  -2.871  1.00  0.00     0.202 C 
BRANCH   2   3
ATOM      3  C   UNL     1      -0.356  -1.445  -1.847  1.00  0.00     0.261 C 
BRANCH   3   4
ATOM      4  O   UNL     1       0.642  -2.280  -2.450  1.00  0.00    -0.460 OA
BRANCH   4   5
ATOM      5  C   UNL     1       0.578  -3.551  -2.895  1.00  0.00     0.338 C 
ATOM      6  O   UNL     1       1.529  -3.974  -3.553  1.00  0.00    -0.246 OA
BRANCH   5   7
ATOM      7  C   UNL     1      -0.565  -4.490  -2.655  1.00  0.00     0.060 A 
ATOM      8  C   UNL     1      -1.710  -4.231  -1.904  1.00  0.00     0.016 A 
ATOM      9  C   UNL     1      -0.425  -5.776  -3.217  1.00  0.00     0.016 A 
ATOM     10  C   UNL     1      -2.554  -5.262  -1.526  1.00  0.00     0.010 A 
ATOM     11  C   UNL     1      -1.303  -6.803  -2.896  1.00  0.00     0.010 A 
ATOM     12  C   UNL     1      -2.304  -6.559  -1.964  1.00  0.00    -0.014 A 
BRANCH  12  13
ATOM     13  C   UNL     1      -3.114  -7.616  -1.379  1.00  0.00     0.031 A 
ATOM     14  C   UNL     1      -4.582  -7.523  -1.601  1.00  0.00     0.074 A 
ATOM     15  C   UNL     1      -2.558  -8.625  -0.682  1.00  0.00     0.049 A 
ATOM     16  N   UNL     1      -5.529  -7.471  -0.719  1.00  0.00    -0.248 NA
ATOM     17  C   UNL     1      -5.046  -7.394  -2.990  1.00  0.00     0.031 C 
ATOM     18  C   UNL     1      -1.139  -8.982  -0.582  1.00  0.00     0.029 A 
ATOM     19  N   UNL     1      -3.176  -9.619   0.013  1.00  0.00    -0.354 N 
ATOM     20  C   UNL     1      -6.724  -7.456  -1.438  1.00  0.00     0.074 A 
ATOM     21  C   UNL     1      -6.364  -7.297  -2.823  1.00  0.00     0.031 C 
ATOM     22  C   UNL     1      -1.032 -10.228  -0.076  1.00  0.00     0.029 A 
ATOM     23  C   UNL     1      -2.355 -10.695   0.302  1.00  0.00     0.049 A 
ATOM     24  H   UNL     1      -4.122  -9.576   0.286  1.00  0.00     0.167 HD
ATOM     25  C   UNL     1      -7.913  -7.779  -0.858  1.00  0.00     0.037 A 
ATOM     26  C   UNL     1      -2.751 -11.916   0.731  1.00  0.00     0.037 A 
ATOM     27  C   UNL     1      -7.876  -7.585   0.568  1.00  0.00     0.049 A 
ATOM     28  C   UNL     1      -4.111 -11.779   1.307  1.00  0.00     0.074 A 
ATOM     29  C   UNL     1      -7.660  -6.499   1.395  1.00  0.00     0.029 A 
ATOM     30  N   UNL     1      -7.796  -8.683   1.386  1.00  0.00    -0.354 N 
ATOM     31  N   UNL     1      -4.375 -11.159   2.423  1.00  0.00    -0.248 NA
ATOM     32  C   UNL     1      -5.249 -11.980   0.421  1.00  0.00     0.031 C 
ATOM     33  C   UNL     1      -6.980  -7.026   2.532  1.00  0.00     0.029 A 
ATOM     34  C   UNL     1      -6.851  -8.400   2.337  1.00  0.00     0.049 A 
ATOM     35  H   UNL     1      -8.317  -9.514   1.306  1.00  0.00     0.167 HD
ATOM     36  C   UNL     1      -5.591 -10.531   2.199  1.00  0.00     0.074 A 
ATOM     37  C   UNL     1      -6.128 -11.155   0.994  1.00  0.00     0.031 C 
ATOM     38  C   UNL     1      -5.918  -9.374   2.845  1.00  0.00     0.037 A 
BRANCH  25  39
ATOM     39  C   UNL     1      -8.979  -8.615  -1.534  1.00  0.00     0.064 A 
ATOM     40  C   UNL     1     -10.187  -8.867  -0.852  1.00  0.00     0.173 A 
ATOM     41  C   UNL     1      -8.738  -9.437  -2.657  1.00  0.00     0.173 A 
ATOM     42  F   UNL     1     -10.529  -8.146   0.227  1.00  0.00    -0.203 F 
ATOM     43  C   UNL     1     -11.021  -9.936  -1.192  1.00  0.00     0.198 A 
ATOM     44  C   UNL     1      -9.598 -10.470  -3.025  1.00  0.00     0.198 A 
ATOM     45  F   UNL     1      -7.615  -9.353  -3.379  1.00  0.00    -0.203 F 
ATOM     46  F   UNL     1     -12.079 -10.225  -0.422  1.00  0.00    -0.200 F 
ATOM     47  C   UNL     1     -10.717 -10.746  -2.269  1.00  0.00     0.200 A 
ATOM     48  F   UNL     1      -9.281 -11.249  -4.069  1.00  0.00    -0.200 F 
ATOM     49  F   UNL     1     -11.469 -11.818  -2.550  1.00  0.00    -0.200 F 
ENDBRANCH  25  39
BRANCH  26  50
ATOM     50  C   UNL     1      -2.152 -13.221   0.373  1.00  0.00     0.064 A 
ATOM     51  C   UNL     1      -2.423 -14.374   1.124  1.00  0.00     0.173 A 
ATOM     52  C   UNL     1      -1.500 -13.415  -0.862  1.00  0.00     0.173 A 
ATOM     53  F   UNL     1      -3.087 -14.282   2.285  1.00  0.00    -0.203 F 
ATOM     54  C   UNL     1      -2.072 -15.646   0.661  1.00  0.00     0.198 A 
ATOM     55  C   UNL     1      -1.139 -14.682  -1.316  1.00  0.00     0.198 A 
ATOM     56  F   UNL     1      -1.284 -12.389  -1.698  1.00  0.00    -0.203 F 
ATOM     57  F   UNL     1      -2.400 -16.731   1.377  1.00  0.00    -0.200 F 
ATOM     58  C   UNL     1      -1.436 -15.799  -0.560  1.00  0.00     0.200 A 
ATOM     59  F   UNL     1      -0.555 -14.816  -2.516  1.00  0.00    -0.200 F 
ATOM     60  F   UNL     1      -1.147 -17.021  -1.028  1.00  0.00    -0.200 F 
ENDBRANCH  26  50
BRANCH  38  61
ATOM     61  C   UNL     1      -5.059  -8.951   3.999  1.00  0.00     0.064 A 
ATOM     62  C   UNL     1      -3.703  -8.608   3.871  1.00  0.00     0.173 A 
ATOM     63  C   UNL     1      -5.665  -8.746   5.246  1.00  0.00     0.173 A 
ATOM     64  F   UNL     1      -3.085  -8.672   2.685  1.00  0.00    -0.203 F 
ATOM     65  C   UNL     1      -2.974  -8.133   4.959  1.00  0.00     0.198 A 
ATOM     66  C   UNL     1      -4.943  -8.236   6.322  1.00  0.00     0.198 A 
ATOM     67  F   UNL     1      -6.974  -8.996   5.408  1.00  0.00    -0.203 F 
ATOM     68  F   UNL     1      -1.677  -7.824   4.816  1.00  0.00    -0.200 F 
ATOM     69  C   UNL     1      -3.596  -7.941   6.181  1.00  0.00     0.200 A 
ATOM     70  F   UNL     1      -5.561  -8.002   7.488  1.00  0.00    -0.200 F 
ATOM     71  F   UNL     1      -2.906  -7.443   7.217  1.00  0.00    -0.200 F 
ENDBRANCH  38  61
ENDBRANCH  12  13
ENDBRANCH   5   7
ENDBRANCH   4   5
ENDBRANCH   3   4
ENDBRANCH   2   3
ENDBRANCH   1   2
BRANCH   1  72
ATOM     72  C   UNL     1      -1.399  -2.045  -4.958  1.00  0.00     0.202 C 
BRANCH  72  73
ATOM     73  C   UNL     1      -0.751  -1.107  -5.979  1.00  0.00     0.261 C 
BRANCH  73  74
ATOM     74  O   UNL     1       0.424  -0.478  -5.455  1.00  0.00    -0.458 OA
BRANCH  74  75
ATOM     75  C   UNL     1       0.341   0.880  -5.295  1.00  0.00     0.361 C 
ATOM     76  O   UNL     1      -0.628   1.555  -5.571  1.00  0.00    -0.244 OA
BRANCH  75  77
ATOM     77  C   UNL     1       1.517   1.416  -4.628  1.00  0.00     0.198 A 
ATOM     78  N   UNL     1       1.440   2.139  -3.460  1.00  0.00    -0.122 NA
ATOM     79  C   UNL     1       2.843   1.310  -5.001  1.00  0.00     0.123 A 
ATOM     80  N   UNL     1       2.670   2.506  -3.119  1.00  0.00    -0.061 NA
ATOM     81  N   UNL     1       3.475   2.193  -4.153  1.00  0.00    -0.213 N 
BRANCH  79  82
ATOM     82  C   UNL     1       3.561   0.505  -6.030  1.00  0.00     0.262 C 
ATOM     83  C   UNL     1       4.138  -0.774  -5.409  1.00  0.00     0.281 C 
ATOM     84  O   UNL     1       2.607   0.246  -7.064  1.00  0.00    -0.477 OA
ATOM     85  O   UNL     1       4.758  -1.581  -6.415  1.00  0.00    -0.485 OA
ATOM     86  C   UNL     1       2.819  -0.934  -7.722  1.00  0.00     0.162 A 
ATOM     87  C   UNL     1       3.858  -1.816  -7.421  1.00  0.00     0.161 A 
ATOM     88  C   UNL     1       1.901  -1.252  -8.720  1.00  0.00     0.050 A 
ATOM     89  C   UNL     1       4.005  -2.997  -8.142  1.00  0.00     0.050 A 
ATOM     90  C   UNL     1       2.021  -2.454  -9.415  1.00  0.00     0.004 A 
ATOM     91  C   UNL     1       3.076  -3.323  -9.131  1.00  0.00     0.004 A 
ENDBRANCH  79  82
BRANCH  81  92
ATOM     92  C   UNL     1       4.634   2.936  -4.427  1.00  0.00     0.067 A 
ATOM     93  C   UNL     1       5.640   3.072  -3.475  1.00  0.00     0.028 A 
ATOM     94  C   UNL     1       4.745   3.532  -5.691  1.00  0.00     0.041 A 
ATOM     95  C   UNL     1       6.812   3.736  -3.837  1.00  0.00     0.003 A 
ATOM     96  C   UNL     1       5.900   4.231  -6.045  1.00  0.00     0.058 A 
ATOM     97  C   UNL     1       6.945   4.304  -5.113  1.00  0.00     0.013 A 
BRANCH  96  98
ATOM     98  C   UNL     1       6.011   4.871  -7.407  1.00  0.00     0.416 C 
ATOM     99  F   UNL     1       6.354   6.185  -7.346  1.00  0.00    -0.166 F 
ATOM    100  F   UNL     1       6.949   4.267  -8.186  1.00  0.00    -0.166 F 
ATOM    101  F   UNL     1       4.850   4.821  -8.120  1.00  0.00    -0.166 F 
ENDBRANCH  96  98
ENDBRANCH  81  92
ENDBRANCH  75  77
ENDBRANCH  74  75
ENDBRANCH  73  74
ENDBRANCH  72  73
ENDBRANCH   1  72
TORSDOF 17
