REMARK SMILES C[C@H]1N=N[C@H](S/C(=C/c2ccc(-c3cccc(Cl)c3)o2)C(=O)OCCOCCOC(=O)c2ccc(-c3c4nc(c(-c5c(F)c(F)c(F)c(F)c5F)c5ccc([nH]5)c(-c5c(F)c(F)c(F)c(F)c5F)c5nc(c(-c6c(F)c(F)c(F)c(F)c6F)c6ccc3[nH]6)C=C5)C=C4)cc2)[NH2+]1
REMARK SMILES IDX 26 1 25 2 24 3 23 4 21 5 22 6 7 7 8 8 6 9 5 10 1 11 2 12
REMARK SMILES IDX 3 13 95 14 4 15 9 18 10 19 20 20 11 21 12 22 13 23 14 24
REMARK SMILES IDX 19 25 15 26 17 27 16 28 18 29 27 30 28 31 29 32 30 33 31 34
REMARK SMILES IDX 32 35 33 36 94 37 34 38 93 39 35 40 36 41 37 42 87 43 38 44
REMARK SMILES IDX 92 45 86 46 88 47 39 48 91 49 85 50 84 51 40 53 72 54 52 55
REMARK SMILES IDX 71 56 53 57 56 58 70 59 89 60 54 61 55 62 69 64 90 65 57 66
REMARK SMILES IDX 41 67 42 68 50 69 43 70 44 71 48 72 51 73 45 74 46 75 49 76
REMARK SMILES IDX 47 77 73 78 74 79 82 80 75 81 76 82 80 83 83 84 77 85 78 86
REMARK SMILES IDX 81 87 79 88 58 89 59 90 67 91 60 92 61 93 65 94 68 95 62 96
REMARK SMILES IDX 63 97 66 98 64 99
REMARK H PARENT 95 16 95 17 88 52 56 63
REMARK Flexibility Score: inf
ROOT
ATOM      1  O   UNL     1      -5.345  -6.142  -2.354  1.00  0.00    -0.374 OA
ENDROOT
BRANCH   1   2
ATOM      2  C   UNL     1      -4.909  -7.503  -2.263  1.00  0.00     0.202 C 
BRANCH   2   3
ATOM      3  C   UNL     1      -3.485  -7.777  -2.754  1.00  0.00     0.261 C 
BRANCH   3   4
ATOM      4  O   UNL     1      -2.567  -7.282  -1.768  1.00  0.00    -0.459 OA
BRANCH   4   5
ATOM      5  C   UNL     1      -1.379  -6.819  -2.229  1.00  0.00     0.345 C 
ATOM      6  O   UNL     1      -0.904  -7.015  -3.336  1.00  0.00    -0.246 OA
BRANCH   5   7
ATOM      7  C   UNL     1      -0.808  -5.899  -1.200  1.00  0.00     0.104 C 
ATOM      8  C   UNL     1      -0.553  -6.285   0.064  1.00  0.00     0.070 C 
BRANCH   7   9
ATOM      9  S   UNL     1      -0.781  -4.243  -1.742  1.00  0.00    -0.028 SA
BRANCH   9  10
ATOM     10  C   UNL     1       0.778  -3.561  -1.083  1.00  0.00     0.393 C 
ATOM     11  C   UNL     1       0.967  -0.202   0.104  1.00  0.00     0.106 C 
ATOM     12  C   UNL     1       0.500  -1.373  -0.747  1.00  0.00     0.324 C 
ATOM     13  N   UNL     1       1.430  -1.567  -1.870  1.00  0.00    -0.126 NA
ATOM     14  N   UNL     1       0.462  -2.631   0.008  1.00  0.00    -0.293 N 
ATOM     15  N   UNL     1       1.583  -2.800  -2.065  1.00  0.00    -0.115 NA
ATOM     16  H   UNL     1      -0.459  -2.810   0.408  1.00  0.00     0.350 HD
ATOM     17  H   UNL     1       1.081  -2.677   0.817  1.00  0.00     0.350 HD
ENDBRANCH   9  10
ENDBRANCH   7   9
BRANCH   8  18
ATOM     18  C   UNL     1      -0.650  -7.629   0.537  1.00  0.00     0.128 A 
ATOM     19  C   UNL     1      -0.463  -8.845  -0.114  1.00  0.00     0.051 A 
ATOM     20  O   UNL     1      -0.956  -7.921   1.853  1.00  0.00    -0.457 OA
ATOM     21  C   UNL     1      -0.712  -9.884   0.809  1.00  0.00     0.051 A 
ATOM     22  C   UNL     1      -0.996  -9.276   2.009  1.00  0.00     0.134 A 
BRANCH  22  23
ATOM     23  C   UNL     1      -1.294  -9.788   3.341  1.00  0.00     0.019 A 
ATOM     24  C   UNL     1      -0.843 -11.066   3.713  1.00  0.00     0.012 A 
ATOM     25  C   UNL     1      -2.046  -9.050   4.262  1.00  0.00     0.032 A 
ATOM     26  C   UNL     1      -1.150 -11.602   4.965  1.00  0.00     0.002 A 
ATOM     27  C   UNL     1      -2.357  -9.592   5.511  1.00  0.00     0.041 A 
ATOM     28  C   UNL     1      -1.917 -10.867   5.864  1.00  0.00     0.020 A 
ATOM     29  Cl  UNL     1      -3.320  -8.691   6.618  1.00  0.00    -0.084 Cl
ENDBRANCH  22  23
ENDBRANCH   8  18
ENDBRANCH   5   7
ENDBRANCH   4   5
ENDBRANCH   3   4
ENDBRANCH   2   3
ENDBRANCH   1   2
BRANCH   1  30
ATOM     30  C   UNL     1      -4.685  -5.179  -1.535  1.00  0.00     0.202 C 
BRANCH  30  31
ATOM     31  C   UNL     1      -5.148  -5.079  -0.077  1.00  0.00     0.261 C 
BRANCH  31  32
ATOM     32  O   UNL     1      -5.069  -6.321   0.640  1.00  0.00    -0.460 OA
BRANCH  32  33
ATOM     33  C   UNL     1      -6.258  -6.942   0.813  1.00  0.00     0.338 C 
ATOM     34  O   UNL     1      -7.361  -6.560   0.441  1.00  0.00    -0.246 OA
BRANCH  33  35
ATOM     35  C   UNL     1      -6.064  -8.257   1.444  1.00  0.00     0.060 A 
ATOM     36  C   UNL     1      -6.601  -9.380   0.801  1.00  0.00     0.016 A 
ATOM     37  C   UNL     1      -5.481  -8.373   2.706  1.00  0.00     0.016 A 
ATOM     38  C   UNL     1      -6.594 -10.620   1.440  1.00  0.00     0.010 A 
ATOM     39  C   UNL     1      -5.484  -9.617   3.345  1.00  0.00     0.010 A 
ATOM     40  C   UNL     1      -6.067 -10.739   2.732  1.00  0.00    -0.014 A 
BRANCH  40  41
ATOM     41  C   UNL     1      -6.253 -11.994   3.502  1.00  0.00     0.031 A 
ATOM     42  C   UNL     1      -7.301 -12.044   4.581  1.00  0.00     0.074 A 
ATOM     43  C   UNL     1      -5.505 -13.081   3.243  1.00  0.00     0.049 A 
ATOM     44  N   UNL     1      -7.618 -13.024   5.390  1.00  0.00    -0.248 NA
ATOM     45  C   UNL     1      -8.093 -10.820   4.782  1.00  0.00     0.031 C 
ATOM     46  C   UNL     1      -4.461 -13.165   2.224  1.00  0.00     0.029 A 
ATOM     47  N   UNL     1      -5.511 -14.325   3.824  1.00  0.00    -0.354 N 
ATOM     48  C   UNL     1      -8.632 -12.530   6.202  1.00  0.00     0.074 A 
ATOM     49  C   UNL     1      -8.855 -11.155   5.812  1.00  0.00     0.031 C 
ATOM     50  C   UNL     1      -3.930 -14.399   2.247  1.00  0.00     0.029 A 
ATOM     51  C   UNL     1      -4.577 -15.182   3.298  1.00  0.00     0.049 A 
ATOM     52  H   UNL     1      -6.128 -14.579   4.548  1.00  0.00     0.167 HD
ATOM     53  C   UNL     1      -9.326 -13.168   7.174  1.00  0.00     0.037 A 
ATOM     54  C   UNL     1      -4.276 -16.452   3.634  1.00  0.00     0.037 A 
ATOM     55  C   UNL     1      -9.120 -14.541   7.553  1.00  0.00     0.049 A 
ATOM     56  C   UNL     1      -5.049 -17.135   4.734  1.00  0.00     0.074 A 
ATOM     57  C   UNL     1      -9.795 -15.284   8.506  1.00  0.00     0.029 A 
ATOM     58  N   UNL     1      -8.166 -15.377   6.995  1.00  0.00    -0.354 N 
ATOM     59  N   UNL     1      -6.031 -16.672   5.468  1.00  0.00    -0.248 NA
ATOM     60  C   UNL     1      -4.673 -18.522   5.045  1.00  0.00     0.031 C 
ATOM     61  C   UNL     1      -9.222 -16.560   8.552  1.00  0.00     0.029 A 
ATOM     62  C   UNL     1      -8.222 -16.625   7.595  1.00  0.00     0.049 A 
ATOM     63  H   UNL     1      -7.540 -15.122   6.279  1.00  0.00     0.167 HD
ATOM     64  C   UNL     1      -6.410 -17.715   6.303  1.00  0.00     0.074 A 
ATOM     65  C   UNL     1      -5.559 -18.840   5.979  1.00  0.00     0.031 C 
ATOM     66  C   UNL     1      -7.378 -17.740   7.251  1.00  0.00     0.037 A 
BRANCH  53  67
ATOM     67  C   UNL     1     -10.369 -12.378   7.908  1.00  0.00     0.064 A 
ATOM     68  C   UNL     1     -11.579 -12.013   7.298  1.00  0.00     0.173 A 
ATOM     69  C   UNL     1     -10.169 -12.007   9.246  1.00  0.00     0.173 A 
ATOM     70  F   UNL     1     -11.813 -12.334   6.017  1.00  0.00    -0.203 F 
ATOM     71  C   UNL     1     -12.537 -11.280   7.992  1.00  0.00     0.198 A 
ATOM     72  C   UNL     1     -11.142 -11.297   9.945  1.00  0.00     0.198 A 
ATOM     73  F   UNL     1      -9.033 -12.338   9.877  1.00  0.00    -0.203 F 
ATOM     74  F   UNL     1     -13.666 -10.902   7.375  1.00  0.00    -0.200 F 
ATOM     75  C   UNL     1     -12.321 -10.928   9.316  1.00  0.00     0.200 A 
ATOM     76  F   UNL     1     -10.937 -10.969  11.229  1.00  0.00    -0.200 F 
ATOM     77  F   UNL     1     -13.247 -10.227   9.985  1.00  0.00    -0.200 F 
ENDBRANCH  53  67
BRANCH  54  78
ATOM     78  C   UNL     1      -3.196 -17.173   2.913  1.00  0.00     0.064 A 
ATOM     79  C   UNL     1      -3.491 -18.238   2.051  1.00  0.00     0.173 A 
ATOM     80  C   UNL     1      -1.849 -16.824   3.084  1.00  0.00     0.173 A 
ATOM     81  F   UNL     1      -4.763 -18.624   1.875  1.00  0.00    -0.203 F 
ATOM     82  C   UNL     1      -2.478 -18.941   1.403  1.00  0.00     0.198 A 
ATOM     83  C   UNL     1      -0.838 -17.511   2.415  1.00  0.00     0.198 A 
ATOM     84  F   UNL     1      -1.514 -15.810   3.896  1.00  0.00    -0.203 F 
ATOM     85  F   UNL     1      -2.784 -19.985   0.621  1.00  0.00    -0.200 F 
ATOM     86  C   UNL     1      -1.152 -18.574   1.582  1.00  0.00     0.200 A 
ATOM     87  F   UNL     1       0.440 -17.144   2.581  1.00  0.00    -0.200 F 
ATOM     88  F   UNL     1      -0.178 -19.248   0.957  1.00  0.00    -0.200 F 
ENDBRANCH  54  78
BRANCH  66  89
ATOM     89  C   UNL     1      -7.602 -19.033   7.980  1.00  0.00     0.064 A 
ATOM     90  C   UNL     1      -6.697 -19.503   8.942  1.00  0.00     0.173 A 
ATOM     91  C   UNL     1      -8.760 -19.789   7.742  1.00  0.00     0.173 A 
ATOM     92  F   UNL     1      -5.567 -18.824   9.195  1.00  0.00    -0.203 F 
ATOM     93  C   UNL     1      -6.932 -20.694   9.624  1.00  0.00     0.198 A 
ATOM     94  C   UNL     1      -9.005 -20.965   8.445  1.00  0.00     0.198 A 
ATOM     95  F   UNL     1      -9.661 -19.379   6.836  1.00  0.00    -0.203 F 
ATOM     96  F   UNL     1      -6.033 -21.147  10.509  1.00  0.00    -0.200 F 
ATOM     97  C   UNL     1      -8.089 -21.420   9.380  1.00  0.00     0.200 A 
ATOM     98  F   UNL     1     -10.129 -21.659   8.216  1.00  0.00    -0.200 F 
ATOM     99  F   UNL     1      -8.316 -22.563  10.042  1.00  0.00    -0.200 F 
ENDBRANCH  66  89
ENDBRANCH  40  41
ENDBRANCH  33  35
ENDBRANCH  32  33
ENDBRANCH  31  32
ENDBRANCH  30  31
ENDBRANCH   1  30
TORSDOF 18
