REMARK SMILES O=C(OCCOCCOC(=O)C1CCN(C(=O)CCN2C(=O)[C@H]3Cc4ccccc4CN3C2=O)CC1)c1ccc(-c2c3nc(c(-c4c(F)c(F)c(F)c(F)c4F)c4ccc([nH]4)c(-c4c(F)c(F)c(F)c(F)c4F)c4nc(c(-c5c(F)c(F)c(F)c(F)c5F)c5ccc2[nH]5)C=C4)C=C3)cc1
REMARK SMILES IDX 7 1 6 2 5 3 4 4 3 5 2 6 1 7 37 8 38 9 99 10 39 11 98 12
REMARK SMILES IDX 40 13 41 14 42 15 92 16 43 17 97 18 91 19 93 20 44 21 96 22
REMARK SMILES IDX 90 23 89 24 45 26 77 27 57 28 76 29 58 30 61 31 75 32 94 33
REMARK SMILES IDX 59 34 60 35 74 37 95 38 62 39 46 40 47 41 55 42 48 43 49 44
REMARK SMILES IDX 53 45 56 46 50 47 51 48 54 49 52 50 78 51 79 52 87 53 80 54
REMARK SMILES IDX 81 55 85 56 88 57 82 58 83 59 86 60 84 61 63 62 64 63 72 64
REMARK SMILES IDX 65 65 66 66 70 67 73 68 67 69 68 70 71 71 69 72 8 73 9 74
REMARK SMILES IDX 10 75 11 76 12 77 13 78 36 79 14 80 35 81 15 82 16 83 17 84
REMARK SMILES IDX 18 85 19 86 20 87 21 88 33 89 22 90 23 91 32 92 34 93 24 94
REMARK SMILES IDX 31 95 25 96 30 97 26 98 29 99 27 100 28 101
REMARK H PARENT 93 25 61 36
REMARK Flexibility Score: inf
ROOT
ATOM      1  C   UNL     1       2.201  -0.432   1.989  1.00  0.00     0.202 C 
ENDROOT
BRANCH   1   2
ATOM      2  O   UNL     1       3.572  -0.583   1.609  1.00  0.00    -0.374 OA
BRANCH   2   3
ATOM      3  C   UNL     1       4.192   0.571   1.038  1.00  0.00     0.202 C 
BRANCH   3   4
ATOM      4  C   UNL     1       4.002   0.819  -0.468  1.00  0.00     0.261 C 
BRANCH   4   5
ATOM      5  O   UNL     1       2.630   0.693  -0.852  1.00  0.00    -0.460 OA
BRANCH   5   6
ATOM      6  C   UNL     1       2.007  -0.448  -1.230  1.00  0.00     0.338 C 
ATOM      7  O   UNL     1       0.792  -0.426  -1.420  1.00  0.00    -0.246 OA
BRANCH   6   8
ATOM      8  C   UNL     1       2.724  -1.742  -1.432  1.00  0.00     0.060 A 
ATOM      9  C   UNL     1       2.114  -2.679  -2.279  1.00  0.00     0.016 A 
ATOM     10  C   UNL     1       3.900  -2.120  -0.781  1.00  0.00     0.016 A 
ATOM     11  C   UNL     1       2.654  -3.957  -2.424  1.00  0.00     0.010 A 
ATOM     12  C   UNL     1       4.465  -3.362  -0.940  1.00  0.00     0.010 A 
ATOM     13  C   UNL     1       3.822  -4.294  -1.733  1.00  0.00    -0.014 A 
BRANCH  13  14
ATOM     14  C   UNL     1       4.499  -5.580  -1.870  1.00  0.00     0.031 A 
ATOM     15  C   UNL     1       4.549  -6.522  -0.710  1.00  0.00     0.074 A 
ATOM     16  C   UNL     1       5.221  -5.747  -2.989  1.00  0.00     0.049 A 
ATOM     17  N   UNL     1       5.086  -7.709  -0.649  1.00  0.00    -0.248 NA
ATOM     18  C   UNL     1       3.965  -6.062   0.565  1.00  0.00     0.031 C 
ATOM     19  C   UNL     1       5.357  -4.747  -4.054  1.00  0.00     0.029 A 
ATOM     20  N   UNL     1       5.985  -6.792  -3.410  1.00  0.00    -0.354 N 
ATOM     21  C   UNL     1       4.871  -8.150   0.649  1.00  0.00     0.074 A 
ATOM     22  C   UNL     1       4.246  -7.072   1.377  1.00  0.00     0.031 C 
ATOM     23  C   UNL     1       6.115  -5.253  -5.035  1.00  0.00     0.029 A 
ATOM     24  C   UNL     1       6.513  -6.603  -4.662  1.00  0.00     0.049 A 
ATOM     25  H   UNL     1       6.142  -7.601  -2.872  1.00  0.00     0.167 HD
ATOM     26  C   UNL     1       5.141  -9.376   1.149  1.00  0.00     0.037 A 
ATOM     27  C   UNL     1       7.202  -7.463  -5.428  1.00  0.00     0.037 A 
ATOM     28  C   UNL     1       5.771 -10.404   0.363  1.00  0.00     0.049 A 
ATOM     29  C   UNL     1       7.415  -8.843  -4.878  1.00  0.00     0.074 A 
ATOM     30  C   UNL     1       6.038 -11.715   0.703  1.00  0.00     0.029 A 
ATOM     31  N   UNL     1       6.236 -10.218  -0.935  1.00  0.00    -0.354 N 
ATOM     32  N   UNL     1       7.076  -9.322  -3.702  1.00  0.00    -0.248 NA
ATOM     33  C   UNL     1       8.072  -9.810  -5.759  1.00  0.00     0.031 C 
ATOM     34  C   UNL     1       6.701 -12.310  -0.374  1.00  0.00     0.029 A 
ATOM     35  C   UNL     1       6.799 -11.388  -1.407  1.00  0.00     0.049 A 
ATOM     36  H   UNL     1       6.172  -9.377  -1.443  1.00  0.00     0.167 HD
ATOM     37  C   UNL     1       7.459 -10.651  -3.706  1.00  0.00     0.074 A 
ATOM     38  C   UNL     1       8.031 -10.907  -5.016  1.00  0.00     0.031 C 
ATOM     39  C   UNL     1       7.358 -11.580  -2.722  1.00  0.00     0.037 A 
BRANCH  26  40
ATOM     40  C   UNL     1       4.705  -9.699   2.549  1.00  0.00     0.064 A 
ATOM     41  C   UNL     1       3.343  -9.809   2.876  1.00  0.00     0.173 A 
ATOM     42  C   UNL     1       5.641 -10.019   3.543  1.00  0.00     0.173 A 
ATOM     43  F   UNL     1       2.403  -9.504   1.968  1.00  0.00    -0.203 F 
ATOM     44  C   UNL     1       2.937 -10.233   4.139  1.00  0.00     0.198 A 
ATOM     45  C   UNL     1       5.231 -10.468   4.798  1.00  0.00     0.198 A 
ATOM     46  F   UNL     1       6.955  -9.926   3.291  1.00  0.00    -0.203 F 
ATOM     47  F   UNL     1       1.631 -10.318   4.427  1.00  0.00    -0.200 F 
ATOM     48  C   UNL     1       3.881 -10.579   5.093  1.00  0.00     0.200 A 
ATOM     49  F   UNL     1       6.145 -10.813   5.716  1.00  0.00    -0.200 F 
ATOM     50  F   UNL     1       3.489 -11.021   6.296  1.00  0.00    -0.200 F 
ENDBRANCH  26  40
BRANCH  27  51
ATOM     51  C   UNL     1       7.583  -7.066  -6.805  1.00  0.00     0.064 A 
ATOM     52  C   UNL     1       6.930  -7.622  -7.913  1.00  0.00     0.173 A 
ATOM     53  C   UNL     1       8.531  -6.060  -7.045  1.00  0.00     0.173 A 
ATOM     54  F   UNL     1       6.007  -8.579  -7.735  1.00  0.00    -0.203 F 
ATOM     55  C   UNL     1       7.223  -7.203  -9.209  1.00  0.00     0.198 A 
ATOM     56  C   UNL     1       8.802  -5.620  -8.339  1.00  0.00     0.198 A 
ATOM     57  F   UNL     1       9.159  -5.471  -6.017  1.00  0.00    -0.203 F 
ATOM     58  F   UNL     1       6.600  -7.770 -10.250  1.00  0.00    -0.200 F 
ATOM     59  C   UNL     1       8.153  -6.196  -9.420  1.00  0.00     0.200 A 
ATOM     60  F   UNL     1       9.677  -4.625  -8.536  1.00  0.00    -0.200 F 
ATOM     61  F   UNL     1       8.418  -5.778 -10.665  1.00  0.00    -0.200 F 
ENDBRANCH  27  51
BRANCH  39  62
ATOM     62  C   UNL     1       7.881 -12.946  -3.038  1.00  0.00     0.064 A 
ATOM     63  C   UNL     1       9.257 -13.190  -3.141  1.00  0.00     0.173 A 
ATOM     64  C   UNL     1       7.000 -14.029  -3.171  1.00  0.00     0.173 A 
ATOM     65  F   UNL     1      10.133 -12.180  -3.029  1.00  0.00    -0.203 F 
ATOM     66  C   UNL     1       9.733 -14.471  -3.395  1.00  0.00     0.198 A 
ATOM     67  C   UNL     1       7.482 -15.314  -3.389  1.00  0.00     0.198 A 
ATOM     68  F   UNL     1       5.675 -13.842  -3.065  1.00  0.00    -0.203 F 
ATOM     69  F   UNL     1      11.049 -14.676  -3.539  1.00  0.00    -0.200 F 
ATOM     70  C   UNL     1       8.846 -15.532  -3.508  1.00  0.00     0.200 A 
ATOM     71  F   UNL     1       6.627 -16.342  -3.477  1.00  0.00    -0.200 F 
ATOM     72  F   UNL     1       9.309 -16.768  -3.737  1.00  0.00    -0.200 F 
ENDBRANCH  39  62
ENDBRANCH  13  14
ENDBRANCH   6   8
ENDBRANCH   5   6
ENDBRANCH   4   5
ENDBRANCH   3   4
ENDBRANCH   2   3
ENDBRANCH   1   2
BRANCH   1  73
ATOM     73  C   UNL     1       2.054  -0.100   3.471  1.00  0.00     0.261 C 
BRANCH  73  74
ATOM     74  O   UNL     1       2.590   1.219   3.703  1.00  0.00    -0.463 OA
BRANCH  74  75
ATOM     75  C   UNL     1       3.873   1.232   4.136  1.00  0.00     0.309 C 
ATOM     76  O   UNL     1       4.476   0.239   4.529  1.00  0.00    -0.252 OA
BRANCH  75  77
ATOM     77  C   UNL     1       4.494   2.628   4.130  1.00  0.00     0.103 C 
ATOM     78  C   UNL     1       3.928   3.729   3.220  1.00  0.00     0.037 C 
ATOM     79  C   UNL     1       5.996   2.508   3.988  1.00  0.00     0.037 C 
ATOM     80  C   UNL     1       4.588   3.989   1.852  1.00  0.00     0.120 C 
ATOM     81  C   UNL     1       6.550   2.687   2.603  1.00  0.00     0.120 C 
ATOM     82  N   UNL     1       6.008   3.670   1.737  1.00  0.00    -0.343 N 
ATOM     83  C   UNL     1       6.749   4.126   0.642  1.00  0.00     0.224 C 
ATOM     84  O   UNL     1       6.318   5.054  -0.052  1.00  0.00    -0.275 OA
BRANCH  83  85
ATOM     85  C   UNL     1       8.006   3.349   0.133  1.00  0.00     0.122 C 
BRANCH  85  86
ATOM     86  C   UNL     1       9.241   2.964   0.986  1.00  0.00     0.140 C 
BRANCH  86  87
ATOM     87  N   UNL     1       9.161   1.680   1.700  1.00  0.00    -0.262 N 
ATOM     88  C   UNL     1       8.791   0.470   1.159  1.00  0.00     0.253 C 
ATOM     89  C   UNL     1       9.361   1.540   3.055  1.00  0.00     0.327 C 
ATOM     90  O   UNL     1       8.644   0.214  -0.027  1.00  0.00    -0.272 OA
ATOM     91  C   UNL     1       8.374  -0.443   2.310  1.00  0.00     0.181 C 
ATOM     92  N   UNL     1       8.926   0.286   3.420  1.00  0.00    -0.308 N 
ATOM     93  O   UNL     1       9.742   2.407   3.832  1.00  0.00    -0.248 OA
ATOM     94  C   UNL     1       8.828  -1.885   2.315  1.00  0.00     0.071 C 
ATOM     95  C   UNL     1       8.701  -0.183   4.769  1.00  0.00     0.158 C 
ATOM     96  C   UNL     1       8.515  -2.491   3.674  1.00  0.00    -0.040 A 
ATOM     97  C   UNL     1       8.445  -1.673   4.827  1.00  0.00    -0.025 A 
ATOM     98  C   UNL     1       8.308  -3.870   3.798  1.00  0.00     0.004 A 
ATOM     99  C   UNL     1       8.106  -2.247   6.062  1.00  0.00     0.006 A 
ATOM    100  C   UNL     1       7.997  -4.429   5.040  1.00  0.00     0.000 A 
ATOM    101  C   UNL     1       7.883  -3.618   6.167  1.00  0.00     0.000 A 
ENDBRANCH  86  87
ENDBRANCH  85  86
ENDBRANCH  83  85
ENDBRANCH  75  77
ENDBRANCH  74  75
ENDBRANCH  73  74
ENDBRANCH   1  73
TORSDOF 17
