REMARK SMILES CCC[NH2+][C@@]1(C(=O)OCCOCCOC(=O)c2ccc(-c3c4nc(c(-c5c(F)c(F)c(F)c(F)c5F)c5ccc([nH]5)c(-c5c(F)c(F)c(F)c(F)c5F)c5nc(c(-c6c(F)c(F)c(F)c(F)c6F)c6ccc3[nH]6)C=C5)C=C4)cc2)CC[C@H]([N@H+](C)CCC)C1
REMARK SMILES IDX 10 1 9 2 8 3 6 4 7 5 5 6 80 7 88 8 81 9 82 10 4 11 3 14 2 15
REMARK SMILES IDX 1 16 83 17 84 18 85 20 86 21 87 22 11 23 12 24 13 25 14 26
REMARK SMILES IDX 15 27 16 28 17 29 18 30 79 31 19 32 78 33 20 34 21 35 22 36
REMARK SMILES IDX 72 37 23 38 77 39 71 40 73 41 24 42 76 43 70 44 69 45 25 47
REMARK SMILES IDX 57 48 37 49 56 50 38 51 41 52 55 53 74 54 39 55 40 56 54 58
REMARK SMILES IDX 75 59 42 60 26 61 27 62 35 63 28 64 29 65 33 66 36 67 30 68
REMARK SMILES IDX 31 69 34 70 32 71 58 72 59 73 67 74 60 75 61 76 65 77 68 78
REMARK SMILES IDX 62 79 63 80 66 81 64 82 43 83 44 84 52 85 45 86 46 87 50 88
REMARK SMILES IDX 53 89 47 90 48 91 51 92 49 93
REMARK H PARENT 4 12 4 13 83 19 73 46 41 57
REMARK Flexibility Score: inf
ROOT
ATOM      1  C   UNL     1       1.221   4.321   5.460  1.00  0.00     0.202 C 
ENDROOT
BRANCH   1   2
ATOM      2  C   UNL     1       2.377   4.074   4.496  1.00  0.00     0.261 C 
BRANCH   2   3
ATOM      3  O   UNL     1       1.894   4.319   3.168  1.00  0.00    -0.459 OA
BRANCH   3   4
ATOM      4  C   UNL     1       2.577   3.717   2.166  1.00  0.00     0.368 C 
ATOM      5  O   UNL     1       3.653   3.148   2.318  1.00  0.00    -0.245 OA
BRANCH   4   6
ATOM      6  C   UNL     1       1.792   3.770   0.822  1.00  0.00     0.200 C 
ATOM      7  C   UNL     1       2.763   4.192  -0.289  1.00  0.00     0.087 C 
ATOM      8  C   UNL     1       0.770   4.914   0.731  1.00  0.00     0.146 C 
ATOM      9  C   UNL     1       2.963   5.688  -0.014  1.00  0.00     0.072 C 
ATOM     10  C   UNL     1       1.575   6.208   0.441  1.00  0.00     0.191 C 
BRANCH   6  11
ATOM     11  N   UNL     1       1.056   2.513   0.527  1.00  0.00    -0.332 N 
ATOM     12  H   UNL     1       0.060   2.708   0.629  1.00  0.00     0.347 HD
ATOM     13  H   UNL     1       1.345   2.249  -0.415  1.00  0.00     0.347 HD
BRANCH  11  14
ATOM     14  C   UNL     1       1.368   1.355   1.362  1.00  0.00     0.261 C 
BRANCH  14  15
ATOM     15  C   UNL     1       0.555   0.125   0.940  1.00  0.00     0.058 C 
ATOM     16  C   UNL     1       0.929  -0.398  -0.440  1.00  0.00     0.010 C 
ENDBRANCH  14  15
ENDBRANCH  11  14
ENDBRANCH   6  11
BRANCH  10  17
ATOM     17  N   UNL     1       1.510   7.335   1.401  1.00  0.00    -0.335 N 
ATOM     18  C   UNL     1       2.729   7.614   2.147  1.00  0.00     0.332 C 
ATOM     19  H   UNL     1       1.429   8.147   0.790  1.00  0.00     0.348 HD
BRANCH  17  20
ATOM     20  C   UNL     1       0.302   7.325   2.234  1.00  0.00     0.261 C 
BRANCH  20  21
ATOM     21  C   UNL     1       0.039   8.534   3.131  1.00  0.00     0.058 C 
ATOM     22  C   UNL     1      -0.062   9.870   2.426  1.00  0.00     0.010 C 
ENDBRANCH  20  21
ENDBRANCH  17  20
ENDBRANCH  10  17
ENDBRANCH   4   6
ENDBRANCH   3   4
ENDBRANCH   2   3
ENDBRANCH   1   2
BRANCH   1  23
ATOM     23  O   UNL     1       0.192   3.330   5.351  1.00  0.00    -0.374 OA
BRANCH  23  24
ATOM     24  C   UNL     1      -0.799   3.589   4.352  1.00  0.00     0.202 C 
BRANCH  24  25
ATOM     25  C   UNL     1      -2.009   4.371   4.874  1.00  0.00     0.261 C 
BRANCH  25  26
ATOM     26  O   UNL     1      -1.635   5.695   5.295  1.00  0.00    -0.460 OA
BRANCH  26  27
ATOM     27  C   UNL     1      -1.416   5.836   6.629  1.00  0.00     0.338 C 
ATOM     28  O   UNL     1      -1.603   5.016   7.502  1.00  0.00    -0.246 OA
BRANCH  27  29
ATOM     29  C   UNL     1      -0.739   7.132   6.864  1.00  0.00     0.060 A 
ATOM     30  C   UNL     1       0.337   7.174   7.757  1.00  0.00     0.016 A 
ATOM     31  C   UNL     1      -1.153   8.294   6.217  1.00  0.00     0.016 A 
ATOM     32  C   UNL     1       0.970   8.390   8.034  1.00  0.00     0.010 A 
ATOM     33  C   UNL     1      -0.474   9.495   6.442  1.00  0.00     0.010 A 
ATOM     34  C   UNL     1       0.551   9.569   7.401  1.00  0.00    -0.014 A 
BRANCH  34  35
ATOM     35  C   UNL     1       1.017  10.898   7.892  1.00  0.00     0.031 A 
ATOM     36  C   UNL     1       0.013  11.815   8.551  1.00  0.00     0.074 A 
ATOM     37  C   UNL     1       2.300  11.293   7.786  1.00  0.00     0.049 A 
ATOM     38  N   UNL     1       0.170  13.025   9.029  1.00  0.00    -0.248 NA
ATOM     39  C   UNL     1      -1.369  11.317   8.644  1.00  0.00     0.031 C 
ATOM     40  C   UNL     1       3.376  10.539   7.145  1.00  0.00     0.029 A 
ATOM     41  N   UNL     1       2.916  12.440   8.229  1.00  0.00    -0.354 N 
ATOM     42  C   UNL     1      -1.095  13.436   9.433  1.00  0.00     0.074 A 
ATOM     43  C   UNL     1      -2.018  12.385   9.073  1.00  0.00     0.031 C 
ATOM     44  C   UNL     1       4.526  11.229   7.263  1.00  0.00     0.029 A 
ATOM     45  C   UNL     1       4.266  12.479   7.977  1.00  0.00     0.049 A 
ATOM     46  H   UNL     1       2.433  13.166   8.686  1.00  0.00     0.167 HD
ATOM     47  C   UNL     1      -1.460  14.561  10.092  1.00  0.00     0.037 A 
ATOM     48  C   UNL     1       5.185  13.410   8.301  1.00  0.00     0.037 A 
ATOM     49  C   UNL     1      -0.542  15.572  10.535  1.00  0.00     0.049 A 
ATOM     50  C   UNL     1       4.767  14.631   9.086  1.00  0.00     0.074 A 
ATOM     51  C   UNL     1      -0.803  16.716  11.267  1.00  0.00     0.029 A 
ATOM     52  N   UNL     1       0.824  15.544  10.305  1.00  0.00    -0.354 N 
ATOM     53  N   UNL     1       3.579  14.977   9.516  1.00  0.00    -0.248 NA
ATOM     54  C   UNL     1       5.832  15.580   9.448  1.00  0.00     0.031 C 
ATOM     55  C   UNL     1       0.405  17.393  11.464  1.00  0.00     0.029 A 
ATOM     56  C   UNL     1       1.421  16.649  10.886  1.00  0.00     0.049 A 
ATOM     57  H   UNL     1       1.299  14.843   9.802  1.00  0.00     0.167 HD
ATOM     58  C   UNL     1       3.758  16.156  10.230  1.00  0.00     0.074 A 
ATOM     59  C   UNL     1       5.172  16.461  10.186  1.00  0.00     0.031 C 
ATOM     60  C   UNL     1       2.835  16.920  10.864  1.00  0.00     0.037 A 
BRANCH  47  61
ATOM     61  C   UNL     1      -2.921  14.733  10.392  1.00  0.00     0.064 A 
ATOM     62  C   UNL     1      -3.584  13.910  11.317  1.00  0.00     0.173 A 
ATOM     63  C   UNL     1      -3.671  15.719   9.735  1.00  0.00     0.173 A 
ATOM     64  F   UNL     1      -2.915  12.940  11.958  1.00  0.00    -0.203 F 
ATOM     65  C   UNL     1      -4.953  14.035  11.534  1.00  0.00     0.198 A 
ATOM     66  C   UNL     1      -5.034  15.865   9.983  1.00  0.00     0.198 A 
ATOM     67  F   UNL     1      -3.086  16.536   8.847  1.00  0.00    -0.203 F 
ATOM     68  F   UNL     1      -5.577  13.186  12.363  1.00  0.00    -0.200 F 
ATOM     69  C   UNL     1      -5.676  15.014  10.871  1.00  0.00     0.200 A 
ATOM     70  F   UNL     1      -5.730  16.820   9.351  1.00  0.00    -0.200 F 
ATOM     71  F   UNL     1      -6.995  15.130  11.077  1.00  0.00    -0.200 F 
ENDBRANCH  47  61
BRANCH  48  72
ATOM     72  C   UNL     1       6.614  13.214   7.940  1.00  0.00     0.064 A 
ATOM     73  C   UNL     1       7.574  12.950   8.928  1.00  0.00     0.173 A 
ATOM     74  C   UNL     1       7.059  13.338   6.617  1.00  0.00     0.173 A 
ATOM     75  F   UNL     1       7.201  12.849  10.213  1.00  0.00    -0.203 F 
ATOM     76  C   UNL     1       8.927  12.851   8.612  1.00  0.00     0.198 A 
ATOM     77  C   UNL     1       8.410  13.212   6.297  1.00  0.00     0.198 A 
ATOM     78  F   UNL     1       6.182  13.590   5.634  1.00  0.00    -0.203 F 
ATOM     79  F   UNL     1       9.829  12.659   9.585  1.00  0.00    -0.200 F 
ATOM     80  C   UNL     1       9.344  12.980   7.296  1.00  0.00     0.200 A 
ATOM     81  F   UNL     1       8.809  13.331   5.024  1.00  0.00    -0.200 F 
ATOM     82  F   UNL     1      10.647  12.895   6.993  1.00  0.00    -0.200 F 
ENDBRANCH  48  72
BRANCH  60  83
ATOM     83  C   UNL     1       3.324  18.123  11.617  1.00  0.00     0.064 A 
ATOM     84  C   UNL     1       3.788  19.270  10.958  1.00  0.00     0.173 A 
ATOM     85  C   UNL     1       3.283  18.143  13.021  1.00  0.00     0.173 A 
ATOM     86  F   UNL     1       3.857  19.297   9.619  1.00  0.00    -0.203 F 
ATOM     87  C   UNL     1       4.219  20.383  11.677  1.00  0.00     0.198 A 
ATOM     88  C   UNL     1       3.687  19.267  13.734  1.00  0.00     0.198 A 
ATOM     89  F   UNL     1       2.838  17.074  13.699  1.00  0.00    -0.203 F 
ATOM     90  F   UNL     1       4.703  21.450  11.027  1.00  0.00    -0.200 F 
ATOM     91  C   UNL     1       4.162  20.383  13.062  1.00  0.00     0.200 A 
ATOM     92  F   UNL     1       3.617  19.271  15.073  1.00  0.00    -0.200 F 
ATOM     93  F   UNL     1       4.571  21.457  13.751  1.00  0.00    -0.200 F 
ENDBRANCH  60  83
ENDBRANCH  34  35
ENDBRANCH  27  29
ENDBRANCH  26  27
ENDBRANCH  25  26
ENDBRANCH  24  25
ENDBRANCH  23  24
ENDBRANCH   1  23
TORSDOF 20
