REMARK SMILES O=C(OCCOCCOC(=O)[C@H]1[C@H]2CC[C@H](C2)[C@H]1NC(=O)c1ccncc1Cl)c1ccc(-c2c3nc(c(-c4c(F)c(F)c(F)c(F)c4F)c4ccc([nH]4)c(-c4c(F)c(F)c(F)c(F)c4F)c4nc(c(-c5c(F)c(F)c(F)c(F)c5F)c5ccc2[nH]5)C=C4)C=C3)cc1
REMARK SMILES IDX 6 1 5 2 4 3 3 4 2 5 1 6 29 7 30 8 91 9 31 10 90 11 32 12
REMARK SMILES IDX 33 13 34 14 84 15 35 16 89 17 83 18 85 19 36 20 88 21 82 22
REMARK SMILES IDX 81 23 37 25 69 26 49 27 68 28 50 29 53 30 67 31 86 32 51 33
REMARK SMILES IDX 52 34 66 36 87 37 54 38 38 39 39 40 47 41 40 42 41 43 45 44
REMARK SMILES IDX 48 45 42 46 43 47 46 48 44 49 70 50 71 51 79 52 72 53 73 54
REMARK SMILES IDX 77 55 80 56 74 57 75 58 78 59 76 60 55 61 56 62 64 63 57 64
REMARK SMILES IDX 58 65 62 66 65 67 59 68 60 69 63 70 61 71 7 72 8 73 9 74
REMARK SMILES IDX 10 75 11 76 12 77 13 78 18 79 14 80 17 81 16 82 15 83 19 84
REMARK SMILES IDX 20 85 21 87 22 88 23 89 27 90 24 91 26 92 28 93 25 94
REMARK H PARENT 85 24 53 35 19 86
REMARK Flexibility Score: inf
ROOT
ATOM      1  O   UNL     1       6.498  -2.487   1.532  1.00  0.00    -0.374 OA
ENDROOT
BRANCH   1   2
ATOM      2  C   UNL     1       5.197  -3.061   1.528  1.00  0.00     0.202 C 
BRANCH   2   3
ATOM      3  C   UNL     1       4.100  -2.400   2.372  1.00  0.00     0.261 C 
BRANCH   3   4
ATOM      4  O   UNL     1       4.383  -1.074   2.855  1.00  0.00    -0.460 OA
BRANCH   4   5
ATOM      5  C   UNL     1       4.492  -0.788   4.176  1.00  0.00     0.338 C 
ATOM      6  O   UNL     1       4.100   0.283   4.641  1.00  0.00    -0.246 OA
BRANCH   5   7
ATOM      7  C   UNL     1       5.143  -1.794   5.039  1.00  0.00     0.060 A 
ATOM      8  C   UNL     1       6.069  -2.662   4.487  1.00  0.00     0.016 A 
ATOM      9  C   UNL     1       4.889  -1.876   6.403  1.00  0.00     0.016 A 
ATOM     10  C   UNL     1       6.517  -3.772   5.147  1.00  0.00     0.010 A 
ATOM     11  C   UNL     1       5.557  -2.847   7.156  1.00  0.00     0.010 A 
ATOM     12  C   UNL     1       6.362  -3.811   6.519  1.00  0.00    -0.014 A 
BRANCH  12  13
ATOM     13  C   UNL     1       7.084  -4.867   7.247  1.00  0.00     0.031 A 
ATOM     14  C   UNL     1       6.294  -5.812   8.080  1.00  0.00     0.074 A 
ATOM     15  C   UNL     1       8.418  -4.994   7.088  1.00  0.00     0.049 A 
ATOM     16  N   UNL     1       6.702  -6.629   9.008  1.00  0.00    -0.248 NA
ATOM     17  C   UNL     1       4.839  -5.820   7.855  1.00  0.00     0.031 C 
ATOM     18  C   UNL     1       9.254  -4.199   6.176  1.00  0.00     0.029 A 
ATOM     19  N   UNL     1       9.309  -5.856   7.667  1.00  0.00    -0.354 N 
ATOM     20  C   UNL     1       5.549  -7.184   9.539  1.00  0.00     0.074 A 
ATOM     21  C   UNL     1       4.426  -6.626   8.820  1.00  0.00     0.031 C 
ATOM     22  C   UNL     1      10.515  -4.646   6.219  1.00  0.00     0.029 A 
ATOM     23  C   UNL     1      10.607  -5.648   7.265  1.00  0.00     0.049 A 
ATOM     24  H   UNL     1       9.047  -6.556   8.307  1.00  0.00     0.167 HD
ATOM     25  C   UNL     1       5.464  -8.063  10.562  1.00  0.00     0.037 A 
ATOM     26  C   UNL     1      11.752  -6.154   7.754  1.00  0.00     0.037 A 
ATOM     27  C   UNL     1       6.627  -8.605  11.212  1.00  0.00     0.049 A 
ATOM     28  C   UNL     1      11.636  -7.079   8.930  1.00  0.00     0.074 A 
ATOM     29  C   UNL     1       6.703  -9.457  12.296  1.00  0.00     0.029 A 
ATOM     30  N   UNL     1       7.934  -8.345  10.809  1.00  0.00    -0.354 N 
ATOM     31  N   UNL     1      10.553  -7.512   9.533  1.00  0.00    -0.248 NA
ATOM     32  C   UNL     1      12.889  -7.559   9.518  1.00  0.00     0.031 C 
ATOM     33  C   UNL     1       8.058  -9.680  12.571  1.00  0.00     0.029 A 
ATOM     34  C   UNL     1       8.826  -9.014  11.626  1.00  0.00     0.049 A 
ATOM     35  H   UNL     1       8.187  -7.768  10.052  1.00  0.00     0.167 HD
ATOM     36  C   UNL     1      10.987  -8.329  10.562  1.00  0.00     0.074 A 
ATOM     37  C   UNL     1      12.438  -8.343  10.487  1.00  0.00     0.031 C 
ATOM     38  C   UNL     1      10.263  -9.002  11.489  1.00  0.00     0.037 A 
BRANCH  25  39
ATOM     39  C   UNL     1       4.090  -8.384  11.069  1.00  0.00     0.064 A 
ATOM     40  C   UNL     1       3.164  -9.120  10.315  1.00  0.00     0.173 A 
ATOM     41  C   UNL     1       3.666  -7.872  12.305  1.00  0.00     0.173 A 
ATOM     42  F   UNL     1       3.505  -9.603   9.111  1.00  0.00    -0.203 F 
ATOM     43  C   UNL     1       1.853  -9.292  10.758  1.00  0.00     0.198 A 
ATOM     44  C   UNL     1       2.366  -8.074  12.760  1.00  0.00     0.198 A 
ATOM     45  F   UNL     1       4.506  -7.151  13.063  1.00  0.00    -0.203 F 
ATOM     46  F   UNL     1       0.964  -9.928   9.983  1.00  0.00    -0.200 F 
ATOM     47  C   UNL     1       1.457  -8.771  11.980  1.00  0.00     0.200 A 
ATOM     48  F   UNL     1       1.986  -7.570  13.943  1.00  0.00    -0.200 F 
ATOM     49  F   UNL     1       0.192  -8.922  12.397  1.00  0.00    -0.200 F 
ENDBRANCH  25  39
BRANCH  26  50
ATOM     50  C   UNL     1      13.066  -5.735   7.194  1.00  0.00     0.064 A 
ATOM     51  C   UNL     1      13.900  -6.653   6.543  1.00  0.00     0.173 A 
ATOM     52  C   UNL     1      13.511  -4.404   7.277  1.00  0.00     0.173 A 
ATOM     53  F   UNL     1      13.533  -7.940   6.449  1.00  0.00    -0.203 F 
ATOM     54  C   UNL     1      15.129  -6.263   6.012  1.00  0.00     0.198 A 
ATOM     55  C   UNL     1      14.724  -4.008   6.716  1.00  0.00     0.198 A 
ATOM     56  F   UNL     1      12.755  -3.478   7.885  1.00  0.00    -0.203 F 
ATOM     57  F   UNL     1      15.924  -7.173   5.433  1.00  0.00    -0.200 F 
ATOM     58  C   UNL     1      15.536  -4.940   6.091  1.00  0.00     0.200 A 
ATOM     59  F   UNL     1      15.101  -2.724   6.778  1.00  0.00    -0.200 F 
ATOM     60  F   UNL     1      16.714  -4.565   5.573  1.00  0.00    -0.200 F 
ENDBRANCH  26  50
BRANCH  38  61
ATOM     61  C   UNL     1      11.037  -9.848  12.451  1.00  0.00     0.064 A 
ATOM     62  C   UNL     1      11.779  -9.283  13.496  1.00  0.00     0.173 A 
ATOM     63  C   UNL     1      10.985 -11.246  12.349  1.00  0.00     0.173 A 
ATOM     64  F   UNL     1      11.871  -7.950  13.616  1.00  0.00    -0.203 F 
ATOM     65  C   UNL     1      12.459 -10.091  14.400  1.00  0.00     0.198 A 
ATOM     66  C   UNL     1      11.639 -12.050  13.274  1.00  0.00     0.198 A 
ATOM     67  F   UNL     1      10.284 -11.827  11.364  1.00  0.00    -0.203 F 
ATOM     68  F   UNL     1      13.198  -9.534  15.369  1.00  0.00    -0.200 F 
ATOM     69  C   UNL     1      12.380 -11.473  14.295  1.00  0.00     0.200 A 
ATOM     70  F   UNL     1      11.550 -13.384  13.179  1.00  0.00    -0.200 F 
ATOM     71  F   UNL     1      13.023 -12.250  15.177  1.00  0.00    -0.200 F 
ENDBRANCH  38  61
ENDBRANCH  12  13
ENDBRANCH   5   7
ENDBRANCH   4   5
ENDBRANCH   3   4
ENDBRANCH   2   3
ENDBRANCH   1   2
BRANCH   1  72
ATOM     72  C   UNL     1       6.629  -1.200   0.946  1.00  0.00     0.202 C 
BRANCH  72  73
ATOM     73  C   UNL     1       7.119  -1.299  -0.490  1.00  0.00     0.261 C 
BRANCH  73  74
ATOM     74  O   UNL     1       6.133  -1.949  -1.313  1.00  0.00    -0.463 OA
BRANCH  74  75
ATOM     75  C   UNL     1       6.193  -3.313  -1.371  1.00  0.00     0.311 C 
ATOM     76  O   UNL     1       7.040  -4.005  -0.812  1.00  0.00    -0.252 OA
BRANCH  75  77
ATOM     77  C   UNL     1       5.075  -3.831  -2.242  1.00  0.00     0.125 C 
ATOM     78  C   UNL     1       5.641  -4.644  -3.432  1.00  0.00     0.006 C 
ATOM     79  C   UNL     1       3.883  -4.707  -1.735  1.00  0.00     0.100 C 
ATOM     80  C   UNL     1       6.345  -5.933  -2.972  1.00  0.00     0.005 C 
ATOM     81  C   UNL     1       4.353  -5.216  -4.022  1.00  0.00     0.010 C 
ATOM     82  C   UNL     1       3.957  -5.910  -2.718  1.00  0.00     0.013 C 
ATOM     83  C   UNL     1       5.194  -6.786  -2.441  1.00  0.00     0.006 C 
BRANCH  79  84
ATOM     84  N   UNL     1       3.761  -5.169  -0.358  1.00  0.00    -0.348 N 
ATOM     85  C   UNL     1       2.668  -5.229   0.492  1.00  0.00     0.253 C 
ATOM     86  H   UNL     1       4.602  -5.494   0.038  1.00  0.00     0.164 HD
ATOM     87  O   UNL     1       2.793  -5.814   1.569  1.00  0.00    -0.269 OA
BRANCH  85  88
ATOM     88  C   UNL     1       1.428  -4.439   0.279  1.00  0.00     0.061 A 
ATOM     89  C   UNL     1       1.071  -3.580   1.331  1.00  0.00     0.035 A 
ATOM     90  C   UNL     1       0.586  -4.501  -0.823  1.00  0.00     0.072 A 
ATOM     91  C   UNL     1       0.040  -2.675   1.154  1.00  0.00     0.112 A 
ATOM     92  C   UNL     1      -0.429  -3.554  -0.913  1.00  0.00     0.132 A 
ATOM     93  Cl  UNL     1       0.618  -5.752  -1.995  1.00  0.00    -0.082 Cl
ATOM     94  N   UNL     1      -0.691  -2.616   0.029  1.00  0.00    -0.263 NA
ENDBRANCH  85  88
ENDBRANCH  79  84
ENDBRANCH  75  77
ENDBRANCH  74  75
ENDBRANCH  73  74
ENDBRANCH  72  73
ENDBRANCH   1  72
TORSDOF 16
