REMARK SMILES O=C(OCCOCCOC(=O)c1cccc([C@@H]2CCC[N@@H+](Cc3cccc(OCCO)c3)C2)c1)c1ccc(-c2c3nc(c(-c4c(F)c(F)c(F)c(F)c4F)c4ccc([nH]4)c(-c4c(F)c(F)c(F)c(F)c4F)c4nc(c(-c5c(F)c(F)c(F)c(F)c5F)c5ccc2[nH]5)C=C4)C=C3)cc1
REMARK SMILES IDX 8 1 7 2 6 3 5 4 4 5 3 6 2 7 1 8 35 9 36 10 97 11 37 12 96 13
REMARK SMILES IDX 38 14 39 15 40 16 90 17 41 18 95 19 89 20 91 21 42 22 94 23
REMARK SMILES IDX 88 24 87 25 43 27 75 28 55 29 74 30 56 31 59 32 73 33 92 34
REMARK SMILES IDX 57 35 58 36 72 38 93 39 60 40 44 41 45 42 53 43 46 44 47 45
REMARK SMILES IDX 51 46 54 47 48 48 49 49 52 50 50 51 76 52 77 53 85 54 78 55
REMARK SMILES IDX 79 56 83 57 86 58 80 59 81 60 84 61 82 62 61 63 62 64 70 65
REMARK SMILES IDX 63 66 64 67 68 68 71 69 65 70 66 71 69 72 67 73 9 74 10 75
REMARK SMILES IDX 11 76 12 77 13 78 34 79 14 80 16 81 15 82 17 83 18 84 33 85
REMARK SMILES IDX 19 86 21 87 20 88 22 90 23 91 24 92 32 93 25 94 27 95 26 96
REMARK SMILES IDX 28 97 29 98 30 99 31 100
REMARK H PARENT 91 26 59 37 21 89 31 101
REMARK Flexibility Score: inf
ROOT
ATOM      1  C   UNL     1       3.129   2.662  -2.413  1.00  0.00     0.261 C 
ENDROOT
BRANCH   1   2
ATOM      2  C   UNL     1       2.745   1.424  -1.596  1.00  0.00     0.202 C 
BRANCH   2   3
ATOM      3  O   UNL     1       3.943   0.820  -1.109  1.00  0.00    -0.374 OA
BRANCH   3   4
ATOM      4  C   UNL     1       4.120  -0.570  -1.369  1.00  0.00     0.202 C 
BRANCH   4   5
ATOM      5  C   UNL     1       3.799  -1.431  -0.149  1.00  0.00     0.261 C 
BRANCH   5   6
ATOM      6  O   UNL     1       2.440  -1.215   0.262  1.00  0.00    -0.460 OA
BRANCH   6   7
ATOM      7  C   UNL     1       1.969  -0.330   1.171  1.00  0.00     0.338 C 
ATOM      8  O   UNL     1       0.750  -0.224   1.304  1.00  0.00    -0.246 OA
BRANCH   7   9
ATOM      9  C   UNL     1       2.833   0.500   2.069  1.00  0.00     0.060 A 
ATOM     10  C   UNL     1       4.119   0.952   1.771  1.00  0.00     0.016 A 
ATOM     11  C   UNL     1       2.260   0.919   3.284  1.00  0.00     0.016 A 
ATOM     12  C   UNL     1       4.831   1.757   2.643  1.00  0.00     0.010 A 
ATOM     13  C   UNL     1       2.964   1.742   4.170  1.00  0.00     0.010 A 
ATOM     14  C   UNL     1       4.263   2.145   3.851  1.00  0.00    -0.014 A 
BRANCH  14  15
ATOM     15  C   UNL     1       5.149   2.832   4.803  1.00  0.00     0.031 A 
ATOM     16  C   UNL     1       5.785   2.010   5.878  1.00  0.00     0.074 A 
ATOM     17  C   UNL     1       5.519   4.101   4.560  1.00  0.00     0.049 A 
ATOM     18  N   UNL     1       6.639   2.364   6.799  1.00  0.00    -0.248 NA
ATOM     19  C   UNL     1       5.429   0.580   5.903  1.00  0.00     0.031 C 
ATOM     20  C   UNL     1       5.054   4.910   3.430  1.00  0.00     0.029 A 
ATOM     21  N   UNL     1       6.408   4.912   5.209  1.00  0.00    -0.354 N 
ATOM     22  C   UNL     1       6.899   1.212   7.527  1.00  0.00     0.074 A 
ATOM     23  C   UNL     1       6.119   0.145   6.944  1.00  0.00     0.031 C 
ATOM     24  C   UNL     1       5.692   6.091   3.447  1.00  0.00     0.029 A 
ATOM     25  C   UNL     1       6.557   6.143   4.620  1.00  0.00     0.049 A 
ATOM     26  H   UNL     1       6.895   4.639   6.020  1.00  0.00     0.167 HD
ATOM     27  C   UNL     1       7.712   1.074   8.599  1.00  0.00     0.037 A 
ATOM     28  C   UNL     1       7.298   7.195   5.013  1.00  0.00     0.037 A 
ATOM     29  C   UNL     1       8.476   2.160   9.148  1.00  0.00     0.049 A 
ATOM     30  C   UNL     1       8.121   7.040   6.265  1.00  0.00     0.074 A 
ATOM     31  C   UNL     1       9.275   2.179  10.274  1.00  0.00     0.029 A 
ATOM     32  N   UNL     1       8.530   3.433   8.591  1.00  0.00    -0.354 N 
ATOM     33  N   UNL     1       8.300   5.975   7.011  1.00  0.00    -0.248 NA
ATOM     34  C   UNL     1       8.830   8.233   6.740  1.00  0.00     0.031 C 
ATOM     35  C   UNL     1       9.776   3.478  10.423  1.00  0.00     0.029 A 
ATOM     36  C   UNL     1       9.335   4.253   9.360  1.00  0.00     0.049 A 
ATOM     37  H   UNL     1       8.063   3.710   7.769  1.00  0.00     0.167 HD
ATOM     38  C   UNL     1       9.156   6.359   8.031  1.00  0.00     0.074 A 
ATOM     39  C   UNL     1       9.476   7.755   7.794  1.00  0.00     0.031 C 
ATOM     40  C   UNL     1       9.634   5.634   9.073  1.00  0.00     0.037 A 
BRANCH  27  41
ATOM     41  C   UNL     1       7.721  -0.264   9.276  1.00  0.00     0.064 A 
ATOM     42  C   UNL     1       8.314  -1.395   8.696  1.00  0.00     0.173 A 
ATOM     43  C   UNL     1       7.066  -0.426  10.507  1.00  0.00     0.173 A 
ATOM     44  F   UNL     1       8.923  -1.302   7.504  1.00  0.00    -0.203 F 
ATOM     45  C   UNL     1       8.221  -2.645   9.306  1.00  0.00     0.198 A 
ATOM     46  C   UNL     1       6.998  -1.671  11.127  1.00  0.00     0.198 A 
ATOM     47  F   UNL     1       6.471   0.620  11.099  1.00  0.00    -0.203 F 
ATOM     48  F   UNL     1       8.735  -3.725   8.701  1.00  0.00    -0.200 F 
ATOM     49  C   UNL     1       7.565  -2.781  10.521  1.00  0.00     0.200 A 
ATOM     50  F   UNL     1       6.364  -1.799  12.300  1.00  0.00    -0.200 F 
ATOM     51  F   UNL     1       7.464  -3.986  11.099  1.00  0.00    -0.200 F 
ENDBRANCH  27  41
BRANCH  28  52
ATOM     52  C   UNL     1       7.262   8.474   4.252  1.00  0.00     0.064 A 
ATOM     53  C   UNL     1       8.407   8.984   3.624  1.00  0.00     0.173 A 
ATOM     54  C   UNL     1       6.081   9.226   4.153  1.00  0.00     0.173 A 
ATOM     55  F   UNL     1       9.569   8.320   3.706  1.00  0.00    -0.203 F 
ATOM     56  C   UNL     1       8.375  10.202   2.944  1.00  0.00     0.198 A 
ATOM     57  C   UNL     1       6.042  10.427   3.447  1.00  0.00     0.198 A 
ATOM     58  F   UNL     1       4.955   8.792   4.740  1.00  0.00    -0.203 F 
ATOM     59  F   UNL     1       9.497  10.691   2.397  1.00  0.00    -0.200 F 
ATOM     60  C   UNL     1       7.192  10.919   2.851  1.00  0.00     0.200 A 
ATOM     61  F   UNL     1       4.892  11.108   3.350  1.00  0.00    -0.200 F 
ATOM     62  F   UNL     1       7.162  12.089   2.198  1.00  0.00    -0.200 F 
ENDBRANCH  28  52
BRANCH  40  63
ATOM     63  C   UNL     1      10.582   6.333  10.000  1.00  0.00     0.064 A 
ATOM     64  C   UNL     1      10.142   7.309  10.904  1.00  0.00     0.173 A 
ATOM     65  C   UNL     1      11.941   5.986  10.007  1.00  0.00     0.173 A 
ATOM     66  F   UNL     1       8.853   7.682  10.922  1.00  0.00    -0.203 F 
ATOM     67  C   UNL     1      11.036   7.936  11.765  1.00  0.00     0.198 A 
ATOM     68  C   UNL     1      12.826   6.592  10.891  1.00  0.00     0.198 A 
ATOM     69  F   UNL     1      12.406   5.051   9.165  1.00  0.00    -0.203 F 
ATOM     70  F   UNL     1      10.606   8.903  12.587  1.00  0.00    -0.200 F 
ATOM     71  C   UNL     1      12.375   7.572  11.763  1.00  0.00     0.200 A 
ATOM     72  F   UNL     1      14.116   6.229  10.899  1.00  0.00    -0.200 F 
ATOM     73  F   UNL     1      13.234   8.171  12.599  1.00  0.00    -0.200 F 
ENDBRANCH  40  63
ENDBRANCH  14  15
ENDBRANCH   7   9
ENDBRANCH   6   7
ENDBRANCH   5   6
ENDBRANCH   4   5
ENDBRANCH   3   4
ENDBRANCH   2   3
ENDBRANCH   1   2
BRANCH   1  74
ATOM     74  O   UNL     1       3.917   2.242  -3.532  1.00  0.00    -0.460 OA
BRANCH  74  75
ATOM     75  C   UNL     1       5.221   1.949  -3.279  1.00  0.00     0.338 C 
ATOM     76  O   UNL     1       5.931   2.441  -2.418  1.00  0.00    -0.246 OA
BRANCH  75  77
ATOM     77  C   UNL     1       5.607   0.801  -4.140  1.00  0.00     0.060 A 
ATOM     78  C   UNL     1       6.733   0.026  -3.866  1.00  0.00     0.016 A 
ATOM     79  C   UNL     1       4.803   0.466  -5.224  1.00  0.00     0.020 A 
ATOM     80  C   UNL     1       7.039  -1.063  -4.690  1.00  0.00     0.001 A 
ATOM     81  C   UNL     1       5.164  -0.524  -6.133  1.00  0.00    -0.038 A 
ATOM     82  C   UNL     1       6.272  -1.322  -5.833  1.00  0.00     0.004 A 
BRANCH  81  83
ATOM     83  C   UNL     1       4.424  -0.618  -7.453  1.00  0.00     0.074 C 
ATOM     84  C   UNL     1       4.613   0.666  -8.289  1.00  0.00     0.020 C 
ATOM     85  C   UNL     1       2.927  -0.958  -7.310  1.00  0.00     0.270 C 
ATOM     86  C   UNL     1       3.663   1.804  -7.907  1.00  0.00     0.062 C 
ATOM     87  N   UNL     1       2.053   0.153  -6.893  1.00  0.00    -0.331 N 
ATOM     88  C   UNL     1       2.213   1.338  -7.750  1.00  0.00     0.262 C 
ATOM     89  H   UNL     1       2.361   0.423  -5.959  1.00  0.00     0.348 HD
BRANCH  87  90
ATOM     90  C   UNL     1       0.630  -0.254  -6.751  1.00  0.00     0.299 C 
BRANCH  90  91
ATOM     91  C   UNL     1      -0.115  -0.458  -8.060  1.00  0.00     0.010 A 
ATOM     92  C   UNL     1      -0.995   0.516  -8.548  1.00  0.00     0.010 A 
ATOM     93  C   UNL     1       0.193  -1.560  -8.872  1.00  0.00     0.056 A 
ATOM     94  C   UNL     1      -1.481   0.425  -9.852  1.00  0.00     0.004 A 
ATOM     95  C   UNL     1      -0.178  -1.587 -10.212  1.00  0.00     0.119 A 
ATOM     96  C   UNL     1      -1.047  -0.606 -10.689  1.00  0.00     0.046 A 
BRANCH  95  97
ATOM     97  O   UNL     1       0.288  -2.473 -11.146  1.00  0.00    -0.491 OA
BRANCH  97  98
ATOM     98  C   UNL     1       1.510  -3.178 -10.877  1.00  0.00     0.257 C 
BRANCH  98  99
ATOM     99  C   UNL     1       2.750  -2.419 -11.364  1.00  0.00     0.197 C 
BRANCH  99 100
ATOM    100  O   UNL     1       2.919  -1.162 -10.722  1.00  0.00    -0.393 OA
ATOM    101  H   UNL     1       2.157  -0.594 -10.917  1.00  0.00     0.210 HD
ENDBRANCH  99 100
ENDBRANCH  98  99
ENDBRANCH  97  98
ENDBRANCH  95  97
ENDBRANCH  90  91
ENDBRANCH  87  90
ENDBRANCH  81  83
ENDBRANCH  75  77
ENDBRANCH  74  75
ENDBRANCH   1  74
TORSDOF 21
