REMARK SMILES C[C@H](CC(=O)OCCOCCOC(=O)c1ccc(-c2c3nc(c(-c4c(F)c(F)c(F)c(F)c4F)c4ccc([nH]4)c(-c4c(F)c(F)c(F)c(F)c4F)c4nc(c(-c5c(F)c(F)c(F)c(F)c5F)c5ccc2[nH]5)C=C4)C=C3)cc1)NC(=O)CS[C@H]1CCS(=O)(=O)C1
REMARK SMILES IDX 7 1 6 2 4 3 5 4 3 5 2 6 1 7 78 8 79 9 80 11 81 12 82 13
REMARK SMILES IDX 83 14 84 15 89 16 85 17 86 18 87 19 88 20 8 21 9 22 10 23
REMARK SMILES IDX 11 24 12 25 13 26 14 27 15 28 16 29 77 30 17 31 76 32 18 33
REMARK SMILES IDX 19 34 20 35 70 36 21 37 75 38 69 39 71 40 22 41 74 42 68 43
REMARK SMILES IDX 67 44 23 46 55 47 35 48 54 49 36 50 39 51 53 52 72 53 37 54
REMARK SMILES IDX 38 55 52 57 73 58 40 59 24 60 25 61 33 62 26 63 27 64 31 65
REMARK SMILES IDX 34 66 28 67 29 68 32 69 30 70 56 71 57 72 65 73 58 74 59 75
REMARK SMILES IDX 63 76 66 77 60 78 61 79 64 80 62 81 41 82 42 83 50 84 43 85
REMARK SMILES IDX 44 86 48 87 51 88 45 89 46 90 49 91 47 92
REMARK H PARENT 78 10 71 45 39 56
REMARK Flexibility Score: inf
ROOT
ATOM      1  C   UNL     1      -1.341   0.091  -2.928  1.00  0.00     0.261 C 
ENDROOT
BRANCH   1   2
ATOM      2  O   UNL     1      -1.911   0.046  -1.608  1.00  0.00    -0.463 OA
BRANCH   2   3
ATOM      3  C   UNL     1      -2.737  -0.996  -1.398  1.00  0.00     0.307 C 
ATOM      4  O   UNL     1      -3.159  -1.730  -2.285  1.00  0.00    -0.252 OA
BRANCH   3   5
ATOM      5  C   UNL     1      -3.013  -1.292   0.054  1.00  0.00     0.147 C 
BRANCH   5   6
ATOM      6  C   UNL     1      -2.728  -0.347   1.240  1.00  0.00     0.090 C 
ATOM      7  C   UNL     1      -2.798   1.151   0.982  1.00  0.00     0.031 C 
BRANCH   6   8
ATOM      8  N   UNL     1      -3.693  -0.680   2.310  1.00  0.00    -0.352 N 
ATOM      9  C   UNL     1      -3.600  -1.278   3.530  1.00  0.00     0.230 C 
ATOM     10  H   UNL     1      -4.613  -0.407   2.090  1.00  0.00     0.163 HD
ATOM     11  O   UNL     1      -4.667  -1.551   4.088  1.00  0.00    -0.274 OA
BRANCH   9  12
ATOM     12  C   UNL     1      -2.262  -1.543   4.206  1.00  0.00     0.169 C 
BRANCH  12  13
ATOM     13  S   UNL     1      -1.981  -3.338   4.497  1.00  0.00    -0.148 SA
BRANCH  13  14
ATOM     14  C   UNL     1      -0.564  -3.684   3.389  1.00  0.00     0.063 C 
ATOM     15  C   UNL     1      -0.300  -5.191   3.260  1.00  0.00     0.031 C 
ATOM     16  C   UNL     1      -0.854  -3.200   1.987  1.00  0.00     0.151 C 
ATOM     17  C   UNL     1       0.661  -5.356   2.083  1.00  0.00     0.138 C 
ATOM     18  S   UNL     1       0.115  -4.171   0.875  1.00  0.00     0.151 S 
ATOM     19  O   UNL     1       1.242  -3.357   0.453  1.00  0.00    -0.229 OA
ATOM     20  O   UNL     1      -0.780  -4.803  -0.061  1.00  0.00    -0.229 OA
ENDBRANCH  13  14
ENDBRANCH  12  13
ENDBRANCH   9  12
ENDBRANCH   6   8
ENDBRANCH   5   6
ENDBRANCH   3   5
ENDBRANCH   2   3
ENDBRANCH   1   2
BRANCH   1  21
ATOM     21  C   UNL     1       0.028   0.758  -2.868  1.00  0.00     0.202 C 
BRANCH  21  22
ATOM     22  O   UNL     1       1.009   0.062  -2.105  1.00  0.00    -0.374 OA
BRANCH  22  23
ATOM     23  C   UNL     1       0.920   0.139  -0.679  1.00  0.00     0.202 C 
BRANCH  23  24
ATOM     24  C   UNL     1       1.270   1.503  -0.062  1.00  0.00     0.261 C 
BRANCH  24  25
ATOM     25  O   UNL     1       0.174   2.435  -0.192  1.00  0.00    -0.460 OA
BRANCH  25  26
ATOM     26  C   UNL     1       0.408   3.538  -0.947  1.00  0.00     0.338 C 
ATOM     27  O   UNL     1       1.472   3.903  -1.415  1.00  0.00    -0.246 OA
BRANCH  26  28
ATOM     28  C   UNL     1      -0.894   4.109  -1.360  1.00  0.00     0.060 A 
ATOM     29  C   UNL     1      -1.161   4.200  -2.734  1.00  0.00     0.016 A 
ATOM     30  C   UNL     1      -1.843   4.537  -0.430  1.00  0.00     0.016 A 
ATOM     31  C   UNL     1      -2.378   4.709  -3.184  1.00  0.00     0.010 A 
ATOM     32  C   UNL     1      -3.054   5.074  -0.884  1.00  0.00     0.010 A 
ATOM     33  C   UNL     1      -3.323   5.174  -2.262  1.00  0.00    -0.014 A 
BRANCH  33  34
ATOM     34  C   UNL     1      -4.527   5.892  -2.747  1.00  0.00     0.031 A 
ATOM     35  C   UNL     1      -4.511   7.394  -2.780  1.00  0.00     0.074 A 
ATOM     36  C   UNL     1      -5.611   5.222  -3.178  1.00  0.00     0.049 A 
ATOM     37  N   UNL     1      -5.463   8.229  -3.111  1.00  0.00    -0.248 NA
ATOM     38  C   UNL     1      -3.249   8.041  -2.390  1.00  0.00     0.031 C 
ATOM     39  C   UNL     1      -5.730   3.768  -3.254  1.00  0.00     0.029 A 
ATOM     40  N   UNL     1      -6.824   5.685  -3.627  1.00  0.00    -0.354 N 
ATOM     41  C   UNL     1      -4.917   9.498  -2.965  1.00  0.00     0.074 A 
ATOM     42  C   UNL     1      -3.561   9.325  -2.492  1.00  0.00     0.031 C 
ATOM     43  C   UNL     1      -6.958   3.456  -3.703  1.00  0.00     0.029 A 
ATOM     44  C   UNL     1      -7.723   4.686  -3.909  1.00  0.00     0.049 A 
ATOM     45  H   UNL     1      -7.030   6.641  -3.735  1.00  0.00     0.167 HD
ATOM     46  C   UNL     1      -5.496  10.698  -3.208  1.00  0.00     0.037 A 
ATOM     47  C   UNL     1      -9.023   4.758  -4.261  1.00  0.00     0.037 A 
ATOM     48  C   UNL     1      -6.846  10.869  -3.677  1.00  0.00     0.049 A 
ATOM     49  C   UNL     1      -9.675   6.109  -4.423  1.00  0.00     0.074 A 
ATOM     50  C   UNL     1      -7.509  12.045  -3.981  1.00  0.00     0.029 A 
ATOM     51  N   UNL     1      -7.744   9.836  -3.894  1.00  0.00    -0.354 N 
ATOM     52  N   UNL     1      -9.146   7.303  -4.313  1.00  0.00    -0.248 NA
ATOM     53  C   UNL     1     -11.109   6.120  -4.752  1.00  0.00     0.031 C 
ATOM     54  C   UNL     1      -8.828  11.728  -4.319  1.00  0.00     0.029 A 
ATOM     55  C   UNL     1      -8.971  10.350  -4.284  1.00  0.00     0.049 A 
ATOM     56  H   UNL     1      -7.541   8.878  -3.788  1.00  0.00     0.167 HD
ATOM     57  C   UNL     1     -10.171   8.203  -4.578  1.00  0.00     0.074 A 
ATOM     58  C   UNL     1     -11.350   7.418  -4.874  1.00  0.00     0.031 C 
ATOM     59  C   UNL     1     -10.140   9.559  -4.573  1.00  0.00     0.037 A 
BRANCH  46  60
ATOM     60  C   UNL     1      -4.682  11.929  -2.937  1.00  0.00     0.064 A 
ATOM     61  C   UNL     1      -3.602  12.297  -3.752  1.00  0.00     0.173 A 
ATOM     62  C   UNL     1      -5.019  12.776  -1.870  1.00  0.00     0.173 A 
ATOM     63  F   UNL     1      -3.230  11.513  -4.776  1.00  0.00    -0.203 F 
ATOM     64  C   UNL     1      -2.874  13.456  -3.496  1.00  0.00     0.198 A 
ATOM     65  C   UNL     1      -4.309  13.950  -1.635  1.00  0.00     0.198 A 
ATOM     66  F   UNL     1      -6.045  12.471  -1.062  1.00  0.00    -0.203 F 
ATOM     67  F   UNL     1      -1.819  13.766  -4.261  1.00  0.00    -0.200 F 
ATOM     68  C   UNL     1      -3.233  14.286  -2.443  1.00  0.00     0.200 A 
ATOM     69  F   UNL     1      -4.665  14.756  -0.626  1.00  0.00    -0.200 F 
ATOM     70  F   UNL     1      -2.539  15.406  -2.204  1.00  0.00    -0.200 F 
ENDBRANCH  46  60
BRANCH  47  71
ATOM     71  C   UNL     1      -9.815   3.511  -4.444  1.00  0.00     0.064 A 
ATOM     72  C   UNL     1     -10.323   3.150  -5.699  1.00  0.00     0.173 A 
ATOM     73  C   UNL     1     -10.110   2.674  -3.356  1.00  0.00     0.173 A 
ATOM     74  F   UNL     1     -10.097   3.933  -6.763  1.00  0.00    -0.203 F 
ATOM     75  C   UNL     1     -11.110   2.009  -5.856  1.00  0.00     0.198 A 
ATOM     76  C   UNL     1     -10.870   1.518  -3.521  1.00  0.00     0.198 A 
ATOM     77  F   UNL     1      -9.656   2.979  -2.131  1.00  0.00    -0.203 F 
ATOM     78  F   UNL     1     -11.627   1.716  -7.057  1.00  0.00    -0.200 F 
ATOM     79  C   UNL     1     -11.377   1.191  -4.769  1.00  0.00     0.200 A 
ATOM     80  F   UNL     1     -11.117   0.727  -2.468  1.00  0.00    -0.200 F 
ATOM     81  F   UNL     1     -12.132   0.095  -4.921  1.00  0.00    -0.200 F 
ENDBRANCH  47  71
BRANCH  59  82
ATOM     82  C   UNL     1     -11.411  10.287  -4.908  1.00  0.00     0.064 A 
ATOM     83  C   UNL     1     -12.495  10.318  -4.018  1.00  0.00     0.173 A 
ATOM     84  C   UNL     1     -11.525  11.011  -6.105  1.00  0.00     0.173 A 
ATOM     85  F   UNL     1     -12.442   9.632  -2.866  1.00  0.00    -0.203 F 
ATOM     86  C   UNL     1     -13.652  11.031  -4.322  1.00  0.00     0.198 A 
ATOM     87  C   UNL     1     -12.672  11.748  -6.392  1.00  0.00     0.198 A 
ATOM     88  F   UNL     1     -10.515  11.022  -6.988  1.00  0.00    -0.203 F 
ATOM     89  F   UNL     1     -14.691  11.012  -3.475  1.00  0.00    -0.200 F 
ATOM     90  C   UNL     1     -13.736  11.752  -5.504  1.00  0.00     0.200 A 
ATOM     91  F   UNL     1     -12.744  12.458  -7.526  1.00  0.00    -0.200 F 
ATOM     92  F   UNL     1     -14.845  12.448  -5.789  1.00  0.00    -0.200 F 
ENDBRANCH  59  82
ENDBRANCH  33  34
ENDBRANCH  26  28
ENDBRANCH  25  26
ENDBRANCH  24  25
ENDBRANCH  23  24
ENDBRANCH  22  23
ENDBRANCH  21  22
ENDBRANCH   1  21
TORSDOF 19
