REMARK SMILES COc1cccc([C@H]2CC(c3ccc(S(C)(=O)=O)cc3)=NN2c2ccc(C(=O)OCCOCCOC(=O)c3ccc(-c4c5nc(c(-c6c(F)c(F)c(F)c(F)c6F)c6ccc([nH]6)c(-c6c(F)c(F)c(F)c(F)c6F)c6nc(c(-c7c(F)c(F)c(F)c(F)c7F)c7ccc4[nH]7)C=C6)C=C5)cc3)cc2)c1
REMARK SMILES IDX 31 1 30 2 29 3 27 4 28 5 26 6 23 7 24 8 102 9 25 10 101 11
REMARK SMILES IDX 22 12 8 13 9 14 10 15 21 16 7 17 3 18 4 19 103 20 5 21 6 22
REMARK SMILES IDX 2 23 1 24 11 25 12 26 20 27 13 28 19 29 14 30 15 31 16 32
REMARK SMILES IDX 17 33 18 34 32 35 33 36 34 37 35 38 36 39 37 40 38 41 39 42
REMARK SMILES IDX 100 43 40 44 99 45 41 46 42 47 43 48 93 49 44 50 98 51 92 52
REMARK SMILES IDX 94 53 45 54 97 55 91 56 90 57 46 59 78 60 58 61 77 62 59 63
REMARK SMILES IDX 62 64 76 65 95 66 60 67 61 68 75 70 96 71 63 72 47 73 48 74
REMARK SMILES IDX 56 75 49 76 50 77 54 78 57 79 51 80 52 81 55 82 53 83 79 84
REMARK SMILES IDX 80 85 88 86 81 87 82 88 86 89 89 90 83 91 84 92 87 93 85 94
REMARK SMILES IDX 64 95 65 96 73 97 66 98 67 99 71 100 74 101 68 102 69 103
REMARK SMILES IDX 72 104 70 105
REMARK H PARENT 94 58 62 69
REMARK Flexibility Score: inf
ROOT
ATOM      1  C   UNL     1       4.596  10.355   1.760  1.00  0.00     0.202 C 
ENDROOT
BRANCH   1   2
ATOM      2  C   UNL     1       3.312   9.675   2.242  1.00  0.00     0.261 C 
BRANCH   2   3
ATOM      3  O   UNL     1       3.582   8.355   2.743  1.00  0.00    -0.460 OA
BRANCH   3   4
ATOM      4  C   UNL     1       3.121   7.347   1.964  1.00  0.00     0.338 C 
ATOM      5  O   UNL     1       2.398   7.452   0.983  1.00  0.00    -0.246 OA
BRANCH   4   6
ATOM      6  C   UNL     1       3.733   6.063   2.370  1.00  0.00     0.060 A 
ATOM      7  C   UNL     1       4.732   3.515   3.017  1.00  0.00     0.060 A 
ATOM      8  C   UNL     1       4.570   3.900   1.681  1.00  0.00     0.029 A 
ATOM      9  C   UNL     1       4.465   4.460   4.021  1.00  0.00     0.029 A 
ATOM     10  C   UNL     1       4.046   5.151   1.358  1.00  0.00     0.018 A 
ATOM     11  C   UNL     1       3.983   5.737   3.705  1.00  0.00     0.018 A 
BRANCH   7  12
ATOM     12  N   UNL     1       5.055   2.198   3.338  1.00  0.00    -0.257 N 
ATOM     13  C   UNL     1       4.154   1.353   4.134  1.00  0.00     0.144 C 
ATOM     14  C   UNL     1       4.728  -0.051   3.923  1.00  0.00     0.091 C 
ATOM     15  C   UNL     1       5.836   0.256   2.956  1.00  0.00     0.071 C 
ATOM     16  N   UNL     1       5.979   1.501   2.622  1.00  0.00    -0.176 NA
BRANCH  13  17
ATOM     17  C   UNL     1       2.695   1.476   3.705  1.00  0.00    -0.019 A 
ATOM     18  C   UNL     1       0.933   1.303   2.026  1.00  0.00     0.119 A 
ATOM     19  C   UNL     1       0.029   1.871   2.922  1.00  0.00     0.046 A 
ATOM     20  C   UNL     1       2.264   1.122   2.410  1.00  0.00     0.052 A 
ATOM     21  C   UNL     1       0.436   2.225   4.207  1.00  0.00     0.004 A 
ATOM     22  C   UNL     1       1.759   2.024   4.598  1.00  0.00     0.006 A 
BRANCH  18  23
ATOM     23  O   UNL     1       0.419   1.015   0.791  1.00  0.00    -0.497 OA
ATOM     24  C   UNL     1       1.060  -0.041   0.087  1.00  0.00     0.278 C 
ENDBRANCH  18  23
ENDBRANCH  13  17
BRANCH  15  25
ATOM     25  C   UNL     1       6.735  -0.808   2.494  1.00  0.00    -0.002 A 
ATOM     26  C   UNL     1       8.107  -0.665   2.734  1.00  0.00     0.011 A 
ATOM     27  C   UNL     1       6.231  -1.954   1.876  1.00  0.00     0.011 A 
ATOM     28  C   UNL     1       8.982  -1.690   2.376  1.00  0.00     0.021 A 
ATOM     29  C   UNL     1       7.110  -2.970   1.491  1.00  0.00     0.021 A 
ATOM     30  C   UNL     1       8.479  -2.833   1.747  1.00  0.00     0.067 A 
BRANCH  30  31
ATOM     31  S   UNL     1       9.600  -4.145   1.312  1.00  0.00     0.175 S 
ATOM     32  C   UNL     1      10.730  -3.397   0.168  1.00  0.00     0.163 C 
ATOM     33  O   UNL     1      10.327  -4.486   2.520  1.00  0.00    -0.224 OA
ATOM     34  O   UNL     1       8.842  -5.146   0.588  1.00  0.00    -0.224 OA
ENDBRANCH  30  31
ENDBRANCH  15  25
ENDBRANCH   7  12
ENDBRANCH   4   6
ENDBRANCH   3   4
ENDBRANCH   2   3
ENDBRANCH   1   2
BRANCH   1  35
ATOM     35  O   UNL     1       5.224   9.749   0.630  1.00  0.00    -0.374 OA
BRANCH  35  36
ATOM     36  C   UNL     1       6.096   8.647   0.898  1.00  0.00     0.202 C 
BRANCH  36  37
ATOM     37  C   UNL     1       7.518   9.030   1.321  1.00  0.00     0.261 C 
BRANCH  37  38
ATOM     38  O   UNL     1       7.531   9.622   2.634  1.00  0.00    -0.460 OA
BRANCH  38  39
ATOM     39  C   UNL     1       7.833  10.939   2.666  1.00  0.00     0.338 C 
ATOM     40  O   UNL     1       8.204  11.641   1.734  1.00  0.00    -0.246 OA
BRANCH  39  41
ATOM     41  C   UNL     1       7.491  11.501   3.986  1.00  0.00     0.060 A 
ATOM     42  C   UNL     1       6.728  12.676   4.008  1.00  0.00     0.016 A 
ATOM     43  C   UNL     1       7.952  10.933   5.177  1.00  0.00     0.016 A 
ATOM     44  C   UNL     1       6.467  13.317   5.217  1.00  0.00     0.010 A 
ATOM     45  C   UNL     1       7.695  11.582   6.390  1.00  0.00     0.010 A 
ATOM     46  C   UNL     1       6.982  12.795   6.411  1.00  0.00    -0.014 A 
BRANCH  46  47
ATOM     47  C   UNL     1       6.893  13.597   7.655  1.00  0.00     0.031 A 
ATOM     48  C   UNL     1       8.078  14.419   8.079  1.00  0.00     0.074 A 
ATOM     49  C   UNL     1       5.761  13.620   8.380  1.00  0.00     0.049 A 
ATOM     50  N   UNL     1       8.226  15.184   9.131  1.00  0.00    -0.248 NA
ATOM     51  C   UNL     1       9.255  14.373   7.198  1.00  0.00     0.031 C 
ATOM     52  C   UNL     1       4.536  12.894   8.055  1.00  0.00     0.029 A 
ATOM     53  N   UNL     1       5.464  14.282   9.546  1.00  0.00    -0.354 N 
ATOM     54  C   UNL     1       9.509  15.707   9.039  1.00  0.00     0.074 A 
ATOM     55  C   UNL     1      10.110  15.150   7.847  1.00  0.00     0.031 C 
ATOM     56  C   UNL     1       3.619  13.142   9.005  1.00  0.00     0.029 A 
ATOM     57  C   UNL     1       4.201  14.023  10.017  1.00  0.00     0.049 A 
ATOM     58  H   UNL     1       6.096  14.884  10.000  1.00  0.00     0.167 HD
ATOM     59  C   UNL     1      10.126  16.582   9.869  1.00  0.00     0.037 A 
ATOM     60  C   UNL     1       3.594  14.437  11.146  1.00  0.00     0.037 A 
ATOM     61  C   UNL     1       9.529  17.138  11.054  1.00  0.00     0.049 A 
ATOM     62  C   UNL     1       4.325  15.359  12.086  1.00  0.00     0.074 A 
ATOM     63  C   UNL     1      10.066  18.049  11.946  1.00  0.00     0.029 A 
ATOM     64  N   UNL     1       8.258  16.828  11.515  1.00  0.00    -0.354 N 
ATOM     65  N   UNL     1       5.526  15.873  11.976  1.00  0.00    -0.248 NA
ATOM     66  C   UNL     1       3.613  15.762  13.308  1.00  0.00     0.031 C 
ATOM     67  C   UNL     1       9.138  18.256  12.973  1.00  0.00     0.029 A 
ATOM     68  C   UNL     1       8.004  17.510  12.694  1.00  0.00     0.049 A 
ATOM     69  H   UNL     1       7.630  16.214  11.071  1.00  0.00     0.167 HD
ATOM     70  C   UNL     1       5.703  16.678  13.094  1.00  0.00     0.074 A 
ATOM     71  C   UNL     1       4.481  16.594  13.866  1.00  0.00     0.031 C 
ATOM     72  C   UNL     1       6.780  17.421  13.448  1.00  0.00     0.037 A 
BRANCH  59  73
ATOM     73  C   UNL     1      11.534  16.976   9.534  1.00  0.00     0.064 A 
ATOM     74  C   UNL     1      11.823  17.831   8.460  1.00  0.00     0.173 A 
ATOM     75  C   UNL     1      12.604  16.521  10.319  1.00  0.00     0.173 A 
ATOM     76  F   UNL     1      10.836  18.282   7.672  1.00  0.00    -0.203 F 
ATOM     77  C   UNL     1      13.135  18.198   8.171  1.00  0.00     0.198 A 
ATOM     78  C   UNL     1      13.912  16.911  10.043  1.00  0.00     0.198 A 
ATOM     79  F   UNL     1      12.380  15.704  11.360  1.00  0.00    -0.203 F 
ATOM     80  F   UNL     1      13.393  18.982   7.115  1.00  0.00    -0.200 F 
ATOM     81  C   UNL     1      14.177  17.743   8.966  1.00  0.00     0.200 A 
ATOM     82  F   UNL     1      14.916  16.479  10.818  1.00  0.00    -0.200 F 
ATOM     83  F   UNL     1      15.438  18.103   8.690  1.00  0.00    -0.200 F 
ENDBRANCH  59  73
BRANCH  60  84
ATOM     84  C   UNL     1       2.216  13.976  11.457  1.00  0.00     0.064 A 
ATOM     85  C   UNL     1       1.132  14.864  11.427  1.00  0.00     0.173 A 
ATOM     86  C   UNL     1       1.960  12.643  11.808  1.00  0.00     0.173 A 
ATOM     87  F   UNL     1       1.332  16.154  11.123  1.00  0.00    -0.203 F 
ATOM     88  C   UNL     1      -0.155  14.438  11.752  1.00  0.00     0.198 A 
ATOM     89  C   UNL     1       0.669  12.213  12.108  1.00  0.00     0.198 A 
ATOM     90  F   UNL     1       2.964  11.755  11.855  1.00  0.00    -0.203 F 
ATOM     91  F   UNL     1      -1.167  15.317  11.759  1.00  0.00    -0.200 F 
ATOM     92  C   UNL     1      -0.386  13.112  12.087  1.00  0.00     0.200 A 
ATOM     93  F   UNL     1       0.449  10.928  12.421  1.00  0.00    -0.200 F 
ATOM     94  F   UNL     1      -1.624  12.703  12.398  1.00  0.00    -0.200 F 
ENDBRANCH  60  84
BRANCH  72  95
ATOM     95  C   UNL     1       6.677  18.229  14.709  1.00  0.00     0.064 A 
ATOM     96  C   UNL     1       6.718  17.626  15.974  1.00  0.00     0.173 A 
ATOM     97  C   UNL     1       6.580  19.628  14.650  1.00  0.00     0.173 A 
ATOM     98  F   UNL     1       6.795  16.291  16.083  1.00  0.00    -0.203 F 
ATOM     99  C   UNL     1       6.644  18.392  17.134  1.00  0.00     0.198 A 
ATOM    100  C   UNL     1       6.534  20.393  15.812  1.00  0.00     0.198 A 
ATOM    101  F   UNL     1       6.544  20.254  13.464  1.00  0.00    -0.203 F 
ATOM    102  F   UNL     1       6.643  17.792  18.332  1.00  0.00    -0.200 F 
ATOM    103  C   UNL     1       6.559  19.774  17.052  1.00  0.00     0.200 A 
ATOM    104  F   UNL     1       6.465  21.729  15.731  1.00  0.00    -0.200 F 
ATOM    105  F   UNL     1       6.496  20.511  18.171  1.00  0.00    -0.200 F 
ENDBRANCH  72  95
ENDBRANCH  46  47
ENDBRANCH  39  41
ENDBRANCH  38  39
ENDBRANCH  37  38
ENDBRANCH  36  37
ENDBRANCH  35  36
ENDBRANCH   1  35
TORSDOF 19
