REMARK SMILES C[C@@H](C(=O)OCCOCCOC(=O)c1ccc(-c2c3nc(c(-c4c(F)c(F)c(F)c(F)c4F)c4ccc([nH]4)c(-c4c(F)c(F)c(F)c(F)c4F)c4nc(c(-c5c(F)c(F)c(F)c(F)c5F)c5ccc2[nH]5)C=C4)C=C3)cc1)c1ccc(-c2cccc(OC(=O)Nc3ccccc3)c2)c(F)c1
REMARK SMILES IDX 6 1 5 2 3 3 4 4 2 5 1 6 77 7 78 8 99 9 79 10 97 11 80 12
REMARK SMILES IDX 98 13 81 14 82 15 96 16 83 17 85 18 84 19 86 20 87 21 88 22
REMARK SMILES IDX 89 23 90 25 91 26 95 27 92 28 94 29 93 30 7 31 8 32 9 33
REMARK SMILES IDX 10 34 11 35 12 36 13 37 14 38 15 39 76 40 16 41 75 42 17 43
REMARK SMILES IDX 18 44 19 45 69 46 20 47 74 48 68 49 70 50 21 51 73 52 67 53
REMARK SMILES IDX 66 54 22 56 54 57 34 58 53 59 35 60 38 61 52 62 71 63 36 64
REMARK SMILES IDX 37 65 51 67 72 68 39 69 23 70 24 71 32 72 25 73 26 74 30 75
REMARK SMILES IDX 33 76 27 77 28 78 31 79 29 80 55 81 56 82 64 83 57 84 58 85
REMARK SMILES IDX 62 86 65 87 59 88 60 89 63 90 61 91 40 92 41 93 49 94 42 95
REMARK SMILES IDX 43 96 47 97 50 98 44 99 45 100 48 101 46 102
REMARK H PARENT 89 24 70 55 38 66
REMARK Flexibility Score: inf
ROOT
ATOM      1  C   UNL     1       2.234  -1.615  -3.985  1.00  0.00     0.261 C 
ENDROOT
BRANCH   1   2
ATOM      2  O   UNL     1       1.934  -0.768  -2.855  1.00  0.00    -0.463 OA
BRANCH   2   3
ATOM      3  C   UNL     1       0.890   0.091  -3.016  1.00  0.00     0.313 C 
ATOM      4  O   UNL     1       0.329   0.294  -4.088  1.00  0.00    -0.252 OA
BRANCH   3   5
ATOM      5  C   UNL     1       0.475   0.778  -1.707  1.00  0.00     0.126 C 
ATOM      6  C   UNL     1       1.200   0.289  -0.448  1.00  0.00     0.025 C 
BRANCH   5   7
ATOM      7  C   UNL     1      -1.038   0.709  -1.534  1.00  0.00    -0.031 A 
ATOM      8  C   UNL     1      -1.833   1.852  -1.684  1.00  0.00     0.005 A 
ATOM      9  C   UNL     1      -1.685  -0.509  -1.296  1.00  0.00     0.044 A 
ATOM     10  C   UNL     1      -3.233   1.770  -1.613  1.00  0.00     0.012 A 
ATOM     11  C   UNL     1      -3.071  -0.590  -1.256  1.00  0.00     0.131 A 
ATOM     12  C   UNL     1      -3.881   0.542  -1.403  1.00  0.00     0.018 A 
ATOM     13  F   UNL     1      -3.615  -1.804  -1.076  1.00  0.00    -0.206 F 
BRANCH  12  14
ATOM     14  C   UNL     1      -5.345   0.441  -1.289  1.00  0.00    -0.012 A 
ATOM     15  C   UNL     1      -6.213   1.039  -2.216  1.00  0.00     0.009 A 
ATOM     16  C   UNL     1      -5.910  -0.276  -0.219  1.00  0.00     0.056 A 
ATOM     17  C   UNL     1      -7.600   0.921  -2.077  1.00  0.00     0.004 A 
ATOM     18  C   UNL     1      -7.287  -0.396  -0.081  1.00  0.00     0.133 A 
ATOM     19  C   UNL     1      -8.138   0.203  -1.009  1.00  0.00     0.047 A 
BRANCH  18  20
ATOM     20  O   UNL     1      -7.921  -1.075   0.989  1.00  0.00    -0.410 OA
BRANCH  20  21
ATOM     21  C   UNL     1      -7.288  -1.674   2.080  1.00  0.00     0.417 C 
ATOM     22  O   UNL     1      -6.077  -1.812   2.225  1.00  0.00    -0.224 OA
ATOM     23  N   UNL     1      -8.126  -2.022   3.107  1.00  0.00    -0.291 N 
ATOM     24  H   UNL     1      -7.672  -2.278   3.942  1.00  0.00     0.173 HD
BRANCH  23  25
ATOM     25  C   UNL     1      -9.524  -2.073   3.158  1.00  0.00     0.044 A 
ATOM     26  C   UNL     1     -10.116  -2.007   4.424  1.00  0.00     0.026 A 
ATOM     27  C   UNL     1     -10.335  -2.226   2.032  1.00  0.00     0.026 A 
ATOM     28  C   UNL     1     -11.504  -2.045   4.560  1.00  0.00     0.002 A 
ATOM     29  C   UNL     1     -11.725  -2.286   2.171  1.00  0.00     0.002 A 
ATOM     30  C   UNL     1     -12.309  -2.185   3.432  1.00  0.00     0.000 A 
ENDBRANCH  23  25
ENDBRANCH  20  21
ENDBRANCH  18  20
ENDBRANCH  12  14
ENDBRANCH   5   7
ENDBRANCH   3   5
ENDBRANCH   2   3
ENDBRANCH   1   2
BRANCH   1  31
ATOM     31  C   UNL     1       2.417  -3.069  -3.535  1.00  0.00     0.202 C 
BRANCH  31  32
ATOM     32  O   UNL     1       1.234  -3.781  -3.162  1.00  0.00    -0.374 OA
BRANCH  32  33
ATOM     33  C   UNL     1       0.583  -3.366  -1.967  1.00  0.00     0.202 C 
BRANCH  33  34
ATOM     34  C   UNL     1       1.125  -3.921  -0.645  1.00  0.00     0.261 C 
BRANCH  34  35
ATOM     35  O   UNL     1       2.525  -3.654  -0.479  1.00  0.00    -0.460 OA
BRANCH  35  36
ATOM     36  C   UNL     1       3.318  -4.727  -0.699  1.00  0.00     0.338 C 
ATOM     37  O   UNL     1       2.970  -5.886  -0.891  1.00  0.00    -0.246 OA
BRANCH  36  38
ATOM     38  C   UNL     1       4.713  -4.293  -0.865  1.00  0.00     0.060 A 
ATOM     39  C   UNL     1       5.367  -4.689  -2.039  1.00  0.00     0.016 A 
ATOM     40  C   UNL     1       5.388  -3.574   0.122  1.00  0.00     0.016 A 
ATOM     41  C   UNL     1       6.720  -4.415  -2.207  1.00  0.00     0.010 A 
ATOM     42  C   UNL     1       6.751  -3.307  -0.043  1.00  0.00     0.010 A 
ATOM     43  C   UNL     1       7.428  -3.762  -1.190  1.00  0.00    -0.014 A 
BRANCH  43  44
ATOM     44  C   UNL     1       8.906  -3.711  -1.264  1.00  0.00     0.031 A 
ATOM     45  C   UNL     1       9.705  -4.716  -0.483  1.00  0.00     0.074 A 
ATOM     46  C   UNL     1       9.523  -2.817  -2.057  1.00  0.00     0.049 A 
ATOM     47  N   UNL     1      11.003  -4.857  -0.390  1.00  0.00    -0.248 NA
ATOM     48  C   UNL     1       8.936  -5.697   0.299  1.00  0.00     0.031 C 
ATOM     49  C   UNL     1       8.850  -1.829  -2.896  1.00  0.00     0.029 A 
ATOM     50  N   UNL     1      10.859  -2.601  -2.282  1.00  0.00    -0.354 N 
ATOM     51  C   UNL     1      11.204  -5.933   0.465  1.00  0.00     0.074 A 
ATOM     52  C   UNL     1       9.899  -6.391   0.888  1.00  0.00     0.031 C 
ATOM     53  C   UNL     1       9.778  -1.106  -3.546  1.00  0.00     0.029 A 
ATOM     54  C   UNL     1      11.108  -1.559  -3.140  1.00  0.00     0.049 A 
ATOM     55  H   UNL     1      11.570  -3.141  -1.869  1.00  0.00     0.167 HD
ATOM     56  C   UNL     1      12.374  -6.492   0.855  1.00  0.00     0.037 A 
ATOM     57  C   UNL     1      12.279  -1.023  -3.535  1.00  0.00     0.037 A 
ATOM     58  C   UNL     1      13.669  -6.035   0.424  1.00  0.00     0.049 A 
ATOM     59  C   UNL     1      13.567  -1.618  -3.027  1.00  0.00     0.074 A 
ATOM     60  C   UNL     1      14.915  -6.548   0.741  1.00  0.00     0.029 A 
ATOM     61  N   UNL     1      13.884  -4.948  -0.411  1.00  0.00    -0.354 N 
ATOM     62  N   UNL     1      13.751  -2.651  -2.241  1.00  0.00    -0.248 NA
ATOM     63  C   UNL     1      14.812  -0.971  -3.466  1.00  0.00     0.031 C 
ATOM     64  C   UNL     1      15.885  -5.736   0.145  1.00  0.00     0.029 A 
ATOM     65  C   UNL     1      15.244  -4.754  -0.594  1.00  0.00     0.049 A 
ATOM     66  H   UNL     1      13.175  -4.396  -0.814  1.00  0.00     0.167 HD
ATOM     67  C   UNL     1      15.127  -2.798  -2.116  1.00  0.00     0.074 A 
ATOM     68  C   UNL     1      15.731  -1.755  -2.919  1.00  0.00     0.031 C 
ATOM     69  C   UNL     1      15.828  -3.715  -1.404  1.00  0.00     0.037 A 
BRANCH  56  70
ATOM     70  C   UNL     1      12.309  -7.640   1.820  1.00  0.00     0.064 A 
ATOM     71  C   UNL     1      11.829  -8.902   1.441  1.00  0.00     0.173 A 
ATOM     72  C   UNL     1      12.764  -7.480   3.138  1.00  0.00     0.173 A 
ATOM     73  F   UNL     1      11.368  -9.104   0.198  1.00  0.00    -0.203 F 
ATOM     74  C   UNL     1      11.784  -9.955   2.353  1.00  0.00     0.198 A 
ATOM     75  C   UNL     1      12.746  -8.543   4.038  1.00  0.00     0.198 A 
ATOM     76  F   UNL     1      13.235  -6.294   3.552  1.00  0.00    -0.203 F 
ATOM     77  F   UNL     1      11.278 -11.139   1.982  1.00  0.00    -0.200 F 
ATOM     78  C   UNL     1      12.250  -9.777   3.647  1.00  0.00     0.200 A 
ATOM     79  F   UNL     1      13.209  -8.371   5.284  1.00  0.00    -0.200 F 
ATOM     80  F   UNL     1      12.214 -10.793   4.520  1.00  0.00    -0.200 F 
ENDBRANCH  56  70
BRANCH  57  81
ATOM     81  C   UNL     1      12.290   0.147  -4.452  1.00  0.00     0.064 A 
ATOM     82  C   UNL     1      12.787   0.039  -5.758  1.00  0.00     0.173 A 
ATOM     83  C   UNL     1      11.822   1.402  -4.035  1.00  0.00     0.173 A 
ATOM     84  F   UNL     1      13.270  -1.134  -6.196  1.00  0.00    -0.203 F 
ATOM     85  C   UNL     1      12.835   1.145  -6.604  1.00  0.00     0.198 A 
ATOM     86  C   UNL     1      11.842   2.500  -4.892  1.00  0.00     0.198 A 
ATOM     87  F   UNL     1      11.338   1.561  -2.794  1.00  0.00    -0.203 F 
ATOM     88  F   UNL     1      13.361   1.025  -7.831  1.00  0.00    -0.200 F 
ATOM     89  C   UNL     1      12.356   2.373  -6.173  1.00  0.00     0.200 A 
ATOM     90  F   UNL     1      11.367   3.682  -4.475  1.00  0.00    -0.200 F 
ATOM     91  F   UNL     1      12.399   3.435  -6.988  1.00  0.00    -0.200 F 
ENDBRANCH  57  81
BRANCH  69  92
ATOM     92  C   UNL     1      17.326  -3.660  -1.492  1.00  0.00     0.064 A 
ATOM     93  C   UNL     1      18.065  -2.631  -0.890  1.00  0.00     0.173 A 
ATOM     94  C   UNL     1      18.035  -4.676  -2.153  1.00  0.00     0.173 A 
ATOM     95  F   UNL     1      17.435  -1.628  -0.258  1.00  0.00    -0.203 F 
ATOM     96  C   UNL     1      19.455  -2.606  -0.971  1.00  0.00     0.198 A 
ATOM     97  C   UNL     1      19.426  -4.665  -2.202  1.00  0.00     0.198 A 
ATOM     98  F   UNL     1      17.378  -5.688  -2.738  1.00  0.00    -0.203 F 
ATOM     99  F   UNL     1      20.137  -1.585  -0.432  1.00  0.00    -0.200 F 
ATOM    100  C   UNL     1      20.134  -3.626  -1.619  1.00  0.00     0.200 A 
ATOM    101  F   UNL     1      20.081  -5.661  -2.815  1.00  0.00    -0.200 F 
ATOM    102  F   UNL     1      21.472  -3.605  -1.687  1.00  0.00    -0.200 F 
ENDBRANCH  69  92
ENDBRANCH  43  44
ENDBRANCH  36  38
ENDBRANCH  35  36
ENDBRANCH  34  35
ENDBRANCH  33  34
ENDBRANCH  32  33
ENDBRANCH  31  32
ENDBRANCH   1  31
TORSDOF 19
