REMARK SMILES Cc1cc(C)n(C)c(=O)c1C(=O)[NH+]1CCC2(CC1)C[NH2+][C@@H](C(=O)OCCOCCOC(=O)c1ccc(-c3c4nc(c(-c5c(F)c(F)c(F)c(F)c5F)c5ccc([nH]5)c(-c5c(F)c(F)c(F)c(F)c5F)c5nc(c(-c6c(F)c(F)c(F)c(F)c6F)c6ccc3[nH]6)C=C5)C=C4)cc1)C2
REMARK SMILES IDX 27 1 26 2 25 3 24 4 22 5 23 6 21 7 13 8 14 9 18 10 15 12
REMARK SMILES IDX 17 13 16 14 19 15 96 16 20 17 11 20 12 21 10 22 1 23 2 24
REMARK SMILES IDX 3 25 4 26 8 27 5 28 6 29 9 30 7 31 28 32 29 33 30 34 31 35
REMARK SMILES IDX 32 36 33 37 34 38 95 39 35 40 94 41 36 42 37 43 38 44 88 45
REMARK SMILES IDX 39 46 93 47 87 48 89 49 40 50 92 51 86 52 85 53 41 55 73 56
REMARK SMILES IDX 53 57 72 58 54 59 57 60 71 61 90 62 55 63 56 64 70 66 91 67
REMARK SMILES IDX 58 68 42 69 43 70 51 71 44 72 45 73 49 74 52 75 46 76 47 77
REMARK SMILES IDX 50 78 48 79 74 80 75 81 83 82 76 83 77 84 81 85 84 86 78 87
REMARK SMILES IDX 79 88 82 89 80 90 59 91 60 92 68 93 61 94 62 95 66 96 69 97
REMARK SMILES IDX 63 98 64 99 67 100 65 101
REMARK H PARENT 13 11 20 18 20 19 89 54 57 65
REMARK Flexibility Score: inf
ROOT
ATOM      1  O   UNL     1       4.196   1.166   8.627  1.00  0.00    -0.374 OA
ENDROOT
BRANCH   1   2
ATOM      2  C   UNL     1       4.781  -0.109   8.360  1.00  0.00     0.202 C 
BRANCH   2   3
ATOM      3  C   UNL     1       3.811  -1.256   8.071  1.00  0.00     0.261 C 
BRANCH   3   4
ATOM      4  O   UNL     1       3.102  -1.016   6.846  1.00  0.00    -0.459 OA
BRANCH   4   5
ATOM      5  C   UNL     1       1.749  -0.947   6.950  1.00  0.00     0.364 C 
ATOM      6  O   UNL     1       1.104  -1.223   7.957  1.00  0.00    -0.245 OA
BRANCH   5   7
ATOM      7  C   UNL     1       1.079  -0.511   5.650  1.00  0.00     0.294 C 
ATOM      8  N   UNL     1       1.395   1.937   1.012  1.00  0.00    -0.267 N 
ATOM      9  C   UNL     1       0.839   2.508   2.224  1.00  0.00     0.271 C 
ATOM     10  C   UNL     1       2.568   1.116   1.244  1.00  0.00     0.271 C 
ATOM     11  H   UNL     1       0.711   1.691   1.676  1.00  0.00     0.357 HD
ATOM     12  C   UNL     1       0.211   1.378   3.013  1.00  0.00     0.075 C 
ATOM     13  C   UNL     1       2.305  -0.016   2.252  1.00  0.00     0.075 C 
ATOM     14  C   UNL     1       1.195   0.220   3.330  1.00  0.00     0.036 C 
ATOM     15  C   UNL     1       0.352  -1.072   3.539  1.00  0.00     0.268 C 
ATOM     16  C   UNL     1       1.838   0.441   4.727  1.00  0.00     0.090 C 
ATOM     17  N   UNL     1       0.848  -1.670   4.771  1.00  0.00    -0.334 N 
ATOM     18  H   UNL     1       1.715  -2.180   4.605  1.00  0.00     0.347 HD
ATOM     19  H   UNL     1       0.199  -2.348   5.172  1.00  0.00     0.347 HD
BRANCH   8  20
ATOM     20  C   UNL     1       1.109   2.580  -0.183  1.00  0.00     0.350 C 
ATOM     21  O   UNL     1       0.971   3.805  -0.170  1.00  0.00    -0.225 OA
BRANCH  20  22
ATOM     22  C   UNL     1       0.755   1.778  -1.430  1.00  0.00     0.147 A 
ATOM     23  C   UNL     1       0.377  -0.537  -0.372  1.00  0.00     0.045 C 
ATOM     24  C   UNL     1       0.424   0.463  -1.486  1.00  0.00    -0.027 A 
ATOM     25  C   UNL     1      -0.039  -0.140  -2.722  1.00  0.00     0.026 A 
ATOM     26  C   UNL     1      -0.333   0.582  -3.807  1.00  0.00     0.018 A 
ATOM     27  C   UNL     1       0.585   2.572  -2.725  1.00  0.00     0.267 A 
ATOM     28  C   UNL     1      -0.928  -0.117  -5.000  1.00  0.00     0.064 C 
ATOM     29  N   UNL     1      -0.064   1.942  -3.803  1.00  0.00    -0.315 N 
ATOM     30  O   UNL     1       1.003   3.726  -2.824  1.00  0.00    -0.268 OA
ATOM     31  C   UNL     1      -0.394   2.760  -4.964  1.00  0.00     0.153 C 
ENDBRANCH  20  22
ENDBRANCH   8  20
ENDBRANCH   5   7
ENDBRANCH   4   5
ENDBRANCH   3   4
ENDBRANCH   2   3
ENDBRANCH   1   2
BRANCH   1  32
ATOM     32  C   UNL     1       3.700   1.909   7.515  1.00  0.00     0.202 C 
BRANCH  32  33
ATOM     33  C   UNL     1       4.737   2.618   6.635  1.00  0.00     0.261 C 
BRANCH  33  34
ATOM     34  O   UNL     1       5.609   1.696   5.956  1.00  0.00    -0.460 OA
BRANCH  34  35
ATOM     35  C   UNL     1       6.891   1.710   6.388  1.00  0.00     0.338 C 
ATOM     36  O   UNL     1       7.388   2.462   7.219  1.00  0.00    -0.246 OA
BRANCH  35  37
ATOM     37  C   UNL     1       7.625   0.552   5.853  1.00  0.00     0.060 A 
ATOM     38  C   UNL     1       8.224  -0.315   6.776  1.00  0.00     0.016 A 
ATOM     39  C   UNL     1       7.807   0.366   4.481  1.00  0.00     0.016 A 
ATOM     40  C   UNL     1       9.047  -1.346   6.333  1.00  0.00     0.010 A 
ATOM     41  C   UNL     1       8.646  -0.664   4.037  1.00  0.00     0.010 A 
ATOM     42  C   UNL     1       9.296  -1.500   4.963  1.00  0.00    -0.014 A 
BRANCH  42  43
ATOM     43  C   UNL     1      10.358  -2.436   4.522  1.00  0.00     0.031 A 
ATOM     44  C   UNL     1      11.730  -1.895   4.232  1.00  0.00     0.074 A 
ATOM     45  C   UNL     1      10.120  -3.756   4.437  1.00  0.00     0.049 A 
ATOM     46  N   UNL     1      12.804  -2.526   3.829  1.00  0.00    -0.248 NA
ATOM     47  C   UNL     1      11.921  -0.449   4.429  1.00  0.00     0.031 C 
ATOM     48  C   UNL     1       8.849  -4.404   4.751  1.00  0.00     0.029 A 
ATOM     49  N   UNL     1      10.945  -4.789   4.067  1.00  0.00    -0.354 N 
ATOM     50  C   UNL     1      13.795  -1.558   3.731  1.00  0.00     0.074 A 
ATOM     51  C   UNL     1      13.190  -0.292   4.082  1.00  0.00     0.031 C 
ATOM     52  C   UNL     1       8.978  -5.729   4.562  1.00  0.00     0.029 A 
ATOM     53  C   UNL     1      10.330  -6.016   4.084  1.00  0.00     0.049 A 
ATOM     54  H   UNL     1      11.888  -4.662   3.814  1.00  0.00     0.167 HD
ATOM     55  C   UNL     1      15.096  -1.716   3.393  1.00  0.00     0.037 A 
ATOM     56  C   UNL     1      10.803  -7.230   3.739  1.00  0.00     0.037 A 
ATOM     57  C   UNL     1      15.696  -2.975   3.041  1.00  0.00     0.049 A 
ATOM     58  C   UNL     1      12.229  -7.364   3.272  1.00  0.00     0.074 A 
ATOM     59  C   UNL     1      17.006  -3.234   2.676  1.00  0.00     0.029 A 
ATOM     60  N   UNL     1      15.024  -4.188   3.008  1.00  0.00    -0.354 N 
ATOM     61  N   UNL     1      13.159  -6.444   3.180  1.00  0.00    -0.248 NA
ATOM     62  C   UNL     1      12.671  -8.705   2.861  1.00  0.00     0.031 C 
ATOM     63  C   UNL     1      17.114  -4.595   2.377  1.00  0.00     0.029 A 
ATOM     64  C   UNL     1      15.886  -5.194   2.607  1.00  0.00     0.049 A 
ATOM     65  H   UNL     1      14.074  -4.314   3.237  1.00  0.00     0.167 HD
ATOM     66  C   UNL     1      14.299  -7.096   2.727  1.00  0.00     0.074 A 
ATOM     67  C   UNL     1      13.948  -8.492   2.573  1.00  0.00     0.031 C 
ATOM     68  C   UNL     1      15.526  -6.582   2.465  1.00  0.00     0.037 A 
BRANCH  55  69
ATOM     69  C   UNL     1      15.964  -0.492   3.373  1.00  0.00     0.064 A 
ATOM     70  C   UNL     1      16.381   0.130   4.559  1.00  0.00     0.173 A 
ATOM     71  C   UNL     1      16.434   0.028   2.158  1.00  0.00     0.173 A 
ATOM     72  F   UNL     1      15.947  -0.322   5.746  1.00  0.00    -0.203 F 
ATOM     73  C   UNL     1      17.227   1.235   4.529  1.00  0.00     0.198 A 
ATOM     74  C   UNL     1      17.301   1.117   2.132  1.00  0.00     0.198 A 
ATOM     75  F   UNL     1      16.067  -0.533   0.996  1.00  0.00    -0.203 F 
ATOM     76  F   UNL     1      17.587   1.833   5.673  1.00  0.00    -0.200 F 
ATOM     77  C   UNL     1      17.693   1.722   3.316  1.00  0.00     0.200 A 
ATOM     78  F   UNL     1      17.761   1.577   0.960  1.00  0.00    -0.200 F 
ATOM     79  F   UNL     1      18.520   2.776   3.289  1.00  0.00    -0.200 F 
ENDBRANCH  55  69
BRANCH  56  80
ATOM     80  C   UNL     1       9.915  -8.418   3.827  1.00  0.00     0.064 A 
ATOM     81  C   UNL     1      10.137  -9.415   4.787  1.00  0.00     0.173 A 
ATOM     82  C   UNL     1       8.824  -8.579   2.959  1.00  0.00     0.173 A 
ATOM     83  F   UNL     1      11.183  -9.319   5.621  1.00  0.00    -0.203 F 
ATOM     84  C   UNL     1       9.305 -10.529   4.873  1.00  0.00     0.198 A 
ATOM     85  C   UNL     1       7.977  -9.680   3.064  1.00  0.00     0.198 A 
ATOM     86  F   UNL     1       8.571  -7.656   2.020  1.00  0.00    -0.203 F 
ATOM     87  F   UNL     1       9.559 -11.484   5.778  1.00  0.00    -0.200 F 
ATOM     88  C   UNL     1       8.220 -10.656   4.018  1.00  0.00     0.200 A 
ATOM     89  F   UNL     1       6.925  -9.793   2.242  1.00  0.00    -0.200 F 
ATOM     90  F   UNL     1       7.414 -11.722   4.108  1.00  0.00    -0.200 F 
ENDBRANCH  56  80
BRANCH  68  91
ATOM     91  C   UNL     1      16.597  -7.529   2.007  1.00  0.00     0.064 A 
ATOM     92  C   UNL     1      16.594  -8.070   0.714  1.00  0.00     0.173 A 
ATOM     93  C   UNL     1      17.680  -7.834   2.846  1.00  0.00     0.173 A 
ATOM     94  F   UNL     1      15.575  -7.818  -0.121  1.00  0.00    -0.203 F 
ATOM     95  C   UNL     1      17.630  -8.894   0.282  1.00  0.00     0.198 A 
ATOM     96  C   UNL     1      18.728  -8.635   2.401  1.00  0.00     0.198 A 
ATOM     97  F   UNL     1      17.735  -7.334   4.090  1.00  0.00    -0.203 F 
ATOM     98  F   UNL     1      17.591  -9.427  -0.948  1.00  0.00    -0.200 F 
ATOM     99  C   UNL     1      18.701  -9.167   1.121  1.00  0.00     0.200 A 
ATOM    100  F   UNL     1      19.769  -8.884   3.207  1.00  0.00    -0.200 F 
ATOM    101  F   UNL     1      19.706  -9.945   0.696  1.00  0.00    -0.200 F 
ENDBRANCH  68  91
ENDBRANCH  42  43
ENDBRANCH  35  37
ENDBRANCH  34  35
ENDBRANCH  33  34
ENDBRANCH  32  33
ENDBRANCH   1  32
TORSDOF 16
