REMARK SMILES COC(=O)c1ccc(C)c2c1[C@H]1C=CC[C@H]1[C@@H](c1ccc(C(=O)OCCOCCOC(=O)c3ccc(-c4c5nc(c(-c6c(F)c(F)c(F)c(F)c6F)c6ccc([nH]6)c(-c6c(F)c(F)c(F)c(F)c6F)c6nc(c(-c7c(F)c(F)c(F)c(F)c7F)c7ccc4[nH]7)C=C6)C=C5)cc3)cc1)N2
REMARK SMILES IDX 26 1 25 2 24 3 22 4 23 5 21 6 18 7 19 8 97 9 20 10 96 11
REMARK SMILES IDX 17 12 5 13 6 14 11 15 7 16 10 17 12 18 8 19 98 20 13 21
REMARK SMILES IDX 16 22 9 23 14 25 15 26 3 27 4 28 2 29 1 30 27 31 28 32 29 33
REMARK SMILES IDX 30 34 31 35 32 36 33 37 34 38 95 39 35 40 94 41 36 42 37 43
REMARK SMILES IDX 38 44 88 45 39 46 93 47 87 48 89 49 40 50 92 51 86 52 85 53
REMARK SMILES IDX 41 55 73 56 53 57 72 58 54 59 57 60 71 61 90 62 55 63 56 64
REMARK SMILES IDX 70 66 91 67 58 68 42 69 43 70 51 71 44 72 45 73 49 74 52 75
REMARK SMILES IDX 46 76 47 77 50 78 48 79 74 80 75 81 83 82 76 83 77 84 81 85
REMARK SMILES IDX 84 86 78 87 79 88 82 89 80 90 59 91 60 92 68 93 61 94 62 95
REMARK SMILES IDX 66 96 69 97 63 98 64 99 67 100 65 101
REMARK H PARENT 98 24 89 54 57 65
REMARK Flexibility Score: inf
ROOT
ATOM      1  C   UNL     1       5.450   8.629  -1.990  1.00  0.00     0.202 C 
ENDROOT
BRANCH   1   2
ATOM      2  C   UNL     1       4.762   9.621  -1.049  1.00  0.00     0.261 C 
BRANCH   2   3
ATOM      3  O   UNL     1       4.646   9.081   0.277  1.00  0.00    -0.460 OA
BRANCH   3   4
ATOM      4  C   UNL     1       3.370   8.874   0.680  1.00  0.00     0.338 C 
ATOM      5  O   UNL     1       2.353   9.276   0.137  1.00  0.00    -0.246 OA
BRANCH   4   6
ATOM      6  C   UNL     1       3.345   7.895   1.783  1.00  0.00     0.060 A 
ATOM      7  C   UNL     1       3.086   5.974   3.840  1.00  0.00    -0.025 A 
ATOM      8  C   UNL     1       2.310   5.912   2.670  1.00  0.00     0.007 A 
ATOM      9  C   UNL     1       4.046   7.004   3.922  1.00  0.00     0.007 A 
ATOM     10  C   UNL     1       2.420   6.864   1.663  1.00  0.00     0.016 A 
ATOM     11  C   UNL     1       4.186   7.954   2.896  1.00  0.00     0.016 A 
BRANCH   7  12
ATOM     12  C   UNL     1       2.870   5.015   5.020  1.00  0.00     0.114 C 
ATOM     13  C   UNL     1       0.369   2.189   3.051  1.00  0.00     0.065 A 
ATOM     14  C   UNL     1      -0.983   2.509   2.885  1.00  0.00     0.016 A 
ATOM     15  C   UNL     1       1.198   2.964   3.896  1.00  0.00    -0.003 A 
ATOM     16  C   UNL     1      -1.529   3.593   3.560  1.00  0.00     0.006 A 
ATOM     17  C   UNL     1       0.630   4.069   4.589  1.00  0.00     0.042 A 
ATOM     18  C   UNL     1       2.675   2.645   4.056  1.00  0.00     0.050 C 
ATOM     19  C   UNL     1      -0.740   4.381   4.413  1.00  0.00    -0.028 A 
ATOM     20  N   UNL     1       1.450   4.913   5.331  1.00  0.00    -0.377 N 
ATOM     21  C   UNL     1       3.535   2.719   2.816  1.00  0.00    -0.023 C 
ATOM     22  C   UNL     1       3.452   3.590   4.996  1.00  0.00     0.031 C 
ATOM     23  C   UNL     1      -1.422   5.576   5.030  1.00  0.00     0.046 C 
ATOM     24  H   UNL     1       1.071   5.444   6.068  1.00  0.00     0.161 HD
ATOM     25  C   UNL     1       4.764   3.178   3.086  1.00  0.00    -0.030 C 
ATOM     26  C   UNL     1       4.910   3.522   4.531  1.00  0.00     0.034 C 
BRANCH  13  27
ATOM     27  C   UNL     1       0.886   1.021   2.301  1.00  0.00     0.338 C 
ATOM     28  O   UNL     1       1.555   0.120   2.784  1.00  0.00    -0.246 OA
BRANCH  27  29
ATOM     29  O   UNL     1       0.538   1.160   0.997  1.00  0.00    -0.465 OA
ATOM     30  C   UNL     1       1.031   0.124   0.146  1.00  0.00     0.282 C 
ENDBRANCH  27  29
ENDBRANCH  13  27
ENDBRANCH   7  12
ENDBRANCH   4   6
ENDBRANCH   3   4
ENDBRANCH   2   3
ENDBRANCH   1   2
BRANCH   1  31
ATOM     31  O   UNL     1       4.815   7.363  -2.150  1.00  0.00    -0.374 OA
BRANCH  31  32
ATOM     32  C   UNL     1       5.077   6.372  -1.151  1.00  0.00     0.202 C 
BRANCH  32  33
ATOM     33  C   UNL     1       6.466   5.721  -1.187  1.00  0.00     0.261 C 
BRANCH  33  34
ATOM     34  O   UNL     1       7.475   6.611  -0.667  1.00  0.00    -0.460 OA
BRANCH  34  35
ATOM     35  C   UNL     1       8.427   6.989  -1.551  1.00  0.00     0.338 C 
ATOM     36  O   UNL     1       8.579   6.602  -2.699  1.00  0.00    -0.246 OA
BRANCH  35  37
ATOM     37  C   UNL     1       9.186   8.121  -0.993  1.00  0.00     0.060 A 
ATOM     38  C   UNL     1       9.121   9.350  -1.663  1.00  0.00     0.016 A 
ATOM     39  C   UNL     1      10.018   7.955   0.115  1.00  0.00     0.016 A 
ATOM     40  C   UNL     1       9.916  10.413  -1.247  1.00  0.00     0.010 A 
ATOM     41  C   UNL     1      10.835   9.016   0.516  1.00  0.00     0.010 A 
ATOM     42  C   UNL     1      10.811  10.236  -0.184  1.00  0.00    -0.014 A 
BRANCH  42  43
ATOM     43  C   UNL     1      11.846  11.262   0.072  1.00  0.00     0.031 A 
ATOM     44  C   UNL     1      13.188  11.109  -0.587  1.00  0.00     0.074 A 
ATOM     45  C   UNL     1      11.587  12.325   0.853  1.00  0.00     0.049 A 
ATOM     46  N   UNL     1      14.253  11.861  -0.485  1.00  0.00    -0.248 NA
ATOM     47  C   UNL     1      13.350   9.953  -1.484  1.00  0.00     0.031 C 
ATOM     48  C   UNL     1      10.308  12.604   1.501  1.00  0.00     0.029 A 
ATOM     49  N   UNL     1      12.396  13.365   1.236  1.00  0.00    -0.354 N 
ATOM     50  C   UNL     1      15.205  11.275  -1.308  1.00  0.00     0.074 A 
ATOM     51  C   UNL     1      14.607  10.089  -1.879  1.00  0.00     0.031 C 
ATOM     52  C   UNL     1      10.423  13.737   2.216  1.00  0.00     0.029 A 
ATOM     53  C   UNL     1      11.789  14.244   2.098  1.00  0.00     0.049 A 
ATOM     54  H   UNL     1      13.324  13.471   0.922  1.00  0.00     0.167 HD
ATOM     55  C   UNL     1      16.464  11.697  -1.569  1.00  0.00     0.037 A 
ATOM     56  C   UNL     1      12.291  15.322   2.732  1.00  0.00     0.037 A 
ATOM     57  C   UNL     1      17.058  12.874  -0.994  1.00  0.00     0.049 A 
ATOM     58  C   UNL     1      13.726  15.718   2.495  1.00  0.00     0.074 A 
ATOM     59  C   UNL     1      18.324  13.390  -1.206  1.00  0.00     0.029 A 
ATOM     60  N   UNL     1      16.428  13.712  -0.086  1.00  0.00    -0.354 N 
ATOM     61  N   UNL     1      14.614  15.172   1.701  1.00  0.00    -0.248 NA
ATOM     62  C   UNL     1      14.227  16.880   3.243  1.00  0.00     0.031 C 
ATOM     63  C   UNL     1      18.478  14.513  -0.388  1.00  0.00     0.029 A 
ATOM     64  C   UNL     1      17.291  14.726   0.294  1.00  0.00     0.049 A 
ATOM     65  H   UNL     1      15.506  13.602   0.239  1.00  0.00     0.167 HD
ATOM     66  C   UNL     1      15.768  15.934   1.834  1.00  0.00     0.074 A 
ATOM     67  C   UNL     1      15.464  16.990   2.777  1.00  0.00     0.031 C 
ATOM     68  C   UNL     1      16.971  15.773   1.230  1.00  0.00     0.037 A 
BRANCH  55  69
ATOM     69  C   UNL     1      17.295  10.879  -2.510  1.00  0.00     0.064 A 
ATOM     70  C   UNL     1      17.058  10.887  -3.892  1.00  0.00     0.173 A 
ATOM     71  C   UNL     1      18.386  10.138  -2.033  1.00  0.00     0.173 A 
ATOM     72  F   UNL     1      16.017  11.569  -4.394  1.00  0.00    -0.203 F 
ATOM     73  C   UNL     1      17.880  10.178  -4.763  1.00  0.00     0.198 A 
ATOM     74  C   UNL     1      19.221   9.450  -2.909  1.00  0.00     0.198 A 
ATOM     75  F   UNL     1      18.655  10.100  -0.719  1.00  0.00    -0.203 F 
ATOM     76  F   UNL     1      17.622  10.179  -6.078  1.00  0.00    -0.200 F 
ATOM     77  C   UNL     1      18.967   9.469  -4.272  1.00  0.00     0.200 A 
ATOM     78  F   UNL     1      20.277   8.775  -2.434  1.00  0.00    -0.200 F 
ATOM     79  F   UNL     1      19.770   8.802  -5.113  1.00  0.00    -0.200 F 
ENDBRANCH  55  69
BRANCH  56  80
ATOM     80  C   UNL     1      11.430  16.099   3.661  1.00  0.00     0.064 A 
ATOM     81  C   UNL     1      11.020  17.402   3.347  1.00  0.00     0.173 A 
ATOM     82  C   UNL     1      11.004  15.558   4.883  1.00  0.00     0.173 A 
ATOM     83  F   UNL     1      11.423  17.972   2.202  1.00  0.00    -0.203 F 
ATOM     84  C   UNL     1      10.225  18.137   4.224  1.00  0.00     0.198 A 
ATOM     85  C   UNL     1      10.188  16.284   5.748  1.00  0.00     0.198 A 
ATOM     86  F   UNL     1      11.373  14.317   5.234  1.00  0.00    -0.203 F 
ATOM     87  F   UNL     1       9.879  19.395   3.917  1.00  0.00    -0.200 F 
ATOM     88  C   UNL     1       9.804  17.576   5.420  1.00  0.00     0.200 A 
ATOM     89  F   UNL     1       9.775  15.733   6.897  1.00  0.00    -0.200 F 
ATOM     90  F   UNL     1       9.034  18.281   6.260  1.00  0.00    -0.200 F 
ENDBRANCH  56  80
BRANCH  68  91
ATOM     91  C   UNL     1      18.051  16.765   1.547  1.00  0.00     0.064 A 
ATOM     92  C   UNL     1      18.718  16.751   2.781  1.00  0.00     0.173 A 
ATOM     93  C   UNL     1      18.484  17.681   0.575  1.00  0.00     0.173 A 
ATOM     94  F   UNL     1      18.334  15.902   3.746  1.00  0.00    -0.203 F 
ATOM     95  C   UNL     1      19.771  17.626   3.034  1.00  0.00     0.198 A 
ATOM     96  C   UNL     1      19.556  18.534   0.822  1.00  0.00     0.198 A 
ATOM     97  F   UNL     1      17.886  17.726  -0.625  1.00  0.00    -0.203 F 
ATOM     98  F   UNL     1      20.374  17.617   4.230  1.00  0.00    -0.200 F 
ATOM     99  C   UNL     1      20.196  18.509   2.051  1.00  0.00     0.200 A 
ATOM    100  F   UNL     1      19.976  19.373  -0.135  1.00  0.00    -0.200 F 
ATOM    101  F   UNL     1      21.223  19.336   2.290  1.00  0.00    -0.200 F 
ENDBRANCH  68  91
ENDBRANCH  42  43
ENDBRANCH  35  37
ENDBRANCH  34  35
ENDBRANCH  33  34
ENDBRANCH  32  33
ENDBRANCH  31  32
ENDBRANCH   1  31
TORSDOF 17
