REMARK SMILES CC[C@@H](C(=O)OCCOCCOC(=O)c1ccc(-c2c3nc(c(-c4c(F)c(F)c(F)c(F)c4F)c4ccc([nH]4)c(-c4c(F)c(F)c(F)c(F)c4F)c4nc(c(-c5c(F)c(F)c(F)c(F)c5F)c5ccc2[nH]5)C=C4)C=C3)cc1)N1CCN(Cc2cccc(C)c2)C(=O)C1=O
REMARK SMILES IDX 8 1 7 2 6 3 4 4 5 5 3 6 2 7 1 8 78 9 79 10 92 11 80 12 90 13
REMARK SMILES IDX 93 14 81 15 91 16 82 17 83 18 84 19 89 20 85 21 87 22 86 23
REMARK SMILES IDX 88 24 9 25 10 26 11 27 12 28 13 29 14 30 15 31 16 32 77 33
REMARK SMILES IDX 17 34 76 35 18 36 19 37 20 38 70 39 21 40 75 41 69 42 71 43
REMARK SMILES IDX 22 44 74 45 68 46 67 47 23 49 55 50 35 51 54 52 36 53 39 54
REMARK SMILES IDX 53 55 72 56 37 57 38 58 52 60 73 61 40 62 24 63 25 64 33 65
REMARK SMILES IDX 26 66 27 67 31 68 34 69 28 70 29 71 32 72 30 73 56 74 57 75
REMARK SMILES IDX 65 76 58 77 59 78 63 79 66 80 60 81 61 82 64 83 62 84 41 85
REMARK SMILES IDX 42 86 50 87 43 88 44 89 48 90 51 91 45 92 46 93 49 94 47 95
REMARK H PARENT 71 48 39 59
REMARK Flexibility Score: inf
ROOT
ATOM      1  C   UNL     1      -0.577   1.738   4.050  1.00  0.00     0.202 C 
ENDROOT
BRANCH   1   2
ATOM      2  C   UNL     1       0.775   1.034   4.220  1.00  0.00     0.261 C 
BRANCH   2   3
ATOM      3  O   UNL     1       1.075   0.246   3.047  1.00  0.00    -0.462 OA
BRANCH   3   4
ATOM      4  C   UNL     1       1.363  -1.067   3.246  1.00  0.00     0.328 C 
ATOM      5  O   UNL     1       1.523  -1.568   4.354  1.00  0.00    -0.250 OA
BRANCH   4   6
ATOM      6  C   UNL     1       1.429  -1.877   1.926  1.00  0.00     0.195 C 
BRANCH   6   7
ATOM      7  C   UNL     1       0.785  -1.280   0.654  1.00  0.00     0.034 C 
ATOM      8  C   UNL     1       1.355   0.038   0.151  1.00  0.00     0.007 C 
ENDBRANCH   6   7
BRANCH   6   9
ATOM      9  N   UNL     1       0.813  -3.212   2.171  1.00  0.00    -0.319 N 
ATOM     10  C   UNL     1      -0.547  -3.300   2.675  1.00  0.00     0.142 C 
ATOM     11  C   UNL     1       1.559  -4.388   2.051  1.00  0.00     0.312 C 
ATOM     12  C   UNL     1      -1.254  -4.488   2.054  1.00  0.00     0.142 C 
ATOM     13  C   UNL     1       0.826  -5.736   2.425  1.00  0.00     0.312 C 
ATOM     14  O   UNL     1       2.709  -4.407   1.631  1.00  0.00    -0.263 OA
ATOM     15  N   UNL     1      -0.576  -5.711   2.424  1.00  0.00    -0.328 N 
ATOM     16  O   UNL     1       1.485  -6.738   2.674  1.00  0.00    -0.263 OA
BRANCH  15  17
ATOM     17  C   UNL     1      -1.354  -6.930   2.624  1.00  0.00     0.155 C 
BRANCH  17  18
ATOM     18  C   UNL     1      -2.106  -6.970   3.940  1.00  0.00    -0.028 A 
ATOM     19  C   UNL     1      -1.634  -7.760   4.996  1.00  0.00     0.005 A 
ATOM     20  C   UNL     1      -3.293  -6.240   4.134  1.00  0.00     0.009 A 
ATOM     21  C   UNL     1      -2.329  -7.819   6.206  1.00  0.00     0.001 A 
ATOM     22  C   UNL     1      -3.959  -6.240   5.368  1.00  0.00    -0.051 A 
ATOM     23  C   UNL     1      -3.480  -7.056   6.395  1.00  0.00     0.003 A 
ATOM     24  C   UNL     1      -5.176  -5.389   5.585  1.00  0.00     0.044 C 
ENDBRANCH  17  18
ENDBRANCH  15  17
ENDBRANCH   6   9
ENDBRANCH   4   6
ENDBRANCH   3   4
ENDBRANCH   2   3
ENDBRANCH   1   2
BRANCH   1  25
ATOM     25  O   UNL     1      -1.737   0.913   4.202  1.00  0.00    -0.374 OA
BRANCH  25  26
ATOM     26  C   UNL     1      -2.010   0.001   3.145  1.00  0.00     0.202 C 
BRANCH  26  27
ATOM     27  C   UNL     1      -2.854   0.527   1.981  1.00  0.00     0.261 C 
BRANCH  27  28
ATOM     28  O   UNL     1      -2.206   1.626   1.326  1.00  0.00    -0.460 OA
BRANCH  28  29
ATOM     29  C   UNL     1      -2.702   2.835   1.672  1.00  0.00     0.338 C 
ATOM     30  O   UNL     1      -3.690   3.066   2.355  1.00  0.00    -0.246 OA
BRANCH  29  31
ATOM     31  C   UNL     1      -1.772   3.893   1.249  1.00  0.00     0.060 A 
ATOM     32  C   UNL     1      -1.423   4.856   2.205  1.00  0.00     0.016 A 
ATOM     33  C   UNL     1      -1.301   3.983  -0.062  1.00  0.00     0.016 A 
ATOM     34  C   UNL     1      -0.659   5.957   1.837  1.00  0.00     0.010 A 
ATOM     35  C   UNL     1      -0.542   5.095  -0.434  1.00  0.00     0.010 A 
ATOM     36  C   UNL     1      -0.262   6.107   0.503  1.00  0.00    -0.014 A 
BRANCH  36  37
ATOM     37  C   UNL     1       0.251   7.416   0.041  1.00  0.00     0.031 A 
ATOM     38  C   UNL     1      -0.704   8.350  -0.648  1.00  0.00     0.074 A 
ATOM     39  C   UNL     1       1.528   7.777   0.253  1.00  0.00     0.049 A 
ATOM     40  N   UNL     1      -0.476   9.504  -1.219  1.00  0.00    -0.248 NA
ATOM     41  C   UNL     1      -2.111   7.918  -0.705  1.00  0.00     0.031 C 
ATOM     42  C   UNL     1       2.523   6.981   0.966  1.00  0.00     0.029 A 
ATOM     43  N   UNL     1       2.204   8.908  -0.125  1.00  0.00    -0.354 N 
ATOM     44  C   UNL     1      -1.703   9.926  -1.715  1.00  0.00     0.074 A 
ATOM     45  C   UNL     1      -2.668   8.896  -1.402  1.00  0.00     0.031 C 
ATOM     46  C   UNL     1       3.694   7.641   0.958  1.00  0.00     0.029 A 
ATOM     47  C   UNL     1       3.536   8.885   0.205  1.00  0.00     0.049 A 
ATOM     48  H   UNL     1       1.776   9.664  -0.589  1.00  0.00     0.167 HD
ATOM     49  C   UNL     1      -1.996  11.075  -2.368  1.00  0.00     0.037 A 
ATOM     50  C   UNL     1       4.517   9.758  -0.097  1.00  0.00     0.037 A 
ATOM     51  C   UNL     1      -1.029  12.096  -2.667  1.00  0.00     0.049 A 
ATOM     52  C   UNL     1       4.182  10.994  -0.893  1.00  0.00     0.074 A 
ATOM     53  C   UNL     1      -1.220  13.300  -3.320  1.00  0.00     0.029 A 
ATOM     54  N   UNL     1       0.316  12.028  -2.334  1.00  0.00    -0.354 N 
ATOM     55  N   UNL     1       3.021  11.391  -1.358  1.00  0.00    -0.248 NA
ATOM     56  C   UNL     1       5.293  11.904  -1.208  1.00  0.00     0.031 C 
ATOM     57  C   UNL     1       0.020  13.937  -3.429  1.00  0.00     0.029 A 
ATOM     58  C   UNL     1       0.971  13.160  -2.787  1.00  0.00     0.049 A 
ATOM     59  H   UNL     1       0.741  11.285  -1.848  1.00  0.00     0.167 HD
ATOM     60  C   UNL     1       3.253  12.612  -1.978  1.00  0.00     0.074 A 
ATOM     61  C   UNL     1       4.667  12.890  -1.834  1.00  0.00     0.031 C 
ATOM     62  C   UNL     1       2.374  13.432  -2.604  1.00  0.00     0.037 A 
BRANCH  49  63
ATOM     63  C   UNL     1      -3.409  11.271  -2.830  1.00  0.00     0.064 A 
ATOM     64  C   UNL     1      -4.457  11.512  -1.930  1.00  0.00     0.173 A 
ATOM     65  C   UNL     1      -3.715  11.245  -4.200  1.00  0.00     0.173 A 
ATOM     66  F   UNL     1      -4.222  11.530  -0.609  1.00  0.00    -0.203 F 
ATOM     67  C   UNL     1      -5.762  11.695  -2.381  1.00  0.00     0.198 A 
ATOM     68  C   UNL     1      -5.014  11.459  -4.650  1.00  0.00     0.198 A 
ATOM     69  F   UNL     1      -2.750  11.018  -5.104  1.00  0.00    -0.203 F 
ATOM     70  F   UNL     1      -6.756  11.875  -1.500  1.00  0.00    -0.200 F 
ATOM     71  C   UNL     1      -6.038  11.677  -3.740  1.00  0.00     0.200 A 
ATOM     72  F   UNL     1      -5.276  11.453  -5.964  1.00  0.00    -0.200 F 
ATOM     73  F   UNL     1      -7.293  11.861  -4.174  1.00  0.00    -0.200 F 
ENDBRANCH  49  63
BRANCH  50  74
ATOM     74  C   UNL     1       5.912   9.489   0.340  1.00  0.00     0.064 A 
ATOM     75  C   UNL     1       6.541  10.298   1.297  1.00  0.00     0.173 A 
ATOM     76  C   UNL     1       6.652   8.427  -0.202  1.00  0.00     0.173 A 
ATOM     77  F   UNL     1       5.884  11.339   1.827  1.00  0.00    -0.203 F 
ATOM     78  C   UNL     1       7.861  10.068   1.679  1.00  0.00     0.198 A 
ATOM     79  C   UNL     1       7.962   8.180   0.203  1.00  0.00     0.198 A 
ATOM     80  F   UNL     1       6.098   7.622  -1.121  1.00  0.00    -0.203 F 
ATOM     81  F   UNL     1       8.453  10.886   2.559  1.00  0.00    -0.200 F 
ATOM     82  C   UNL     1       8.569   9.006   1.136  1.00  0.00     0.200 A 
ATOM     83  F   UNL     1       8.636   7.144  -0.315  1.00  0.00    -0.200 F 
ATOM     84  F   UNL     1       9.837   8.784   1.506  1.00  0.00    -0.200 F 
ENDBRANCH  50  74
BRANCH  62  85
ATOM     85  C   UNL     1       2.889  14.744  -3.120  1.00  0.00     0.064 A 
ATOM     86  C   UNL     1       3.699  14.827  -4.261  1.00  0.00     0.173 A 
ATOM     87  C   UNL     1       2.494  15.943  -2.505  1.00  0.00     0.173 A 
ATOM     88  F   UNL     1       4.112  13.710  -4.878  1.00  0.00    -0.203 F 
ATOM     89  C   UNL     1       4.107  16.062  -4.759  1.00  0.00     0.198 A 
ATOM     90  C   UNL     1       2.878  17.176  -3.023  1.00  0.00     0.198 A 
ATOM     91  F   UNL     1       1.711  15.918  -1.416  1.00  0.00    -0.203 F 
ATOM     92  F   UNL     1       4.909  16.118  -5.831  1.00  0.00    -0.200 F 
ATOM     93  C   UNL     1       3.688  17.234  -4.146  1.00  0.00     0.200 A 
ATOM     94  F   UNL     1       2.458  18.307  -2.440  1.00  0.00    -0.200 F 
ATOM     95  F   UNL     1       4.066  18.422  -4.639  1.00  0.00    -0.200 F 
ENDBRANCH  62  85
ENDBRANCH  36  37
ENDBRANCH  29  31
ENDBRANCH  28  29
ENDBRANCH  27  28
ENDBRANCH  26  27
ENDBRANCH  25  26
ENDBRANCH   1  25
TORSDOF 18
