REMARK SMILES CCCC(=O)N(c1cc2sc(=O)oc2c2ccccc12)S(=O)(=O)c1ccc(C(=O)OCCOCCOC(=O)c2ccc(-c3c4nc(c(-c5c(F)c(F)c(F)c(F)c5F)c5ccc([nH]5)c(-c5c(F)c(F)c(F)c(F)c5F)c5nc(c(-c6c(F)c(F)c(F)c(F)c6F)c6ccc3[nH]6)C=C5)C=C4)cc2)cc1
REMARK SMILES IDX 31 1 30 2 28 3 29 4 27 5 24 6 25 7 103 8 26 9 102 10 21 11
REMARK SMILES IDX 22 12 23 13 6 14 4 15 5 16 3 17 2 18 1 19 7 20 8 21 20 22
REMARK SMILES IDX 9 23 15 24 19 25 10 26 14 27 16 28 18 29 11 30 13 31 17 32
REMARK SMILES IDX 12 33 32 34 33 35 34 36 35 37 36 38 37 39 38 40 39 41 40 42
REMARK SMILES IDX 101 43 41 44 100 45 42 46 43 47 44 48 94 49 45 50 99 51
REMARK SMILES IDX 93 52 95 53 46 54 98 55 92 56 91 57 47 59 79 60 59 61 78 62
REMARK SMILES IDX 60 63 63 64 77 65 96 66 61 67 62 68 76 70 97 71 64 72 48 73
REMARK SMILES IDX 49 74 57 75 50 76 51 77 55 78 58 79 52 80 53 81 56 82 54 83
REMARK SMILES IDX 80 84 81 85 89 86 82 87 83 88 87 89 90 90 84 91 85 92 88 93
REMARK SMILES IDX 86 94 65 95 66 96 74 97 67 98 68 99 72 100 75 101 69 102
REMARK SMILES IDX 70 103 73 104 71 105
REMARK H PARENT 95 58 63 69
REMARK Flexibility Score: inf
ROOT
ATOM      1  C   UNL     1       2.765   1.210   9.661  1.00  0.00     0.261 C 
ENDROOT
BRANCH   1   2
ATOM      2  O   UNL     1       2.471   0.252   8.632  1.00  0.00    -0.460 OA
BRANCH   2   3
ATOM      3  C   UNL     1       1.238   0.391   8.080  1.00  0.00     0.338 C 
ATOM      4  O   UNL     1       0.368   1.172   8.431  1.00  0.00    -0.246 OA
BRANCH   3   5
ATOM      5  C   UNL     1       1.090  -0.444   6.862  1.00  0.00     0.060 A 
ATOM      6  C   UNL     1       0.598  -1.953   4.559  1.00  0.00     0.088 A 
ATOM      7  C   UNL     1      -0.018  -0.710   4.708  1.00  0.00     0.023 A 
ATOM      8  C   UNL     1       1.470  -2.440   5.548  1.00  0.00     0.023 A 
ATOM      9  C   UNL     1       0.239   0.044   5.855  1.00  0.00     0.017 A 
ATOM     10  C   UNL     1       1.722  -1.682   6.700  1.00  0.00     0.017 A 
BRANCH   6  11
ATOM     11  S   UNL     1       0.154  -2.995   3.169  1.00  0.00     0.270 S 
ATOM     12  O   UNL     1      -1.286  -3.114   3.235  1.00  0.00    -0.201 OA
ATOM     13  O   UNL     1       1.017  -4.160   3.256  1.00  0.00    -0.201 OA
BRANCH  11  14
ATOM     14  N   UNL     1       0.584  -2.178   1.744  1.00  0.00    -0.202 N 
BRANCH  14  15
ATOM     15  C   UNL     1       0.366  -2.860   0.499  1.00  0.00     0.241 C 
ATOM     16  O   UNL     1      -0.616  -3.580   0.338  1.00  0.00    -0.273 OA
BRANCH  15  17
ATOM     17  C   UNL     1       1.389  -2.758  -0.628  1.00  0.00     0.101 C 
BRANCH  17  18
ATOM     18  C   UNL     1       1.123  -1.644  -1.639  1.00  0.00     0.006 C 
ATOM     19  C   UNL     1       2.317  -0.711  -1.795  1.00  0.00     0.004 C 
ENDBRANCH  17  18
ENDBRANCH  15  17
ENDBRANCH  14  15
BRANCH  14  20
ATOM     20  C   UNL     1       1.482  -1.062   1.792  1.00  0.00     0.070 A 
ATOM     21  C   UNL     1       2.777  -1.229   2.297  1.00  0.00     0.051 A 
ATOM     22  C   UNL     1       1.050   0.198   1.260  1.00  0.00     0.010 A 
ATOM     23  C   UNL     1       3.615  -0.130   2.333  1.00  0.00     0.080 A 
ATOM     24  C   UNL     1       1.960   1.285   1.234  1.00  0.00     0.028 A 
ATOM     25  C   UNL     1      -0.238   0.416   0.714  1.00  0.00     0.011 A 
ATOM     26  S   UNL     1       5.248  -0.051   2.958  1.00  0.00    -0.052 S 
ATOM     27  C   UNL     1       3.215   1.101   1.824  1.00  0.00     0.157 A 
ATOM     28  C   UNL     1       1.605   2.485   0.584  1.00  0.00     0.013 A 
ATOM     29  C   UNL     1      -0.563   1.598   0.045  1.00  0.00     0.001 A 
ATOM     30  C   UNL     1       5.256   1.679   2.591  1.00  0.00     0.396 A 
ATOM     31  O   UNL     1       4.132   2.154   1.926  1.00  0.00    -0.413 OA
ATOM     32  C   UNL     1       0.366   2.624  -0.038  1.00  0.00     0.001 A 
ATOM     33  O   UNL     1       6.180   2.406   2.930  1.00  0.00    -0.233 OA
ENDBRANCH  14  20
ENDBRANCH  11  14
ENDBRANCH   6  11
ENDBRANCH   3   5
ENDBRANCH   2   3
ENDBRANCH   1   2
BRANCH   1  34
ATOM     34  C   UNL     1       3.796   2.271   9.242  1.00  0.00     0.202 C 
BRANCH  34  35
ATOM     35  O   UNL     1       3.613   2.904   7.981  1.00  0.00    -0.374 OA
BRANCH  35  36
ATOM     36  C   UNL     1       3.905   2.151   6.802  1.00  0.00     0.202 C 
BRANCH  36  37
ATOM     37  C   UNL     1       5.290   1.501   6.692  1.00  0.00     0.261 C 
BRANCH  37  38
ATOM     38  O   UNL     1       5.402   0.364   7.563  1.00  0.00    -0.460 OA
BRANCH  38  39
ATOM     39  C   UNL     1       6.532   0.317   8.313  1.00  0.00     0.338 C 
ATOM     40  O   UNL     1       7.489   1.054   8.288  1.00  0.00    -0.246 OA
BRANCH  39  41
ATOM     41  C   UNL     1       6.322  -0.721   9.331  1.00  0.00     0.060 A 
ATOM     42  C   UNL     1       6.515  -2.064   9.017  1.00  0.00     0.016 A 
ATOM     43  C   UNL     1       5.931  -0.325  10.612  1.00  0.00     0.016 A 
ATOM     44  C   UNL     1       6.322  -3.022  10.011  1.00  0.00     0.010 A 
ATOM     45  C   UNL     1       5.693  -1.285  11.585  1.00  0.00     0.010 A 
ATOM     46  C   UNL     1       5.921  -2.636  11.303  1.00  0.00    -0.014 A 
BRANCH  46  47
ATOM     47  C   UNL     1       5.936  -3.647  12.379  1.00  0.00     0.031 A 
ATOM     48  C   UNL     1       6.517  -3.178  13.680  1.00  0.00     0.074 A 
ATOM     49  C   UNL     1       5.066  -4.677  12.399  1.00  0.00     0.049 A 
ATOM     50  N   UNL     1       5.835  -2.507  14.566  1.00  0.00    -0.248 NA
ATOM     51  C   UNL     1       7.958  -3.182  13.930  1.00  0.00     0.031 C 
ATOM     52  C   UNL     1       3.674  -4.577  11.947  1.00  0.00     0.029 A 
ATOM     53  N   UNL     1       5.139  -5.901  13.023  1.00  0.00    -0.354 N 
ATOM     54  C   UNL     1       6.740  -1.966  15.462  1.00  0.00     0.074 A 
ATOM     55  C   UNL     1       8.045  -2.423  15.035  1.00  0.00     0.031 C 
ATOM     56  C   UNL     1       2.980  -5.609  12.470  1.00  0.00     0.029 A 
ATOM     57  C   UNL     1       3.895  -6.511  13.167  1.00  0.00     0.049 A 
ATOM     58  H   UNL     1       5.981  -6.303  13.336  1.00  0.00     0.167 HD
ATOM     59  C   UNL     1       6.375  -1.170  16.503  1.00  0.00     0.037 A 
ATOM     60  C   UNL     1       3.546  -7.312  14.212  1.00  0.00     0.037 A 
ATOM     61  C   UNL     1       4.973  -0.917  16.642  1.00  0.00     0.049 A 
ATOM     62  C   UNL     1       3.422  -6.287  15.316  1.00  0.00     0.074 A 
ATOM     63  C   UNL     1       4.073   0.074  16.317  1.00  0.00     0.029 A 
ATOM     64  N   UNL     1       4.206  -1.892  17.235  1.00  0.00    -0.354 N 
ATOM     65  N   UNL     1       2.417  -5.473  15.510  1.00  0.00    -0.248 NA
ATOM     66  C   UNL     1       4.651  -5.919  16.023  1.00  0.00     0.031 C 
ATOM     67  C   UNL     1       2.794  -0.571  16.286  1.00  0.00     0.029 A 
ATOM     68  C   UNL     1       3.014  -1.919  16.558  1.00  0.00     0.049 A 
ATOM     69  H   UNL     1       4.462  -2.459  17.997  1.00  0.00     0.167 HD
ATOM     70  C   UNL     1       2.962  -4.359  16.151  1.00  0.00     0.074 A 
ATOM     71  C   UNL     1       4.335  -4.707  16.453  1.00  0.00     0.031 C 
ATOM     72  C   UNL     1       2.332  -3.152  16.244  1.00  0.00     0.037 A 
BRANCH  59  73
ATOM     73  C   UNL     1       7.280  -0.751  17.591  1.00  0.00     0.064 A 
ATOM     74  C   UNL     1       7.253  -1.500  18.777  1.00  0.00     0.173 A 
ATOM     75  C   UNL     1       7.977   0.459  17.587  1.00  0.00     0.173 A 
ATOM     76  F   UNL     1       6.573  -2.659  18.820  1.00  0.00    -0.203 F 
ATOM     77  C   UNL     1       7.864  -1.037  19.935  1.00  0.00     0.198 A 
ATOM     78  C   UNL     1       8.601   0.917  18.748  1.00  0.00     0.198 A 
ATOM     79  F   UNL     1       8.014   1.216  16.481  1.00  0.00    -0.203 F 
ATOM     80  F   UNL     1       7.772  -1.749  21.066  1.00  0.00    -0.200 F 
ATOM     81  C   UNL     1       8.530   0.177  19.923  1.00  0.00     0.200 A 
ATOM     82  F   UNL     1       9.244   2.093  18.744  1.00  0.00    -0.200 F 
ATOM     83  F   UNL     1       9.091   0.641  21.048  1.00  0.00    -0.200 F 
ENDBRANCH  59  73
BRANCH  60  84
ATOM     84  C   UNL     1       4.335  -8.582  14.352  1.00  0.00     0.064 A 
ATOM     85  C   UNL     1       4.528  -9.386  13.207  1.00  0.00     0.173 A 
ATOM     86  C   UNL     1       4.911  -9.060  15.538  1.00  0.00     0.173 A 
ATOM     87  F   UNL     1       3.909  -9.080  12.056  1.00  0.00    -0.203 F 
ATOM     88  C   UNL     1       5.361 -10.505  13.218  1.00  0.00     0.198 A 
ATOM     89  C   UNL     1       5.769 -10.164  15.544  1.00  0.00     0.198 A 
ATOM     90  F   UNL     1       4.674  -8.462  16.713  1.00  0.00    -0.203 F 
ATOM     91  F   UNL     1       5.551 -11.209  12.094  1.00  0.00    -0.200 F 
ATOM     92  C   UNL     1       6.012 -10.872  14.381  1.00  0.00     0.200 A 
ATOM     93  F   UNL     1       6.383 -10.521  16.682  1.00  0.00    -0.200 F 
ATOM     94  F   UNL     1       6.866 -11.904  14.382  1.00  0.00    -0.200 F 
ENDBRANCH  60  84
BRANCH  72  95
ATOM     95  C   UNL     1       0.925  -3.116  15.761  1.00  0.00     0.064 A 
ATOM     96  C   UNL     1      -0.087  -3.748  16.494  1.00  0.00     0.173 A 
ATOM     97  C   UNL     1       0.561  -2.413  14.602  1.00  0.00     0.173 A 
ATOM     98  F   UNL     1       0.211  -4.423  17.615  1.00  0.00    -0.203 F 
ATOM     99  C   UNL     1      -1.417  -3.658  16.097  1.00  0.00     0.198 A 
ATOM    100  C   UNL     1      -0.773  -2.302  14.224  1.00  0.00     0.198 A 
ATOM    101  F   UNL     1       1.491  -1.805  13.847  1.00  0.00    -0.203 F 
ATOM    102  F   UNL     1      -2.372  -4.261  16.818  1.00  0.00    -0.200 F 
ATOM    103  C   UNL     1      -1.761  -2.922  14.972  1.00  0.00     0.200 A 
ATOM    104  F   UNL     1      -1.105  -1.575  13.147  1.00  0.00    -0.200 F 
ATOM    105  F   UNL     1      -3.047  -2.800  14.617  1.00  0.00    -0.200 F 
ENDBRANCH  72  95
ENDBRANCH  46  47
ENDBRANCH  39  41
ENDBRANCH  38  39
ENDBRANCH  37  38
ENDBRANCH  36  37
ENDBRANCH  35  36
ENDBRANCH  34  35
ENDBRANCH   1  34
TORSDOF 20
