REMARK SMILES CC(C)(C)N(CC(=O)OCCOCCOC(=O)c1ccc(-c2c3nc(c(-c4c(F)c(F)c(F)c(F)c4F)c4ccc([nH]4)c(-c4c(F)c(F)c(F)c(F)c4F)c4nc(c(-c5c(F)c(F)c(F)c(F)c5F)c5ccc2[nH]5)C=C4)C=C3)cc1)C(=O)N(CCO)C1CC1
REMARK SMILES IDX 10 1 9 2 7 3 8 4 6 5 5 6 2 7 1 8 3 9 4 10 81 11 82 12 83 13
REMARK SMILES IDX 84 14 85 15 86 16 87 18 88 19 89 20 11 21 12 22 13 23 14 24
REMARK SMILES IDX 15 25 16 26 17 27 18 28 19 29 80 30 20 31 79 32 21 33 22 34
REMARK SMILES IDX 23 35 73 36 24 37 78 38 72 39 74 40 25 41 77 42 71 43 70 44
REMARK SMILES IDX 26 46 58 47 38 48 57 49 39 50 42 51 56 52 75 53 40 54 41 55
REMARK SMILES IDX 55 57 76 58 43 59 27 60 28 61 36 62 29 63 30 64 34 65 37 66
REMARK SMILES IDX 31 67 32 68 35 69 33 70 59 71 60 72 68 73 61 74 62 75 66 76
REMARK SMILES IDX 69 77 63 78 64 79 67 80 65 81 44 82 45 83 53 84 46 85 47 86
REMARK SMILES IDX 51 87 54 88 48 89 49 90 52 91 50 92
REMARK H PARENT 86 17 74 45 42 56
REMARK Flexibility Score: inf
ROOT
ATOM      1  C   UNL     1       5.152  -0.332  -1.908  1.00  0.00     0.261 C 
ENDROOT
BRANCH   1   2
ATOM      2  O   UNL     1       3.703  -0.272  -1.865  1.00  0.00    -0.462 OA
BRANCH   2   3
ATOM      3  C   UNL     1       3.089   0.685  -2.613  1.00  0.00     0.325 C 
ATOM      4  O   UNL     1       3.674   1.648  -3.100  1.00  0.00    -0.250 OA
BRANCH   3   5
ATOM      5  C   UNL     1       1.553   0.514  -2.729  1.00  0.00     0.244 C 
BRANCH   5   6
ATOM      6  N   UNL     1       0.871  -0.777  -2.466  1.00  0.00    -0.309 N 
BRANCH   6   7
ATOM      7  C   UNL     1       0.530  -1.067  -0.988  1.00  0.00     0.037 C 
ATOM      8  C   UNL     1       1.111  -0.052   0.040  1.00  0.00     0.034 C 
ATOM      9  C   UNL     1       1.087  -2.444  -0.542  1.00  0.00     0.034 C 
ATOM     10  C   UNL     1      -1.006  -1.007  -0.759  1.00  0.00     0.034 C 
ENDBRANCH   6   7
BRANCH   6  11
ATOM     11  C   UNL     1       0.327  -1.678  -3.399  1.00  0.00     0.321 C 
ATOM     12  O   UNL     1      -0.427  -2.559  -2.960  1.00  0.00    -0.248 OA
BRANCH  11  13
ATOM     13  N   UNL     1       0.574  -1.707  -4.778  1.00  0.00    -0.319 N 
BRANCH  13  14
ATOM     14  C   UNL     1       1.185  -0.692  -5.681  1.00  0.00     0.150 C 
BRANCH  14  15
ATOM     15  C   UNL     1       2.111  -1.207  -6.801  1.00  0.00     0.177 C 
BRANCH  15  16
ATOM     16  O   UNL     1       1.400  -1.704  -7.926  1.00  0.00    -0.395 OA
ATOM     17  H   UNL     1       0.854  -2.459  -7.656  1.00  0.00     0.210 HD
ENDBRANCH  15  16
ENDBRANCH  14  15
ENDBRANCH  13  14
BRANCH  13  18
ATOM     18  C   UNL     1      -0.190  -2.748  -5.541  1.00  0.00     0.087 C 
ATOM     19  C   UNL     1       0.444  -3.881  -6.328  1.00  0.00     0.027 C 
ATOM     20  C   UNL     1      -0.325  -4.197  -5.095  1.00  0.00     0.027 C 
ENDBRANCH  13  18
ENDBRANCH  11  13
ENDBRANCH   6  11
ENDBRANCH   5   6
ENDBRANCH   3   5
ENDBRANCH   2   3
ENDBRANCH   1   2
BRANCH   1  21
ATOM     21  C   UNL     1       5.643  -1.703  -2.417  1.00  0.00     0.202 C 
BRANCH  21  22
ATOM     22  O   UNL     1       5.123  -2.088  -3.693  1.00  0.00    -0.374 OA
BRANCH  22  23
ATOM     23  C   UNL     1       3.711  -2.283  -3.664  1.00  0.00     0.202 C 
BRANCH  23  24
ATOM     24  C   UNL     1       3.281  -3.581  -4.297  1.00  0.00     0.261 C 
BRANCH  24  25
ATOM     25  O   UNL     1       3.563  -4.612  -3.368  1.00  0.00    -0.460 OA
BRANCH  25  26
ATOM     26  C   UNL     1       4.513  -5.467  -3.770  1.00  0.00     0.338 C 
ATOM     27  O   UNL     1       4.924  -5.678  -4.893  1.00  0.00    -0.246 OA
BRANCH  26  28
ATOM     28  C   UNL     1       5.144  -5.921  -2.532  1.00  0.00     0.060 A 
ATOM     29  C   UNL     1       6.536  -5.960  -2.527  1.00  0.00     0.016 A 
ATOM     30  C   UNL     1       4.387  -6.227  -1.391  1.00  0.00     0.016 A 
ATOM     31  C   UNL     1       7.184  -6.391  -1.388  1.00  0.00     0.010 A 
ATOM     32  C   UNL     1       5.039  -6.638  -0.240  1.00  0.00     0.010 A 
ATOM     33  C   UNL     1       6.433  -6.768  -0.265  1.00  0.00    -0.014 A 
BRANCH  33  34
ATOM     34  C   UNL     1       7.136  -7.470   0.814  1.00  0.00     0.031 A 
ATOM     35  C   UNL     1       7.094  -8.966   0.817  1.00  0.00     0.074 A 
ATOM     36  C   UNL     1       7.872  -6.758   1.680  1.00  0.00     0.049 A 
ATOM     37  N   UNL     1       7.774  -9.807   1.547  1.00  0.00    -0.248 NA
ATOM     38  C   UNL     1       6.166  -9.607  -0.132  1.00  0.00     0.031 C 
ATOM     39  C   UNL     1       7.941  -5.297   1.723  1.00  0.00     0.029 A 
ATOM     40  N   UNL     1       8.720  -7.169   2.667  1.00  0.00    -0.354 N 
ATOM     41  C   UNL     1       7.362 -11.069   1.141  1.00  0.00     0.074 A 
ATOM     42  C   UNL     1       6.344 -10.891   0.133  1.00  0.00     0.031 C 
ATOM     43  C   UNL     1       8.805  -4.931   2.684  1.00  0.00     0.029 A 
ATOM     44  C   UNL     1       9.339  -6.133   3.318  1.00  0.00     0.049 A 
ATOM     45  H   UNL     1       8.872  -8.116   2.891  1.00  0.00     0.167 HD
ATOM     46  C   UNL     1       7.817 -12.266   1.570  1.00  0.00     0.037 A 
ATOM     47  C   UNL     1      10.245  -6.172   4.310  1.00  0.00     0.037 A 
ATOM     48  C   UNL     1       8.840 -12.404   2.570  1.00  0.00     0.049 A 
ATOM     49  C   UNL     1      10.735  -7.521   4.762  1.00  0.00     0.074 A 
ATOM     50  C   UNL     1       9.415 -13.556   3.068  1.00  0.00     0.029 A 
ATOM     51  N   UNL     1       9.435 -11.335   3.228  1.00  0.00    -0.354 N 
ATOM     52  N   UNL     1      10.395  -8.713   4.328  1.00  0.00    -0.248 NA
ATOM     53  C   UNL     1      11.746  -7.533   5.824  1.00  0.00     0.031 C 
ATOM     54  C   UNL     1      10.324 -13.186   4.066  1.00  0.00     0.029 A 
ATOM     55  C   UNL     1      10.352 -11.801   4.152  1.00  0.00     0.049 A 
ATOM     56  H   UNL     1       9.234 -10.385   3.062  1.00  0.00     0.167 HD
ATOM     57  C   UNL     1      11.157  -9.617   5.053  1.00  0.00     0.074 A 
ATOM     58  C   UNL     1      12.002  -8.829   5.930  1.00  0.00     0.031 C 
ATOM     59  C   UNL     1      11.161 -10.973   5.011  1.00  0.00     0.037 A 
BRANCH  46  60
ATOM     60  C   UNL     1       7.197 -13.498   0.983  1.00  0.00     0.064 A 
ATOM     61  C   UNL     1       7.443 -13.894  -0.340  1.00  0.00     0.173 A 
ATOM     62  C   UNL     1       6.356 -14.305   1.764  1.00  0.00     0.173 A 
ATOM     63  F   UNL     1       8.220 -13.144  -1.137  1.00  0.00    -0.203 F 
ATOM     64  C   UNL     1       6.858 -15.045  -0.865  1.00  0.00     0.198 A 
ATOM     65  C   UNL     1       5.793 -15.467   1.244  1.00  0.00     0.198 A 
ATOM     66  F   UNL     1       6.081 -13.966   3.032  1.00  0.00    -0.203 F 
ATOM     67  F   UNL     1       7.074 -15.383  -2.144  1.00  0.00    -0.200 F 
ATOM     68  C   UNL     1       6.040 -15.834  -0.070  1.00  0.00     0.200 A 
ATOM     69  F   UNL     1       5.006 -16.231   2.015  1.00  0.00    -0.200 F 
ATOM     70  F   UNL     1       5.484 -16.945  -0.573  1.00  0.00    -0.200 F 
ENDBRANCH  46  60
BRANCH  47  71
ATOM     71  C   UNL     1      10.744  -4.910   4.913  1.00  0.00     0.064 A 
ATOM     72  C   UNL     1      12.074  -4.499   4.756  1.00  0.00     0.173 A 
ATOM     73  C   UNL     1       9.891  -4.084   5.661  1.00  0.00     0.173 A 
ATOM     74  F   UNL     1      12.932  -5.257   4.058  1.00  0.00    -0.203 F 
ATOM     75  C   UNL     1      12.540  -3.325   5.347  1.00  0.00     0.198 A 
ATOM     76  C   UNL     1      10.350  -2.896   6.226  1.00  0.00     0.198 A 
ATOM     77  F   UNL     1       8.605  -4.424   5.832  1.00  0.00    -0.203 F 
ATOM     78  F   UNL     1      13.828  -2.979   5.221  1.00  0.00    -0.200 F 
ATOM     79  C   UNL     1      11.676  -2.523   6.078  1.00  0.00     0.200 A 
ATOM     80  F   UNL     1       9.506  -2.115   6.915  1.00  0.00    -0.200 F 
ATOM     81  F   UNL     1      12.123  -1.393   6.643  1.00  0.00    -0.200 F 
ENDBRANCH  47  71
BRANCH  59  82
ATOM     82  C   UNL     1      12.108 -11.668   5.942  1.00  0.00     0.064 A 
ATOM     83  C   UNL     1      11.879 -11.697   7.325  1.00  0.00     0.173 A 
ATOM     84  C   UNL     1      13.240 -12.327   5.442  1.00  0.00     0.173 A 
ATOM     85  F   UNL     1      10.816 -11.067   7.847  1.00  0.00    -0.203 F 
ATOM     86  C   UNL     1      12.773 -12.331   8.181  1.00  0.00     0.198 A 
ATOM     87  C   UNL     1      14.113 -12.989   6.298  1.00  0.00     0.198 A 
ATOM     88  F   UNL     1      13.493 -12.335   4.125  1.00  0.00    -0.203 F 
ATOM     89  F   UNL     1      12.569 -12.295   9.505  1.00  0.00    -0.200 F 
ATOM     90  C   UNL     1      13.886 -12.981   7.667  1.00  0.00     0.200 A 
ATOM     91  F   UNL     1      15.180 -13.629   5.800  1.00  0.00    -0.200 F 
ATOM     92  F   UNL     1      14.746 -13.591   8.493  1.00  0.00    -0.200 F 
ENDBRANCH  59  82
ENDBRANCH  33  34
ENDBRANCH  26  28
ENDBRANCH  25  26
ENDBRANCH  24  25
ENDBRANCH  23  24
ENDBRANCH  22  23
ENDBRANCH  21  22
ENDBRANCH   1  21
TORSDOF 22
