REMARK SMILES Cc1c(C[NH2+]Cc2cccc(F)c2)c(C(=O)OCCOCCOC(=O)c2ccc(-c3c4nc(c(-c5c(F)c(F)c(F)c(F)c5F)c5ccc([nH]5)c(-c5c(F)c(F)c(F)c(F)c5F)c5nc(c(-c6c(F)c(F)c(F)c(F)c6F)c6ccc3[nH]6)C=C5)C=C4)cc2)c(C)n1Cc1c(F)cccc1Cl
REMARK SMILES IDX 19 1 18 2 17 3 15 4 16 5 14 6 1 7 2 8 3 9 91 10 89 11 90 12
REMARK SMILES IDX 4 13 5 14 6 17 7 18 8 19 13 20 9 21 11 22 10 23 12 24 92 25
REMARK SMILES IDX 93 26 94 27 99 28 95 29 96 30 98 31 100 32 97 33 20 34 21 35
REMARK SMILES IDX 22 36 23 37 24 38 25 39 26 40 27 41 88 42 28 43 87 44 29 45
REMARK SMILES IDX 30 46 31 47 81 48 32 49 86 50 80 51 82 52 33 53 85 54 79 55
REMARK SMILES IDX 78 56 34 58 66 59 46 60 65 61 47 62 50 63 64 64 83 65 48 66
REMARK SMILES IDX 49 67 63 69 84 70 51 71 35 72 36 73 44 74 37 75 38 76 42 77
REMARK SMILES IDX 45 78 39 79 40 80 43 81 41 82 67 83 68 84 76 85 69 86 70 87
REMARK SMILES IDX 74 88 77 89 71 90 72 91 75 92 73 93 52 94 53 95 61 96 54 97
REMARK SMILES IDX 55 98 59 99 62 100 56 101 57 102 60 103 58 104
REMARK H PARENT 5 15 5 16 82 57 50 68
REMARK Flexibility Score: inf
ROOT
ATOM      1  C   UNL     1      -1.704  -4.777   6.292  1.00  0.00     0.202 C 
ENDROOT
BRANCH   1   2
ATOM      2  C   UNL     1      -0.251  -4.272   6.364  1.00  0.00     0.261 C 
BRANCH   2   3
ATOM      3  O   UNL     1      -0.059  -3.139   5.519  1.00  0.00    -0.460 OA
BRANCH   3   4
ATOM      4  C   UNL     1       0.723  -3.320   4.406  1.00  0.00     0.340 C 
ATOM      5  O   UNL     1       1.384  -4.312   4.197  1.00  0.00    -0.246 OA
BRANCH   4   6
ATOM      6  C   UNL     1       0.584  -2.174   3.484  1.00  0.00     0.089 A 
ATOM      7  C   UNL     1       0.765  -0.298   0.266  1.00  0.00     0.065 C 
ATOM      8  C   UNL     1       0.528  -0.848   1.635  1.00  0.00     0.025 A 
ATOM      9  C   UNL     1       0.749  -2.163   2.062  1.00  0.00     0.042 A 
ATOM     10  N   UNL     1       0.063  -0.110   2.723  1.00  0.00    -0.343 N 
ATOM     11  C   UNL     1       0.264  -0.873   3.864  1.00  0.00     0.030 A 
ATOM     12  C   UNL     1       0.137  -0.368   5.263  1.00  0.00     0.065 C 
BRANCH   9  13
ATOM     13  C   UNL     1       1.083  -3.357   1.199  1.00  0.00     0.300 C 
BRANCH  13  14
ATOM     14  N   UNL     1       2.424  -3.823   1.514  1.00  0.00    -0.339 N 
ATOM     15  H   UNL     1       2.436  -4.133   2.485  1.00  0.00     0.346 HD
ATOM     16  H   UNL     1       3.056  -3.041   1.344  1.00  0.00     0.346 HD
BRANCH  14  17
ATOM     17  C   UNL     1       2.879  -4.925   0.674  1.00  0.00     0.297 C 
BRANCH  17  18
ATOM     18  C   UNL     1       3.286  -4.561  -0.741  1.00  0.00     0.009 A 
ATOM     19  C   UNL     1       3.435  -3.235  -1.184  1.00  0.00     0.010 A 
ATOM     20  C   UNL     1       3.547  -5.595  -1.656  1.00  0.00     0.048 A 
ATOM     21  C   UNL     1       3.764  -2.947  -2.510  1.00  0.00     0.004 A 
ATOM     22  C   UNL     1       3.892  -5.298  -2.972  1.00  0.00     0.123 A 
ATOM     23  C   UNL     1       3.987  -3.983  -3.410  1.00  0.00     0.039 A 
ATOM     24  F   UNL     1       4.129  -6.296  -3.833  1.00  0.00    -0.207 F 
ENDBRANCH  17  18
ENDBRANCH  14  17
ENDBRANCH  13  14
ENDBRANCH   9  13
BRANCH  10  25
ATOM     25  C   UNL     1      -0.375   1.305   2.709  1.00  0.00     0.162 C 
BRANCH  25  26
ATOM     26  C   UNL     1      -1.878   1.533   2.738  1.00  0.00     0.026 A 
ATOM     27  C   UNL     1      -2.608   1.342   3.922  1.00  0.00     0.129 A 
ATOM     28  C   UNL     1      -2.611   2.048   1.655  1.00  0.00     0.048 A 
ATOM     29  F   UNL     1      -1.984   1.069   5.068  1.00  0.00    -0.207 F 
ATOM     30  C   UNL     1      -3.988   1.531   4.015  1.00  0.00     0.040 A 
ATOM     31  C   UNL     1      -3.998   2.281   1.749  1.00  0.00     0.021 A 
ATOM     32  Cl  UNL     1      -1.864   2.526   0.172  1.00  0.00    -0.084 Cl
ATOM     33  C   UNL     1      -4.694   1.997   2.920  1.00  0.00     0.005 A 
ENDBRANCH  25  26
ENDBRANCH  10  25
ENDBRANCH   4   6
ENDBRANCH   3   4
ENDBRANCH   2   3
ENDBRANCH   1   2
BRANCH   1  34
ATOM     34  O   UNL     1      -2.207  -5.058   4.988  1.00  0.00    -0.374 OA
BRANCH  34  35
ATOM     35  C   UNL     1      -2.699  -3.943   4.221  1.00  0.00     0.202 C 
BRANCH  35  36
ATOM     36  C   UNL     1      -4.201  -3.543   4.424  1.00  0.00     0.261 C 
BRANCH  36  37
ATOM     37  O   UNL     1      -4.560  -2.233   5.051  1.00  0.00    -0.460 OA
BRANCH  37  38
ATOM     38  C   UNL     1      -5.545  -2.235   6.024  1.00  0.00     0.338 C 
ATOM     39  O   UNL     1      -5.842  -3.251   6.645  1.00  0.00    -0.246 OA
BRANCH  38  40
ATOM     40  C   UNL     1      -6.280  -0.896   6.370  1.00  0.00     0.060 A 
ATOM     41  C   UNL     1      -6.212  -0.396   7.667  1.00  0.00     0.016 A 
ATOM     42  C   UNL     1      -7.286  -0.258   5.602  1.00  0.00     0.016 A 
ATOM     43  C   UNL     1      -7.044   0.714   8.131  1.00  0.00     0.010 A 
ATOM     44  C   UNL     1      -8.197   0.835   6.113  1.00  0.00     0.010 A 
ATOM     45  C   UNL     1      -8.121   1.383   7.414  1.00  0.00    -0.014 A 
BRANCH  45  46
ATOM     46  C   UNL     1      -9.290   2.232   8.347  1.00  0.00     0.031 A 
ATOM     47  C   UNL     1      -9.357   1.327   9.531  1.00  0.00     0.074 A 
ATOM     48  C   UNL     1     -10.261   3.283   8.428  1.00  0.00     0.049 A 
ATOM     49  N   UNL     1      -9.634   0.065   9.330  1.00  0.00    -0.248 NA
ATOM     50  C   UNL     1      -8.747   1.611  10.831  1.00  0.00     0.031 C 
ATOM     51  C   UNL     1     -10.681   4.239   7.377  1.00  0.00     0.029 A 
ATOM     52  N   UNL     1     -11.157   3.772   9.493  1.00  0.00    -0.354 N 
ATOM     53  C   UNL     1      -9.594  -0.533  10.557  1.00  0.00     0.074 A 
ATOM     54  C   UNL     1      -8.794   0.382  11.365  1.00  0.00     0.031 C 
ATOM     55  C   UNL     1     -11.536   5.213   7.837  1.00  0.00     0.029 A 
ATOM     56  C   UNL     1     -11.889   5.031   9.250  1.00  0.00     0.049 A 
ATOM     57  H   UNL     1     -11.263   3.275  10.337  1.00  0.00     0.167 HD
ATOM     58  C   UNL     1     -10.752  -1.175  10.885  1.00  0.00     0.037 A 
ATOM     59  C   UNL     1     -12.774   5.812  10.041  1.00  0.00     0.037 A 
ATOM     60  C   UNL     1     -11.565  -0.396  11.778  1.00  0.00     0.049 A 
ATOM     61  C   UNL     1     -13.433   4.871  10.950  1.00  0.00     0.074 A 
ATOM     62  C   UNL     1     -11.281   0.454  12.829  1.00  0.00     0.029 A 
ATOM     63  N   UNL     1     -12.824  -0.066  11.341  1.00  0.00    -0.354 N 
ATOM     64  N   UNL     1     -14.392   4.100  10.538  1.00  0.00    -0.248 NA
ATOM     65  C   UNL     1     -13.195   4.870  12.389  1.00  0.00     0.031 C 
ATOM     66  C   UNL     1     -12.089   1.582  12.587  1.00  0.00     0.029 A 
ATOM     67  C   UNL     1     -13.112   1.220  11.721  1.00  0.00     0.049 A 
ATOM     68  H   UNL     1     -13.426  -0.658  10.836  1.00  0.00     0.167 HD
ATOM     69  C   UNL     1     -14.451   3.162  11.513  1.00  0.00     0.074 A 
ATOM     70  C   UNL     1     -13.941   3.810  12.710  1.00  0.00     0.031 C 
ATOM     71  C   UNL     1     -14.196   1.909  11.073  1.00  0.00     0.037 A 
BRANCH  58  72
ATOM     72  C   UNL     1     -11.338  -2.003   9.761  1.00  0.00     0.064 A 
ATOM     73  C   UNL     1     -11.788  -1.454   8.537  1.00  0.00     0.173 A 
ATOM     74  C   UNL     1     -11.409  -3.390   9.898  1.00  0.00     0.173 A 
ATOM     75  F   UNL     1     -11.949  -0.128   8.389  1.00  0.00    -0.203 F 
ATOM     76  C   UNL     1     -12.137  -2.258   7.459  1.00  0.00     0.198 A 
ATOM     77  C   UNL     1     -11.841  -4.192   8.839  1.00  0.00     0.198 A 
ATOM     78  F   UNL     1     -11.088  -3.967  11.065  1.00  0.00    -0.203 F 
ATOM     79  F   UNL     1     -12.474  -1.697   6.289  1.00  0.00    -0.200 F 
ATOM     80  C   UNL     1     -12.165  -3.630   7.612  1.00  0.00     0.200 A 
ATOM     81  F   UNL     1     -11.956  -5.516   9.011  1.00  0.00    -0.200 F 
ATOM     82  F   UNL     1     -12.547  -4.407   6.589  1.00  0.00    -0.200 F 
ENDBRANCH  58  72
BRANCH  59  83
ATOM     83  C   UNL     1     -13.562   7.204  10.259  1.00  0.00     0.064 A 
ATOM     84  C   UNL     1     -12.897   8.439  10.353  1.00  0.00     0.173 A 
ATOM     85  C   UNL     1     -14.880   7.256  10.874  1.00  0.00     0.173 A 
ATOM     86  F   UNL     1     -11.665   8.567   9.849  1.00  0.00    -0.203 F 
ATOM     87  C   UNL     1     -13.438   9.564  11.054  1.00  0.00     0.198 A 
ATOM     88  C   UNL     1     -15.392   8.356  11.603  1.00  0.00     0.198 A 
ATOM     89  F   UNL     1     -15.704   6.200  10.854  1.00  0.00    -0.203 F 
ATOM     90  F   UNL     1     -12.722  10.695  11.156  1.00  0.00    -0.200 F 
ATOM     91  C   UNL     1     -14.658   9.509  11.710  1.00  0.00     0.200 A 
ATOM     92  F   UNL     1     -16.563   8.255  12.257  1.00  0.00    -0.200 F 
ATOM     93  F   UNL     1     -15.101  10.534  12.458  1.00  0.00    -0.200 F 
ENDBRANCH  59  83
BRANCH  71  94
ATOM     94  C   UNL     1     -14.899   1.447   9.810  1.00  0.00     0.064 A 
ATOM     95  C   UNL     1     -15.625   0.252   9.911  1.00  0.00     0.173 A 
ATOM     96  C   UNL     1     -14.926   2.084   8.545  1.00  0.00     0.173 A 
ATOM     97  F   UNL     1     -15.627  -0.428  11.068  1.00  0.00    -0.203 F 
ATOM     98  C   UNL     1     -16.311  -0.294   8.830  1.00  0.00     0.198 A 
ATOM     99  C   UNL     1     -15.663   1.561   7.476  1.00  0.00     0.198 A 
ATOM    100  F   UNL     1     -14.224   3.195   8.283  1.00  0.00    -0.203 F 
ATOM    101  F   UNL     1     -16.921  -1.479   8.969  1.00  0.00    -0.200 F 
ATOM    102  C   UNL     1     -16.342   0.365   7.617  1.00  0.00     0.200 A 
ATOM    103  F   UNL     1     -15.696   2.208   6.301  1.00  0.00    -0.200 F 
ATOM    104  F   UNL     1     -17.008  -0.163   6.581  1.00  0.00    -0.200 F 
ENDBRANCH  71  94
ENDBRANCH  45  46
ENDBRANCH  38  40
ENDBRANCH  37  38
ENDBRANCH  36  37
ENDBRANCH  35  36
ENDBRANCH  34  35
ENDBRANCH   1  34
TORSDOF 20
