REMARK SMILES CNc1nc(C(=O)N2C[C@@H](C(=O)OCCOCCOC(=O)c3ccc(-c4c5nc(c(-c6c(F)c(F)c(F)c(F)c6F)c6ccc([nH]6)c(-c6c(F)c(F)c(F)c(F)c6F)c6nc(c(-c7c(F)c(F)c(F)c(F)c7F)c7ccc4[nH]7)C=C6)C=C5)cc3)[C@H](c3ccccc3C)C2)cs1
REMARK SMILES IDX 15 1 14 2 13 3 11 4 12 5 10 6 8 7 9 8 93 9 85 10 6 11 7 12
REMARK SMILES IDX 5 13 3 14 4 15 95 16 94 17 2 18 1 19 86 21 87 22 91 23 88 24
REMARK SMILES IDX 90 25 92 26 89 27 16 28 17 29 18 30 19 31 20 32 21 33 22 34
REMARK SMILES IDX 23 35 84 36 24 37 83 38 25 39 26 40 27 41 77 42 28 43 82 44
REMARK SMILES IDX 76 45 78 46 29 47 81 48 75 49 74 50 30 52 62 53 42 54 61 55
REMARK SMILES IDX 43 56 46 57 60 58 79 59 44 60 45 61 59 63 80 64 47 65 31 66
REMARK SMILES IDX 32 67 40 68 33 69 34 70 38 71 41 72 35 73 36 74 39 75 37 76
REMARK SMILES IDX 63 77 64 78 72 79 65 80 66 81 70 82 73 83 67 84 68 85 71 86
REMARK SMILES IDX 69 87 48 88 49 89 57 90 50 91 51 92 55 93 58 94 52 95 53 96
REMARK SMILES IDX 56 97 54 98
REMARK H PARENT 2 20 78 51 46 62
REMARK Flexibility Score: inf
ROOT
ATOM      1  C   UNL     1      -4.980  -4.659  -0.031  1.00  0.00     0.202 C 
ENDROOT
BRANCH   1   2
ATOM      2  C   UNL     1      -5.408  -4.117  -1.395  1.00  0.00     0.261 C 
BRANCH   2   3
ATOM      3  O   UNL     1      -4.419  -3.214  -1.915  1.00  0.00    -0.463 OA
BRANCH   3   4
ATOM      4  C   UNL     1      -4.882  -2.033  -2.409  1.00  0.00     0.311 C 
ATOM      5  O   UNL     1      -6.058  -1.704  -2.474  1.00  0.00    -0.252 OA
BRANCH   4   6
ATOM      6  C   UNL     1      -3.736  -1.168  -2.858  1.00  0.00     0.128 C 
ATOM      7  N   UNL     1      -3.428   1.168  -2.831  1.00  0.00    -0.336 N 
ATOM      8  C   UNL     1      -3.626   0.044  -1.943  1.00  0.00     0.136 C 
ATOM      9  C   UNL     1      -4.080   0.903  -4.095  1.00  0.00     0.129 C 
ATOM     10  C   UNL     1      -3.989  -0.628  -4.288  1.00  0.00     0.055 C 
BRANCH   7  11
ATOM     11  C   UNL     1      -2.991   2.437  -2.483  1.00  0.00     0.273 C 
ATOM     12  O   UNL     1      -3.289   3.424  -3.156  1.00  0.00    -0.267 OA
BRANCH  11  13
ATOM     13  C   UNL     1      -2.119   2.564  -1.305  1.00  0.00     0.141 A 
ATOM     14  C   UNL     1      -0.485   1.938   0.081  1.00  0.00     0.183 A 
ATOM     15  N   UNL     1      -1.262   1.542  -0.897  1.00  0.00    -0.215 NA
ATOM     16  S   UNL     1      -0.794   3.533   0.644  1.00  0.00    -0.105 S 
ATOM     17  C   UNL     1      -1.983   3.730  -0.573  1.00  0.00     0.102 A 
BRANCH  14  18
ATOM     18  N   UNL     1       0.505   1.200   0.618  1.00  0.00    -0.365 N 
ATOM     19  C   UNL     1       0.845  -0.086   0.065  1.00  0.00     0.142 C 
ATOM     20  H   UNL     1       1.001   1.542   1.395  1.00  0.00     0.162 HD
ENDBRANCH  14  18
ENDBRANCH  11  13
ENDBRANCH   7  11
BRANCH  10  21
ATOM     21  C   UNL     1      -2.945  -1.187  -5.261  1.00  0.00    -0.039 A 
ATOM     22  C   UNL     1      -1.931  -0.369  -5.791  1.00  0.00     0.004 A 
ATOM     23  C   UNL     1      -2.967  -2.552  -5.655  1.00  0.00    -0.048 A 
ATOM     24  C   UNL     1      -0.983  -0.869  -6.689  1.00  0.00     0.000 A 
ATOM     25  C   UNL     1      -1.980  -3.044  -6.530  1.00  0.00     0.004 A 
ATOM     26  C   UNL     1      -3.959  -3.561  -5.137  1.00  0.00     0.044 C 
ATOM     27  C   UNL     1      -1.004  -2.207  -7.055  1.00  0.00     0.000 A 
ENDBRANCH  10  21
ENDBRANCH   4   6
ENDBRANCH   3   4
ENDBRANCH   2   3
ENDBRANCH   1   2
BRANCH   1  28
ATOM     28  O   UNL     1      -4.994  -3.724   1.047  1.00  0.00    -0.374 OA
BRANCH  28  29
ATOM     29  C   UNL     1      -4.079  -2.633   1.003  1.00  0.00     0.202 C 
BRANCH  29  30
ATOM     30  C   UNL     1      -2.605  -2.952   1.286  1.00  0.00     0.261 C 
BRANCH  30  31
ATOM     31  O   UNL     1      -2.007  -3.842   0.324  1.00  0.00    -0.460 OA
BRANCH  31  32
ATOM     32  C   UNL     1      -1.678  -5.059   0.813  1.00  0.00     0.338 C 
ATOM     33  O   UNL     1      -1.851  -5.474   1.956  1.00  0.00    -0.246 OA
BRANCH  32  34
ATOM     34  C   UNL     1      -1.140  -5.933  -0.240  1.00  0.00     0.060 A 
ATOM     35  C   UNL     1      -1.794  -7.146  -0.488  1.00  0.00     0.016 A 
ATOM     36  C   UNL     1       0.090  -5.654  -0.838  1.00  0.00     0.016 A 
ATOM     37  C   UNL     1      -1.192  -8.112  -1.294  1.00  0.00     0.010 A 
ATOM     38  C   UNL     1       0.697  -6.628  -1.639  1.00  0.00     0.010 A 
ATOM     39  C   UNL     1       0.079  -7.877  -1.835  1.00  0.00    -0.014 A 
BRANCH  39  40
ATOM     40  C   UNL     1       0.833  -8.989  -2.463  1.00  0.00     0.031 A 
ATOM     41  C   UNL     1       1.850  -9.737  -1.645  1.00  0.00     0.074 A 
ATOM     42  C   UNL     1       0.612  -9.338  -3.742  1.00  0.00     0.049 A 
ATOM     43  N   UNL     1       2.670 -10.692  -2.006  1.00  0.00    -0.248 NA
ATOM     44  C   UNL     1       1.959  -9.353  -0.229  1.00  0.00     0.031 C 
ATOM     45  C   UNL     1      -0.372  -8.720  -4.625  1.00  0.00     0.029 A 
ATOM     46  N   UNL     1       1.217 -10.292  -4.520  1.00  0.00    -0.354 N 
ATOM     47  C   UNL     1       3.397 -11.015  -0.868  1.00  0.00     0.074 A 
ATOM     48  C   UNL     1       2.937 -10.142   0.191  1.00  0.00     0.031 C 
ATOM     49  C   UNL     1      -0.293  -9.300  -5.835  1.00  0.00     0.029 A 
ATOM     50  C   UNL     1       0.768 -10.306  -5.817  1.00  0.00     0.049 A 
ATOM     51  H   UNL     1       1.906 -10.908  -4.181  1.00  0.00     0.167 HD
ATOM     52  C   UNL     1       4.357 -11.959  -0.717  1.00  0.00     0.037 A 
ATOM     53  C   UNL     1       1.186 -11.030  -6.873  1.00  0.00     0.037 A 
ATOM     54  C   UNL     1       4.814 -12.830  -1.767  1.00  0.00     0.049 A 
ATOM     55  C   UNL     1       2.297 -12.031  -6.698  1.00  0.00     0.074 A 
ATOM     56  C   UNL     1       5.771 -13.829  -1.708  1.00  0.00     0.029 A 
ATOM     57  N   UNL     1       4.347 -12.801  -3.072  1.00  0.00    -0.354 N 
ATOM     58  N   UNL     1       2.969 -12.341  -5.616  1.00  0.00    -0.248 NA
ATOM     59  C   UNL     1       2.706 -12.784  -7.893  1.00  0.00     0.031 C 
ATOM     60  C   UNL     1       5.911 -14.377  -2.987  1.00  0.00     0.029 A 
ATOM     61  C   UNL     1       5.011 -13.750  -3.834  1.00  0.00     0.049 A 
ATOM     62  H   UNL     1       3.647 -12.196  -3.409  1.00  0.00     0.167 HD
ATOM     63  C   UNL     1       3.859 -13.339  -5.991  1.00  0.00     0.074 A 
ATOM     64  C   UNL     1       3.639 -13.588  -7.400  1.00  0.00     0.031 C 
ATOM     65  C   UNL     1       4.775 -13.992  -5.234  1.00  0.00     0.037 A 
BRANCH  52  66
ATOM     66  C   UNL     1       4.999 -12.077   0.633  1.00  0.00     0.064 A 
ATOM     67  C   UNL     1       4.320 -12.638   1.725  1.00  0.00     0.173 A 
ATOM     68  C   UNL     1       6.317 -11.641   0.832  1.00  0.00     0.173 A 
ATOM     69  F   UNL     1       3.053 -13.057   1.588  1.00  0.00    -0.203 F 
ATOM     70  C   UNL     1       4.929 -12.734   2.974  1.00  0.00     0.198 A 
ATOM     71  C   UNL     1       6.931 -11.761   2.076  1.00  0.00     0.198 A 
ATOM     72  F   UNL     1       7.011 -11.101  -0.181  1.00  0.00    -0.203 F 
ATOM     73  F   UNL     1       4.246 -13.231   4.014  1.00  0.00    -0.200 F 
ATOM     74  C   UNL     1       6.235 -12.300   3.147  1.00  0.00     0.200 A 
ATOM     75  F   UNL     1       8.196 -11.349   2.240  1.00  0.00    -0.200 F 
ATOM     76  F   UNL     1       6.819 -12.393   4.349  1.00  0.00    -0.200 F 
ENDBRANCH  52  66
BRANCH  53  77
ATOM     77  C   UNL     1       0.554 -10.822  -8.200  1.00  0.00     0.064 A 
ATOM     78  C   UNL     1      -0.289 -11.791  -8.759  1.00  0.00     0.173 A 
ATOM     79  C   UNL     1       0.777  -9.646  -8.932  1.00  0.00     0.173 A 
ATOM     80  F   UNL     1      -0.511 -12.941  -8.106  1.00  0.00    -0.203 F 
ATOM     81  C   UNL     1      -0.879 -11.596 -10.006  1.00  0.00     0.198 A 
ATOM     82  C   UNL     1       0.168  -9.443 -10.168  1.00  0.00     0.198 A 
ATOM     83  F   UNL     1       1.577  -8.690  -8.439  1.00  0.00    -0.203 F 
ATOM     84  F   UNL     1      -1.655 -12.552 -10.534  1.00  0.00    -0.200 F 
ATOM     85  C   UNL     1      -0.656 -10.419 -10.706  1.00  0.00     0.200 A 
ATOM     86  F   UNL     1       0.378  -8.300 -10.835  1.00  0.00    -0.200 F 
ATOM     87  F   UNL     1      -1.231 -10.229 -11.901  1.00  0.00    -0.200 F 
ENDBRANCH  53  77
BRANCH  65  88
ATOM     88  C   UNL     1       5.585 -15.064  -5.900  1.00  0.00     0.064 A 
ATOM     89  C   UNL     1       6.629 -14.755  -6.783  1.00  0.00     0.173 A 
ATOM     90  C   UNL     1       5.346 -16.416  -5.611  1.00  0.00     0.173 A 
ATOM     91  F   UNL     1       6.887 -13.477  -7.102  1.00  0.00    -0.203 F 
ATOM     92  C   UNL     1       7.395 -15.762  -7.365  1.00  0.00     0.198 A 
ATOM     93  C   UNL     1       6.129 -17.419  -6.176  1.00  0.00     0.198 A 
ATOM     94  F   UNL     1       4.362 -16.763  -4.768  1.00  0.00    -0.203 F 
ATOM     95  F   UNL     1       8.366 -15.446  -8.234  1.00  0.00    -0.200 F 
ATOM     96  C   UNL     1       7.149 -17.091  -7.056  1.00  0.00     0.200 A 
ATOM     97  F   UNL     1       5.896 -18.703  -5.868  1.00  0.00    -0.200 F 
ATOM     98  F   UNL     1       7.892 -18.059  -7.612  1.00  0.00    -0.200 F 
ENDBRANCH  65  88
ENDBRANCH  39  40
ENDBRANCH  32  34
ENDBRANCH  31  32
ENDBRANCH  30  31
ENDBRANCH  29  30
ENDBRANCH  28  29
ENDBRANCH   1  28
TORSDOF 18
