REMARK SMILES Cc1ccc(/C=C2/C[N@@H+](C)Cc3c2nc2ccccc2c3C(=O)OCCOCCOC(=O)c2ccc(-c3c4nc(c(-c5c(F)c(F)c(F)c(F)c5F)c5ccc([nH]5)c(-c5c(F)c(F)c(F)c(F)c5F)c5nc(c(-c6c(F)c(F)c(F)c(F)c6F)c6ccc3[nH]6)C=C5)C=C4)cc2)cc1
REMARK SMILES IDX 28 1 27 2 26 3 25 4 24 5 22 6 23 7 21 8 6 9 7 10 8 11 13 12
REMARK SMILES IDX 9 13 12 14 14 15 10 16 11 17 15 19 20 20 16 21 19 22 17 23
REMARK SMILES IDX 18 24 5 25 1 26 2 27 3 28 97 29 4 30 96 31 29 32 30 33 31 34
REMARK SMILES IDX 32 35 33 36 34 37 95 38 35 39 94 40 36 41 37 42 38 43 88 44
REMARK SMILES IDX 39 45 93 46 87 47 89 48 40 49 92 50 86 51 85 52 41 54 73 55
REMARK SMILES IDX 53 56 72 57 54 58 57 59 71 60 90 61 55 62 56 63 70 65 91 66
REMARK SMILES IDX 58 67 42 68 43 69 51 70 44 71 45 72 49 73 52 74 46 75 47 76
REMARK SMILES IDX 50 77 48 78 74 79 75 80 83 81 76 82 77 83 81 84 84 85 78 86
REMARK SMILES IDX 79 87 82 88 80 89 59 90 60 91 68 92 61 93 62 94 66 95 69 96
REMARK SMILES IDX 63 97 64 98 67 99 65 100
REMARK H PARENT 9 18 89 53 57 64
REMARK Flexibility Score: inf
ROOT
ATOM      1  C   UNL     1      -4.389  -6.447  -3.026  1.00  0.00     0.202 C 
ENDROOT
BRANCH   1   2
ATOM      2  O   UNL     1      -3.264  -7.240  -2.661  1.00  0.00    -0.374 OA
BRANCH   2   3
ATOM      3  C   UNL     1      -3.337  -8.063  -1.508  1.00  0.00     0.202 C 
BRANCH   3   4
ATOM      4  C   UNL     1      -3.889  -7.481  -0.200  1.00  0.00     0.261 C 
BRANCH   4   5
ATOM      5  O   UNL     1      -3.950  -6.065  -0.188  1.00  0.00    -0.460 OA
BRANCH   5   6
ATOM      6  C   UNL     1      -3.065  -5.477   0.631  1.00  0.00     0.339 C 
ATOM      7  O   UNL     1      -2.450  -5.954   1.561  1.00  0.00    -0.246 OA
BRANCH   6   8
ATOM      8  C   UNL     1      -2.661  -4.276  -0.076  1.00  0.00     0.080 A 
ATOM      9  C   UNL     1      -2.924   0.332  -0.090  1.00  0.00     0.020 C 
ATOM     10  C   UNL     1      -3.569  -0.762  -0.552  1.00  0.00     0.033 C 
ATOM     11  C   UNL     1      -5.066  -0.842  -0.554  1.00  0.00     0.301 C 
ATOM     12  C   UNL     1      -2.931  -2.072  -0.798  1.00  0.00     0.082 A 
ATOM     13  N   UNL     1      -5.415  -1.751   0.539  1.00  0.00    -0.330 N 
ATOM     14  C   UNL     1      -3.506  -3.171  -0.187  1.00  0.00     0.048 A 
ATOM     15  N   UNL     1      -1.726  -2.096  -1.423  1.00  0.00    -0.247 NA
ATOM     16  C   UNL     1      -6.822  -1.680   0.879  1.00  0.00     0.333 C 
ATOM     17  C   UNL     1      -4.947  -3.121   0.269  1.00  0.00     0.302 C 
ATOM     18  H   UNL     1      -4.917  -1.438   1.373  1.00  0.00     0.348 HD
ATOM     19  C   UNL     1      -0.946  -3.188  -1.316  1.00  0.00     0.072 A 
ATOM     20  C   UNL     1      -1.356  -4.324  -0.623  1.00  0.00     0.015 A 
ATOM     21  C   UNL     1       0.338  -3.185  -1.854  1.00  0.00     0.029 A 
ATOM     22  C   UNL     1      -0.472  -5.438  -0.513  1.00  0.00     0.011 A 
ATOM     23  C   UNL     1       1.215  -4.270  -1.717  1.00  0.00     0.002 A 
ATOM     24  C   UNL     1       0.807  -5.407  -1.044  1.00  0.00     0.001 A 
BRANCH   9  25
ATOM     25  C   UNL     1      -1.484   0.431   0.189  1.00  0.00    -0.025 A 
ATOM     26  C   UNL     1       2.804   0.366   0.181  1.00  0.00     0.044 C 
ATOM     27  C   UNL     1       1.316   0.465   0.319  1.00  0.00    -0.051 A 
ATOM     28  C   UNL     1       0.599  -0.559   0.942  1.00  0.00     0.004 A 
ATOM     29  C   UNL     1       0.619   1.524  -0.276  1.00  0.00     0.004 A 
ATOM     30  C   UNL     1      -0.795  -0.549   0.917  1.00  0.00     0.008 A 
ATOM     31  C   UNL     1      -0.775   1.508  -0.338  1.00  0.00     0.008 A 
ENDBRANCH   9  25
ENDBRANCH   6   8
ENDBRANCH   5   6
ENDBRANCH   4   5
ENDBRANCH   3   4
ENDBRANCH   2   3
ENDBRANCH   1   2
BRANCH   1  32
ATOM     32  C   UNL     1      -5.750  -7.147  -3.213  1.00  0.00     0.261 C 
BRANCH  32  33
ATOM     33  O   UNL     1      -6.194  -7.796  -2.010  1.00  0.00    -0.460 OA
BRANCH  33  34
ATOM     34  C   UNL     1      -7.100  -8.811  -2.135  1.00  0.00     0.338 C 
ATOM     35  O   UNL     1      -7.756  -9.107  -3.109  1.00  0.00    -0.246 OA
BRANCH  34  36
ATOM     36  C   UNL     1      -7.008  -9.566  -0.860  1.00  0.00     0.060 A 
ATOM     37  C   UNL     1      -7.779  -9.178   0.232  1.00  0.00     0.016 A 
ATOM     38  C   UNL     1      -5.843 -10.305  -0.664  1.00  0.00     0.016 A 
ATOM     39  C   UNL     1      -7.234  -9.290   1.515  1.00  0.00     0.010 A 
ATOM     40  C   UNL     1      -5.256 -10.299   0.601  1.00  0.00     0.010 A 
ATOM     41  C   UNL     1      -5.891  -9.650   1.673  1.00  0.00    -0.014 A 
BRANCH  41  42
ATOM     42  C   UNL     1      -5.056  -8.999   2.726  1.00  0.00     0.031 A 
ATOM     43  C   UNL     1      -3.969  -9.711   3.473  1.00  0.00     0.074 A 
ATOM     44  C   UNL     1      -5.141  -7.644   2.889  1.00  0.00     0.049 A 
ATOM     45  N   UNL     1      -3.381  -9.222   4.517  1.00  0.00    -0.248 NA
ATOM     46  C   UNL     1      -3.473 -11.049   3.161  1.00  0.00     0.031 C 
ATOM     47  C   UNL     1      -4.177  -6.765   3.557  1.00  0.00     0.029 A 
ATOM     48  N   UNL     1      -6.153  -6.741   2.472  1.00  0.00    -0.354 N 
ATOM     49  C   UNL     1      -2.285  -9.994   4.824  1.00  0.00     0.074 A 
ATOM     50  C   UNL     1      -2.454 -11.177   4.022  1.00  0.00     0.031 C 
ATOM     51  C   UNL     1      -4.695  -5.537   3.701  1.00  0.00     0.029 A 
ATOM     52  C   UNL     1      -6.089  -5.620   3.334  1.00  0.00     0.049 A 
ATOM     53  H   UNL     1      -6.780  -6.870   1.725  1.00  0.00     0.167 HD
ATOM     54  C   UNL     1      -1.331  -9.498   5.668  1.00  0.00     0.037 A 
ATOM     55  C   UNL     1      -7.114  -5.295   4.177  1.00  0.00     0.037 A 
ATOM     56  C   UNL     1      -1.790  -8.258   6.305  1.00  0.00     0.049 A 
ATOM     57  C   UNL     1      -6.732  -5.414   5.633  1.00  0.00     0.074 A 
ATOM     58  C   UNL     1      -1.418  -6.930   6.212  1.00  0.00     0.029 A 
ATOM     59  N   UNL     1      -2.972  -8.281   7.048  1.00  0.00    -0.354 N 
ATOM     60  N   UNL     1      -5.647  -6.017   6.037  1.00  0.00    -0.248 NA
ATOM     61  C   UNL     1      -7.523  -4.900   6.745  1.00  0.00     0.031 C 
ATOM     62  C   UNL     1      -2.445  -6.149   6.819  1.00  0.00     0.029 A 
ATOM     63  C   UNL     1      -3.414  -7.002   7.327  1.00  0.00     0.049 A 
ATOM     64  H   UNL     1      -3.431  -9.102   7.337  1.00  0.00     0.167 HD
ATOM     65  C   UNL     1      -5.617  -6.062   7.396  1.00  0.00     0.074 A 
ATOM     66  C   UNL     1      -6.798  -5.321   7.798  1.00  0.00     0.031 C 
ATOM     67  C   UNL     1      -4.658  -6.771   8.060  1.00  0.00     0.037 A 
BRANCH  54  68
ATOM     68  C   UNL     1       0.074 -10.055   5.878  1.00  0.00     0.064 A 
ATOM     69  C   UNL     1       0.921  -9.515   6.876  1.00  0.00     0.173 A 
ATOM     70  C   UNL     1       0.685 -11.051   5.085  1.00  0.00     0.173 A 
ATOM     71  F   UNL     1       0.498  -8.539   7.692  1.00  0.00    -0.203 F 
ATOM     72  C   UNL     1       2.243  -9.947   7.069  1.00  0.00     0.198 A 
ATOM     73  C   UNL     1       1.985 -11.522   5.316  1.00  0.00     0.198 A 
ATOM     74  F   UNL     1       0.083 -11.575   4.013  1.00  0.00    -0.203 F 
ATOM     75  F   UNL     1       3.007  -9.364   8.004  1.00  0.00    -0.200 F 
ATOM     76  C   UNL     1       2.768 -10.965   6.301  1.00  0.00     0.200 A 
ATOM     77  F   UNL     1       2.477 -12.508   4.551  1.00  0.00    -0.200 F 
ATOM     78  F   UNL     1       4.024 -11.392   6.494  1.00  0.00    -0.200 F 
ENDBRANCH  54  68
BRANCH  55  79
ATOM     79  C   UNL     1      -8.456  -5.513   3.573  1.00  0.00     0.064 A 
ATOM     80  C   UNL     1      -8.822  -4.632   2.543  1.00  0.00     0.173 A 
ATOM     81  C   UNL     1      -9.079  -6.761   3.591  1.00  0.00     0.173 A 
ATOM     82  F   UNL     1      -8.373  -3.376   2.566  1.00  0.00    -0.203 F 
ATOM     83  C   UNL     1      -9.556  -5.056   1.441  1.00  0.00     0.198 A 
ATOM     84  C   UNL     1      -9.877  -7.169   2.515  1.00  0.00     0.198 A 
ATOM     85  F   UNL     1      -8.791  -7.647   4.555  1.00  0.00    -0.203 F 
ATOM     86  F   UNL     1      -9.695  -4.251   0.378  1.00  0.00    -0.200 F 
ATOM     87  C   UNL     1     -10.051  -6.344   1.411  1.00  0.00     0.200 A 
ATOM     88  F   UNL     1     -10.355  -8.421   2.478  1.00  0.00    -0.200 F 
ATOM     89  F   UNL     1     -10.642  -6.812   0.302  1.00  0.00    -0.200 F 
ENDBRANCH  55  79
BRANCH  67  90
ATOM     90  C   UNL     1      -4.819  -7.269   9.474  1.00  0.00     0.064 A 
ATOM     91  C   UNL     1      -6.072  -7.520  10.066  1.00  0.00     0.173 A 
ATOM     92  C   UNL     1      -3.698  -7.677  10.231  1.00  0.00     0.173 A 
ATOM     93  F   UNL     1      -7.217  -7.316   9.400  1.00  0.00    -0.203 F 
ATOM     94  C   UNL     1      -6.194  -8.058  11.348  1.00  0.00     0.198 A 
ATOM     95  C   UNL     1      -3.826  -8.274  11.486  1.00  0.00     0.198 A 
ATOM     96  F   UNL     1      -2.450  -7.543   9.759  1.00  0.00    -0.203 F 
ATOM     97  F   UNL     1      -7.412  -8.229  11.880  1.00  0.00    -0.200 F 
ATOM     98  C   UNL     1      -5.073  -8.445  12.053  1.00  0.00     0.200 A 
ATOM     99  F   UNL     1      -2.734  -8.708  12.130  1.00  0.00    -0.200 F 
ATOM    100  F   UNL     1      -5.196  -9.006  13.263  1.00  0.00    -0.200 F 
ENDBRANCH  67  90
ENDBRANCH  41  42
ENDBRANCH  34  36
ENDBRANCH  33  34
ENDBRANCH  32  33
ENDBRANCH   1  32
TORSDOF 15
