REMARK SMILES O=C(C[N@@H+]1C[C@@]2([N+](=O)[O-])CC=C(Cl)[C@@]([N+](=O)[O-])(C1)C2)OCCOCCOC(=O)c1ccc(-c2c3nc(c(-c4c(F)c(F)c(F)c(F)c4F)c4ccc([nH]4)c(-c4c(F)c(F)c(F)c(F)c4F)c4nc(c(-c5c(F)c(F)c(F)c(F)c5F)c5ccc2[nH]5)C=C4)C=C3)cc1
REMARK SMILES IDX 23 1 22 2 21 3 20 4 2 5 1 6 3 7 4 8 5 9 18 10 6 12 14 13
REMARK SMILES IDX 10 14 19 15 12 16 11 17 13 18 7 19 8 20 9 21 15 22 16 23
REMARK SMILES IDX 17 24 24 25 25 26 26 27 27 28 28 29 29 30 30 31 91 32 31 33
REMARK SMILES IDX 90 34 32 35 33 36 34 37 84 38 35 39 89 40 83 41 85 42 36 43
REMARK SMILES IDX 88 44 82 45 81 46 37 48 69 49 49 50 68 51 50 52 53 53 67 54
REMARK SMILES IDX 86 55 51 56 52 57 66 59 87 60 54 61 38 62 39 63 47 64 40 65
REMARK SMILES IDX 41 66 45 67 48 68 42 69 43 70 46 71 44 72 70 73 71 74 79 75
REMARK SMILES IDX 72 76 73 77 77 78 80 79 74 80 75 81 78 82 76 83 55 84 56 85
REMARK SMILES IDX 64 86 57 87 58 88 62 89 65 90 59 91 60 92 63 93 61 94
REMARK H PARENT 4 11 85 47 53 58
REMARK Flexibility Score: inf
ROOT
ATOM      1  O   UNL     1       4.042  -1.779   0.537  1.00  0.00    -0.374 OA
ENDROOT
BRANCH   1   2
ATOM      2  C   UNL     1       4.532  -0.516   0.970  1.00  0.00     0.202 C 
BRANCH   2   3
ATOM      3  C   UNL     1       3.910   0.743   0.377  1.00  0.00     0.261 C 
BRANCH   3   4
ATOM      4  O   UNL     1       2.479   0.742   0.278  1.00  0.00    -0.459 OA
BRANCH   4   5
ATOM      5  C   UNL     1       1.776   0.253  -0.776  1.00  0.00     0.361 C 
ATOM      6  O   UNL     1       0.552   0.375  -0.798  1.00  0.00    -0.245 OA
BRANCH   5   7
ATOM      7  C   UNL     1       2.507  -0.496  -1.893  1.00  0.00     0.386 C 
BRANCH   7   8
ATOM      8  N   UNL     1       3.529   0.346  -2.522  1.00  0.00    -0.313 N 
ATOM      9  C   UNL     1       2.951   1.362  -3.405  1.00  0.00     0.350 C 
ATOM     10  C   UNL     1       4.639  -0.418  -3.131  1.00  0.00     0.356 C 
ATOM     11  H   UNL     1       3.973   0.862  -1.762  1.00  0.00     0.349 HD
ATOM     12  C   UNL     1       4.034   2.329  -3.920  1.00  0.00     0.280 C 
ATOM     13  C   UNL     1       5.747   0.533  -3.670  1.00  0.00     0.311 C 
ATOM     14  C   UNL     1       4.711   3.166  -2.796  1.00  0.00     0.121 C 
ATOM     15  C   UNL     1       5.103   1.519  -4.677  1.00  0.00     0.191 C 
ATOM     16  C   UNL     1       6.397   1.322  -2.539  1.00  0.00     0.097 C 
ATOM     17  C   UNL     1       5.923   2.522  -2.159  1.00  0.00     0.004 C 
ATOM     18  Cl  UNL     1       7.703   0.623  -1.647  1.00  0.00    -0.081 Cl
BRANCH  12  19
ATOM     19  N   UNL     1       3.303   3.269  -4.863  1.00  0.00     0.032 N 
ATOM     20  O   UNL     1       2.834   4.308  -4.383  1.00  0.00    -0.264 OA
ATOM     21  O   UNL     1       3.162   2.901  -6.035  1.00  0.00    -0.264 OA
ENDBRANCH  12  19
BRANCH  13  22
ATOM     22  N   UNL     1       6.805  -0.276  -4.412  1.00  0.00     0.038 N 
ATOM     23  O   UNL     1       6.805  -1.506  -4.268  1.00  0.00    -0.263 OA
ATOM     24  O   UNL     1       7.598   0.350  -5.130  1.00  0.00    -0.263 OA
ENDBRANCH  13  22
ENDBRANCH   7   8
ENDBRANCH   5   7
ENDBRANCH   4   5
ENDBRANCH   3   4
ENDBRANCH   2   3
ENDBRANCH   1   2
BRANCH   1  25
ATOM     25  C   UNL     1       2.804  -2.228   1.098  1.00  0.00     0.202 C 
BRANCH  25  26
ATOM     26  C   UNL     1       2.849  -2.839   2.500  1.00  0.00     0.261 C 
BRANCH  26  27
ATOM     27  O   UNL     1       3.229  -1.870   3.486  1.00  0.00    -0.460 OA
BRANCH  27  28
ATOM     28  C   UNL     1       4.524  -1.940   3.862  1.00  0.00     0.338 C 
ATOM     29  O   UNL     1       5.348  -2.783   3.531  1.00  0.00    -0.246 OA
BRANCH  28  30
ATOM     30  C   UNL     1       4.896  -0.714   4.589  1.00  0.00     0.060 A 
ATOM     31  C   UNL     1       6.147  -0.152   4.299  1.00  0.00     0.016 A 
ATOM     32  C   UNL     1       4.070  -0.159   5.570  1.00  0.00     0.016 A 
ATOM     33  C   UNL     1       6.634   0.887   5.078  1.00  0.00     0.010 A 
ATOM     34  C   UNL     1       4.560   0.885   6.354  1.00  0.00     0.010 A 
ATOM     35  C   UNL     1       5.872   1.350   6.157  1.00  0.00    -0.014 A 
BRANCH  35  36
ATOM     36  C   UNL     1       6.559   2.105   7.226  1.00  0.00     0.031 A 
ATOM     37  C   UNL     1       6.994   1.350   8.454  1.00  0.00     0.074 A 
ATOM     38  C   UNL     1       6.852   3.405   7.071  1.00  0.00     0.049 A 
ATOM     39  N   UNL     1       7.625   1.778   9.516  1.00  0.00    -0.248 NA
ATOM     40  C   UNL     1       6.668  -0.086   8.491  1.00  0.00     0.031 C 
ATOM     41  C   UNL     1       6.517   4.212   5.900  1.00  0.00     0.029 A 
ATOM     42  N   UNL     1       7.506   4.271   7.906  1.00  0.00    -0.354 N 
ATOM     43  C   UNL     1       7.755   0.672  10.347  1.00  0.00     0.074 A 
ATOM     44  C   UNL     1       7.106  -0.438   9.689  1.00  0.00     0.031 C 
ATOM     45  C   UNL     1       6.973   5.462   6.090  1.00  0.00     0.029 A 
ATOM     46  C   UNL     1       7.602   5.545   7.406  1.00  0.00     0.049 A 
ATOM     47  H   UNL     1       7.873   4.005   8.780  1.00  0.00     0.167 HD
ATOM     48  C   UNL     1       8.373   0.589  11.549  1.00  0.00     0.037 A 
ATOM     49  C   UNL     1       8.130   6.649   7.964  1.00  0.00     0.037 A 
ATOM     50  C   UNL     1       9.026   1.701  12.186  1.00  0.00     0.049 A 
ATOM     51  C   UNL     1       8.765   6.542   9.327  1.00  0.00     0.074 A 
ATOM     52  C   UNL     1       9.703   1.731  13.391  1.00  0.00     0.029 A 
ATOM     53  N   UNL     1       9.075   2.987  11.665  1.00  0.00    -0.354 N 
ATOM     54  N   UNL     1       8.909   5.490  10.097  1.00  0.00    -0.248 NA
ATOM     55  C   UNL     1       9.324   7.777   9.891  1.00  0.00     0.031 C 
ATOM     56  C   UNL     1      10.107   3.049  13.629  1.00  0.00     0.029 A 
ATOM     57  C   UNL     1       9.747   3.825  12.538  1.00  0.00     0.049 A 
ATOM     58  H   UNL     1       8.688   3.262  10.802  1.00  0.00     0.167 HD
ATOM     59  C   UNL     1       9.609   5.925  11.215  1.00  0.00     0.074 A 
ATOM     60  C   UNL     1       9.870   7.336  11.014  1.00  0.00     0.031 C 
ATOM     61  C   UNL     1      10.005   5.225  12.308  1.00  0.00     0.037 A 
BRANCH  48  62
ATOM     62  C   UNL     1       8.336  -0.733  12.262  1.00  0.00     0.064 A 
ATOM     63  C   UNL     1       9.033  -1.856  11.791  1.00  0.00     0.173 A 
ATOM     64  C   UNL     1       7.601  -0.872  13.450  1.00  0.00     0.173 A 
ATOM     65  F   UNL     1       9.736  -1.786  10.650  1.00  0.00    -0.203 F 
ATOM     66  C   UNL     1       8.971  -3.074  12.464  1.00  0.00     0.198 A 
ATOM     67  C   UNL     1       7.569  -2.081  14.139  1.00  0.00     0.198 A 
ATOM     68  F   UNL     1       6.914   0.168  13.946  1.00  0.00    -0.203 F 
ATOM     69  F   UNL     1       9.598  -4.148  11.964  1.00  0.00    -0.200 F 
ATOM     70  C   UNL     1       8.246  -3.184  13.642  1.00  0.00     0.200 A 
ATOM     71  F   UNL     1       6.879  -2.180  15.283  1.00  0.00    -0.200 F 
ATOM     72  F   UNL     1       8.193  -4.354  14.292  1.00  0.00    -0.200 F 
ENDBRANCH  48  62
BRANCH  49  73
ATOM     73  C   UNL     1       8.094   7.943   7.234  1.00  0.00     0.064 A 
ATOM     74  C   UNL     1       9.272   8.551   6.778  1.00  0.00     0.173 A 
ATOM     75  C   UNL     1       6.882   8.606   6.988  1.00  0.00     0.173 A 
ATOM     76  F   UNL     1      10.457   7.966   7.004  1.00  0.00    -0.203 F 
ATOM     77  C   UNL     1       9.242   9.783   6.128  1.00  0.00     0.198 A 
ATOM     78  C   UNL     1       6.851   9.822   6.309  1.00  0.00     0.198 A 
ATOM     79  F   UNL     1       5.725   8.066   7.398  1.00  0.00    -0.203 F 
ATOM     80  F   UNL     1      10.388  10.365   5.750  1.00  0.00    -0.200 F 
ATOM     81  C   UNL     1       8.031  10.415   5.889  1.00  0.00     0.200 A 
ATOM     82  F   UNL     1       5.677  10.420   6.065  1.00  0.00    -0.200 F 
ATOM     83  F   UNL     1       8.003  11.598   5.261  1.00  0.00    -0.200 F 
ENDBRANCH  49  73
BRANCH  61  84
ATOM     84  C   UNL     1      10.815   5.961  13.338  1.00  0.00     0.064 A 
ATOM     85  C   UNL     1      10.260   6.967  14.142  1.00  0.00     0.173 A 
ATOM     86  C   UNL     1      12.167   5.636  13.534  1.00  0.00     0.173 A 
ATOM     87  F   UNL     1       8.976   7.324  13.988  1.00  0.00    -0.203 F 
ATOM     88  C   UNL     1      11.040   7.651  15.071  1.00  0.00     0.198 A 
ATOM     89  C   UNL     1      12.932   6.293  14.492  1.00  0.00     0.198 A 
ATOM     90  F   UNL     1      12.745   4.672  12.800  1.00  0.00    -0.203 F 
ATOM     91  F   UNL     1      10.506   8.656  15.779  1.00  0.00    -0.200 F 
ATOM     92  C   UNL     1      12.372   7.309  15.250  1.00  0.00     0.200 A 
ATOM     93  F   UNL     1      14.213   5.947  14.676  1.00  0.00    -0.200 F 
ATOM     94  F   UNL     1      13.120   7.968  16.146  1.00  0.00    -0.200 F 
ENDBRANCH  61  84
ENDBRANCH  35  36
ENDBRANCH  28  30
ENDBRANCH  27  28
ENDBRANCH  26  27
ENDBRANCH  25  26
ENDBRANCH   1  25
TORSDOF 17
