REMARK SMILES C[C@](NC(=O)c1ccc(Br)o1)(C(=O)OCCOCCOC(=O)c1ccc(-c2c3nc(c(-c4c(F)c(F)c(F)c(F)c4F)c4ccc([nH]4)c(-c4c(F)c(F)c(F)c(F)c4F)c4nc(c(-c5c(F)c(F)c(F)c(F)c5F)c5ccc2[nH]5)C=C4)C=C3)cc1)C(F)(F)F
REMARK SMILES IDX 17 1 16 2 15 3 14 4 12 5 13 6 2 7 1 8 86 9 87 10 88 11 89 12
REMARK SMILES IDX 3 13 4 14 5 16 6 17 7 18 11 19 8 20 9 21 10 22 18 23 19 24
REMARK SMILES IDX 20 25 21 26 22 27 23 28 24 29 85 30 25 31 84 32 26 33 27 34
REMARK SMILES IDX 28 35 78 36 29 37 83 38 77 39 79 40 30 41 82 42 76 43 75 44
REMARK SMILES IDX 31 46 63 47 43 48 62 49 44 50 47 51 61 52 80 53 45 54 46 55
REMARK SMILES IDX 60 57 81 58 48 59 32 60 33 61 41 62 34 63 35 64 39 65 42 66
REMARK SMILES IDX 36 67 37 68 40 69 38 70 64 71 65 72 73 73 66 74 67 75 71 76
REMARK SMILES IDX 74 77 68 78 69 79 72 80 70 81 49 82 50 83 58 84 51 85 52 86
REMARK SMILES IDX 56 87 59 88 53 89 54 90 57 91 55 92
REMARK H PARENT 3 15 79 45 47 56
REMARK Flexibility Score: inf
ROOT
ATOM      1  O   UNL     1      -3.261   1.921  -0.395  1.00  0.00    -0.374 OA
ENDROOT
BRANCH   1   2
ATOM      2  C   UNL     1      -3.764   0.610  -0.634  1.00  0.00     0.202 C 
BRANCH   2   3
ATOM      3  C   UNL     1      -3.098  -0.175  -1.763  1.00  0.00     0.261 C 
BRANCH   3   4
ATOM      4  O   UNL     1      -1.686  -0.327  -1.551  1.00  0.00    -0.461 OA
BRANCH   4   5
ATOM      5  C   UNL     1      -0.880   0.339  -2.433  1.00  0.00     0.341 C 
ATOM      6  O   UNL     1      -1.296   1.012  -3.366  1.00  0.00    -0.249 OA
BRANCH   5   7
ATOM      7  C   UNL     1       0.598   0.022  -2.192  1.00  0.00     0.231 C 
ATOM      8  C   UNL     1       1.001  -0.899  -3.347  1.00  0.00     0.058 C 
BRANCH   7   9
ATOM      9  C   UNL     1       1.313   1.378  -2.293  1.00  0.00     0.422 C 
ATOM     10  F   UNL     1       0.861   2.244  -1.353  1.00  0.00    -0.168 F 
ATOM     11  F   UNL     1       2.645   1.224  -2.066  1.00  0.00    -0.168 F 
ATOM     12  F   UNL     1       1.196   1.968  -3.498  1.00  0.00    -0.168 F 
ENDBRANCH   7   9
BRANCH   7  13
ATOM     13  N   UNL     1       0.785  -0.579  -0.825  1.00  0.00    -0.326 N 
ATOM     14  C   UNL     1       1.820  -1.271  -0.248  1.00  0.00     0.288 C 
ATOM     15  H   UNL     1       0.014  -0.450  -0.227  1.00  0.00     0.165 HD
ATOM     16  O   UNL     1       1.893  -1.265   0.974  1.00  0.00    -0.266 OA
BRANCH  14  17
ATOM     17  C   UNL     1       2.674  -2.063  -1.091  1.00  0.00     0.192 A 
ATOM     18  C   UNL     1       3.817  -1.792  -1.817  1.00  0.00     0.057 A 
ATOM     19  O   UNL     1       2.324  -3.374  -1.260  1.00  0.00    -0.444 OA
ATOM     20  C   UNL     1       4.148  -2.990  -2.505  1.00  0.00     0.059 A 
ATOM     21  C   UNL     1       3.221  -3.928  -2.112  1.00  0.00     0.170 A 
ATOM     22  Br  UNL     1       3.167  -5.703  -2.679  1.00  0.00    -0.008 Br
ENDBRANCH  14  17
ENDBRANCH   7  13
ENDBRANCH   5   7
ENDBRANCH   4   5
ENDBRANCH   3   4
ENDBRANCH   2   3
ENDBRANCH   1   2
BRANCH   1  23
ATOM     23  C   UNL     1      -2.033   2.052   0.323  1.00  0.00     0.202 C 
BRANCH  23  24
ATOM     24  C   UNL     1      -2.065   1.717   1.818  1.00  0.00     0.261 C 
BRANCH  24  25
ATOM     25  O   UNL     1      -2.254   0.307   2.047  1.00  0.00    -0.460 OA
BRANCH  25  26
ATOM     26  C   UNL     1      -3.384  -0.004   2.723  1.00  0.00     0.338 C 
ATOM     27  O   UNL     1      -4.200   0.775   3.200  1.00  0.00    -0.246 OA
BRANCH  26  28
ATOM     28  C   UNL     1      -3.643  -1.453   2.676  1.00  0.00     0.060 A 
ATOM     29  C   UNL     1      -4.902  -1.863   2.216  1.00  0.00     0.016 A 
ATOM     30  C   UNL     1      -2.740  -2.381   3.199  1.00  0.00     0.016 A 
ATOM     31  C   UNL     1      -5.297  -3.190   2.355  1.00  0.00     0.010 A 
ATOM     32  C   UNL     1      -3.143  -3.714   3.347  1.00  0.00     0.010 A 
ATOM     33  C   UNL     1      -4.442  -4.109   2.977  1.00  0.00    -0.014 A 
BRANCH  33  34
ATOM     34  C   UNL     1      -5.002  -5.406   3.428  1.00  0.00     0.031 A 
ATOM     35  C   UNL     1      -5.478  -5.530   4.851  1.00  0.00     0.074 A 
ATOM     36  C   UNL     1      -5.153  -6.432   2.574  1.00  0.00     0.049 A 
ATOM     37  N   UNL     1      -6.040  -6.544   5.457  1.00  0.00    -0.248 NA
ATOM     38  C   UNL     1      -5.297  -4.344   5.704  1.00  0.00     0.031 C 
ATOM     39  C   UNL     1      -4.776  -6.419   1.164  1.00  0.00     0.029 A 
ATOM     40  N   UNL     1      -5.677  -7.685   2.775  1.00  0.00    -0.354 N 
ATOM     41  C   UNL     1      -6.273  -6.122   6.760  1.00  0.00     0.074 A 
ATOM     42  C   UNL     1      -5.766  -4.772   6.866  1.00  0.00     0.031 C 
ATOM     43  C   UNL     1      -5.083  -7.610   0.621  1.00  0.00     0.029 A 
ATOM     44  C   UNL     1      -5.658  -8.473   1.652  1.00  0.00     0.049 A 
ATOM     45  H   UNL     1      -6.032  -7.988   3.641  1.00  0.00     0.167 HD
ATOM     46  C   UNL     1      -6.866  -6.796   7.775  1.00  0.00     0.037 A 
ATOM     47  C   UNL     1      -6.055  -9.749   1.482  1.00  0.00     0.037 A 
ATOM     48  C   UNL     1      -7.375  -8.137   7.669  1.00  0.00     0.049 A 
ATOM     49  C   UNL     1      -6.658 -10.498   2.642  1.00  0.00     0.074 A 
ATOM     50  C   UNL     1      -8.008  -8.901   8.634  1.00  0.00     0.029 A 
ATOM     51  N   UNL     1      -7.299  -8.918   6.525  1.00  0.00    -0.354 N 
ATOM     52  N   UNL     1      -6.901 -10.083   3.862  1.00  0.00    -0.248 NA
ATOM     53  C   UNL     1      -7.048 -11.894   2.396  1.00  0.00     0.031 C 
ATOM     54  C   UNL     1      -8.275 -10.161   8.087  1.00  0.00     0.029 A 
ATOM     55  C   UNL     1      -7.854 -10.165   6.767  1.00  0.00     0.049 A 
ATOM     56  H   UNL     1      -6.909  -8.630   5.669  1.00  0.00     0.167 HD
ATOM     57  C   UNL     1      -7.503 -11.150   4.517  1.00  0.00     0.074 A 
ATOM     58  C   UNL     1      -7.592 -12.231   3.557  1.00  0.00     0.031 C 
ATOM     59  C   UNL     1      -7.948 -11.225   5.796  1.00  0.00     0.037 A 
BRANCH  46  60
ATOM     60  C   UNL     1      -6.962  -6.095   9.099  1.00  0.00     0.064 A 
ATOM     61  C   UNL     1      -7.840  -5.020   9.305  1.00  0.00     0.173 A 
ATOM     62  C   UNL     1      -6.166  -6.508  10.178  1.00  0.00     0.173 A 
ATOM     63  F   UNL     1      -8.611  -4.577   8.300  1.00  0.00    -0.203 F 
ATOM     64  C   UNL     1      -7.893  -4.364  10.532  1.00  0.00     0.198 A 
ATOM     65  C   UNL     1      -6.242  -5.868  11.411  1.00  0.00     0.198 A 
ATOM     66  F   UNL     1      -5.312  -7.533  10.035  1.00  0.00    -0.203 F 
ATOM     67  F   UNL     1      -8.700  -3.305  10.690  1.00  0.00    -0.200 F 
ATOM     68  C   UNL     1      -7.098  -4.791  11.585  1.00  0.00     0.200 A 
ATOM     69  F   UNL     1      -5.480  -6.288  12.431  1.00  0.00    -0.200 F 
ATOM     70  F   UNL     1      -7.149  -4.157  12.765  1.00  0.00    -0.200 F 
ENDBRANCH  46  60
BRANCH  47  71
ATOM     71  C   UNL     1      -5.913 -10.395   0.153  1.00  0.00     0.064 A 
ATOM     72  C   UNL     1      -7.038 -10.694  -0.628  1.00  0.00     0.173 A 
ATOM     73  C   UNL     1      -4.652 -10.731  -0.361  1.00  0.00     0.173 A 
ATOM     74  F   UNL     1      -8.266 -10.414  -0.167  1.00  0.00    -0.203 F 
ATOM     75  C   UNL     1      -6.907 -11.314  -1.869  1.00  0.00     0.198 A 
ATOM     76  C   UNL     1      -4.521 -11.329  -1.612  1.00  0.00     0.198 A 
ATOM     77  F   UNL     1      -3.546 -10.469   0.350  1.00  0.00    -0.203 F 
ATOM     78  F   UNL     1      -8.001 -11.622  -2.579  1.00  0.00    -0.200 F 
ATOM     79  C   UNL     1      -5.649 -11.625  -2.363  1.00  0.00     0.200 A 
ATOM     80  F   UNL     1      -3.304 -11.619  -2.090  1.00  0.00    -0.200 F 
ATOM     81  F   UNL     1      -5.524 -12.216  -3.559  1.00  0.00    -0.200 F 
ENDBRANCH  47  71
BRANCH  59  82
ATOM     82  C   UNL     1      -8.617 -12.501   6.219  1.00  0.00     0.064 A 
ATOM     83  C   UNL     1      -7.891 -13.682   6.431  1.00  0.00     0.173 A 
ATOM     84  C   UNL     1     -10.001 -12.529   6.452  1.00  0.00     0.173 A 
ATOM     85  F   UNL     1      -6.568 -13.710   6.209  1.00  0.00    -0.203 F 
ATOM     86  C   UNL     1      -8.530 -14.851   6.835  1.00  0.00     0.198 A 
ATOM     87  C   UNL     1     -10.632 -13.693   6.883  1.00  0.00     0.198 A 
ATOM     88  F   UNL     1     -10.740 -11.425   6.272  1.00  0.00    -0.203 F 
ATOM     89  F   UNL     1      -7.824 -15.981   6.985  1.00  0.00    -0.200 F 
ATOM     90  C   UNL     1      -9.897 -14.855   7.066  1.00  0.00     0.200 A 
ATOM     91  F   UNL     1     -11.951 -13.690   7.119  1.00  0.00    -0.200 F 
ATOM     92  F   UNL     1     -10.509 -15.980   7.459  1.00  0.00    -0.200 F 
ENDBRANCH  59  82
ENDBRANCH  33  34
ENDBRANCH  26  28
ENDBRANCH  25  26
ENDBRANCH  24  25
ENDBRANCH  23  24
ENDBRANCH   1  23
TORSDOF 17
