REMARK SMILES COCC[N@H+](C)[C@H](C(=O)OCCOCCOC(=O)c1ccc(-c2c3nc(c(-c4c(F)c(F)c(F)c(F)c4F)c4ccc([nH]4)c(-c4c(F)c(F)c(F)c(F)c4F)c4nc(c(-c5c(F)c(F)c(F)c(F)c5F)c5ccc2[nH]5)C=C4)C=C3)cc1)c1ccc(OC)nc1
REMARK SMILES IDX 12 1 11 2 10 3 8 4 9 5 7 6 5 7 6 8 4 10 3 11 2 12 1 13 82 14
REMARK SMILES IDX 83 15 89 16 84 17 88 18 85 19 86 20 87 21 13 22 14 23 15 24
REMARK SMILES IDX 16 25 17 26 18 27 19 28 20 29 81 30 21 31 80 32 22 33 23 34
REMARK SMILES IDX 24 35 74 36 25 37 79 38 73 39 75 40 26 41 78 42 72 43 71 44
REMARK SMILES IDX 27 46 59 47 39 48 58 49 40 50 43 51 57 52 76 53 41 54 42 55
REMARK SMILES IDX 56 57 77 58 44 59 28 60 29 61 37 62 30 63 31 64 35 65 38 66
REMARK SMILES IDX 32 67 33 68 36 69 34 70 60 71 61 72 69 73 62 74 63 75 67 76
REMARK SMILES IDX 70 77 64 78 65 79 68 80 66 81 45 82 46 83 54 84 47 85 48 86
REMARK SMILES IDX 52 87 55 88 49 89 50 90 53 91 51 92
REMARK H PARENT 5 9 75 45 43 56
REMARK Flexibility Score: inf
ROOT
ATOM      1  C   UNL     1       2.077  -4.473   1.103  1.00  0.00     0.202 C 
ENDROOT
BRANCH   1   2
ATOM      2  C   UNL     1       2.154  -3.958  -0.338  1.00  0.00     0.261 C 
BRANCH   2   3
ATOM      3  O   UNL     1       1.866  -2.542  -0.382  1.00  0.00    -0.459 OA
BRANCH   3   4
ATOM      4  C   UNL     1       0.954  -2.152  -1.308  1.00  0.00     0.370 C 
ATOM      5  O   UNL     1       0.542  -2.903  -2.192  1.00  0.00    -0.245 OA
BRANCH   4   6
ATOM      6  C   UNL     1       0.423  -0.697  -1.150  1.00  0.00     0.327 C 
BRANCH   6   7
ATOM      7  N   UNL     1      -1.076  -0.747  -1.146  1.00  0.00    -0.320 N 
ATOM      8  C   UNL     1      -1.686  -1.469  -0.041  1.00  0.00     0.333 C 
ATOM      9  H   UNL     1      -1.191  -1.319  -1.982  1.00  0.00     0.348 HD
BRANCH   7  10
ATOM     10  C   UNL     1      -1.817   0.479  -1.460  1.00  0.00     0.291 C 
BRANCH  10  11
ATOM     11  C   UNL     1      -1.559   1.073  -2.858  1.00  0.00     0.221 C 
BRANCH  11  12
ATOM     12  O   UNL     1      -2.172   0.340  -3.920  1.00  0.00    -0.379 OA
ATOM     13  C   UNL     1      -1.565  -0.922  -4.167  1.00  0.00     0.195 C 
ENDBRANCH  11  12
ENDBRANCH  10  11
ENDBRANCH   7  10
ENDBRANCH   6   7
BRANCH   6  14
ATOM     14  C   UNL     1       1.035   0.284  -0.146  1.00  0.00     0.039 A 
ATOM     15  C   UNL     1       0.967   1.661  -0.419  1.00  0.00     0.018 A 
ATOM     16  C   UNL     1       1.625  -0.025   1.070  1.00  0.00     0.125 A 
ATOM     17  C   UNL     1       1.341   2.619   0.521  1.00  0.00     0.069 A 
ATOM     18  N   UNL     1       2.019   0.885   2.003  1.00  0.00    -0.222 NA
ATOM     19  C   UNL     1       1.833   2.192   1.737  1.00  0.00     0.212 A 
BRANCH  19  20
ATOM     20  O   UNL     1       2.184   3.021   2.766  1.00  0.00    -0.481 OA
ATOM     21  C   UNL     1       1.646   4.338   2.716  1.00  0.00     0.280 C 
ENDBRANCH  19  20
ENDBRANCH   6  14
ENDBRANCH   4   6
ENDBRANCH   3   4
ENDBRANCH   2   3
ENDBRANCH   1   2
BRANCH   1  22
ATOM     22  O   UNL     1       0.772  -4.571   1.679  1.00  0.00    -0.374 OA
BRANCH  22  23
ATOM     23  C   UNL     1       0.129  -3.354   2.044  1.00  0.00     0.202 C 
BRANCH  23  24
ATOM     24  C   UNL     1       0.479  -2.747   3.406  1.00  0.00     0.261 C 
BRANCH  24  25
ATOM     25  O   UNL     1       1.872  -2.428   3.497  1.00  0.00    -0.460 OA
BRANCH  25  26
ATOM     26  C   UNL     1       2.617  -3.332   4.168  1.00  0.00     0.338 C 
ATOM     27  O   UNL     1       2.220  -4.310   4.784  1.00  0.00    -0.246 OA
BRANCH  26  28
ATOM     28  C   UNL     1       4.041  -3.094   3.873  1.00  0.00     0.060 A 
ATOM     29  C   UNL     1       4.820  -4.209   3.531  1.00  0.00     0.016 A 
ATOM     30  C   UNL     1       4.607  -1.819   3.937  1.00  0.00     0.016 A 
ATOM     31  C   UNL     1       6.187  -4.067   3.322  1.00  0.00     0.010 A 
ATOM     32  C   UNL     1       5.982  -1.680   3.742  1.00  0.00     0.010 A 
ATOM     33  C   UNL     1       6.780  -2.810   3.481  1.00  0.00    -0.014 A 
BRANCH  33  34
ATOM     34  C   UNL     1       8.251  -2.702   3.591  1.00  0.00     0.031 A 
ATOM     35  C   UNL     1       8.852  -2.595   4.963  1.00  0.00     0.074 A 
ATOM     36  C   UNL     1       9.033  -2.694   2.500  1.00  0.00     0.049 A 
ATOM     37  N   UNL     1      10.090  -2.370   5.317  1.00  0.00    -0.248 NA
ATOM     38  C   UNL     1       7.919  -2.751   6.090  1.00  0.00     0.031 C 
ATOM     39  C   UNL     1       8.565  -2.843   1.126  1.00  0.00     0.029 A 
ATOM     40  N   UNL     1      10.390  -2.526   2.384  1.00  0.00    -0.354 N 
ATOM     41  C   UNL     1      10.080  -2.331   6.705  1.00  0.00     0.074 A 
ATOM     42  C   UNL     1       8.711  -2.530   7.127  1.00  0.00     0.031 C 
ATOM     43  C   UNL     1       9.616  -2.727   0.297  1.00  0.00     0.029 A 
ATOM     44  C   UNL     1      10.818  -2.452   1.084  1.00  0.00     0.049 A 
ATOM     45  H   UNL     1      10.995  -2.465   3.158  1.00  0.00     0.167 HD
ATOM     46  C   UNL     1      11.122  -2.144   7.549  1.00  0.00     0.037 A 
ATOM     47  C   UNL     1      12.034  -2.152   0.589  1.00  0.00     0.037 A 
ATOM     48  C   UNL     1      12.478  -1.941   7.113  1.00  0.00     0.049 A 
ATOM     49  C   UNL     1      13.171  -1.879   1.539  1.00  0.00     0.074 A 
ATOM     50  C   UNL     1      13.615  -1.771   7.880  1.00  0.00     0.029 A 
ATOM     51  N   UNL     1      12.874  -1.864   5.784  1.00  0.00    -0.354 N 
ATOM     52  N   UNL     1      13.167  -1.863   2.851  1.00  0.00    -0.248 NA
ATOM     53  C   UNL     1      14.480  -1.585   0.942  1.00  0.00     0.031 C 
ATOM     54  C   UNL     1      14.688  -1.521   7.018  1.00  0.00     0.029 A 
ATOM     55  C   UNL     1      14.235  -1.613   5.710  1.00  0.00     0.049 A 
ATOM     56  H   UNL     1      12.277  -1.971   5.009  1.00  0.00     0.167 HD
ATOM     57  C   UNL     1      14.473  -1.592   3.237  1.00  0.00     0.074 A 
ATOM     58  C   UNL     1      15.244  -1.450   2.018  1.00  0.00     0.031 C 
ATOM     59  C   UNL     1      14.989  -1.482   4.487  1.00  0.00     0.037 A 
BRANCH  46  60
ATOM     60  C   UNL     1      10.816  -2.092   9.019  1.00  0.00     0.064 A 
ATOM     61  C   UNL     1      10.365  -3.216   9.729  1.00  0.00     0.173 A 
ATOM     62  C   UNL     1      10.962  -0.889   9.727  1.00  0.00     0.173 A 
ATOM     63  F   UNL     1      10.194  -4.389   9.099  1.00  0.00    -0.203 F 
ATOM     64  C   UNL     1      10.027  -3.125  11.077  1.00  0.00     0.198 A 
ATOM     65  C   UNL     1      10.660  -0.811  11.083  1.00  0.00     0.198 A 
ATOM     66  F   UNL     1      11.395   0.216   9.101  1.00  0.00    -0.203 F 
ATOM     67  F   UNL     1       9.528  -4.194  11.714  1.00  0.00    -0.200 F 
ATOM     68  C   UNL     1      10.179  -1.925  11.754  1.00  0.00     0.200 A 
ATOM     69  F   UNL     1      10.823   0.346  11.739  1.00  0.00    -0.200 F 
ATOM     70  F   UNL     1       9.850  -1.838  13.050  1.00  0.00    -0.200 F 
ENDBRANCH  46  60
BRANCH  47  71
ATOM     71  C   UNL     1      12.220  -2.078  -0.883  1.00  0.00     0.064 A 
ATOM     72  C   UNL     1      12.962  -3.046  -1.570  1.00  0.00     0.173 A 
ATOM     73  C   UNL     1      11.623  -1.056  -1.637  1.00  0.00     0.173 A 
ATOM     74  F   UNL     1      13.570  -4.030  -0.891  1.00  0.00    -0.203 F 
ATOM     75  C   UNL     1      13.102  -2.995  -2.956  1.00  0.00     0.198 A 
ATOM     76  C   UNL     1      11.739  -1.021  -3.024  1.00  0.00     0.198 A 
ATOM     77  F   UNL     1      10.900  -0.105  -1.026  1.00  0.00    -0.203 F 
ATOM     78  F   UNL     1      13.840  -3.919  -3.587  1.00  0.00    -0.200 F 
ATOM     79  C   UNL     1      12.482  -1.990  -3.683  1.00  0.00     0.200 A 
ATOM     80  F   UNL     1      11.125  -0.057  -3.723  1.00  0.00    -0.200 F 
ATOM     81  F   UNL     1      12.600  -1.953  -5.017  1.00  0.00    -0.200 F 
ENDBRANCH  47  71
BRANCH  59  82
ATOM     82  C   UNL     1      16.467  -1.246   4.615  1.00  0.00     0.064 A 
ATOM     83  C   UNL     1      17.054  -0.013   4.297  1.00  0.00     0.173 A 
ATOM     84  C   UNL     1      17.296  -2.252   5.140  1.00  0.00     0.173 A 
ATOM     85  F   UNL     1      16.310   0.976   3.781  1.00  0.00    -0.203 F 
ATOM     86  C   UNL     1      18.418   0.199   4.486  1.00  0.00     0.198 A 
ATOM     87  C   UNL     1      18.651  -2.025   5.357  1.00  0.00     0.198 A 
ATOM     88  F   UNL     1      16.783  -3.447   5.468  1.00  0.00    -0.203 F 
ATOM     89  F   UNL     1      18.966   1.373   4.140  1.00  0.00    -0.200 F 
ATOM     90  C   UNL     1      19.212  -0.802   5.026  1.00  0.00     0.200 A 
ATOM     91  F   UNL     1      19.412  -2.988   5.897  1.00  0.00    -0.200 F 
ATOM     92  F   UNL     1      20.521  -0.588   5.224  1.00  0.00    -0.200 F 
ENDBRANCH  59  82
ENDBRANCH  33  34
ENDBRANCH  26  28
ENDBRANCH  25  26
ENDBRANCH  24  25
ENDBRANCH  23  24
ENDBRANCH  22  23
ENDBRANCH   1  22
TORSDOF 20
