REMARK SMILES CC/C(=C/C(=O)[C@H](Cc1ccc(Cl)cc1Cl)C(=O)OCCOCCOC(=O)c1ccc(-c2c3nc(c(-c4c(F)c(F)c(F)c(F)c4F)c4ccc([nH]4)c(-c4c(F)c(F)c(F)c(F)c4F)c4nc(c(-c5c(F)c(F)c(F)c(F)c5F)c5ccc2[nH]5)C=C4)C=C3)cc1)N(C)C
REMARK SMILES IDX 21 1 20 2 19 3 17 4 18 5 7 6 5 7 6 8 4 9 3 10 2 11 1 12
REMARK SMILES IDX 91 13 92 14 93 15 8 16 9 17 10 18 15 19 11 20 14 21 16 22
REMARK SMILES IDX 12 23 13 24 22 25 23 26 24 27 25 28 26 29 27 30 28 31 29 32
REMARK SMILES IDX 90 33 30 34 89 35 31 36 32 37 33 38 83 39 34 40 88 41 82 42
REMARK SMILES IDX 84 43 35 44 87 45 81 46 80 47 36 49 68 50 48 51 67 52 49 53
REMARK SMILES IDX 52 54 66 55 85 56 50 57 51 58 65 60 86 61 53 62 37 63 38 64
REMARK SMILES IDX 46 65 39 66 40 67 44 68 47 69 41 70 42 71 45 72 43 73 69 74
REMARK SMILES IDX 70 75 78 76 71 77 72 78 76 79 79 80 73 81 74 82 77 83 75 84
REMARK SMILES IDX 54 85 55 86 63 87 56 88 57 89 61 90 64 91 58 92 59 93 62 94
REMARK SMILES IDX 60 95
REMARK H PARENT 84 48 52 59
REMARK Flexibility Score: inf
ROOT
ATOM      1  C   UNL     1       2.834   3.408   0.063  1.00  0.00     0.202 C 
ENDROOT
BRANCH   1   2
ATOM      2  C   UNL     1       3.285   2.057   0.625  1.00  0.00     0.261 C 
BRANCH   2   3
ATOM      3  O   UNL     1       2.507   1.672   1.790  1.00  0.00    -0.463 OA
BRANCH   3   4
ATOM      4  C   UNL     1       3.155   1.949   2.949  1.00  0.00     0.317 C 
ATOM      5  O   UNL     1       4.309   2.362   2.928  1.00  0.00    -0.251 OA
BRANCH   4   6
ATOM      6  C   UNL     1       2.381   1.740   4.255  1.00  0.00     0.175 C 
BRANCH   6   7
ATOM      7  C   UNL     1       3.165   0.819   5.199  1.00  0.00     0.171 C 
ATOM      8  O   UNL     1       2.632  -0.145   5.760  1.00  0.00    -0.294 OA
BRANCH   7   9
ATOM      9  C   UNL     1       4.633   0.980   5.401  1.00  0.00     0.069 C 
ATOM     10  C   UNL     1       5.397   2.092   5.459  1.00  0.00     0.016 C 
BRANCH  10  11
ATOM     11  C   UNL     1       6.903   1.846   5.313  1.00  0.00     0.050 C 
ATOM     12  C   UNL     1       7.372   1.860   3.857  1.00  0.00     0.010 C 
ENDBRANCH  10  11
BRANCH  10  13
ATOM     13  N   UNL     1       4.979   3.428   5.583  1.00  0.00    -0.381 N 
ATOM     14  C   UNL     1       5.660   4.529   4.884  1.00  0.00     0.143 C 
ATOM     15  C   UNL     1       3.849   3.871   6.395  1.00  0.00     0.143 C 
ENDBRANCH  10  13
ENDBRANCH   7   9
ENDBRANCH   6   7
BRANCH   6  16
ATOM     16  C   UNL     1       0.887   1.288   4.255  1.00  0.00     0.060 C 
BRANCH  16  17
ATOM     17  C   UNL     1      -0.207   2.093   3.578  1.00  0.00    -0.028 A 
ATOM     18  C   UNL     1      -1.565   1.791   3.777  1.00  0.00     0.007 A 
ATOM     19  C   UNL     1       0.064   3.081   2.650  1.00  0.00     0.045 A 
ATOM     20  C   UNL     1      -2.549   2.318   2.925  1.00  0.00     0.021 A 
ATOM     21  C   UNL     1      -0.835   3.356   1.630  1.00  0.00     0.041 A 
ATOM     22  Cl  UNL     1       1.018   4.428   3.198  1.00  0.00    -0.084 Cl
ATOM     23  C   UNL     1      -2.160   3.007   1.786  1.00  0.00     0.042 A 
ATOM     24  Cl  UNL     1      -3.313   3.544   0.631  1.00  0.00    -0.084 Cl
ENDBRANCH  16  17
ENDBRANCH   6  16
ENDBRANCH   4   6
ENDBRANCH   3   4
ENDBRANCH   2   3
ENDBRANCH   1   2
BRANCH   1  25
ATOM     25  O   UNL     1       2.850   4.491   0.984  1.00  0.00    -0.374 OA
BRANCH  25  26
ATOM     26  C   UNL     1       2.508   5.772   0.423  1.00  0.00     0.202 C 
BRANCH  26  27
ATOM     27  C   UNL     1       1.037   6.008   0.004  1.00  0.00     0.261 C 
BRANCH  27  28
ATOM     28  O   UNL     1       0.482   5.011  -0.876  1.00  0.00    -0.460 OA
BRANCH  28  29
ATOM     29  C   UNL     1       1.046   4.844  -2.089  1.00  0.00     0.338 C 
ATOM     30  O   UNL     1       1.837   5.604  -2.623  1.00  0.00    -0.246 OA
BRANCH  29  31
ATOM     31  C   UNL     1       0.764   3.449  -2.550  1.00  0.00     0.060 A 
ATOM     32  C   UNL     1       1.745   2.800  -3.311  1.00  0.00     0.016 A 
ATOM     33  C   UNL     1      -0.375   2.736  -2.155  1.00  0.00     0.016 A 
ATOM     34  C   UNL     1       1.556   1.482  -3.746  1.00  0.00     0.010 A 
ATOM     35  C   UNL     1      -0.547   1.403  -2.556  1.00  0.00     0.010 A 
ATOM     36  C   UNL     1       0.385   0.788  -3.412  1.00  0.00    -0.014 A 
BRANCH  36  37
ATOM     37  C   UNL     1      -0.004  -0.445  -4.160  1.00  0.00     0.031 A 
ATOM     38  C   UNL     1      -1.103  -0.318  -5.191  1.00  0.00     0.074 A 
ATOM     39  C   UNL     1       0.586  -1.641  -3.966  1.00  0.00     0.049 A 
ATOM     40  N   UNL     1      -1.663  -1.236  -5.939  1.00  0.00    -0.248 NA
ATOM     41  C   UNL     1      -1.664   1.030  -5.383  1.00  0.00     0.031 C 
ATOM     42  C   UNL     1       1.657  -1.919  -3.013  1.00  0.00     0.029 A 
ATOM     43  N   UNL     1       0.347  -2.858  -4.564  1.00  0.00    -0.354 N 
ATOM     44  C   UNL     1      -2.644  -0.575  -6.670  1.00  0.00     0.074 A 
ATOM     45  C   UNL     1      -2.655   0.799  -6.227  1.00  0.00     0.031 C 
ATOM     46  C   UNL     1       1.983  -3.224  -3.089  1.00  0.00     0.029 A 
ATOM     47  C   UNL     1       1.130  -3.881  -4.081  1.00  0.00     0.049 A 
ATOM     48  H   UNL     1      -0.323  -2.985  -5.274  1.00  0.00     0.167 HD
ATOM     49  C   UNL     1      -3.443  -1.053  -7.652  1.00  0.00     0.037 A 
ATOM     50  C   UNL     1       1.149  -5.193  -4.400  1.00  0.00     0.037 A 
ATOM     51  C   UNL     1      -3.424  -2.410  -8.120  1.00  0.00     0.049 A 
ATOM     52  C   UNL     1       0.212  -5.718  -5.466  1.00  0.00     0.074 A 
ATOM     53  C   UNL     1      -4.176  -2.984  -9.129  1.00  0.00     0.029 A 
ATOM     54  N   UNL     1      -2.606  -3.405  -7.610  1.00  0.00    -0.354 N 
ATOM     55  N   UNL     1      -0.670  -5.071  -6.189  1.00  0.00    -0.248 NA
ATOM     56  C   UNL     1       0.282  -7.158  -5.769  1.00  0.00     0.031 C 
ATOM     57  C   UNL     1      -3.847  -4.340  -9.198  1.00  0.00     0.029 A 
ATOM     58  C   UNL     1      -2.844  -4.594  -8.276  1.00  0.00     0.049 A 
ATOM     59  H   UNL     1      -1.953  -3.284  -6.882  1.00  0.00     0.167 HD
ATOM     60  C   UNL     1      -1.213  -6.007  -7.063  1.00  0.00     0.074 A 
ATOM     61  C   UNL     1      -0.569  -7.270  -6.779  1.00  0.00     0.031 C 
ATOM     62  C   UNL     1      -2.157  -5.832  -8.020  1.00  0.00     0.037 A 
BRANCH  49  63
ATOM     63  C   UNL     1      -4.401  -0.092  -8.296  1.00  0.00     0.064 A 
ATOM     64  C   UNL     1      -3.949   0.962  -9.107  1.00  0.00     0.173 A 
ATOM     65  C   UNL     1      -5.786  -0.243  -8.129  1.00  0.00     0.173 A 
ATOM     66  F   UNL     1      -2.634   1.159  -9.287  1.00  0.00    -0.203 F 
ATOM     67  C   UNL     1      -4.846   1.847  -9.697  1.00  0.00     0.198 A 
ATOM     68  C   UNL     1      -6.681   0.623  -8.752  1.00  0.00     0.198 A 
ATOM     69  F   UNL     1      -6.272  -1.236  -7.370  1.00  0.00    -0.203 F 
ATOM     70  F   UNL     1      -4.387   2.880 -10.418  1.00  0.00    -0.200 F 
ATOM     71  C   UNL     1      -6.210   1.672  -9.527  1.00  0.00     0.200 A 
ATOM     72  F   UNL     1      -8.000   0.443  -8.600  1.00  0.00    -0.200 F 
ATOM     73  F   UNL     1      -7.073   2.519 -10.105  1.00  0.00    -0.200 F 
ENDBRANCH  49  63
BRANCH  50  74
ATOM     74  C   UNL     1       2.100  -6.123  -3.727  1.00  0.00     0.064 A 
ATOM     75  C   UNL     1       3.141  -6.734  -4.442  1.00  0.00     0.173 A 
ATOM     76  C   UNL     1       1.957  -6.465  -2.374  1.00  0.00     0.173 A 
ATOM     77  F   UNL     1       3.304  -6.464  -5.746  1.00  0.00    -0.203 F 
ATOM     78  C   UNL     1       3.980  -7.671  -3.841  1.00  0.00     0.198 A 
ATOM     79  C   UNL     1       2.816  -7.380  -1.766  1.00  0.00     0.198 A 
ATOM     80  F   UNL     1       0.976  -5.917  -1.643  1.00  0.00    -0.203 F 
ATOM     81  F   UNL     1       4.925  -8.285  -4.567  1.00  0.00    -0.200 F 
ATOM     82  C   UNL     1       3.820  -7.991  -2.502  1.00  0.00     0.200 A 
ATOM     83  F   UNL     1       2.663  -7.680  -0.469  1.00  0.00    -0.200 F 
ATOM     84  F   UNL     1       4.622  -8.896  -1.926  1.00  0.00    -0.200 F 
ENDBRANCH  50  74
BRANCH  62  85
ATOM     85  C   UNL     1      -2.501  -6.996  -8.904  1.00  0.00     0.064 A 
ATOM     86  C   UNL     1      -3.264  -8.078  -8.447  1.00  0.00     0.173 A 
ATOM     87  C   UNL     1      -2.148  -6.968 -10.264  1.00  0.00     0.173 A 
ATOM     88  F   UNL     1      -3.619  -8.157  -7.156  1.00  0.00    -0.203 F 
ATOM     89  C   UNL     1      -3.655  -9.094  -9.316  1.00  0.00     0.198 A 
ATOM     90  C   UNL     1      -2.566  -7.968 -11.135  1.00  0.00     0.198 A 
ATOM     91  F   UNL     1      -1.428  -5.947 -10.754  1.00  0.00    -0.203 F 
ATOM     92  F   UNL     1      -4.364 -10.134  -8.854  1.00  0.00    -0.200 F 
ATOM     93  C   UNL     1      -3.317  -9.032 -10.661  1.00  0.00     0.200 A 
ATOM     94  F   UNL     1      -2.255  -7.895 -12.437  1.00  0.00    -0.200 F 
ATOM     95  F   UNL     1      -3.717  -9.997 -11.500  1.00  0.00    -0.200 F 
ENDBRANCH  62  85
ENDBRANCH  36  37
ENDBRANCH  29  31
ENDBRANCH  28  29
ENDBRANCH  27  28
ENDBRANCH  26  27
ENDBRANCH  25  26
ENDBRANCH   1  25
TORSDOF 20
