REMARK SMILES Cc1cc2c(cc1C(=O)c1ccccc1C(=O)OCCOCCOC(=O)c1ccc(-c3c4nc(c(-c5c(F)c(F)c(F)c(F)c5F)c5ccc([nH]5)c(-c5c(F)c(F)c(F)c(F)c5F)c5nc(c(-c6c(F)c(F)c(F)c(F)c6F)c6ccc3[nH]6)C=C5)C=C4)cc1)CCCC2
REMARK SMILES IDX 21 1 20 2 19 3 18 4 16 5 17 6 15 7 10 8 11 9 12 10 14 11
REMARK SMILES IDX 13 12 8 13 9 14 7 15 1 16 2 17 3 18 4 19 6 20 5 21 93 22
REMARK SMILES IDX 90 23 92 24 91 25 22 26 23 27 24 28 25 29 26 30 27 31 28 32
REMARK SMILES IDX 89 33 29 34 88 35 30 36 31 37 32 38 82 39 33 40 87 41 81 42
REMARK SMILES IDX 83 43 34 44 86 45 80 46 79 47 35 49 67 50 47 51 66 52 48 53
REMARK SMILES IDX 51 54 65 55 84 56 49 57 50 58 64 60 85 61 52 62 36 63 37 64
REMARK SMILES IDX 45 65 38 66 39 67 43 68 46 69 40 70 41 71 44 72 42 73 68 74
REMARK SMILES IDX 69 75 77 76 70 77 71 78 75 79 78 80 72 81 73 82 76 83 74 84
REMARK SMILES IDX 53 85 54 86 62 87 55 88 56 89 60 90 63 91 57 92 58 93 61 94
REMARK SMILES IDX 59 95
REMARK H PARENT 83 48 51 59
REMARK Flexibility Score: inf
ROOT
ATOM      1  O   UNL     1       6.593   1.287   0.714  1.00  0.00    -0.374 OA
ENDROOT
BRANCH   1   2
ATOM      2  C   UNL     1       6.341   2.691   0.726  1.00  0.00     0.202 C 
BRANCH   2   3
ATOM      3  C   UNL     1       5.728   3.292  -0.537  1.00  0.00     0.261 C 
BRANCH   3   4
ATOM      4  O   UNL     1       4.487   2.649  -0.869  1.00  0.00    -0.460 OA
BRANCH   4   5
ATOM      5  C   UNL     1       4.464   2.077  -2.092  1.00  0.00     0.338 C 
ATOM      6  O   UNL     1       5.363   2.116  -2.922  1.00  0.00    -0.246 OA
BRANCH   5   7
ATOM      7  C   UNL     1       3.283   1.207  -2.302  1.00  0.00     0.071 A 
ATOM      8  C   UNL     1       1.966   1.487  -1.916  1.00  0.00     0.037 A 
ATOM      9  C   UNL     1       0.920   0.702  -2.429  1.00  0.00     0.013 A 
ATOM     10  C   UNL     1       1.194  -0.460  -3.155  1.00  0.00     0.001 A 
ATOM     11  C   UNL     1       3.546   0.018  -3.009  1.00  0.00     0.016 A 
ATOM     12  C   UNL     1       2.511  -0.827  -3.403  1.00  0.00     0.001 A 
BRANCH   8  13
ATOM     13  C   UNL     1       1.612   2.575  -0.986  1.00  0.00     0.194 C 
ATOM     14  O   UNL     1       1.929   3.714  -1.321  1.00  0.00    -0.289 OA
BRANCH  13  15
ATOM     15  C   UNL     1       0.828   2.336   0.293  1.00  0.00     0.026 A 
ATOM     16  C   UNL     1       1.026  -0.257   0.462  1.00  0.00     0.045 C 
ATOM     17  C   UNL     1       0.554   1.096   0.916  1.00  0.00    -0.040 A 
ATOM     18  C   UNL     1      -0.267   1.076   2.066  1.00  0.00     0.008 A 
ATOM     19  C   UNL     1      -0.760   2.244   2.656  1.00  0.00    -0.044 A 
ATOM     20  C   UNL     1       0.324   3.507   0.904  1.00  0.00     0.016 A 
ATOM     21  C   UNL     1      -0.471   3.476   2.066  1.00  0.00    -0.044 A 
ATOM     22  C   UNL     1      -1.626   2.139   3.884  1.00  0.00     0.036 C 
ATOM     23  C   UNL     1      -0.958   4.774   2.666  1.00  0.00     0.036 C 
ATOM     24  C   UNL     1      -1.582   3.413   4.718  1.00  0.00     0.005 C 
ATOM     25  C   UNL     1      -1.920   4.617   3.847  1.00  0.00     0.005 C 
ENDBRANCH  13  15
ENDBRANCH   8  13
ENDBRANCH   5   7
ENDBRANCH   4   5
ENDBRANCH   3   4
ENDBRANCH   2   3
ENDBRANCH   1   2
BRANCH   1  26
ATOM     26  C   UNL     1       5.475   0.409   0.848  1.00  0.00     0.202 C 
BRANCH  26  27
ATOM     27  C   UNL     1       4.829   0.305   2.235  1.00  0.00     0.261 C 
BRANCH  27  28
ATOM     28  O   UNL     1       4.193   1.530   2.643  1.00  0.00    -0.460 OA
BRANCH  28  29
ATOM     29  C   UNL     1       4.791   2.175   3.672  1.00  0.00     0.338 C 
ATOM     30  O   UNL     1       5.757   1.797   4.327  1.00  0.00    -0.246 OA
BRANCH  29  31
ATOM     31  C   UNL     1       4.228   3.528   3.806  1.00  0.00     0.060 A 
ATOM     32  C   UNL     1       2.869   3.715   4.042  1.00  0.00     0.016 A 
ATOM     33  C   UNL     1       5.099   4.627   3.761  1.00  0.00     0.016 A 
ATOM     34  C   UNL     1       2.396   5.010   4.265  1.00  0.00     0.010 A 
ATOM     35  C   UNL     1       4.615   5.921   3.966  1.00  0.00     0.010 A 
ATOM     36  C   UNL     1       3.257   6.124   4.235  1.00  0.00    -0.014 A 
BRANCH  36  37
ATOM     37  C   UNL     1       2.744   7.464   4.627  1.00  0.00     0.031 A 
ATOM     38  C   UNL     1       2.611   8.591   3.643  1.00  0.00     0.074 A 
ATOM     39  C   UNL     1       2.386   7.656   5.911  1.00  0.00     0.049 A 
ATOM     40  N   UNL     1       2.119   9.791   3.831  1.00  0.00    -0.248 NA
ATOM     41  C   UNL     1       3.099   8.349   2.280  1.00  0.00     0.031 C 
ATOM     42  C   UNL     1       2.503   6.650   6.967  1.00  0.00     0.029 A 
ATOM     43  N   UNL     1       1.837   8.743   6.544  1.00  0.00    -0.354 N 
ATOM     44  C   UNL     1       2.233  10.447   2.613  1.00  0.00     0.074 A 
ATOM     45  C   UNL     1       2.880   9.524   1.702  1.00  0.00     0.031 C 
ATOM     46  C   UNL     1       1.983   7.142   8.100  1.00  0.00     0.029 A 
ATOM     47  C   UNL     1       1.542   8.514   7.865  1.00  0.00     0.049 A 
ATOM     48  H   UNL     1       1.670   9.602   6.094  1.00  0.00     0.167 HD
ATOM     49  C   UNL     1       1.821  11.697   2.284  1.00  0.00     0.037 A 
ATOM     50  C   UNL     1       0.976   9.313   8.789  1.00  0.00     0.037 A 
ATOM     51  C   UNL     1       1.177  12.613   3.195  1.00  0.00     0.049 A 
ATOM     52  C   UNL     1       0.554  10.702   8.408  1.00  0.00     0.074 A 
ATOM     53  C   UNL     1       0.690  13.884   2.937  1.00  0.00     0.029 A 
ATOM     54  N   UNL     1       0.938  12.362   4.539  1.00  0.00    -0.354 N 
ATOM     55  N   UNL     1       0.618  11.290   7.239  1.00  0.00    -0.248 NA
ATOM     56  C   UNL     1      -0.014  11.540   9.473  1.00  0.00     0.031 C 
ATOM     57  C   UNL     1       0.205  14.421   4.134  1.00  0.00     0.029 A 
ATOM     58  C   UNL     1       0.336  13.465   5.127  1.00  0.00     0.049 A 
ATOM     59  H   UNL     1       1.162  11.525   5.005  1.00  0.00     0.167 HD
ATOM     60  C   UNL     1       0.086  12.559   7.421  1.00  0.00     0.074 A 
ATOM     61  C   UNL     1      -0.311  12.651   8.811  1.00  0.00     0.031 C 
ATOM     62  C   UNL     1      -0.056  13.554   6.512  1.00  0.00     0.037 A 
BRANCH  49  63
ATOM     63  C   UNL     1       2.045  12.162   0.872  1.00  0.00     0.064 A 
ATOM     64  C   UNL     1       1.304  11.636  -0.197  1.00  0.00     0.173 A 
ATOM     65  C   UNL     1       2.946  13.202   0.595  1.00  0.00     0.173 A 
ATOM     66  F   UNL     1       0.427  10.643   0.013  1.00  0.00    -0.203 F 
ATOM     67  C   UNL     1       1.473  12.118  -1.493  1.00  0.00     0.198 A 
ATOM     68  C   UNL     1       3.091  13.702  -0.697  1.00  0.00     0.198 A 
ATOM     69  F   UNL     1       3.667  13.754   1.583  1.00  0.00    -0.203 F 
ATOM     70  F   UNL     1       0.776  11.579  -2.503  1.00  0.00    -0.200 F 
ATOM     71  C   UNL     1       2.359  13.156  -1.741  1.00  0.00     0.200 A 
ATOM     72  F   UNL     1       3.932  14.719  -0.930  1.00  0.00    -0.200 F 
ATOM     73  F   UNL     1       2.507  13.631  -2.985  1.00  0.00    -0.200 F 
ENDBRANCH  49  63
BRANCH  50  74
ATOM     74  C   UNL     1       0.736   8.778  10.152  1.00  0.00     0.064 A 
ATOM     75  C   UNL     1      -0.562   8.470  10.580  1.00  0.00     0.173 A 
ATOM     76  C   UNL     1       1.798   8.491  11.023  1.00  0.00     0.173 A 
ATOM     77  F   UNL     1      -1.610   8.740   9.787  1.00  0.00    -0.203 F 
ATOM     78  C   UNL     1      -0.789   7.887  11.825  1.00  0.00     0.198 A 
ATOM     79  C   UNL     1       1.573   7.884  12.255  1.00  0.00     0.198 A 
ATOM     80  F   UNL     1       3.059   8.760  10.654  1.00  0.00    -0.203 F 
ATOM     81  F   UNL     1      -2.041   7.614  12.216  1.00  0.00    -0.200 F 
ATOM     82  C   UNL     1       0.279   7.583  12.655  1.00  0.00     0.200 A 
ATOM     83  F   UNL     1       2.609   7.572  13.045  1.00  0.00    -0.200 F 
ATOM     84  F   UNL     1       0.063   6.997  13.841  1.00  0.00    -0.200 F 
ENDBRANCH  50  74
BRANCH  62  85
ATOM     85  C   UNL     1      -0.680  14.838   6.977  1.00  0.00     0.064 A 
ATOM     86  C   UNL     1       0.017  15.738   7.797  1.00  0.00     0.173 A 
ATOM     87  C   UNL     1      -1.959  15.209   6.535  1.00  0.00     0.173 A 
ATOM     88  F   UNL     1       1.237  15.424   8.259  1.00  0.00    -0.203 F 
ATOM     89  C   UNL     1      -0.546  16.958   8.162  1.00  0.00     0.198 A 
ATOM     90  C   UNL     1      -2.508  16.441   6.880  1.00  0.00     0.198 A 
ATOM     91  F   UNL     1      -2.666  14.386   5.746  1.00  0.00    -0.203 F 
ATOM     92  F   UNL     1       0.126  17.789   8.970  1.00  0.00    -0.200 F 
ATOM     93  C   UNL     1      -1.803  17.313   7.695  1.00  0.00     0.200 A 
ATOM     94  F   UNL     1      -3.717  16.788   6.416  1.00  0.00    -0.200 F 
ATOM     95  F   UNL     1      -2.336  18.496   8.033  1.00  0.00    -0.200 F 
ENDBRANCH  62  85
ENDBRANCH  36  37
ENDBRANCH  29  31
ENDBRANCH  28  29
ENDBRANCH  27  28
ENDBRANCH  26  27
ENDBRANCH   1  26
TORSDOF 16
