REMARK SMILES O=C(CCn1cc(/C=C\C(=O)c2ccc(F)cc2)c(-c2cccc(Cl)c2)n1)OCCOCCOC(=O)c1ccc(-c2c3nc(c(-c4c(F)c(F)c(F)c(F)c4F)c4ccc([nH]4)c(-c4c(F)c(F)c(F)c(F)c4F)c4nc(c(-c5c(F)c(F)c(F)c(F)c5F)c5ccc2[nH]5)C=C4)C=C3)cc1
REMARK SMILES IDX 29 1 28 2 2 3 1 4 3 5 4 6 5 7 6 8 27 9 7 10 19 11 8 12 9 13
REMARK SMILES IDX 10 14 11 15 12 16 13 17 18 18 14 19 17 20 15 21 16 22 20 23
REMARK SMILES IDX 21 24 26 25 22 26 24 27 23 28 25 29 30 30 31 31 32 32 33 33
REMARK SMILES IDX 34 34 35 35 36 36 37 37 38 38 99 39 39 40 98 41 40 42 41 43
REMARK SMILES IDX 42 44 92 45 43 46 97 47 91 48 93 49 44 50 96 51 90 52 89 53
REMARK SMILES IDX 45 55 77 56 57 57 76 58 58 59 61 60 75 61 94 62 59 63 60 64
REMARK SMILES IDX 74 66 95 67 62 68 46 69 47 70 55 71 48 72 49 73 53 74 56 75
REMARK SMILES IDX 50 76 51 77 54 78 52 79 78 80 79 81 87 82 80 83 81 84 85 85
REMARK SMILES IDX 88 86 82 87 83 88 86 89 84 90 63 91 64 92 72 93 65 94 66 95
REMARK SMILES IDX 70 96 73 97 67 98 68 99 71 100 69 101
REMARK H PARENT 93 54 61 65
REMARK Flexibility Score: inf
ROOT
ATOM      1  C   UNL     1       3.662  -0.159  -0.986  1.00  0.00     0.261 C 
ENDROOT
BRANCH   1   2
ATOM      2  O   UNL     1       2.375  -0.322  -0.403  1.00  0.00    -0.463 OA
BRANCH   2   3
ATOM      3  C   UNL     1       2.247  -0.863   0.834  1.00  0.00     0.307 C 
ATOM      4  O   UNL     1       1.261  -1.553   1.082  1.00  0.00    -0.252 OA
BRANCH   3   5
ATOM      5  C   UNL     1       3.201  -0.442   1.938  1.00  0.00     0.146 C 
BRANCH   5   6
ATOM      6  C   UNL     1       4.293  -1.405   2.369  1.00  0.00     0.156 C 
BRANCH   6   7
ATOM      7  N   UNL     1       5.477  -1.525   1.536  1.00  0.00    -0.271 N 
ATOM      8  C   UNL     1       6.266  -0.575   0.924  1.00  0.00     0.117 A 
ATOM      9  N   UNL     1       5.819  -2.765   1.175  1.00  0.00    -0.172 NA
ATOM     10  C   UNL     1       6.838  -1.219  -0.171  1.00  0.00     0.021 A 
ATOM     11  C   UNL     1       6.458  -2.589   0.021  1.00  0.00     0.100 A 
BRANCH  10  12
ATOM     12  C   UNL     1       7.537  -0.574  -1.269  1.00  0.00     0.016 C 
ATOM     13  C   UNL     1       7.925  -0.987  -2.505  1.00  0.00     0.053 C 
BRANCH  13  14
ATOM     14  C   UNL     1       7.853  -2.268  -3.359  1.00  0.00     0.185 C 
ATOM     15  O   UNL     1       8.258  -2.245  -4.516  1.00  0.00    -0.289 OA
BRANCH  14  16
ATOM     16  C   UNL     1       7.114  -3.504  -2.777  1.00  0.00     0.022 A 
ATOM     17  C   UNL     1       5.492  -2.737  -2.498  1.00  0.00     0.015 A 
ATOM     18  C   UNL     1       7.518  -5.203  -1.765  1.00  0.00     0.015 A 
ATOM     19  C   UNL     1       4.417  -3.446  -1.298  1.00  0.00     0.040 A 
ATOM     20  C   UNL     1       6.316  -5.794  -0.557  1.00  0.00     0.040 A 
ATOM     21  C   UNL     1       4.836  -4.887  -0.366  1.00  0.00     0.123 A 
ATOM     22  F   UNL     1       3.945  -5.308   0.545  1.00  0.00    -0.207 F 
ENDBRANCH  14  16
ENDBRANCH  13  14
ENDBRANCH  10  12
BRANCH  11  23
ATOM     23  C   UNL     1       6.767  -3.703  -0.942  1.00  0.00     0.004 A 
ATOM     24  C   UNL     1       5.812  -4.784  -2.350  1.00  0.00     0.010 A 
ATOM     25  C   UNL     1       8.574  -3.525  -1.137  1.00  0.00     0.031 A 
ATOM     26  C   UNL     1       6.739  -5.426  -3.740  1.00  0.00     0.002 A 
ATOM     27  C   UNL     1       9.330  -4.208  -2.567  1.00  0.00     0.041 A 
ATOM     28  C   UNL     1       8.447  -5.100  -3.802  1.00  0.00     0.020 A 
ATOM     29  Cl  UNL     1      11.027  -3.997  -2.778  1.00  0.00    -0.084 Cl
ENDBRANCH  11  23
ENDBRANCH   6   7
ENDBRANCH   5   6
ENDBRANCH   3   5
ENDBRANCH   2   3
ENDBRANCH   1   2
BRANCH   1  30
ATOM     30  C   UNL     1       4.171   1.265  -0.988  1.00  0.00     0.202 C 
BRANCH  30  31
ATOM     31  O   UNL     1       4.065   1.969   0.247  1.00  0.00    -0.374 OA
BRANCH  31  32
ATOM     32  C   UNL     1       2.796   2.582   0.506  1.00  0.00     0.202 C 
BRANCH  32  33
ATOM     33  C   UNL     1       2.646   3.980  -0.070  1.00  0.00     0.261 C 
BRANCH  33  34
ATOM     34  O   UNL     1       2.866   3.955  -1.467  1.00  0.00    -0.460 OA
BRANCH  34  35
ATOM     35  C   UNL     1       4.157   4.040  -1.872  1.00  0.00     0.338 C 
ATOM     36  O   UNL     1       5.150   4.230  -1.196  1.00  0.00    -0.246 OA
BRANCH  35  37
ATOM     37  C   UNL     1       4.133   3.938  -3.340  1.00  0.00     0.060 A 
ATOM     38  C   UNL     1       5.231   4.499  -3.978  1.00  0.00     0.016 A 
ATOM     39  C   UNL     1       2.884   3.802  -3.964  1.00  0.00     0.016 A 
ATOM     40  C   UNL     1       4.960   5.314  -5.047  1.00  0.00     0.010 A 
ATOM     41  C   UNL     1       2.603   4.657  -4.990  1.00  0.00     0.010 A 
ATOM     42  C   UNL     1       3.622   5.488  -5.437  1.00  0.00    -0.014 A 
BRANCH  42  43
ATOM     43  C   UNL     1       3.336   6.384  -6.531  1.00  0.00     0.031 A 
ATOM     44  C   UNL     1       3.738   5.726  -7.788  1.00  0.00     0.074 A 
ATOM     45  C   UNL     1       2.756   7.592  -6.395  1.00  0.00     0.049 A 
ATOM     46  N   UNL     1       4.857   5.908  -8.401  1.00  0.00    -0.248 NA
ATOM     47  C   UNL     1       3.008   4.520  -8.220  1.00  0.00     0.031 C 
ATOM     48  C   UNL     1       2.138   8.193  -5.212  1.00  0.00     0.029 A 
ATOM     49  N   UNL     1       2.552   8.540  -7.355  1.00  0.00    -0.354 N 
ATOM     50  C   UNL     1       4.829   5.023  -9.466  1.00  0.00     0.074 A 
ATOM     51  C   UNL     1       3.847   4.030  -9.134  1.00  0.00     0.031 C 
ATOM     52  C   UNL     1       1.433   9.293  -5.579  1.00  0.00     0.029 A 
ATOM     53  C   UNL     1       1.669   9.560  -6.986  1.00  0.00     0.049 A 
ATOM     54  H   UNL     1       2.991   8.508  -8.235  1.00  0.00     0.167 HD
ATOM     55  C   UNL     1       5.332   5.420 -10.664  1.00  0.00     0.037 A 
ATOM     56  C   UNL     1       1.164  10.503  -7.830  1.00  0.00     0.037 A 
ATOM     57  C   UNL     1       6.208   6.555 -10.478  1.00  0.00     0.049 A 
ATOM     58  C   UNL     1       2.085  10.562  -8.996  1.00  0.00     0.074 A 
ATOM     59  C   UNL     1       7.380   6.779  -9.781  1.00  0.00     0.029 A 
ATOM     60  N   UNL     1       5.649   7.788 -10.698  1.00  0.00    -0.354 N 
ATOM     61  N   UNL     1       3.309  11.005  -8.924  1.00  0.00    -0.248 NA
ATOM     62  C   UNL     1       1.799   9.672 -10.109  1.00  0.00     0.031 C 
ATOM     63  C   UNL     1       7.263   8.103  -9.263  1.00  0.00     0.029 A 
ATOM     64  C   UNL     1       6.084   8.669  -9.747  1.00  0.00     0.049 A 
ATOM     65  H   UNL     1       5.028   8.006 -11.431  1.00  0.00     0.167 HD
ATOM     66  C   UNL     1       4.044  10.106  -9.681  1.00  0.00     0.074 A 
ATOM     67  C   UNL     1       3.050   9.349 -10.444  1.00  0.00     0.031 C 
ATOM     68  C   UNL     1       5.350   9.857  -9.374  1.00  0.00     0.037 A 
BRANCH  55  69
ATOM     69  C   UNL     1       4.658   5.126 -11.988  1.00  0.00     0.064 A 
ATOM     70  C   UNL     1       3.323   4.683 -12.145  1.00  0.00     0.173 A 
ATOM     71  C   UNL     1       5.277   5.586 -13.167  1.00  0.00     0.173 A 
ATOM     72  F   UNL     1       2.551   4.311 -11.121  1.00  0.00    -0.203 F 
ATOM     73  C   UNL     1       2.662   4.710 -13.370  1.00  0.00     0.198 A 
ATOM     74  C   UNL     1       4.592   5.660 -14.383  1.00  0.00     0.198 A 
ATOM     75  F   UNL     1       6.529   6.064 -13.138  1.00  0.00    -0.203 F 
ATOM     76  F   UNL     1       1.383   4.309 -13.433  1.00  0.00    -0.200 F 
ATOM     77  C   UNL     1       3.285   5.223 -14.483  1.00  0.00     0.200 A 
ATOM     78  F   UNL     1       5.185   6.223 -15.443  1.00  0.00    -0.200 F 
ATOM     79  F   UNL     1       2.611   5.340 -15.633  1.00  0.00    -0.200 F 
ENDBRANCH  55  69
BRANCH  56  80
ATOM     80  C   UNL     1      -0.209  11.070  -7.926  1.00  0.00     0.064 A 
ATOM     81  C   UNL     1      -1.327  10.374  -7.433  1.00  0.00     0.173 A 
ATOM     82  C   UNL     1      -0.484  12.136  -8.809  1.00  0.00     0.173 A 
ATOM     83  F   UNL     1      -1.172   9.312  -6.630  1.00  0.00    -0.203 F 
ATOM     84  C   UNL     1      -2.628  10.683  -7.839  1.00  0.00     0.198 A 
ATOM     85  C   UNL     1      -1.788  12.443  -9.217  1.00  0.00     0.198 A 
ATOM     86  F   UNL     1       0.521  12.833  -9.359  1.00  0.00    -0.203 F 
ATOM     87  F   UNL     1      -3.654   9.937  -7.405  1.00  0.00    -0.200 F 
ATOM     88  C   UNL     1      -2.858  11.703  -8.746  1.00  0.00     0.200 A 
ATOM     89  F   UNL     1      -1.998  13.409 -10.123  1.00  0.00    -0.200 F 
ATOM     90  F   UNL     1      -4.098  11.940  -9.196  1.00  0.00    -0.200 F 
ENDBRANCH  56  80
BRANCH  68  91
ATOM     91  C   UNL     1       6.053  10.807  -8.441  1.00  0.00     0.064 A 
ATOM     92  C   UNL     1       7.219  11.422  -8.917  1.00  0.00     0.173 A 
ATOM     93  C   UNL     1       5.729  10.994  -7.085  1.00  0.00     0.173 A 
ATOM     94  F   UNL     1       7.595  11.245 -10.193  1.00  0.00    -0.203 F 
ATOM     95  C   UNL     1       8.042  12.164  -8.078  1.00  0.00     0.198 A 
ATOM     96  C   UNL     1       6.536  11.775  -6.255  1.00  0.00     0.198 A 
ATOM     97  F   UNL     1       4.674  10.377  -6.534  1.00  0.00    -0.203 F 
ATOM     98  F   UNL     1       9.189  12.669  -8.552  1.00  0.00    -0.200 F 
ATOM     99  C   UNL     1       7.699  12.345  -6.749  1.00  0.00     0.200 A 
ATOM    100  F   UNL     1       6.214  11.940  -4.963  1.00  0.00    -0.200 F 
ATOM    101  F   UNL     1       8.505  13.046  -5.939  1.00  0.00    -0.200 F 
ENDBRANCH  68  91
ENDBRANCH  42  43
ENDBRANCH  35  37
ENDBRANCH  34  35
ENDBRANCH  33  34
ENDBRANCH  32  33
ENDBRANCH  31  32
ENDBRANCH  30  31
ENDBRANCH   1  30
TORSDOF 20
