REMARK SMILES CC[C@@H](C(=O)OCCOCCOC(=O)c1ccc(-c2c3nc(c(-c4c(F)c(F)c(F)c(F)c4F)c4ccc([nH]4)c(-c4c(F)c(F)c(F)c(F)c4F)c4nc(c(-c5c(F)c(F)c(F)c(F)c5F)c5ccc2[nH]5)C=C4)C=C3)cc1)N(C)C(=O)c1cn(C2C[NH2+]C2)nn1
REMARK SMILES IDX 8 1 7 2 6 3 4 4 5 5 3 6 2 7 1 8 78 9 79 10 80 11 81 12 82 13
REMARK SMILES IDX 83 14 90 15 84 16 89 17 85 18 86 19 88 20 87 21 9 24 10 25
REMARK SMILES IDX 11 26 12 27 13 28 14 29 15 30 16 31 77 32 17 33 76 34 18 35
REMARK SMILES IDX 19 36 20 37 70 38 21 39 75 40 69 41 71 42 22 43 74 44 68 45
REMARK SMILES IDX 67 46 23 48 55 49 35 50 54 51 36 52 39 53 53 54 72 55 37 56
REMARK SMILES IDX 38 57 52 59 73 60 40 61 24 62 25 63 33 64 26 65 27 66 31 67
REMARK SMILES IDX 34 68 28 69 29 70 32 71 30 72 56 73 57 74 65 75 58 76 59 77
REMARK SMILES IDX 63 78 66 79 60 80 61 81 64 82 62 83 41 84 42 85 50 86 43 87
REMARK SMILES IDX 44 88 48 89 51 90 45 91 46 92 49 93 47 94
REMARK H PARENT 87 22 87 23 71 47 39 58
REMARK Flexibility Score: inf
ROOT
ATOM      1  C   UNL     1      -0.618   1.611   4.074  1.00  0.00     0.202 C 
ENDROOT
BRANCH   1   2
ATOM      2  C   UNL     1       0.737   0.920   4.243  1.00  0.00     0.261 C 
BRANCH   2   3
ATOM      3  O   UNL     1       1.046   0.153   3.063  1.00  0.00    -0.462 OA
BRANCH   3   4
ATOM      4  C   UNL     1       1.245  -1.177   3.244  1.00  0.00     0.328 C 
ATOM      5  O   UNL     1       1.362  -1.710   4.345  1.00  0.00    -0.250 OA
BRANCH   4   6
ATOM      6  C   UNL     1       1.384  -1.952   1.916  1.00  0.00     0.194 C 
BRANCH   6   7
ATOM      7  C   UNL     1       0.819  -1.312   0.628  1.00  0.00     0.034 C 
ATOM      8  C   UNL     1       1.569  -0.082   0.132  1.00  0.00     0.007 C 
ENDBRANCH   6   7
BRANCH   6   9
ATOM      9  N   UNL     1       0.859  -3.330   2.164  1.00  0.00    -0.326 N 
ATOM     10  C   UNL     1       1.831  -4.320   2.611  1.00  0.00     0.148 C 
BRANCH   9  11
ATOM     11  C   UNL     1      -0.530  -3.554   2.202  1.00  0.00     0.276 C 
ATOM     12  O   UNL     1      -1.334  -2.741   1.752  1.00  0.00    -0.267 OA
BRANCH  11  13
ATOM     13  C   UNL     1      -1.031  -4.780   2.818  1.00  0.00     0.170 A 
ATOM     14  C   UNL     1      -0.746  -5.305   4.064  1.00  0.00     0.145 A 
ATOM     15  N   UNL     1      -1.993  -5.560   2.224  1.00  0.00    -0.125 NA
ATOM     16  N   UNL     1      -1.503  -6.442   4.130  1.00  0.00    -0.237 N 
ATOM     17  N   UNL     1      -2.255  -6.584   3.025  1.00  0.00    -0.066 NA
BRANCH  16  18
ATOM     18  C   UNL     1      -1.508  -7.442   5.155  1.00  0.00     0.218 C 
ATOM     19  C   UNL     1      -0.091  -7.874   5.595  1.00  0.00     0.294 C 
ATOM     20  C   UNL     1      -1.611  -6.890   6.593  1.00  0.00     0.294 C 
ATOM     21  N   UNL     1      -0.546  -7.835   7.001  1.00  0.00    -0.342 N 
ATOM     22  H   UNL     1       0.135  -7.446   7.653  1.00  0.00     0.346 HD
ATOM     23  H   UNL     1      -0.767  -8.692   7.508  1.00  0.00     0.346 HD
ENDBRANCH  16  18
ENDBRANCH  11  13
ENDBRANCH   9  11
ENDBRANCH   6   9
ENDBRANCH   4   6
ENDBRANCH   3   4
ENDBRANCH   2   3
ENDBRANCH   1   2
BRANCH   1  24
ATOM     24  O   UNL     1      -1.760   0.765   4.225  1.00  0.00    -0.374 OA
BRANCH  24  25
ATOM     25  C   UNL     1      -2.051  -0.118   3.140  1.00  0.00     0.202 C 
BRANCH  25  26
ATOM     26  C   UNL     1      -2.892   0.471   2.004  1.00  0.00     0.261 C 
BRANCH  26  27
ATOM     27  O   UNL     1      -2.214   1.562   1.355  1.00  0.00    -0.460 OA
BRANCH  27  28
ATOM     28  C   UNL     1      -2.671   2.787   1.692  1.00  0.00     0.338 C 
ATOM     29  O   UNL     1      -3.642   3.056   2.390  1.00  0.00    -0.246 OA
BRANCH  28  30
ATOM     30  C   UNL     1      -1.731   3.824   1.230  1.00  0.00     0.060 A 
ATOM     31  C   UNL     1      -1.396   4.838   2.139  1.00  0.00     0.016 A 
ATOM     32  C   UNL     1      -1.240   3.852  -0.077  1.00  0.00     0.016 A 
ATOM     33  C   UNL     1      -0.630   5.923   1.724  1.00  0.00     0.010 A 
ATOM     34  C   UNL     1      -0.479   4.948  -0.496  1.00  0.00     0.010 A 
ATOM     35  C   UNL     1      -0.213   6.008   0.390  1.00  0.00    -0.014 A 
BRANCH  35  36
ATOM     36  C   UNL     1       0.310   7.294  -0.129  1.00  0.00     0.031 A 
ATOM     37  C   UNL     1      -0.642   8.213  -0.844  1.00  0.00     0.074 A 
ATOM     38  C   UNL     1       1.591   7.652   0.054  1.00  0.00     0.049 A 
ATOM     39  N   UNL     1      -0.409   9.349  -1.448  1.00  0.00    -0.248 NA
ATOM     40  C   UNL     1      -2.052   7.789  -0.884  1.00  0.00     0.031 C 
ATOM     41  C   UNL     1       2.590   6.873   0.782  1.00  0.00     0.029 A 
ATOM     42  N   UNL     1       2.272   8.766  -0.370  1.00  0.00    -0.354 N 
ATOM     43  C   UNL     1      -1.635   9.767  -1.949  1.00  0.00     0.074 A 
ATOM     44  C   UNL     1      -2.607   8.755  -1.599  1.00  0.00     0.031 C 
ATOM     45  C   UNL     1       3.765   7.527   0.739  1.00  0.00     0.029 A 
ATOM     46  C   UNL     1       3.606   8.749  -0.048  1.00  0.00     0.049 A 
ATOM     47  H   UNL     1       1.844   9.505  -0.859  1.00  0.00     0.167 HD
ATOM     48  C   UNL     1      -1.924  10.897  -2.635  1.00  0.00     0.037 A 
ATOM     49  C   UNL     1       4.587   9.612  -0.377  1.00  0.00     0.037 A 
ATOM     50  C   UNL     1      -0.956  11.904  -2.975  1.00  0.00     0.049 A 
ATOM     51  C   UNL     1       4.255  10.829  -1.202  1.00  0.00     0.074 A 
ATOM     52  C   UNL     1      -1.146  13.087  -3.667  1.00  0.00     0.029 A 
ATOM     53  N   UNL     1       0.390  11.842  -2.646  1.00  0.00    -0.354 N 
ATOM     54  N   UNL     1       3.094  11.220  -1.670  1.00  0.00    -0.248 NA
ATOM     55  C   UNL     1       5.369  11.725  -1.546  1.00  0.00     0.031 C 
ATOM     56  C   UNL     1       0.094  13.721  -3.793  1.00  0.00     0.029 A 
ATOM     57  C   UNL     1       1.046  12.959  -3.136  1.00  0.00     0.049 A 
ATOM     58  H   UNL     1       0.816  11.113  -2.139  1.00  0.00     0.167 HD
ATOM     59  C   UNL     1       3.330  12.421  -2.326  1.00  0.00     0.074 A 
ATOM     60  C   UNL     1       4.745  12.696  -2.200  1.00  0.00     0.031 C 
ATOM     61  C   UNL     1       2.451  13.227  -2.971  1.00  0.00     0.037 A 
BRANCH  48  62
ATOM     62  C   UNL     1      -3.340  11.088  -3.090  1.00  0.00     0.064 A 
ATOM     63  C   UNL     1      -4.368  11.402  -2.188  1.00  0.00     0.173 A 
ATOM     64  C   UNL     1      -3.667  10.983  -4.450  1.00  0.00     0.173 A 
ATOM     65  F   UNL     1      -4.109  11.498  -0.876  1.00  0.00    -0.203 F 
ATOM     66  C   UNL     1      -5.676  11.582  -2.630  1.00  0.00     0.198 A 
ATOM     67  C   UNL     1      -4.971  11.191  -4.891  1.00  0.00     0.198 A 
ATOM     68  F   UNL     1      -2.719  10.687  -5.352  1.00  0.00    -0.203 F 
ATOM     69  F   UNL     1      -6.650  11.839  -1.747  1.00  0.00    -0.200 F 
ATOM     70  C   UNL     1      -5.975  11.483  -3.981  1.00  0.00     0.200 A 
ATOM     71  F   UNL     1      -5.255  11.105  -6.198  1.00  0.00    -0.200 F 
ATOM     72  F   UNL     1      -7.233  11.664  -4.405  1.00  0.00    -0.200 F 
ENDBRANCH  48  62
BRANCH  49  73
ATOM     73  C   UNL     1       5.983   9.350   0.061  1.00  0.00     0.064 A 
ATOM     74  C   UNL     1       6.609  10.167   1.013  1.00  0.00     0.173 A 
ATOM     75  C   UNL     1       6.724   8.286  -0.474  1.00  0.00     0.173 A 
ATOM     76  F   UNL     1       5.949  11.211   1.535  1.00  0.00    -0.203 F 
ATOM     77  C   UNL     1       7.928   9.939   1.401  1.00  0.00     0.198 A 
ATOM     78  C   UNL     1       8.034   8.044  -0.067  1.00  0.00     0.198 A 
ATOM     79  F   UNL     1       6.173   7.477  -1.390  1.00  0.00    -0.203 F 
ATOM     80  F   UNL     1       8.516  10.761   2.280  1.00  0.00    -0.200 F 
ATOM     81  C   UNL     1       8.637   8.875   0.865  1.00  0.00     0.200 A 
ATOM     82  F   UNL     1       8.712   7.008  -0.579  1.00  0.00    -0.200 F 
ATOM     83  F   UNL     1       9.905   8.655   1.240  1.00  0.00    -0.200 F 
ENDBRANCH  49  73
BRANCH  61  84
ATOM     84  C   UNL     1       2.973  14.514  -3.538  1.00  0.00     0.064 A 
ATOM     85  C   UNL     1       3.745  14.547  -4.707  1.00  0.00     0.173 A 
ATOM     86  C   UNL     1       2.624  15.737  -2.942  1.00  0.00     0.173 A 
ATOM     87  F   UNL     1       4.113  13.405  -5.306  1.00  0.00    -0.203 F 
ATOM     88  C   UNL     1       4.159  15.759  -5.254  1.00  0.00     0.198 A 
ATOM     89  C   UNL     1       3.019  16.946  -3.506  1.00  0.00     0.198 A 
ATOM     90  F   UNL     1       1.880  15.757  -1.826  1.00  0.00    -0.203 F 
ATOM     91  F   UNL     1       4.921  15.768  -6.356  1.00  0.00    -0.200 F 
ATOM     92  C   UNL     1       3.788  16.956  -4.659  1.00  0.00     0.200 A 
ATOM     93  F   UNL     1       2.648  18.102  -2.937  1.00  0.00    -0.200 F 
ATOM     94  F   UNL     1       4.175  18.122  -5.197  1.00  0.00    -0.200 F 
ENDBRANCH  61  84
ENDBRANCH  35  36
ENDBRANCH  28  30
ENDBRANCH  27  28
ENDBRANCH  26  27
ENDBRANCH  25  26
ENDBRANCH  24  25
ENDBRANCH   1  24
TORSDOF 19
