REMARK SMILES C[C@]([NH3+])(Cc1ccc(I)cc1)C(=O)OCCOCCOC(=O)c1ccc(-c2c3nc(c(-c4c(F)c(F)c(F)c(F)c4F)c4ccc([nH]4)c(-c4c(F)c(F)c(F)c(F)c4F)c4nc(c(-c5c(F)c(F)c(F)c(F)c5F)c5ccc2[nH]5)C=C4)C=C3)cc1
REMARK SMILES IDX 17 1 16 2 15 3 14 4 12 5 13 6 2 7 1 8 4 9 5 10 6 11 11 12
REMARK SMILES IDX 7 13 10 14 8 15 9 16 3 17 18 21 19 22 20 23 21 24 22 25
REMARK SMILES IDX 23 26 24 27 85 28 25 29 84 30 26 31 27 32 28 33 78 34 29 35
REMARK SMILES IDX 83 36 77 37 79 38 30 39 82 40 76 41 75 42 31 44 63 45 43 46
REMARK SMILES IDX 62 47 44 48 47 49 61 50 80 51 45 52 46 53 60 55 81 56 48 57
REMARK SMILES IDX 32 58 33 59 41 60 34 61 35 62 39 63 42 64 36 65 37 66 40 67
REMARK SMILES IDX 38 68 64 69 65 70 73 71 66 72 67 73 71 74 74 75 68 76 69 77
REMARK SMILES IDX 72 78 70 79 49 80 50 81 58 82 51 83 52 84 56 85 59 86 53 87
REMARK SMILES IDX 54 88 57 89 55 90
REMARK H PARENT 3 18 3 19 3 20 79 43 47 54
REMARK Flexibility Score: inf
ROOT
ATOM      1  O   UNL     1       1.671  -1.451   4.481  1.00  0.00    -0.374 OA
ENDROOT
BRANCH   1   2
ATOM      2  C   UNL     1       1.550  -0.130   5.006  1.00  0.00     0.202 C 
BRANCH   2   3
ATOM      3  C   UNL     1       1.956   0.992   4.048  1.00  0.00     0.261 C 
BRANCH   3   4
ATOM      4  O   UNL     1       1.032   1.168   2.955  1.00  0.00    -0.459 OA
BRANCH   4   5
ATOM      5  C   UNL     1       1.516   0.887   1.709  1.00  0.00     0.368 C 
ATOM      6  O   UNL     1       2.643   0.456   1.484  1.00  0.00    -0.245 OA
BRANCH   5   7
ATOM      7  C   UNL     1       0.544   1.329   0.582  1.00  0.00     0.194 C 
ATOM      8  C   UNL     1       0.752   2.850   0.429  1.00  0.00     0.092 C 
BRANCH   7   9
ATOM      9  C   UNL     1      -0.956   1.057   0.879  1.00  0.00     0.116 C 
BRANCH   9  10
ATOM     10  C   UNL     1      -1.550  -0.343   0.926  1.00  0.00    -0.041 A 
ATOM     11  C   UNL     1      -2.864  -0.471   1.415  1.00  0.00     0.005 A 
ATOM     12  C   UNL     1      -0.912  -1.496   0.456  1.00  0.00     0.005 A 
ATOM     13  C   UNL     1      -3.513  -1.709   1.447  1.00  0.00     0.015 A 
ATOM     14  C   UNL     1      -1.556  -2.740   0.487  1.00  0.00     0.015 A 
ATOM     15  C   UNL     1      -2.853  -2.842   0.983  1.00  0.00     0.013 A 
ATOM     16  I   UNL     1      -3.802  -4.689   1.040  1.00  0.00    -0.044 I 
ENDBRANCH   9  10
ENDBRANCH   7   9
BRANCH   7  17
ATOM     17  N   UNL     1       0.966   0.709  -0.703  1.00  0.00    -0.343 N 
ATOM     18  H   UNL     1       0.846  -0.303  -0.648  1.00  0.00     0.345 HD
ATOM     19  H   UNL     1       1.947   0.925  -0.880  1.00  0.00     0.345 HD
ATOM     20  H   UNL     1       0.395   1.078  -1.463  1.00  0.00     0.345 HD
ENDBRANCH   7  17
ENDBRANCH   5   7
ENDBRANCH   4   5
ENDBRANCH   3   4
ENDBRANCH   2   3
ENDBRANCH   1   2
BRANCH   1  21
ATOM     21  C   UNL     1       0.631  -1.883   3.599  1.00  0.00     0.202 C 
BRANCH  21  22
ATOM     22  C   UNL     1      -0.662  -2.279   4.310  1.00  0.00     0.261 C 
BRANCH  22  23
ATOM     23  O   UNL     1      -1.295  -1.115   4.869  1.00  0.00    -0.460 OA
BRANCH  23  24
ATOM     24  C   UNL     1      -2.045  -1.383   5.953  1.00  0.00     0.338 C 
ATOM     25  O   UNL     1      -2.425  -2.481   6.348  1.00  0.00    -0.246 OA
BRANCH  24  26
ATOM     26  C   UNL     1      -2.194  -0.164   6.755  1.00  0.00     0.060 A 
ATOM     27  C   UNL     1      -1.449  -0.080   7.936  1.00  0.00     0.016 A 
ATOM     28  C   UNL     1      -3.145   0.808   6.435  1.00  0.00     0.016 A 
ATOM     29  C   UNL     1      -1.718   0.937   8.847  1.00  0.00     0.010 A 
ATOM     30  C   UNL     1      -3.407   1.834   7.351  1.00  0.00     0.010 A 
ATOM     31  C   UNL     1      -2.734   1.868   8.585  1.00  0.00    -0.014 A 
BRANCH  31  32
ATOM     32  C   UNL     1      -3.176   2.752   9.693  1.00  0.00     0.031 A 
ATOM     33  C   UNL     1      -4.369   2.351  10.518  1.00  0.00     0.074 A 
ATOM     34  C   UNL     1      -2.459   3.838  10.027  1.00  0.00     0.049 A 
ATOM     35  N   UNL     1      -4.825   2.874  11.629  1.00  0.00    -0.248 NA
ATOM     36  C   UNL     1      -5.152   1.204  10.031  1.00  0.00     0.031 C 
ATOM     37  C   UNL     1      -1.284   4.325   9.308  1.00  0.00     0.029 A 
ATOM     38  N   UNL     1      -2.604   4.714  11.074  1.00  0.00    -0.354 N 
ATOM     39  C   UNL     1      -5.932   2.113  11.979  1.00  0.00     0.074 A 
ATOM     40  C   UNL     1      -6.110   1.120  10.942  1.00  0.00     0.031 C 
ATOM     41  C   UNL     1      -0.799   5.403   9.947  1.00  0.00     0.029 A 
ATOM     42  C   UNL     1      -1.631   5.681  11.117  1.00  0.00     0.049 A 
ATOM     43  H   UNL     1      -3.335   4.654  11.730  1.00  0.00     0.167 HD
ATOM     44  C   UNL     1      -6.719   2.218  13.077  1.00  0.00     0.037 A 
ATOM     45  C   UNL     1      -1.425   6.666  12.012  1.00  0.00     0.037 A 
ATOM     46  C   UNL     1      -6.546   3.205  14.109  1.00  0.00     0.049 A 
ATOM     47  C   UNL     1      -2.321   6.770  13.218  1.00  0.00     0.074 A 
ATOM     48  C   UNL     1      -7.284   3.388  15.266  1.00  0.00     0.029 A 
ATOM     49  N   UNL     1      -5.563   4.184  14.104  1.00  0.00    -0.354 N 
ATOM     50  N   UNL     1      -3.332   6.012  13.567  1.00  0.00    -0.248 NA
ATOM     51  C   UNL     1      -2.032   7.857  14.165  1.00  0.00     0.031 C 
ATOM     52  C   UNL     1      -6.769   4.499  15.943  1.00  0.00     0.029 A 
ATOM     53  C   UNL     1      -5.685   4.984  15.228  1.00  0.00     0.049 A 
ATOM     54  H   UNL     1      -4.879   4.293  13.404  1.00  0.00     0.167 HD
ATOM     55  C   UNL     1      -3.786   6.514  14.779  1.00  0.00     0.074 A 
ATOM     56  C   UNL     1      -2.926   7.630  15.116  1.00  0.00     0.031 C 
ATOM     57  C   UNL     1      -4.821   6.091  15.545  1.00  0.00     0.037 A 
BRANCH  44  58
ATOM     58  C   UNL     1      -7.848   1.240  13.212  1.00  0.00     0.064 A 
ATOM     59  C   UNL     1      -7.618  -0.103  13.546  1.00  0.00     0.173 A 
ATOM     60  C   UNL     1      -9.176   1.654  13.033  1.00  0.00     0.173 A 
ATOM     61  F   UNL     1      -6.364  -0.551  13.713  1.00  0.00    -0.203 F 
ATOM     62  C   UNL     1      -8.675  -1.000  13.676  1.00  0.00     0.198 A 
ATOM     63  C   UNL     1     -10.232   0.760  13.186  1.00  0.00     0.198 A 
ATOM     64  F   UNL     1      -9.449   2.928  12.715  1.00  0.00    -0.203 F 
ATOM     65  F   UNL     1      -8.429  -2.288  13.958  1.00  0.00    -0.200 F 
ATOM     66  C   UNL     1      -9.981  -0.567  13.502  1.00  0.00     0.200 A 
ATOM     67  F   UNL     1     -11.494   1.181  13.026  1.00  0.00    -0.200 F 
ATOM     68  F   UNL     1     -10.998  -1.431  13.630  1.00  0.00    -0.200 F 
ENDBRANCH  44  58
BRANCH  45  69
ATOM     69  C   UNL     1      -0.295   7.610  11.821  1.00  0.00     0.064 A 
ATOM     70  C   UNL     1       0.831   7.573  12.655  1.00  0.00     0.173 A 
ATOM     71  C   UNL     1      -0.320   8.569  10.799  1.00  0.00     0.173 A 
ATOM     72  F   UNL     1       0.890   6.687  13.660  1.00  0.00    -0.203 F 
ATOM     73  C   UNL     1       1.883   8.469  12.482  1.00  0.00     0.198 A 
ATOM     74  C   UNL     1       0.743   9.449  10.612  1.00  0.00     0.198 A 
ATOM     75  F   UNL     1      -1.375   8.644   9.974  1.00  0.00    -0.203 F 
ATOM     76  F   UNL     1       2.931   8.437  13.317  1.00  0.00    -0.200 F 
ATOM     77  C   UNL     1       1.841   9.402  11.457  1.00  0.00     0.200 A 
ATOM     78  F   UNL     1       0.704  10.342   9.613  1.00  0.00    -0.200 F 
ATOM     79  F   UNL     1       2.857  10.261  11.288  1.00  0.00    -0.200 F 
ENDBRANCH  45  69
BRANCH  57  80
ATOM     80  C   UNL     1      -5.069   6.829  16.828  1.00  0.00     0.064 A 
ATOM     81  C   UNL     1      -5.619   8.119  16.835  1.00  0.00     0.173 A 
ATOM     82  C   UNL     1      -4.771   6.233  18.062  1.00  0.00     0.173 A 
ATOM     83  F   UNL     1      -5.908   8.736  15.680  1.00  0.00    -0.203 F 
ATOM     84  C   UNL     1      -5.834   8.798  18.032  1.00  0.00     0.198 A 
ATOM     85  C   UNL     1      -5.011   6.904  19.258  1.00  0.00     0.198 A 
ATOM     86  F   UNL     1      -4.249   4.998  18.108  1.00  0.00    -0.203 F 
ATOM     87  F   UNL     1      -6.315  10.049  18.014  1.00  0.00    -0.200 F 
ATOM     88  C   UNL     1      -5.534   8.189  19.241  1.00  0.00     0.200 A 
ATOM     89  F   UNL     1      -4.729   6.311  20.426  1.00  0.00    -0.200 F 
ATOM     90  F   UNL     1      -5.739   8.844  20.392  1.00  0.00    -0.200 F 
ENDBRANCH  57  80
ENDBRANCH  31  32
ENDBRANCH  24  26
ENDBRANCH  23  24
ENDBRANCH  22  23
ENDBRANCH  21  22
ENDBRANCH   1  21
TORSDOF 17
