REMARK SMILES O=C(OCCOCCOC(=O)[C@H]1CC[C@H](CN2C(=O)c3cccnc3C2=O)O1)c1ccc(-c2c3nc(c(-c4c(F)c(F)c(F)c(F)c4F)c4ccc([nH]4)c(-c4c(F)c(F)c(F)c(F)c4F)c4nc(c(-c5c(F)c(F)c(F)c(F)c5F)c5ccc2[nH]5)C=C4)C=C3)cc1
REMARK SMILES IDX 6 1 5 2 4 3 3 4 2 5 1 6 29 7 30 8 91 9 31 10 90 11 32 12
REMARK SMILES IDX 33 13 34 14 84 15 35 16 89 17 83 18 85 19 36 20 88 21 82 22
REMARK SMILES IDX 81 23 37 25 69 26 49 27 68 28 50 29 53 30 67 31 86 32 51 33
REMARK SMILES IDX 52 34 66 36 87 37 54 38 38 39 39 40 47 41 40 42 41 43 45 44
REMARK SMILES IDX 48 45 42 46 43 47 46 48 44 49 70 50 71 51 79 52 72 53 73 54
REMARK SMILES IDX 77 55 80 56 74 57 75 58 78 59 76 60 55 61 56 62 64 63 57 64
REMARK SMILES IDX 58 65 62 66 65 67 59 68 60 69 63 70 61 71 7 72 8 73 9 74
REMARK SMILES IDX 10 75 11 76 12 77 13 78 28 79 14 80 15 81 16 82 17 83 18 84
REMARK SMILES IDX 26 85 19 86 20 87 25 88 27 89 21 90 24 91 22 92 23 93
REMARK H PARENT 85 24 53 35
REMARK Flexibility Score: inf
ROOT
ATOM      1  O   UNL     1       3.551   0.227   6.237  1.00  0.00    -0.374 OA
ENDROOT
BRANCH   1   2
ATOM      2  C   UNL     1       2.930   1.216   5.424  1.00  0.00     0.202 C 
BRANCH   2   3
ATOM      3  C   UNL     1       1.856   2.088   6.072  1.00  0.00     0.261 C 
BRANCH   3   4
ATOM      4  O   UNL     1       2.417   2.805   7.185  1.00  0.00    -0.460 OA
BRANCH   4   5
ATOM      5  C   UNL     1       2.291   2.487   8.495  1.00  0.00     0.338 C 
ATOM      6  O   UNL     1       2.851   3.167   9.350  1.00  0.00    -0.246 OA
BRANCH   5   7
ATOM      7  C   UNL     1       1.455   1.342   8.932  1.00  0.00     0.060 A 
ATOM      8  C   UNL     1       1.398   0.143   8.229  1.00  0.00     0.016 A 
ATOM      9  C   UNL     1       0.759   1.434  10.141  1.00  0.00     0.016 A 
ATOM     10  C   UNL     1       0.639  -0.917   8.635  1.00  0.00     0.010 A 
ATOM     11  C   UNL     1       0.048   0.330  10.619  1.00  0.00     0.010 A 
ATOM     12  C   UNL     1       0.014  -0.848   9.864  1.00  0.00    -0.014 A 
BRANCH  12  13
ATOM     13  C   UNL     1      -0.682  -2.067  10.263  1.00  0.00     0.031 A 
ATOM     14  C   UNL     1      -2.162  -2.089  10.149  1.00  0.00     0.074 A 
ATOM     15  C   UNL     1       0.057  -3.163  10.517  1.00  0.00     0.049 A 
ATOM     16  N   UNL     1      -2.995  -3.013  10.528  1.00  0.00    -0.248 NA
ATOM     17  C   UNL     1      -2.794  -0.921   9.507  1.00  0.00     0.031 C 
ATOM     18  C   UNL     1       1.523  -3.237  10.431  1.00  0.00     0.029 A 
ATOM     19  N   UNL     1      -0.314  -4.431  10.857  1.00  0.00    -0.354 N 
ATOM     20  C   UNL     1      -4.252  -2.513  10.232  1.00  0.00     0.074 A 
ATOM     21  C   UNL     1      -4.080  -1.223   9.608  1.00  0.00     0.031 C 
ATOM     22  C   UNL     1       1.921  -4.486  10.711  1.00  0.00     0.029 A 
ATOM     23  C   UNL     1       0.754  -5.260  11.102  1.00  0.00     0.049 A 
ATOM     24  H   UNL     1      -1.252  -4.723  10.921  1.00  0.00     0.167 HD
ATOM     25  C   UNL     1      -5.435  -3.098  10.508  1.00  0.00     0.037 A 
ATOM     26  C   UNL     1       0.769  -6.479  11.667  1.00  0.00     0.037 A 
ATOM     27  C   UNL     1      -5.530  -4.396  11.117  1.00  0.00     0.049 A 
ATOM     28  C   UNL     1      -0.563  -7.049  12.073  1.00  0.00     0.074 A 
ATOM     29  C   UNL     1      -6.659  -5.096  11.487  1.00  0.00     0.029 A 
ATOM     30  N   UNL     1      -4.433  -5.185  11.445  1.00  0.00    -0.354 N 
ATOM     31  N   UNL     1      -1.765  -6.558  11.872  1.00  0.00    -0.248 NA
ATOM     32  C   UNL     1      -0.545  -8.316  12.807  1.00  0.00     0.031 C 
ATOM     33  C   UNL     1      -6.242  -6.280  12.102  1.00  0.00     0.029 A 
ATOM     34  C   UNL     1      -4.856  -6.349  12.056  1.00  0.00     0.049 A 
ATOM     35  H   UNL     1      -3.493  -4.949  11.269  1.00  0.00     0.167 HD
ATOM     36  C   UNL     1      -2.647  -7.458  12.445  1.00  0.00     0.074 A 
ATOM     37  C   UNL     1      -1.840  -8.544  12.971  1.00  0.00     0.031 C 
ATOM     38  C   UNL     1      -3.998  -7.398  12.549  1.00  0.00     0.037 A 
BRANCH  25  39
ATOM     39  C   UNL     1      -6.676  -2.302  10.264  1.00  0.00     0.064 A 
ATOM     40  C   UNL     1      -7.167  -2.042   8.978  1.00  0.00     0.173 A 
ATOM     41  C   UNL     1      -7.388  -1.786  11.358  1.00  0.00     0.173 A 
ATOM     42  F   UNL     1      -6.500  -2.478   7.899  1.00  0.00    -0.203 F 
ATOM     43  C   UNL     1      -8.327  -1.292   8.796  1.00  0.00     0.198 A 
ATOM     44  C   UNL     1      -8.559  -1.059  11.174  1.00  0.00     0.198 A 
ATOM     45  F   UNL     1      -6.944  -1.985  12.608  1.00  0.00    -0.203 F 
ATOM     46  F   UNL     1      -8.759  -1.018   7.557  1.00  0.00    -0.200 F 
ATOM     47  C   UNL     1      -9.027  -0.810   9.894  1.00  0.00     0.200 A 
ATOM     48  F   UNL     1      -9.231  -0.594  12.237  1.00  0.00    -0.200 F 
ATOM     49  F   UNL     1     -10.147  -0.097   9.716  1.00  0.00    -0.200 F 
ENDBRANCH  25  39
BRANCH  26  50
ATOM     50  C   UNL     1       2.052  -7.159  11.996  1.00  0.00     0.064 A 
ATOM     51  C   UNL     1       2.361  -8.424  11.479  1.00  0.00     0.173 A 
ATOM     52  C   UNL     1       2.973  -6.586  12.890  1.00  0.00     0.173 A 
ATOM     53  F   UNL     1       1.512  -9.027  10.634  1.00  0.00    -0.203 F 
ATOM     54  C   UNL     1       3.513  -9.104  11.874  1.00  0.00     0.198 A 
ATOM     55  C   UNL     1       4.144  -7.248  13.252  1.00  0.00     0.198 A 
ATOM     56  F   UNL     1       2.736  -5.378  13.423  1.00  0.00    -0.203 F 
ATOM     57  F   UNL     1       3.742 -10.345  11.422  1.00  0.00    -0.200 F 
ATOM     58  C   UNL     1       4.404  -8.516  12.758  1.00  0.00     0.200 A 
ATOM     59  F   UNL     1       5.008  -6.666  14.094  1.00  0.00    -0.200 F 
ATOM     60  F   UNL     1       5.502  -9.177  13.149  1.00  0.00    -0.200 F 
ENDBRANCH  26  50
BRANCH  38  61
ATOM     61  C   UNL     1      -4.667  -8.547  13.234  1.00  0.00     0.064 A 
ATOM     62  C   UNL     1      -4.574  -8.724  14.622  1.00  0.00     0.173 A 
ATOM     63  C   UNL     1      -5.464  -9.438  12.501  1.00  0.00     0.173 A 
ATOM     64  F   UNL     1      -3.806  -7.905  15.358  1.00  0.00    -0.203 F 
ATOM     65  C   UNL     1      -5.243  -9.767  15.250  1.00  0.00     0.198 A 
ATOM     66  C   UNL     1      -6.163 -10.455  13.138  1.00  0.00     0.198 A 
ATOM     67  F   UNL     1      -5.587  -9.299  11.172  1.00  0.00    -0.203 F 
ATOM     68  F   UNL     1      -5.106  -9.948  16.570  1.00  0.00    -0.200 F 
ATOM     69  C   UNL     1      -6.047 -10.623  14.510  1.00  0.00     0.200 A 
ATOM     70  F   UNL     1      -6.956 -11.267  12.426  1.00  0.00    -0.200 F 
ATOM     71  F   UNL     1      -6.710 -11.614  15.121  1.00  0.00    -0.200 F 
ENDBRANCH  38  61
ENDBRANCH  12  13
ENDBRANCH   5   7
ENDBRANCH   4   5
ENDBRANCH   3   4
ENDBRANCH   2   3
ENDBRANCH   1   2
BRANCH   1  72
ATOM     72  C   UNL     1       4.679   0.624   7.016  1.00  0.00     0.202 C 
BRANCH  72  73
ATOM     73  C   UNL     1       5.870  -0.252   6.630  1.00  0.00     0.261 C 
BRANCH  73  74
ATOM     74  O   UNL     1       6.213   0.018   5.263  1.00  0.00    -0.461 OA
BRANCH  74  75
ATOM     75  C   UNL     1       5.518  -0.665   4.304  1.00  0.00     0.335 C 
ATOM     76  O   UNL     1       4.777  -1.620   4.502  1.00  0.00    -0.249 OA
BRANCH  75  77
ATOM     77  C   UNL     1       5.730  -0.020   2.927  1.00  0.00     0.228 C 
ATOM     78  C   UNL     1       4.867   1.204   2.678  1.00  0.00     0.047 C 
ATOM     79  O   UNL     1       7.078   0.443   2.779  1.00  0.00    -0.361 OA
ATOM     80  C   UNL     1       5.682   2.308   3.312  1.00  0.00     0.037 C 
ATOM     81  C   UNL     1       7.104   1.872   2.988  1.00  0.00     0.139 C 
BRANCH  81  82
ATOM     82  C   UNL     1       7.639   2.501   1.704  1.00  0.00     0.161 C 
BRANCH  82  83
ATOM     83  N   UNL     1       7.753   3.939   1.778  1.00  0.00    -0.270 N 
ATOM     84  C   UNL     1       6.993   4.809   1.052  1.00  0.00     0.263 C 
ATOM     85  C   UNL     1       8.650   4.590   2.587  1.00  0.00     0.280 C 
ATOM     86  O   UNL     1       6.066   4.578   0.295  1.00  0.00    -0.269 OA
ATOM     87  C   UNL     1       7.482   6.143   1.358  1.00  0.00     0.071 A 
ATOM     88  C   UNL     1       8.479   6.019   2.296  1.00  0.00     0.141 A 
ATOM     89  O   UNL     1       9.418   4.101   3.390  1.00  0.00    -0.267 OA
ATOM     90  C   UNL     1       7.143   7.384   0.869  1.00  0.00     0.018 A 
ATOM     91  N   UNL     1       9.193   7.027   2.823  1.00  0.00    -0.250 NA
ATOM     92  C   UNL     1       7.862   8.469   1.375  1.00  0.00     0.021 A 
ATOM     93  C   UNL     1       8.858   8.246   2.337  1.00  0.00     0.112 A 
ENDBRANCH  82  83
ENDBRANCH  81  82
ENDBRANCH  75  77
ENDBRANCH  74  75
ENDBRANCH  73  74
ENDBRANCH  72  73
ENDBRANCH   1  72
TORSDOF 16
