REMARK SMILES Cn1ccc(Nc2nccc(C(=O)OCCOCCOC(=O)c3ccc(-c4c5nc(c(-c6c(F)c(F)c(F)c(F)c6F)c6ccc([nH]6)c(-c6c(F)c(F)c(F)c(F)c6F)c6nc(c(-c7c(F)c(F)c(F)c(F)c7F)c7ccc4[nH]7)C=C6)C=C5)cc3)c2N)n1
REMARK SMILES IDX 17 1 16 2 15 3 14 4 12 5 13 6 11 7 7 8 8 9 86 10 9 11 10 12
REMARK SMILES IDX 6 13 5 15 1 16 2 17 3 18 88 19 4 20 87 21 18 24 19 25 20 26
REMARK SMILES IDX 21 27 22 28 23 29 24 30 85 31 25 32 84 33 26 34 27 35 28 36
REMARK SMILES IDX 78 37 29 38 83 39 77 40 79 41 30 42 82 43 76 44 75 45 31 47
REMARK SMILES IDX 63 48 43 49 62 50 44 51 47 52 61 53 80 54 45 55 46 56 60 58
REMARK SMILES IDX 81 59 48 60 32 61 33 62 41 63 34 64 35 65 39 66 42 67 36 68
REMARK SMILES IDX 37 69 40 70 38 71 64 72 65 73 73 74 66 75 67 76 71 77 74 78
REMARK SMILES IDX 68 79 69 80 72 81 70 82 49 83 50 84 58 85 51 86 52 87 56 88
REMARK SMILES IDX 59 89 53 90 54 91 57 92 55 93
REMARK H PARENT 6 14 87 22 87 23 79 46 47 57
REMARK Flexibility Score: inf
ROOT
ATOM      1  O   UNL     1       0.803   7.703   3.991  1.00  0.00    -0.374 OA
ENDROOT
BRANCH   1   2
ATOM      2  C   UNL     1      -0.167   6.754   4.442  1.00  0.00     0.202 C 
BRANCH   2   3
ATOM      3  C   UNL     1      -1.113   6.233   3.357  1.00  0.00     0.261 C 
BRANCH   3   4
ATOM      4  O   UNL     1      -0.413   5.319   2.495  1.00  0.00    -0.460 OA
BRANCH   4   5
ATOM      5  C   UNL     1      -0.226   5.724   1.215  1.00  0.00     0.340 C 
ATOM      6  O   UNL     1      -0.753   6.692   0.687  1.00  0.00    -0.246 OA
BRANCH   5   7
ATOM      7  C   UNL     1       0.833   4.928   0.537  1.00  0.00     0.088 A 
ATOM      8  C   UNL     1       2.071   2.946  -0.013  1.00  0.00     0.155 A 
ATOM      9  N   UNL     1       2.803   3.608  -0.942  1.00  0.00    -0.237 NA
ATOM     10  C   UNL     1       1.121   3.586   0.825  1.00  0.00     0.090 A 
ATOM     11  C   UNL     1       2.515   4.906  -1.156  1.00  0.00     0.114 A 
ATOM     12  C   UNL     1       1.529   5.590  -0.479  1.00  0.00     0.038 A 
BRANCH   8  13
ATOM     13  N   UNL     1       2.256   1.548  -0.015  1.00  0.00    -0.322 N 
ATOM     14  H   UNL     1       3.185   1.225  -0.050  1.00  0.00     0.170 HD
BRANCH  13  15
ATOM     15  C   UNL     1       1.286   0.605   0.027  1.00  0.00     0.153 A 
ATOM     16  C   UNL     1      -2.043  -0.423   0.008  1.00  0.00     0.173 C 
ATOM     17  N   UNL     1      -0.602  -0.358   0.034  1.00  0.00    -0.274 N 
ATOM     18  C   UNL     1       0.287  -1.374  -0.132  1.00  0.00     0.110 A 
ATOM     19  N   UNL     1      -0.018   0.831   0.205  1.00  0.00    -0.155 NA
ATOM     20  C   UNL     1       1.530  -0.777  -0.155  1.00  0.00     0.068 A 
ENDBRANCH  13  15
ENDBRANCH   8  13
BRANCH  10  21
ATOM     21  N   UNL     1       0.664   2.951   1.995  1.00  0.00    -0.395 N 
ATOM     22  H   UNL     1       0.887   2.006   2.161  1.00  0.00     0.156 HD
ATOM     23  H   UNL     1       0.122   3.451   2.647  1.00  0.00     0.156 HD
ENDBRANCH  10  21
ENDBRANCH   5   7
ENDBRANCH   4   5
ENDBRANCH   3   4
ENDBRANCH   2   3
ENDBRANCH   1   2
BRANCH   1  24
ATOM     24  C   UNL     1       1.964   7.175   3.348  1.00  0.00     0.202 C 
BRANCH  24  25
ATOM     25  C   UNL     1       3.107   6.772   4.283  1.00  0.00     0.261 C 
BRANCH  25  26
ATOM     26  O   UNL     1       2.727   5.676   5.133  1.00  0.00    -0.460 OA
BRANCH  26  27
ATOM     27  C   UNL     1       2.486   6.021   6.415  1.00  0.00     0.338 C 
ATOM     28  O   UNL     1       2.657   7.118   6.932  1.00  0.00    -0.246 OA
BRANCH  27  29
ATOM     29  C   UNL     1       1.831   4.916   7.138  1.00  0.00     0.060 A 
ATOM     30  C   UNL     1       0.750   5.252   7.962  1.00  0.00     0.016 A 
ATOM     31  C   UNL     1       2.312   3.603   7.101  1.00  0.00     0.016 A 
ATOM     32  C   UNL     1       0.205   4.302   8.819  1.00  0.00     0.010 A 
ATOM     33  C   UNL     1       1.763   2.647   7.965  1.00  0.00     0.010 A 
ATOM     34  C   UNL     1       0.745   3.010   8.865  1.00  0.00    -0.014 A 
BRANCH  34  35
ATOM     35  C   UNL     1       0.358   2.126   9.992  1.00  0.00     0.031 A 
ATOM     36  C   UNL     1       1.254   2.054  11.199  1.00  0.00     0.074 A 
ATOM     37  C   UNL     1      -0.816   1.472   9.982  1.00  0.00     0.049 A 
ATOM     38  N   UNL     1       1.071   1.430  12.335  1.00  0.00    -0.248 NA
ATOM     39  C   UNL     1       2.527   2.788  11.115  1.00  0.00     0.031 C 
ATOM     40  C   UNL     1      -1.780   1.484   8.885  1.00  0.00     0.029 A 
ATOM     41  N   UNL     1      -1.401   0.682  10.939  1.00  0.00    -0.354 N 
ATOM     42  C   UNL     1       2.200   1.699  13.099  1.00  0.00     0.074 A 
ATOM     43  C   UNL     1       3.080   2.509  12.285  1.00  0.00     0.031 C 
ATOM     44  C   UNL     1      -2.842   0.738   9.232  1.00  0.00     0.029 A 
ATOM     45  C   UNL     1      -2.627   0.189  10.569  1.00  0.00     0.049 A 
ATOM     46  H   UNL     1      -0.981   0.487  11.808  1.00  0.00     0.167 HD
ATOM     47  C   UNL     1       2.471   1.321  14.371  1.00  0.00     0.037 A 
ATOM     48  C   UNL     1      -3.477  -0.613  11.239  1.00  0.00     0.037 A 
ATOM     49  C   UNL     1       1.597   0.519  15.184  1.00  0.00     0.049 A 
ATOM     50  C   UNL     1      -3.136  -1.049  12.640  1.00  0.00     0.074 A 
ATOM     51  C   UNL     1       1.776   0.092  16.488  1.00  0.00     0.029 A 
ATOM     52  N   UNL     1       0.373   0.017  14.764  1.00  0.00    -0.354 N 
ATOM     53  N   UNL     1      -2.086  -0.757  13.368  1.00  0.00    -0.248 NA
ATOM     54  C   UNL     1      -4.113  -1.913  13.319  1.00  0.00     0.031 C 
ATOM     55  C   UNL     1       0.680  -0.702  16.844  1.00  0.00     0.029 A 
ATOM     56  C   UNL     1      -0.204  -0.730  15.778  1.00  0.00     0.049 A 
ATOM     57  H   UNL     1      -0.025   0.169  13.877  1.00  0.00     0.167 HD
ATOM     58  C   UNL     1      -2.287  -1.375  14.596  1.00  0.00     0.074 A 
ATOM     59  C   UNL     1      -3.568  -2.045  14.520  1.00  0.00     0.031 C 
ATOM     60  C   UNL     1      -1.484  -1.386  15.689  1.00  0.00     0.037 A 
BRANCH  47  61
ATOM     61  C   UNL     1       3.783   1.760  14.954  1.00  0.00     0.064 A 
ATOM     62  C   UNL     1       4.018   3.095  15.314  1.00  0.00     0.173 A 
ATOM     63  C   UNL     1       4.809   0.829  15.174  1.00  0.00     0.173 A 
ATOM     64  F   UNL     1       3.074   4.026  15.109  1.00  0.00    -0.203 F 
ATOM     65  C   UNL     1       5.243   3.487  15.849  1.00  0.00     0.198 A 
ATOM     66  C   UNL     1       6.022   1.220  15.734  1.00  0.00     0.198 A 
ATOM     67  F   UNL     1       4.634  -0.461  14.849  1.00  0.00    -0.203 F 
ATOM     68  F   UNL     1       5.462   4.777  16.143  1.00  0.00    -0.200 F 
ATOM     69  C   UNL     1       6.241   2.549  16.064  1.00  0.00     0.200 A 
ATOM     70  F   UNL     1       6.983   0.310  15.950  1.00  0.00    -0.200 F 
ATOM     71  F   UNL     1       7.418   2.927  16.582  1.00  0.00    -0.200 F 
ENDBRANCH  47  61
BRANCH  48  72
ATOM     72  C   UNL     1      -4.746  -1.044  10.598  1.00  0.00     0.064 A 
ATOM     73  C   UNL     1      -5.985  -0.571  11.052  1.00  0.00     0.173 A 
ATOM     74  C   UNL     1      -4.744  -1.952   9.530  1.00  0.00     0.173 A 
ATOM     75  F   UNL     1      -6.038   0.279  12.087  1.00  0.00    -0.203 F 
ATOM     76  C   UNL     1      -7.176  -1.005  10.472  1.00  0.00     0.198 A 
ATOM     77  C   UNL     1      -5.933  -2.364   8.934  1.00  0.00     0.198 A 
ATOM     78  F   UNL     1      -3.584  -2.434   9.060  1.00  0.00    -0.203 F 
ATOM     79  F   UNL     1      -8.349  -0.572  10.954  1.00  0.00    -0.200 F 
ATOM     80  C   UNL     1      -7.149  -1.897   9.411  1.00  0.00     0.200 A 
ATOM     81  F   UNL     1      -5.902  -3.218   7.901  1.00  0.00    -0.200 F 
ATOM     82  F   UNL     1      -8.294  -2.312   8.852  1.00  0.00    -0.200 F 
ENDBRANCH  48  72
BRANCH  60  83
ATOM     83  C   UNL     1      -1.985  -2.115  16.901  1.00  0.00     0.064 A 
ATOM     84  C   UNL     1      -2.053  -3.516  16.944  1.00  0.00     0.173 A 
ATOM     85  C   UNL     1      -2.384  -1.403  18.043  1.00  0.00     0.173 A 
ATOM     86  F   UNL     1      -1.697  -4.242  15.873  1.00  0.00    -0.203 F 
ATOM     87  C   UNL     1      -2.534  -4.175  18.072  1.00  0.00     0.198 A 
ATOM     88  C   UNL     1      -2.836  -2.067  19.180  1.00  0.00     0.198 A 
ATOM     89  F   UNL     1      -2.330  -0.063  18.058  1.00  0.00    -0.203 F 
ATOM     90  F   UNL     1      -2.643  -5.511  18.070  1.00  0.00    -0.200 F 
ATOM     91  C   UNL     1      -2.921  -3.451  19.190  1.00  0.00     0.200 A 
ATOM     92  F   UNL     1      -3.198  -1.367  20.264  1.00  0.00    -0.200 F 
ATOM     93  F   UNL     1      -3.384  -4.087  20.275  1.00  0.00    -0.200 F 
ENDBRANCH  60  83
ENDBRANCH  34  35
ENDBRANCH  27  29
ENDBRANCH  26  27
ENDBRANCH  25  26
ENDBRANCH  24  25
ENDBRANCH   1  24
TORSDOF 17
