REMARK SMILES C[C@@H]1[C@@H](C(=O)OCCOCCOC(=O)c2ccc(-c3c4nc(c(-c5c(F)c(F)c(F)c(F)c5F)c5ccc([nH]5)c(-c5c(F)c(F)c(F)c(F)c5F)c5nc(c(-c6c(F)c(F)c(F)c(F)c6F)c6ccc3[nH]6)C=C5)C=C4)cc2)CCN1C(=O)C[NH2+]C1CCCC1
REMARK SMILES IDX 8 1 7 2 6 3 4 4 5 5 3 6 1 7 2 8 80 9 78 10 79 11 81 12 82 13
REMARK SMILES IDX 83 14 84 15 85 18 86 19 89 20 87 21 88 22 9 23 10 24 11 25
REMARK SMILES IDX 12 26 13 27 14 28 15 29 16 30 77 31 17 32 76 33 18 34 19 35
REMARK SMILES IDX 20 36 70 37 21 38 75 39 69 40 71 41 22 42 74 43 68 44 67 45
REMARK SMILES IDX 23 47 55 48 35 49 54 50 36 51 39 52 53 53 72 54 37 55 38 56
REMARK SMILES IDX 52 58 73 59 40 60 24 61 25 62 33 63 26 64 27 65 31 66 34 67
REMARK SMILES IDX 28 68 29 69 32 70 30 71 56 72 57 73 65 74 58 75 59 76 63 77
REMARK SMILES IDX 66 78 60 79 61 80 64 81 62 82 41 83 42 84 50 85 43 86 44 87
REMARK SMILES IDX 48 88 51 89 45 90 46 91 49 92 47 93
REMARK H PARENT 84 16 84 17 71 46 39 57
REMARK Flexibility Score: inf
ROOT
ATOM      1  C   UNL     1      -1.479   2.425  -4.505  1.00  0.00     0.202 C 
ENDROOT
BRANCH   1   2
ATOM      2  C   UNL     1      -2.188   1.385  -3.634  1.00  0.00     0.261 C 
BRANCH   2   3
ATOM      3  O   UNL     1      -1.764   1.444  -2.264  1.00  0.00    -0.463 OA
BRANCH   3   4
ATOM      4  C   UNL     1      -0.976   0.399  -1.880  1.00  0.00     0.311 C 
ATOM      5  O   UNL     1      -0.728  -0.571  -2.583  1.00  0.00    -0.252 OA
BRANCH   4   6
ATOM      6  C   UNL     1      -0.419   0.635  -0.481  1.00  0.00     0.123 C 
ATOM      7  C   UNL     1       1.665   0.066   0.889  1.00  0.00     0.032 C 
ATOM      8  C   UNL     1       0.709  -0.370  -0.219  1.00  0.00     0.096 C 
ATOM      9  N   UNL     1      -0.031  -1.575   0.165  1.00  0.00    -0.334 N 
ATOM     10  C   UNL     1      -1.452   0.280   0.583  1.00  0.00     0.039 C 
ATOM     11  C   UNL     1      -1.362  -1.241   0.654  1.00  0.00     0.121 C 
BRANCH   9  12
ATOM     12  C   UNL     1       0.257  -2.880  -0.191  1.00  0.00     0.277 C 
ATOM     13  O   UNL     1      -0.553  -3.789   0.020  1.00  0.00    -0.268 OA
BRANCH  12  14
ATOM     14  C   UNL     1       1.626  -3.205  -0.808  1.00  0.00     0.362 C 
BRANCH  14  15
ATOM     15  N   UNL     1       1.807  -2.568  -2.122  1.00  0.00    -0.336 N 
ATOM     16  H   UNL     1       1.825  -1.556  -1.994  1.00  0.00     0.346 HD
ATOM     17  H   UNL     1       1.030  -2.858  -2.715  1.00  0.00     0.346 HD
BRANCH  15  18
ATOM     18  C   UNL     1       3.038  -2.978  -2.777  1.00  0.00     0.182 C 
ATOM     19  C   UNL     1       2.981  -4.346  -3.451  1.00  0.00     0.065 C 
ATOM     20  C   UNL     1       3.383  -2.067  -3.956  1.00  0.00     0.065 C 
ATOM     21  C   UNL     1       4.200  -4.332  -4.367  1.00  0.00     0.006 C 
ATOM     22  C   UNL     1       4.413  -2.867  -4.753  1.00  0.00     0.006 C 
ENDBRANCH  15  18
ENDBRANCH  14  15
ENDBRANCH  12  14
ENDBRANCH   9  12
ENDBRANCH   4   6
ENDBRANCH   3   4
ENDBRANCH   2   3
ENDBRANCH   1   2
BRANCH   1  23
ATOM     23  O   UNL     1      -0.055   2.386  -4.547  1.00  0.00    -0.374 OA
BRANCH  23  24
ATOM     24  C   UNL     1       0.669   2.898  -3.429  1.00  0.00     0.202 C 
BRANCH  24  25
ATOM     25  C   UNL     1       0.656   4.417  -3.216  1.00  0.00     0.261 C 
BRANCH  25  26
ATOM     26  O   UNL     1      -0.652   4.906  -2.863  1.00  0.00    -0.460 OA
BRANCH  26  27
ATOM     27  C   UNL     1      -1.194   5.765  -3.759  1.00  0.00     0.338 C 
ATOM     28  O   UNL     1      -0.667   6.222  -4.763  1.00  0.00    -0.246 OA
BRANCH  27  29
ATOM     29  C   UNL     1      -2.625   5.963  -3.473  1.00  0.00     0.060 A 
ATOM     30  C   UNL     1      -3.535   5.676  -4.499  1.00  0.00     0.016 A 
ATOM     31  C   UNL     1      -3.063   6.509  -2.265  1.00  0.00     0.016 A 
ATOM     32  C   UNL     1      -4.884   5.982  -4.341  1.00  0.00     0.010 A 
ATOM     33  C   UNL     1      -4.417   6.830  -2.114  1.00  0.00     0.010 A 
ATOM     34  C   UNL     1      -5.324   6.602  -3.165  1.00  0.00    -0.014 A 
BRANCH  34  35
ATOM     35  C   UNL     1      -6.697   7.157  -3.109  1.00  0.00     0.031 A 
ATOM     36  C   UNL     1      -6.904   8.614  -3.414  1.00  0.00     0.074 A 
ATOM     37  C   UNL     1      -7.748   6.367  -2.829  1.00  0.00     0.049 A 
ATOM     38  N   UNL     1      -8.009   9.316  -3.413  1.00  0.00    -0.248 NA
ATOM     39  C   UNL     1      -5.703   9.385  -3.771  1.00  0.00     0.031 C 
ATOM     40  C   UNL     1      -7.677   4.934  -2.558  1.00  0.00     0.029 A 
ATOM     41  N   UNL     1      -9.083   6.667  -2.726  1.00  0.00    -0.354 N 
ATOM     42  C   UNL     1      -7.637  10.606  -3.766  1.00  0.00     0.074 A 
ATOM     43  C   UNL     1      -6.201  10.600  -3.946  1.00  0.00     0.031 C 
ATOM     44  C   UNL     1      -8.917   4.477  -2.307  1.00  0.00     0.029 A 
ATOM     45  C   UNL     1      -9.861   5.592  -2.376  1.00  0.00     0.049 A 
ATOM     46  H   UNL     1      -9.448   7.567  -2.888  1.00  0.00     0.167 HD
ATOM     47  C   UNL     1      -8.423  11.696  -3.933  1.00  0.00     0.037 A 
ATOM     48  C   UNL     1     -11.182   5.523  -2.122  1.00  0.00     0.037 A 
ATOM     49  C   UNL     1      -9.851  11.701  -3.755  1.00  0.00     0.049 A 
ATOM     50  C   UNL     1     -12.025   6.765  -2.249  1.00  0.00     0.074 A 
ATOM     51  C   UNL     1     -10.738  12.751  -3.916  1.00  0.00     0.029 A 
ATOM     52  N   UNL     1     -10.600  10.600  -3.367  1.00  0.00    -0.354 N 
ATOM     53  N   UNL     1     -11.669   7.975  -2.606  1.00  0.00    -0.248 NA
ATOM     54  C   UNL     1     -13.456   6.629  -1.941  1.00  0.00     0.031 C 
ATOM     55  C   UNL     1     -12.019  12.296  -3.583  1.00  0.00     0.029 A 
ATOM     56  C   UNL     1     -11.935  10.951  -3.260  1.00  0.00     0.049 A 
ATOM     57  H   UNL     1     -10.236   9.702  -3.193  1.00  0.00     0.167 HD
ATOM     58  C   UNL     1     -12.831   8.736  -2.592  1.00  0.00     0.074 A 
ATOM     59  C   UNL     1     -13.906   7.849  -2.201  1.00  0.00     0.031 C 
ATOM     60  C   UNL     1     -12.994  10.052  -2.878  1.00  0.00     0.037 A 
BRANCH  47  61
ATOM     61  C   UNL     1      -7.751  12.982  -4.309  1.00  0.00     0.064 A 
ATOM     62  C   UNL     1      -7.234  13.193  -5.596  1.00  0.00     0.173 A 
ATOM     63  C   UNL     1      -7.650  14.028  -3.380  1.00  0.00     0.173 A 
ATOM     64  F   UNL     1      -7.292  12.218  -6.515  1.00  0.00    -0.203 F 
ATOM     65  C   UNL     1      -6.622  14.398  -5.933  1.00  0.00     0.198 A 
ATOM     66  C   UNL     1      -7.060  15.240  -3.728  1.00  0.00     0.198 A 
ATOM     67  F   UNL     1      -8.130  13.877  -2.137  1.00  0.00    -0.203 F 
ATOM     68  F   UNL     1      -6.098  14.563  -7.155  1.00  0.00    -0.200 F 
ATOM     69  C   UNL     1      -6.541  15.422  -5.001  1.00  0.00     0.200 A 
ATOM     70  F   UNL     1      -6.990  16.232  -2.829  1.00  0.00    -0.200 F 
ATOM     71  F   UNL     1      -5.956  16.583  -5.327  1.00  0.00    -0.200 F 
ENDBRANCH  47  61
BRANCH  48  72
ATOM     72  C   UNL     1     -11.792   4.232  -1.712  1.00  0.00     0.064 A 
ATOM     73  C   UNL     1     -12.671   3.545  -2.559  1.00  0.00     0.173 A 
ATOM     74  C   UNL     1     -11.521   3.670  -0.455  1.00  0.00     0.173 A 
ATOM     75  F   UNL     1     -12.981   4.057  -3.759  1.00  0.00    -0.203 F 
ATOM     76  C   UNL     1     -13.269   2.352  -2.159  1.00  0.00     0.198 A 
ATOM     77  C   UNL     1     -12.100   2.464  -0.067  1.00  0.00     0.198 A 
ATOM     78  F   UNL     1     -10.689   4.291   0.394  1.00  0.00    -0.203 F 
ATOM     79  F   UNL     1     -14.140   1.737  -2.971  1.00  0.00    -0.200 F 
ATOM     80  C   UNL     1     -12.979   1.809  -0.916  1.00  0.00     0.200 A 
ATOM     81  F   UNL     1     -11.809   1.939   1.131  1.00  0.00    -0.200 F 
ATOM     82  F   UNL     1     -13.554   0.661  -0.533  1.00  0.00    -0.200 F 
ENDBRANCH  48  72
BRANCH  60  83
ATOM     83  C   UNL     1     -14.387  10.604  -2.812  1.00  0.00     0.064 A 
ATOM     84  C   UNL     1     -15.032  10.828  -1.587  1.00  0.00     0.173 A 
ATOM     85  C   UNL     1     -15.068  10.955  -3.988  1.00  0.00     0.173 A 
ATOM     86  F   UNL     1     -14.428  10.495  -0.436  1.00  0.00    -0.203 F 
ATOM     87  C   UNL     1     -16.317  11.362  -1.543  1.00  0.00     0.198 A 
ATOM     88  C   UNL     1     -16.342  11.514  -3.938  1.00  0.00     0.198 A 
ATOM     89  F   UNL     1     -14.491  10.767  -5.184  1.00  0.00    -0.203 F 
ATOM     90  F   UNL     1     -16.932  11.528  -0.363  1.00  0.00    -0.200 F 
ATOM     91  C   UNL     1     -16.968  11.711  -2.717  1.00  0.00     0.200 A 
ATOM     92  F   UNL     1     -16.964  11.862  -5.074  1.00  0.00    -0.200 F 
ATOM     93  F   UNL     1     -18.202  12.231  -2.672  1.00  0.00    -0.200 F 
ENDBRANCH  60  83
ENDBRANCH  34  35
ENDBRANCH  27  29
ENDBRANCH  26  27
ENDBRANCH  25  26
ENDBRANCH  24  25
ENDBRANCH  23  24
ENDBRANCH   1  23
TORSDOF 18
