REMARK SMILES CC(C)Cc1ccc([C@H](C)C(=O)OCCOCCOC(=O)c2ccc(-c3c4nc(c(-c5c(F)c(F)c(F)c(F)c5F)c5ccc([nH]5)c(-c5c(F)c(F)c(F)c(F)c5F)c5nc(c(-c6c(F)c(F)c(F)c(F)c6F)c6ccc3[nH]6)C=C5)C=C4)cc2)cc1
REMARK SMILES IDX 15 1 14 2 13 3 11 4 12 5 9 6 10 7 8 8 5 9 6 10 86 11 7 12
REMARK SMILES IDX 85 13 4 14 2 15 1 16 3 17 16 18 17 19 18 20 19 21 20 22
REMARK SMILES IDX 21 23 22 24 23 25 84 26 24 27 83 28 25 29 26 30 27 31 77 32
REMARK SMILES IDX 28 33 82 34 76 35 78 36 29 37 81 38 75 39 74 40 30 42 62 43
REMARK SMILES IDX 42 44 61 45 43 46 46 47 60 48 79 49 44 50 45 51 59 53 80 54
REMARK SMILES IDX 47 55 31 56 32 57 40 58 33 59 34 60 38 61 41 62 35 63 36 64
REMARK SMILES IDX 39 65 37 66 63 67 64 68 72 69 65 70 66 71 70 72 73 73 67 74
REMARK SMILES IDX 68 75 71 76 69 77 48 78 49 79 57 80 50 81 51 82 55 83 58 84
REMARK SMILES IDX 52 85 53 86 56 87 54 88
REMARK H PARENT 78 41 46 52
REMARK Flexibility Score: inf
ROOT
ATOM      1  C   UNL     1      -6.606  -2.252   4.888  1.00  0.00     0.202 C 
ENDROOT
BRANCH   1   2
ATOM      2  C   UNL     1      -5.486  -2.671   5.844  1.00  0.00     0.261 C 
BRANCH   2   3
ATOM      3  O   UNL     1      -4.194  -2.324   5.313  1.00  0.00    -0.463 OA
BRANCH   3   4
ATOM      4  C   UNL     1      -3.325  -3.358   5.127  1.00  0.00     0.313 C 
ATOM      5  O   UNL     1      -3.557  -4.525   5.422  1.00  0.00    -0.252 OA
BRANCH   4   6
ATOM      6  C   UNL     1      -1.995  -2.895   4.538  1.00  0.00     0.126 C 
ATOM      7  C   UNL     1      -2.094  -1.712   3.579  1.00  0.00     0.025 C 
BRANCH   6   8
ATOM      8  C   UNL     1      -0.945  -2.666   5.606  1.00  0.00    -0.034 A 
ATOM      9  C   UNL     1       0.987  -2.592   7.641  1.00  0.00    -0.048 A 
ATOM     10  C   UNL     1      -0.313  -2.138   7.887  1.00  0.00     0.004 A 
ATOM     11  C   UNL     1       1.344  -2.973   6.343  1.00  0.00     0.004 A 
ATOM     12  C   UNL     1      -1.268  -2.159   6.872  1.00  0.00     0.005 A 
ATOM     13  C   UNL     1       0.384  -3.019   5.337  1.00  0.00     0.005 A 
BRANCH   9  14
ATOM     14  C   UNL     1       1.947  -2.804   8.785  1.00  0.00     0.038 C 
BRANCH  14  15
ATOM     15  C   UNL     1       1.757  -4.193   9.437  1.00  0.00    -0.013 C 
ATOM     16  C   UNL     1       2.126  -5.344   8.493  1.00  0.00     0.008 C 
ATOM     17  C   UNL     1       2.593  -4.291  10.713  1.00  0.00     0.008 C 
ENDBRANCH  14  15
ENDBRANCH   9  14
ENDBRANCH   6   8
ENDBRANCH   4   6
ENDBRANCH   3   4
ENDBRANCH   2   3
ENDBRANCH   1   2
BRANCH   1  18
ATOM     18  O   UNL     1      -6.721  -3.003   3.681  1.00  0.00    -0.374 OA
BRANCH  18  19
ATOM     19  C   UNL     1      -5.709  -2.835   2.692  1.00  0.00     0.202 C 
BRANCH  19  20
ATOM     20  C   UNL     1      -5.768  -1.546   1.862  1.00  0.00     0.261 C 
BRANCH  20  21
ATOM     21  O   UNL     1      -5.606  -0.356   2.656  1.00  0.00    -0.460 OA
BRANCH  21  22
ATOM     22  C   UNL     1      -6.707   0.429   2.716  1.00  0.00     0.338 C 
ATOM     23  O   UNL     1      -7.772   0.256   2.138  1.00  0.00    -0.246 OA
BRANCH  22  24
ATOM     24  C   UNL     1      -6.542   1.506   3.708  1.00  0.00     0.060 A 
ATOM     25  C   UNL     1      -7.533   1.627   4.690  1.00  0.00     0.016 A 
ATOM     26  C   UNL     1      -5.531   2.464   3.600  1.00  0.00     0.016 A 
ATOM     27  C   UNL     1      -7.555   2.741   5.526  1.00  0.00     0.010 A 
ATOM     28  C   UNL     1      -5.559   3.587   4.438  1.00  0.00     0.010 A 
ATOM     29  C   UNL     1      -6.596   3.752   5.373  1.00  0.00    -0.014 A 
BRANCH  29  30
ATOM     30  C   UNL     1      -6.794   5.037   6.090  1.00  0.00     0.031 A 
ATOM     31  C   UNL     1      -7.443   6.188   5.368  1.00  0.00     0.074 A 
ATOM     32  C   UNL     1      -6.474   5.154   7.391  1.00  0.00     0.049 A 
ATOM     33  N   UNL     1      -7.762   7.377   5.815  1.00  0.00    -0.248 NA
ATOM     34  C   UNL     1      -7.784   5.968   3.953  1.00  0.00     0.031 C 
ATOM     35  C   UNL     1      -5.874   4.103   8.210  1.00  0.00     0.029 A 
ATOM     36  N   UNL     1      -6.622   6.212   8.254  1.00  0.00    -0.354 N 
ATOM     37  C   UNL     1      -8.347   8.040   4.744  1.00  0.00     0.074 A 
ATOM     38  C   UNL     1      -8.307   7.138   3.614  1.00  0.00     0.031 C 
ATOM     39  C   UNL     1      -5.704   4.569   9.460  1.00  0.00     0.029 A 
ATOM     40  C   UNL     1      -6.168   5.954   9.523  1.00  0.00     0.049 A 
ATOM     41  H   UNL     1      -7.016   7.074   7.987  1.00  0.00     0.167 HD
ATOM     42  C   UNL     1      -8.885   9.283   4.709  1.00  0.00     0.037 A 
ATOM     43  C   UNL     1      -6.127   6.749  10.610  1.00  0.00     0.037 A 
ATOM     44  C   UNL     1      -8.925  10.186   5.829  1.00  0.00     0.049 A 
ATOM     45  C   UNL     1      -6.685   8.146  10.527  1.00  0.00     0.074 A 
ATOM     46  C   UNL     1      -9.437  11.471   5.886  1.00  0.00     0.029 A 
ATOM     47  N   UNL     1      -8.432   9.896   7.092  1.00  0.00    -0.354 N 
ATOM     48  N   UNL     1      -7.253   8.755   9.515  1.00  0.00    -0.248 NA
ATOM     49  C   UNL     1      -6.605   8.963  11.747  1.00  0.00     0.031 C 
ATOM     50  C   UNL     1      -9.225  11.972   7.175  1.00  0.00     0.029 A 
ATOM     51  C   UNL     1      -8.620  10.982   7.933  1.00  0.00     0.049 A 
ATOM     52  H   UNL     1      -8.012   9.045   7.353  1.00  0.00     0.167 HD
ATOM     53  C   UNL     1      -7.627  10.008   9.983  1.00  0.00     0.074 A 
ATOM     54  C   UNL     1      -7.234  10.069  11.375  1.00  0.00     0.031 C 
ATOM     55  C   UNL     1      -8.239  11.020   9.320  1.00  0.00     0.037 A 
BRANCH  42  56
ATOM     56  C   UNL     1      -9.471   9.748   3.409  1.00  0.00     0.064 A 
ATOM     57  C   UNL     1     -10.699   9.254   2.943  1.00  0.00     0.173 A 
ATOM     58  C   UNL     1      -8.827  10.734   2.648  1.00  0.00     0.173 A 
ATOM     59  F   UNL     1     -11.346   8.300   3.629  1.00  0.00    -0.203 F 
ATOM     60  C   UNL     1     -11.253   9.720   1.754  1.00  0.00     0.198 A 
ATOM     61  C   UNL     1      -9.396  11.215   1.471  1.00  0.00     0.198 A 
ATOM     62  F   UNL     1      -7.653  11.241   3.052  1.00  0.00    -0.203 F 
ATOM     63  F   UNL     1     -12.411   9.211   1.310  1.00  0.00    -0.200 F 
ATOM     64  C   UNL     1     -10.605  10.705   1.023  1.00  0.00     0.200 A 
ATOM     65  F   UNL     1      -8.774  12.174   0.771  1.00  0.00    -0.200 F 
ATOM     66  F   UNL     1     -11.145  11.161  -0.116  1.00  0.00    -0.200 F 
ENDBRANCH  42  56
BRANCH  43  67
ATOM     67  C   UNL     1      -5.540   6.248  11.880  1.00  0.00     0.064 A 
ATOM     68  C   UNL     1      -6.339   6.025  13.010  1.00  0.00     0.173 A 
ATOM     69  C   UNL     1      -4.161   6.026  12.001  1.00  0.00     0.173 A 
ATOM     70  F   UNL     1      -7.660   6.250  12.950  1.00  0.00    -0.203 F 
ATOM     71  C   UNL     1      -5.777   5.623  14.220  1.00  0.00     0.198 A 
ATOM     72  C   UNL     1      -3.604   5.597  13.203  1.00  0.00     0.198 A 
ATOM     73  F   UNL     1      -3.353   6.228  10.949  1.00  0.00    -0.203 F 
ATOM     74  F   UNL     1      -6.556   5.471  15.300  1.00  0.00    -0.200 F 
ATOM     75  C   UNL     1      -4.411   5.406  14.315  1.00  0.00     0.200 A 
ATOM     76  F   UNL     1      -2.285   5.380  13.288  1.00  0.00    -0.200 F 
ATOM     77  F   UNL     1      -3.870   5.026  15.480  1.00  0.00    -0.200 F 
ENDBRANCH  43  67
BRANCH  55  78
ATOM     78  C   UNL     1      -8.563  12.258  10.104  1.00  0.00     0.064 A 
ATOM     79  C   UNL     1      -7.564  13.153  10.515  1.00  0.00     0.173 A 
ATOM     80  C   UNL     1      -9.893  12.561  10.433  1.00  0.00     0.173 A 
ATOM     81  F   UNL     1      -6.276  12.900  10.237  1.00  0.00    -0.203 F 
ATOM     82  C   UNL     1      -7.882  14.289  11.254  1.00  0.00     0.198 A 
ATOM     83  C   UNL     1     -10.210  13.712  11.148  1.00  0.00     0.198 A 
ATOM     84  F   UNL     1     -10.886  11.741  10.057  1.00  0.00    -0.203 F 
ATOM     85  F   UNL     1      -6.907  15.103  11.681  1.00  0.00    -0.200 F 
ATOM     86  C   UNL     1      -9.204  14.570  11.566  1.00  0.00     0.200 A 
ATOM     87  F   UNL     1     -11.489  13.988  11.439  1.00  0.00    -0.200 F 
ATOM     88  F   UNL     1      -9.508  15.664  12.279  1.00  0.00    -0.200 F 
ENDBRANCH  55  78
ENDBRANCH  29  30
ENDBRANCH  22  24
ENDBRANCH  21  22
ENDBRANCH  20  21
ENDBRANCH  19  20
ENDBRANCH  18  19
ENDBRANCH   1  18
TORSDOF 17
