REMARK SMILES CCc1c([N+](=O)[O-])cc(C(=O)OCCOCCOC(=O)c2ccc(-c3c4nc(c(-c5c(F)c(F)c(F)c(F)c5F)c5ccc([nH]5)c(-c5c(F)c(F)c(F)c(F)c5F)c5nc(c(-c6c(F)c(F)c(F)c(F)c6F)c6ccc3[nH]6)C=C5)C=C4)cc2)n1C
REMARK SMILES IDX 16 1 15 2 14 3 13 4 12 5 10 6 11 7 9 8 3 9 4 10 84 11 8 12
REMARK SMILES IDX 85 13 2 14 1 15 5 16 6 17 7 18 17 19 18 20 19 21 20 22 21 23
REMARK SMILES IDX 22 24 83 25 23 26 82 27 24 28 25 29 26 30 76 31 27 32 81 33
REMARK SMILES IDX 75 34 77 35 28 36 80 37 74 38 73 39 29 41 61 42 41 43 60 44
REMARK SMILES IDX 42 45 45 46 59 47 78 48 43 49 44 50 58 52 79 53 46 54 30 55
REMARK SMILES IDX 31 56 39 57 32 58 33 59 37 60 40 61 34 62 35 63 38 64 36 65
REMARK SMILES IDX 62 66 63 67 71 68 64 69 65 70 69 71 72 72 66 73 67 74 70 75
REMARK SMILES IDX 68 76 47 77 48 78 56 79 49 80 50 81 54 82 57 83 51 84 52 85
REMARK SMILES IDX 55 86 53 87
REMARK H PARENT 77 40 45 51
REMARK Flexibility Score: inf
ROOT
ATOM      1  C   UNL     1       0.762  -1.742   6.723  1.00  0.00     0.202 C 
ENDROOT
BRANCH   1   2
ATOM      2  O   UNL     1       1.834  -1.555   7.651  1.00  0.00    -0.374 OA
BRANCH   2   3
ATOM      3  C   UNL     1       2.664  -0.411   7.437  1.00  0.00     0.202 C 
BRANCH   3   4
ATOM      4  C   UNL     1       3.816  -0.663   6.461  1.00  0.00     0.261 C 
BRANCH   4   5
ATOM      5  O   UNL     1       3.291  -0.763   5.124  1.00  0.00    -0.459 OA
BRANCH   5   6
ATOM      6  C   UNL     1       3.490  -1.949   4.497  1.00  0.00     0.355 C 
ATOM      7  O   UNL     1       4.277  -2.807   4.872  1.00  0.00    -0.244 OA
BRANCH   6   8
ATOM      8  C   UNL     1       2.546  -2.139   3.406  1.00  0.00     0.134 A 
ATOM      9  C   UNL     1       1.175  -1.893   1.596  1.00  0.00     0.096 A 
ATOM     10  C   UNL     1       1.221  -3.252   1.918  1.00  0.00     0.291 A 
ATOM     11  N   UNL     1       1.854  -1.224   2.619  1.00  0.00    -0.336 N 
ATOM     12  C   UNL     1       2.121  -3.394   2.997  1.00  0.00     0.121 A 
ATOM     13  C   UNL     1       1.826   0.212   2.818  1.00  0.00     0.150 C 
BRANCH   9  14
ATOM     14  C   UNL     1       0.478  -1.241   0.422  1.00  0.00     0.058 C 
ATOM     15  C   UNL     1       1.142  -0.012  -0.181  1.00  0.00     0.011 C 
ENDBRANCH   9  14
BRANCH  10  16
ATOM     16  N   UNL     1       0.516  -4.352   1.285  1.00  0.00     0.064 N 
ATOM     17  O   UNL     1      -0.287  -4.089   0.383  1.00  0.00    -0.258 OA
ATOM     18  O   UNL     1       0.747  -5.484   1.732  1.00  0.00    -0.258 OA
ENDBRANCH  10  16
ENDBRANCH   6   8
ENDBRANCH   5   6
ENDBRANCH   4   5
ENDBRANCH   3   4
ENDBRANCH   2   3
ENDBRANCH   1   2
BRANCH   1  19
ATOM     19  C   UNL     1      -0.524  -0.998   7.096  1.00  0.00     0.261 C 
BRANCH  19  20
ATOM     20  O   UNL     1      -0.361   0.420   6.906  1.00  0.00    -0.460 OA
BRANCH  20  21
ATOM     21  C   UNL     1      -0.306   1.148   8.047  1.00  0.00     0.338 C 
ATOM     22  O   UNL     1      -0.493   0.758   9.186  1.00  0.00    -0.246 OA
BRANCH  21  23
ATOM     23  C   UNL     1       0.196   2.504   7.745  1.00  0.00     0.060 A 
ATOM     24  C   UNL     1       1.199   3.017   8.578  1.00  0.00     0.016 A 
ATOM     25  C   UNL     1      -0.325   3.278   6.705  1.00  0.00     0.016 A 
ATOM     26  C   UNL     1       1.652   4.322   8.402  1.00  0.00     0.010 A 
ATOM     27  C   UNL     1       0.126   4.592   6.535  1.00  0.00     0.010 A 
ATOM     28  C   UNL     1       1.093   5.129   7.402  1.00  0.00    -0.014 A 
BRANCH  28  29
ATOM     29  C   UNL     1       1.429   6.572   7.359  1.00  0.00     0.031 A 
ATOM     30  C   UNL     1       0.506   7.557   8.020  1.00  0.00     0.074 A 
ATOM     31  C   UNL     1       2.560   6.998   6.771  1.00  0.00     0.049 A 
ATOM     32  N   UNL     1       0.603   8.859   8.105  1.00  0.00    -0.248 NA
ATOM     33  C   UNL     1      -0.688   6.998   8.674  1.00  0.00     0.031 C 
ATOM     34  C   UNL     1       3.551   6.139   6.126  1.00  0.00     0.029 A 
ATOM     35  N   UNL     1       3.062   8.266   6.620  1.00  0.00    -0.354 N 
ATOM     36  C   UNL     1      -0.510   9.274   8.822  1.00  0.00     0.074 A 
ATOM     37  C   UNL     1      -1.287   8.091   9.123  1.00  0.00     0.031 C 
ATOM     38  C   UNL     1       4.542   6.907   5.640  1.00  0.00     0.029 A 
ATOM     39  C   UNL     1       4.242   8.311   5.920  1.00  0.00     0.049 A 
ATOM     40  H   UNL     1       2.618   9.068   6.979  1.00  0.00     0.167 HD
ATOM     41  C   UNL     1      -0.849  10.528   9.206  1.00  0.00     0.037 A 
ATOM     42  C   UNL     1       4.985   9.367   5.537  1.00  0.00     0.037 A 
ATOM     43  C   UNL     1      -0.079  11.706   8.910  1.00  0.00     0.049 A 
ATOM     44  C   UNL     1       4.549  10.758   5.915  1.00  0.00     0.074 A 
ATOM     45  C   UNL     1      -0.327  13.016   9.280  1.00  0.00     0.029 A 
ATOM     46  N   UNL     1       1.088  11.716   8.161  1.00  0.00    -0.354 N 
ATOM     47  N   UNL     1       3.512  11.137   6.622  1.00  0.00    -0.248 NA
ATOM     48  C   UNL     1       5.389  11.868   5.441  1.00  0.00     0.031 C 
ATOM     49  C   UNL     1       0.668  13.825   8.719  1.00  0.00     0.029 A 
ATOM     50  C   UNL     1       1.557  13.013   8.034  1.00  0.00     0.049 A 
ATOM     51  H   UNL     1       1.520  10.918   7.777  1.00  0.00     0.167 HD
ATOM     52  C   UNL     1       3.586  12.522   6.696  1.00  0.00     0.074 A 
ATOM     53  C   UNL     1       4.776  12.917   5.972  1.00  0.00     0.031 C 
ATOM     54  C   UNL     1       2.744  13.389   7.309  1.00  0.00     0.037 A 
BRANCH  41  55
ATOM     55  C   UNL     1      -2.124  10.691   9.977  1.00  0.00     0.064 A 
ATOM     56  C   UNL     1      -2.224  10.298  11.320  1.00  0.00     0.173 A 
ATOM     57  C   UNL     1      -3.248  11.274   9.376  1.00  0.00     0.173 A 
ATOM     58  F   UNL     1      -1.179   9.721  11.934  1.00  0.00    -0.203 F 
ATOM     59  C   UNL     1      -3.412  10.465  12.027  1.00  0.00     0.198 A 
ATOM     60  C   UNL     1      -4.427  11.460  10.092  1.00  0.00     0.198 A 
ATOM     61  F   UNL     1      -3.201  11.667   8.094  1.00  0.00    -0.203 F 
ATOM     62  F   UNL     1      -3.498  10.046  13.297  1.00  0.00    -0.200 F 
ATOM     63  C   UNL     1      -4.510  11.050  11.415  1.00  0.00     0.200 A 
ATOM     64  F   UNL     1      -5.485  12.033   9.502  1.00  0.00    -0.200 F 
ATOM     65  F   UNL     1      -5.651  11.213  12.097  1.00  0.00    -0.200 F 
ENDBRANCH  41  55
BRANCH  42  66
ATOM     66  C   UNL     1       6.218   9.153   4.738  1.00  0.00     0.064 A 
ATOM     67  C   UNL     1       7.486   9.380   5.290  1.00  0.00     0.173 A 
ATOM     68  C   UNL     1       6.152   8.732   3.402  1.00  0.00     0.173 A 
ATOM     69  F   UNL     1       7.597   9.809   6.556  1.00  0.00    -0.203 F 
ATOM     70  C   UNL     1       8.641   9.207   4.531  1.00  0.00     0.198 A 
ATOM     71  C   UNL     1       7.309   8.536   2.651  1.00  0.00     0.198 A 
ATOM     72  F   UNL     1       4.961   8.504   2.828  1.00  0.00    -0.203 F 
ATOM     73  F   UNL     1       9.840   9.469   5.071  1.00  0.00    -0.200 F 
ATOM     74  C   UNL     1       8.552   8.780   3.215  1.00  0.00     0.200 A 
ATOM     75  F   UNL     1       7.218   8.115   1.383  1.00  0.00    -0.200 F 
ATOM     76  F   UNL     1       9.664   8.611   2.486  1.00  0.00    -0.200 F 
ENDBRANCH  42  66
BRANCH  54  77
ATOM     77  C   UNL     1       3.087  14.848   7.242  1.00  0.00     0.064 A 
ATOM     78  C   UNL     1       2.910  15.587   6.063  1.00  0.00     0.173 A 
ATOM     79  C   UNL     1       3.555  15.523   8.379  1.00  0.00     0.173 A 
ATOM     80  F   UNL     1       2.479  14.982   4.946  1.00  0.00    -0.203 F 
ATOM     81  C   UNL     1       3.208  16.946   6.021  1.00  0.00     0.198 A 
ATOM     82  C   UNL     1       3.829  16.887   8.339  1.00  0.00     0.198 A 
ATOM     83  F   UNL     1       3.736  14.861   9.531  1.00  0.00    -0.203 F 
ATOM     84  F   UNL     1       3.068  17.625   4.873  1.00  0.00    -0.200 F 
ATOM     85  C   UNL     1       3.660  17.596   7.159  1.00  0.00     0.200 A 
ATOM     86  F   UNL     1       4.256  17.516   9.443  1.00  0.00    -0.200 F 
ATOM     87  F   UNL     1       3.940  18.906   7.118  1.00  0.00    -0.200 F 
ENDBRANCH  54  77
ENDBRANCH  28  29
ENDBRANCH  21  23
ENDBRANCH  20  21
ENDBRANCH  19  20
ENDBRANCH   1  19
TORSDOF 16
