REMARK SMILES CC(C)(Cn1ccc(=O)nc1SCC(=O)OCCOCCOC(=O)c1ccc(-c2c3nc(c(-c4c(F)c(F)c(F)c(F)c4F)c4ccc([nH]4)c(-c4c(F)c(F)c(F)c(F)c4F)c4nc(c(-c5c(F)c(F)c(F)c(F)c5F)c5ccc2[nH]5)C=C4)C=C3)cc1)S(C)(=O)=O
REMARK SMILES IDX 17 1 16 2 14 3 15 4 13 5 12 6 11 7 5 8 6 9 7 10 10 11 8 12
REMARK SMILES IDX 9 13 4 14 2 15 1 16 3 17 88 18 89 19 90 20 91 21 18 22 19 23
REMARK SMILES IDX 20 24 21 25 22 26 23 27 24 28 25 29 26 30 87 31 27 32 86 33
REMARK SMILES IDX 28 34 29 35 30 36 80 37 31 38 85 39 79 40 81 41 32 42 84 43
REMARK SMILES IDX 78 44 77 45 33 47 65 48 45 49 64 50 46 51 49 52 63 53 82 54
REMARK SMILES IDX 47 55 48 56 62 58 83 59 50 60 34 61 35 62 43 63 36 64 37 65
REMARK SMILES IDX 41 66 44 67 38 68 39 69 42 70 40 71 66 72 67 73 75 74 68 75
REMARK SMILES IDX 69 76 73 77 76 78 70 79 71 80 74 81 72 82 51 83 52 84 60 85
REMARK SMILES IDX 53 86 54 87 58 88 61 89 55 90 56 91 59 92 57 93
REMARK H PARENT 81 46 49 57
REMARK Flexibility Score: inf
ROOT
ATOM      1  C   UNL     1      -3.878   0.256   3.466  1.00  0.00     0.261 C 
ENDROOT
BRANCH   1   2
ATOM      2  O   UNL     1      -3.174   0.784   2.317  1.00  0.00    -0.463 OA
BRANCH   2   3
ATOM      3  C   UNL     1      -1.818   0.780   2.406  1.00  0.00     0.316 C 
ATOM      4  O   UNL     1      -1.190   0.237   3.313  1.00  0.00    -0.251 OA
BRANCH   3   5
ATOM      5  C   UNL     1      -1.083   1.547   1.335  1.00  0.00     0.200 C 
BRANCH   5   6
ATOM      6  S   UNL     1      -1.820   1.690  -0.266  1.00  0.00    -0.076 SA
BRANCH   6   7
ATOM      7  C   UNL     1      -1.645   0.326  -1.359  1.00  0.00     0.172 A 
ATOM      8  N   UNL     1      -1.086  -0.950  -1.147  1.00  0.00    -0.326 N 
ATOM      9  C   UNL     1      -1.493  -1.927  -2.060  1.00  0.00     0.094 A 
ATOM     10  C   UNL     1      -2.167  -1.662  -3.178  1.00  0.00     0.091 A 
ATOM     11  N   UNL     1      -2.247   0.650  -2.468  1.00  0.00    -0.185 NA
ATOM     12  C   UNL     1      -2.400  -0.243  -3.490  1.00  0.00     0.273 A 
ATOM     13  O   UNL     1      -2.784   0.058  -4.614  1.00  0.00    -0.267 OA
BRANCH   8  14
ATOM     14  C   UNL     1      -0.379  -1.420   0.053  1.00  0.00     0.146 C 
BRANCH  14  15
ATOM     15  C   UNL     1       1.162  -1.431   0.026  1.00  0.00     0.084 C 
ATOM     16  C   UNL     1       1.800  -0.157  -0.533  1.00  0.00     0.030 C 
ATOM     17  C   UNL     1       1.607  -1.591   1.508  1.00  0.00     0.030 C 
BRANCH  15  18
ATOM     18  S   UNL     1       1.810  -2.907  -0.849  1.00  0.00     0.154 S 
ATOM     19  C   UNL     1       1.604  -2.670  -2.602  1.00  0.00     0.158 C 
ATOM     20  O   UNL     1       3.242  -2.950  -0.617  1.00  0.00    -0.229 OA
ATOM     21  O   UNL     1       0.985  -4.043  -0.476  1.00  0.00    -0.229 OA
ENDBRANCH  15  18
ENDBRANCH  14  15
ENDBRANCH   8  14
ENDBRANCH   6   7
ENDBRANCH   5   6
ENDBRANCH   3   5
ENDBRANCH   2   3
ENDBRANCH   1   2
BRANCH   1  22
ATOM     22  C   UNL     1      -4.863  -0.877   3.148  1.00  0.00     0.202 C 
BRANCH  22  23
ATOM     23  O   UNL     1      -4.338  -2.144   2.759  1.00  0.00    -0.374 OA
BRANCH  23  24
ATOM     24  C   UNL     1      -3.479  -2.179   1.633  1.00  0.00     0.202 C 
BRANCH  24  25
ATOM     25  C   UNL     1      -4.095  -1.901   0.262  1.00  0.00     0.261 C 
BRANCH  25  26
ATOM     26  O   UNL     1      -4.983  -0.795   0.226  1.00  0.00    -0.460 OA
BRANCH  26  27
ATOM     27  C   UNL     1      -6.242  -1.105  -0.151  1.00  0.00     0.338 C 
ATOM     28  O   UNL     1      -6.685  -2.179  -0.518  1.00  0.00    -0.246 OA
BRANCH  27  29
ATOM     29  C   UNL     1      -7.059   0.069   0.145  1.00  0.00     0.060 A 
ATOM     30  C   UNL     1      -6.902   1.244  -0.591  1.00  0.00     0.016 A 
ATOM     31  C   UNL     1      -7.954  -0.018   1.215  1.00  0.00     0.016 A 
ATOM     32  C   UNL     1      -7.678   2.349  -0.258  1.00  0.00     0.010 A 
ATOM     33  C   UNL     1      -8.721   1.087   1.549  1.00  0.00     0.010 A 
ATOM     34  C   UNL     1      -8.603   2.265   0.798  1.00  0.00    -0.014 A 
BRANCH  34  35
ATOM     35  C   UNL     1      -9.580   3.346   1.022  1.00  0.00     0.031 A 
ATOM     36  C   UNL     1      -9.465   4.263   2.196  1.00  0.00     0.074 A 
ATOM     37  C   UNL     1     -10.615   3.423   0.166  1.00  0.00     0.049 A 
ATOM     38  N   UNL     1     -10.261   5.235   2.556  1.00  0.00    -0.248 NA
ATOM     39  C   UNL     1      -8.317   4.057   3.092  1.00  0.00     0.031 C 
ATOM     40  C   UNL     1     -10.817   2.535  -0.983  1.00  0.00     0.029 A 
ATOM     41  N   UNL     1     -11.689   4.270   0.126  1.00  0.00    -0.354 N 
ATOM     42  C   UNL     1      -9.704   5.772   3.707  1.00  0.00     0.074 A 
ATOM     43  C   UNL     1      -8.529   4.985   4.018  1.00  0.00     0.031 C 
ATOM     44  C   UNL     1     -11.932   2.902  -1.630  1.00  0.00     0.029 A 
ATOM     45  C   UNL     1     -12.541   4.020  -0.920  1.00  0.00     0.049 A 
ATOM     46  H   UNL     1     -11.835   4.988   0.783  1.00  0.00     0.167 HD
ATOM     47  C   UNL     1     -10.134   6.842   4.416  1.00  0.00     0.037 A 
ATOM     48  C   UNL     1     -13.692   4.627  -1.261  1.00  0.00     0.037 A 
ATOM     49  C   UNL     1     -11.318   7.596   4.089  1.00  0.00     0.049 A 
ATOM     50  C   UNL     1     -14.168   5.777  -0.419  1.00  0.00     0.074 A 
ATOM     51  C   UNL     1     -11.836   8.708   4.729  1.00  0.00     0.029 A 
ATOM     52  N   UNL     1     -12.171   7.310   3.031  1.00  0.00    -0.354 N 
ATOM     53  N   UNL     1     -13.603   6.319   0.632  1.00  0.00    -0.248 NA
ATOM     54  C   UNL     1     -15.437   6.401  -0.810  1.00  0.00     0.031 C 
ATOM     55  C   UNL     1     -13.027   9.063   4.091  1.00  0.00     0.029 A 
ATOM     56  C   UNL     1     -13.223   8.211   3.016  1.00  0.00     0.049 A 
ATOM     57  H   UNL     1     -12.046   6.576   2.387  1.00  0.00     0.167 HD
ATOM     58  C   UNL     1     -14.430   7.365   1.012  1.00  0.00     0.074 A 
ATOM     59  C   UNL     1     -15.527   7.392   0.065  1.00  0.00     0.031 C 
ATOM     60  C   UNL     1     -14.297   8.222   2.054  1.00  0.00     0.037 A 
BRANCH  47  61
ATOM     61  C   UNL     1      -9.322   7.283   5.598  1.00  0.00     0.064 A 
ATOM     62  C   UNL     1      -8.071   7.897   5.432  1.00  0.00     0.173 A 
ATOM     63  C   UNL     1      -9.838   7.191   6.900  1.00  0.00     0.173 A 
ATOM     64  F   UNL     1      -7.528   8.002   4.210  1.00  0.00    -0.203 F 
ATOM     65  C   UNL     1      -7.366   8.398   6.524  1.00  0.00     0.198 A 
ATOM     66  C   UNL     1      -9.142   7.717   7.987  1.00  0.00     0.198 A 
ATOM     67  F   UNL     1     -11.031   6.617   7.116  1.00  0.00    -0.203 F 
ATOM     68  F   UNL     1      -6.163   8.959   6.341  1.00  0.00    -0.200 F 
ATOM     69  C   UNL     1      -7.908   8.319   7.798  1.00  0.00     0.200 A 
ATOM     70  F   UNL     1      -9.674   7.653   9.216  1.00  0.00    -0.200 F 
ATOM     71  F   UNL     1      -7.239   8.824   8.844  1.00  0.00    -0.200 F 
ENDBRANCH  47  61
BRANCH  48  72
ATOM     72  C   UNL     1     -14.434   4.184  -2.468  1.00  0.00     0.064 A 
ATOM     73  C   UNL     1     -14.532   5.015  -3.592  1.00  0.00     0.173 A 
ATOM     74  C   UNL     1     -15.039   2.920  -2.538  1.00  0.00     0.173 A 
ATOM     75  F   UNL     1     -13.980   6.237  -3.570  1.00  0.00    -0.203 F 
ATOM     76  C   UNL     1     -15.225   4.609  -4.730  1.00  0.00     0.198 A 
ATOM     77  C   UNL     1     -15.704   2.502  -3.689  1.00  0.00     0.198 A 
ATOM     78  F   UNL     1     -14.966   2.080  -1.494  1.00  0.00    -0.203 F 
ATOM     79  F   UNL     1     -15.341   5.443  -5.773  1.00  0.00    -0.200 F 
ATOM     80  C   UNL     1     -15.804   3.351  -4.780  1.00  0.00     0.200 A 
ATOM     81  F   UNL     1     -16.244   1.277  -3.741  1.00  0.00    -0.200 F 
ATOM     82  F   UNL     1     -16.464   2.958  -5.879  1.00  0.00    -0.200 F 
ENDBRANCH  48  72
BRANCH  60  83
ATOM     83  C   UNL     1     -15.351   9.279   2.212  1.00  0.00     0.064 A 
ATOM     84  C   UNL     1     -16.647   8.962   2.642  1.00  0.00     0.173 A 
ATOM     85  C   UNL     1     -15.037  10.631   2.004  1.00  0.00     0.173 A 
ATOM     86  F   UNL     1     -17.000   7.683   2.841  1.00  0.00    -0.203 F 
ATOM     87  C   UNL     1     -17.597   9.960   2.842  1.00  0.00     0.198 A 
ATOM     88  C   UNL     1     -15.979  11.628   2.239  1.00  0.00     0.198 A 
ATOM     89  F   UNL     1     -13.808  10.986   1.601  1.00  0.00    -0.203 F 
ATOM     90  F   UNL     1     -18.841   9.631   3.215  1.00  0.00    -0.200 F 
ATOM     91  C   UNL     1     -17.259  11.291   2.653  1.00  0.00     0.200 A 
ATOM     92  F   UNL     1     -15.644  12.915   2.075  1.00  0.00    -0.200 F 
ATOM     93  F   UNL     1     -18.168  12.252   2.868  1.00  0.00    -0.200 F 
ENDBRANCH  60  83
ENDBRANCH  34  35
ENDBRANCH  27  29
ENDBRANCH  26  27
ENDBRANCH  25  26
ENDBRANCH  24  25
ENDBRANCH  23  24
ENDBRANCH  22  23
ENDBRANCH   1  22
TORSDOF 19
