REMARK SMILES CCOc1cc(/C=C2/C(=O)N(c3cccc(C(=O)OCCOCCOC(=O)c4ccc(-c5c6nc(c(-c7c(F)c(F)c(F)c(F)c7F)c7ccc([nH]7)c(-c7c(F)c(F)c(F)c(F)c7F)c7nc(c(-c8c(F)c(F)c(F)c(F)c8F)c8ccc5[nH]8)C=C7)C=C6)cc4)c3)N=C2C)cc(Cl)c1OC
REMARK SMILES IDX 21 1 20 2 19 3 17 4 18 5 16 6 12 7 13 8 91 9 14 10 15 11
REMARK SMILES IDX 11 12 7 13 8 14 9 15 93 16 10 17 92 18 94 19 6 20 4 21 5 22
REMARK SMILES IDX 98 23 96 24 95 25 97 26 3 27 2 28 1 29 99 30 100 31 22 32
REMARK SMILES IDX 23 33 24 34 25 35 26 36 27 37 28 38 29 39 90 40 30 41 89 42
REMARK SMILES IDX 31 43 32 44 33 45 83 46 34 47 88 48 82 49 84 50 35 51 87 52
REMARK SMILES IDX 81 53 80 54 36 56 68 57 48 58 67 59 49 60 52 61 66 62 85 63
REMARK SMILES IDX 50 64 51 65 65 67 86 68 53 69 37 70 38 71 46 72 39 73 40 74
REMARK SMILES IDX 44 75 47 76 41 77 42 78 45 79 43 80 69 81 70 82 78 83 71 84
REMARK SMILES IDX 72 85 76 86 79 87 73 88 74 89 77 90 75 91 54 92 55 93 63 94
REMARK SMILES IDX 56 95 57 96 61 97 64 98 58 99 59 100 62 101 60 102
REMARK H PARENT 84 55 52 66
REMARK Flexibility Score: inf
ROOT
ATOM      1  C   UNL     1      14.546   1.480   3.307  1.00  0.00     0.202 C 
ENDROOT
BRANCH   1   2
ATOM      2  C   UNL     1      13.307   2.150   3.913  1.00  0.00     0.261 C 
BRANCH   2   3
ATOM      3  O   UNL     1      12.214   2.201   2.983  1.00  0.00    -0.460 OA
BRANCH   3   4
ATOM      4  C   UNL     1      11.907   3.440   2.517  1.00  0.00     0.338 C 
ATOM      5  O   UNL     1      12.371   4.502   2.890  1.00  0.00    -0.246 OA
BRANCH   4   6
ATOM      6  C   UNL     1      11.062   3.303   1.309  1.00  0.00     0.062 A 
ATOM      7  C   UNL     1       9.343   2.170   0.030  1.00  0.00     0.070 A 
ATOM      8  C   UNL     1       9.687   2.947  -1.086  1.00  0.00     0.028 A 
ATOM      9  C   UNL     1      10.047   2.348   1.228  1.00  0.00     0.044 A 
ATOM     10  C   UNL     1      10.676   3.929  -0.993  1.00  0.00     0.003 A 
ATOM     11  C   UNL     1      11.360   4.112   0.206  1.00  0.00     0.016 A 
BRANCH   7  12
ATOM     12  N   UNL     1       8.304   1.223  -0.057  1.00  0.00    -0.196 N 
ATOM     13  C   UNL     1       5.742  -0.913   1.065  1.00  0.00     0.024 C 
ATOM     14  C   UNL     1       6.660  -0.254   0.349  1.00  0.00     0.065 C 
ATOM     15  C   UNL     1       7.542   0.733   1.006  1.00  0.00     0.280 C 
ATOM     16  C   UNL     1       7.064  -0.222  -1.070  1.00  0.00     0.071 C 
ATOM     17  O   UNL     1       7.534   1.016   2.194  1.00  0.00    -0.267 OA
ATOM     18  N   UNL     1       8.000   0.665  -1.292  1.00  0.00    -0.169 NA
ATOM     19  C   UNL     1       6.517  -1.102  -2.144  1.00  0.00     0.069 C 
BRANCH  13  20
ATOM     20  C   UNL     1       4.820  -1.917   0.555  1.00  0.00    -0.019 A 
ATOM     21  C   UNL     1       2.573  -2.596   0.001  1.00  0.00     0.163 A 
ATOM     22  C   UNL     1       3.457  -1.654   0.532  1.00  0.00     0.058 A 
ATOM     23  C   UNL     1       3.024  -3.851  -0.473  1.00  0.00     0.179 A 
ATOM     24  C   UNL     1       4.402  -4.119  -0.397  1.00  0.00     0.087 A 
ATOM     25  C   UNL     1       5.281  -3.159   0.128  1.00  0.00     0.032 A 
ATOM     26  Cl  UNL     1       5.192  -5.564  -0.929  1.00  0.00    -0.080 Cl
BRANCH  21  27
ATOM     27  O   UNL     1       1.223  -2.340   0.080  1.00  0.00    -0.490 OA
BRANCH  27  28
ATOM     28  C   UNL     1       0.769  -1.327  -0.827  1.00  0.00     0.226 C 
ATOM     29  C   UNL     1       0.754   0.052  -0.180  1.00  0.00     0.049 C 
ENDBRANCH  27  28
ENDBRANCH  21  27
BRANCH  23  30
ATOM     30  O   UNL     1       2.017  -4.635  -0.970  1.00  0.00    -0.491 OA
ATOM     31  C   UNL     1       2.255  -5.991  -1.304  1.00  0.00     0.278 C 
ENDBRANCH  23  30
ENDBRANCH  13  20
ENDBRANCH   7  12
ENDBRANCH   4   6
ENDBRANCH   3   4
ENDBRANCH   2   3
ENDBRANCH   1   2
BRANCH   1  32
ATOM     32  O   UNL     1      15.132   2.090   2.159  1.00  0.00    -0.374 OA
BRANCH  32  33
ATOM     33  C   UNL     1      14.492   1.883   0.901  1.00  0.00     0.202 C 
BRANCH  33  34
ATOM     34  C   UNL     1      14.694   0.527   0.213  1.00  0.00     0.261 C 
BRANCH  34  35
ATOM     35  O   UNL     1      14.168  -0.572   0.976  1.00  0.00    -0.460 OA
BRANCH  35  36
ATOM     36  C   UNL     1      15.109  -1.347   1.568  1.00  0.00     0.338 C 
ATOM     37  O   UNL     1      16.321  -1.247   1.476  1.00  0.00    -0.246 OA
BRANCH  36  38
ATOM     38  C   UNL     1      14.466  -2.272   2.518  1.00  0.00     0.060 A 
ATOM     39  C   UNL     1      14.907  -2.250   3.847  1.00  0.00     0.016 A 
ATOM     40  C   UNL     1      13.508  -3.197   2.101  1.00  0.00     0.016 A 
ATOM     41  C   UNL     1      14.424  -3.187   4.757  1.00  0.00     0.010 A 
ATOM     42  C   UNL     1      13.028  -4.141   3.014  1.00  0.00     0.010 A 
ATOM     43  C   UNL     1      13.509  -4.162   4.337  1.00  0.00    -0.014 A 
BRANCH  43  44
ATOM     44  C   UNL     1      13.153  -5.278   5.247  1.00  0.00     0.031 A 
ATOM     45  C   UNL     1      13.768  -6.632   5.023  1.00  0.00     0.074 A 
ATOM     46  C   UNL     1      12.309  -5.081   6.275  1.00  0.00     0.049 A 
ATOM     47  N   UNL     1      13.561  -7.756   5.661  1.00  0.00    -0.248 NA
ATOM     48  C   UNL     1      14.746  -6.733   3.929  1.00  0.00     0.031 C 
ATOM     49  C   UNL     1      11.684  -3.806   6.619  1.00  0.00     0.029 A 
ATOM     50  N   UNL     1      11.830  -5.958   7.215  1.00  0.00    -0.354 N 
ATOM     51  C   UNL     1      14.376  -8.696   5.044  1.00  0.00     0.074 A 
ATOM     52  C   UNL     1      15.050  -8.022   3.956  1.00  0.00     0.031 C 
ATOM     53  C   UNL     1      10.898  -3.984   7.694  1.00  0.00     0.029 A 
ATOM     54  C   UNL     1      10.935  -5.391   8.088  1.00  0.00     0.049 A 
ATOM     55  H   UNL     1      12.102  -6.903   7.260  1.00  0.00     0.167 HD
ATOM     56  C   UNL     1      14.553 -10.001   5.365  1.00  0.00     0.037 A 
ATOM     57  C   UNL     1      10.211  -5.951   9.076  1.00  0.00     0.037 A 
ATOM     58  C   UNL     1      13.877 -10.667   6.447  1.00  0.00     0.049 A 
ATOM     59  C   UNL     1      10.362  -7.424   9.358  1.00  0.00     0.074 A 
ATOM     60  C   UNL     1      13.996 -11.983   6.860  1.00  0.00     0.029 A 
ATOM     61  N   UNL     1      12.946 -10.069   7.286  1.00  0.00    -0.354 N 
ATOM     62  N   UNL     1      11.147  -8.303   8.783  1.00  0.00    -0.248 NA
ATOM     63  C   UNL     1       9.527  -7.982  10.431  1.00  0.00     0.031 C 
ATOM     64  C   UNL     1      13.093 -12.197   7.906  1.00  0.00     0.029 A 
ATOM     65  C   UNL     1      12.462 -10.998   8.194  1.00  0.00     0.049 A 
ATOM     66  H   UNL     1      12.671  -9.125   7.242  1.00  0.00     0.167 HD
ATOM     67  C   UNL     1      10.927  -9.505   9.444  1.00  0.00     0.074 A 
ATOM     68  C   UNL     1       9.944  -9.239  10.474  1.00  0.00     0.031 C 
ATOM     69  C   UNL     1      11.490 -10.719   9.221  1.00  0.00     0.037 A 
BRANCH  56  70
ATOM     70  C   UNL     1      15.500 -10.803   4.517  1.00  0.00     0.064 A 
ATOM     71  C   UNL     1      16.886 -10.579   4.542  1.00  0.00     0.173 A 
ATOM     72  C   UNL     1      15.019 -11.834   3.696  1.00  0.00     0.173 A 
ATOM     73  F   UNL     1      17.398  -9.598   5.299  1.00  0.00    -0.203 F 
ATOM     74  C   UNL     1      17.749 -11.339   3.755  1.00  0.00     0.198 A 
ATOM     75  C   UNL     1      15.888 -12.614   2.938  1.00  0.00     0.198 A 
ATOM     76  F   UNL     1      13.704 -12.095   3.638  1.00  0.00    -0.203 F 
ATOM     77  F   UNL     1      19.062 -11.073   3.756  1.00  0.00    -0.200 F 
ATOM     78  C   UNL     1      17.251 -12.360   2.961  1.00  0.00     0.200 A 
ATOM     79  F   UNL     1      15.406 -13.611   2.183  1.00  0.00    -0.200 F 
ATOM     80  F   UNL     1      18.083 -13.096   2.212  1.00  0.00    -0.200 F 
ENDBRANCH  56  70
BRANCH  57  81
ATOM     81  C   UNL     1       9.271  -5.119   9.873  1.00  0.00     0.064 A 
ATOM     82  C   UNL     1       9.498  -4.875  11.235  1.00  0.00     0.173 A 
ATOM     83  C   UNL     1       8.118  -4.566   9.296  1.00  0.00     0.173 A 
ATOM     84  F   UNL     1      10.572  -5.402  11.839  1.00  0.00    -0.203 F 
ATOM     85  C   UNL     1       8.597  -4.129  11.992  1.00  0.00     0.198 A 
ATOM     86  C   UNL     1       7.235  -3.793  10.046  1.00  0.00     0.198 A 
ATOM     87  F   UNL     1       7.852  -4.771   7.997  1.00  0.00    -0.203 F 
ATOM     88  F   UNL     1       8.812  -3.956  13.304  1.00  0.00    -0.200 F 
ATOM     89  C   UNL     1       7.471  -3.583  11.396  1.00  0.00     0.200 A 
ATOM     90  F   UNL     1       6.155  -3.256   9.463  1.00  0.00    -0.200 F 
ATOM     91  F   UNL     1       6.607  -2.863  12.125  1.00  0.00    -0.200 F 
ENDBRANCH  57  81
BRANCH  69  92
ATOM     92  C   UNL     1      11.095 -11.845  10.136  1.00  0.00     0.064 A 
ATOM     93  C   UNL     1       9.813 -12.414  10.104  1.00  0.00     0.173 A 
ATOM     94  C   UNL     1      12.029 -12.388  11.033  1.00  0.00     0.173 A 
ATOM     95  F   UNL     1       8.878 -11.925   9.274  1.00  0.00    -0.203 F 
ATOM     96  C   UNL     1       9.472 -13.461  10.956  1.00  0.00     0.198 A 
ATOM     97  C   UNL     1      11.695 -13.460  11.857  1.00  0.00     0.198 A 
ATOM     98  F   UNL     1      13.272 -11.890  11.101  1.00  0.00    -0.203 F 
ATOM     99  F   UNL     1       8.224 -13.951  10.946  1.00  0.00    -0.200 F 
ATOM    100  C   UNL     1      10.414 -13.989  11.825  1.00  0.00     0.200 A 
ATOM    101  F   UNL     1      12.614 -13.979  12.684  1.00  0.00    -0.200 F 
ATOM    102  F   UNL     1      10.086 -15.002  12.638  1.00  0.00    -0.200 F 
ENDBRANCH  69  92
ENDBRANCH  43  44
ENDBRANCH  36  38
ENDBRANCH  35  36
ENDBRANCH  34  35
ENDBRANCH  33  34
ENDBRANCH  32  33
ENDBRANCH   1  32
TORSDOF 19
