REMARK SMILES CCOC(=O)c1ccc(NC(=O)[C@@H]2[C@H]3c4ccccc4[C@H](c4ccccc43)[C@@H]2C(=O)OCCOCCOC(=O)c2ccc(-c3c4nc(c(-c5c(F)c(F)c(F)c(F)c5F)c5ccc([nH]5)c(-c5c(F)c(F)c(F)c(F)c5F)c5nc(c(-c6c(F)c(F)c(F)c(F)c6F)c6ccc3[nH]6)C=C5)C=C4)cc2)cc1
REMARK SMILES IDX 32 1 31 2 29 3 30 4 28 5 13 6 14 7 27 8 15 9 21 10 26 11
REMARK SMILES IDX 22 12 20 13 16 14 25 15 23 16 19 17 17 18 24 19 18 20 11 21
REMARK SMILES IDX 10 22 12 24 9 25 6 26 7 27 104 28 8 29 103 30 4 31 5 32 3 33
REMARK SMILES IDX 2 34 1 35 33 36 34 37 35 38 36 39 37 40 38 41 39 42 40 43
REMARK SMILES IDX 41 44 102 45 42 46 101 47 43 48 44 49 45 50 95 51 46 52
REMARK SMILES IDX 100 53 94 54 96 55 47 56 99 57 93 58 92 59 48 61 80 62 60 63
REMARK SMILES IDX 79 64 61 65 64 66 78 67 97 68 62 69 63 70 77 72 98 73 65 74
REMARK SMILES IDX 49 75 50 76 58 77 51 78 52 79 56 80 59 81 53 82 54 83 57 84
REMARK SMILES IDX 55 85 81 86 82 87 90 88 83 89 84 90 88 91 91 92 85 93 86 94
REMARK SMILES IDX 89 95 87 96 66 97 67 98 75 99 68 100 69 101 73 102 76 103
REMARK SMILES IDX 70 104 71 105 74 106 72 107
REMARK H PARENT 10 23 96 60 64 71
REMARK Flexibility Score: inf
ROOT
ATOM      1  C   UNL     1       0.797   2.588  -4.850  1.00  0.00     0.261 C 
ENDROOT
BRANCH   1   2
ATOM      2  O   UNL     1       1.425   2.709  -6.154  1.00  0.00    -0.463 OA
BRANCH   2   3
ATOM      3  C   UNL     1       2.759   2.816  -5.981  1.00  0.00     0.310 C 
ATOM      4  O   UNL     1       3.207   2.988  -4.865  1.00  0.00    -0.252 OA
BRANCH   3   5
ATOM      5  C   UNL     1       3.617   2.171  -6.997  1.00  0.00     0.124 C 
ATOM      6  C   UNL     1       5.065   1.806  -6.615  1.00  0.00     0.106 C 
ATOM      7  C   UNL     1       5.315   0.516  -7.603  1.00  0.00     0.063 C 
ATOM      8  C   UNL     1       5.663   1.090  -8.951  1.00  0.00    -0.036 A 
ATOM      9  C   UNL     1       3.957  -0.261  -7.932  1.00  0.00    -0.036 A 
ATOM     10  C   UNL     1       3.401   2.071  -8.545  1.00  0.00     0.065 C 
ATOM     11  C   UNL     1       6.715   0.649  -9.746  1.00  0.00     0.004 A 
ATOM     12  C   UNL     1       4.703   2.041  -9.398  1.00  0.00    -0.036 A 
ATOM     13  C   UNL     1       2.950   0.591  -8.543  1.00  0.00    -0.036 A 
ATOM     14  C   UNL     1       3.588  -1.529  -7.514  1.00  0.00     0.004 A 
ATOM     15  C   UNL     1       6.896   1.250 -10.983  1.00  0.00     0.000 A 
ATOM     16  C   UNL     1       4.926   2.668 -10.616  1.00  0.00     0.004 A 
ATOM     17  C   UNL     1       1.622   0.207  -8.677  1.00  0.00     0.004 A 
ATOM     18  C   UNL     1       2.238  -1.909  -7.651  1.00  0.00     0.000 A 
ATOM     19  C   UNL     1       6.036   2.281 -11.393  1.00  0.00     0.000 A 
ATOM     20  C   UNL     1       1.269  -1.051  -8.209  1.00  0.00     0.000 A 
BRANCH   6  21
ATOM     21  C   UNL     1       5.912   3.147  -6.702  1.00  0.00     0.229 C 
ATOM     22  N   UNL     1       5.574   4.255  -5.915  1.00  0.00    -0.326 N 
ATOM     23  H   UNL     1       5.557   5.116  -6.393  1.00  0.00     0.169 HD
ATOM     24  O   UNL     1       6.779   3.325  -7.558  1.00  0.00    -0.274 OA
BRANCH  22  25
ATOM     25  C   UNL     1       5.250   4.327  -4.532  1.00  0.00     0.041 A 
ATOM     26  C   UNL     1       4.013   3.862  -2.040  1.00  0.00     0.060 A 
ATOM     27  C   UNL     1       5.215   3.222  -2.377  1.00  0.00     0.018 A 
ATOM     28  C   UNL     1       3.538   4.889  -2.867  1.00  0.00     0.018 A 
ATOM     29  C   UNL     1       5.812   3.429  -3.628  1.00  0.00     0.027 A 
ATOM     30  C   UNL     1       4.204   5.176  -4.090  1.00  0.00     0.027 A 
BRANCH  26  31
ATOM     31  C   UNL     1       3.291   3.338  -0.844  1.00  0.00     0.338 C 
ATOM     32  O   UNL     1       3.885   3.014   0.174  1.00  0.00    -0.246 OA
BRANCH  31  33
ATOM     33  O   UNL     1       1.961   3.152  -1.076  1.00  0.00    -0.462 OA
BRANCH  33  34
ATOM     34  C   UNL     1       1.243   2.483  -0.015  1.00  0.00     0.230 C 
ATOM     35  C   UNL     1       1.370   0.966  -0.078  1.00  0.00     0.049 C 
ENDBRANCH  33  34
ENDBRANCH  31  33
ENDBRANCH  26  31
ENDBRANCH  22  25
ENDBRANCH   6  21
ENDBRANCH   3   5
ENDBRANCH   2   3
ENDBRANCH   1   2
BRANCH   1  36
ATOM     36  C   UNL     1       1.098   1.231  -4.149  1.00  0.00     0.202 C 
BRANCH  36  37
ATOM     37  O   UNL     1       2.265   1.101  -3.324  1.00  0.00    -0.374 OA
BRANCH  37  38
ATOM     38  C   UNL     1       3.287   0.206  -3.778  1.00  0.00     0.202 C 
BRANCH  38  39
ATOM     39  C   UNL     1       3.125  -1.272  -3.408  1.00  0.00     0.261 C 
BRANCH  39  40
ATOM     40  O   UNL     1       1.899  -1.773  -3.947  1.00  0.00    -0.460 OA
BRANCH  40  41
ATOM     41  C   UNL     1       0.891  -1.869  -3.038  1.00  0.00     0.338 C 
ATOM     42  O   UNL     1       0.967  -1.891  -1.841  1.00  0.00    -0.246 OA
BRANCH  41  43
ATOM     43  C   UNL     1      -0.370  -1.680  -3.788  1.00  0.00     0.060 A 
ATOM     44  C   UNL     1      -1.283  -0.744  -3.283  1.00  0.00     0.016 A 
ATOM     45  C   UNL     1      -0.603  -2.323  -5.005  1.00  0.00     0.016 A 
ATOM     46  C   UNL     1      -2.425  -0.422  -4.005  1.00  0.00     0.010 A 
ATOM     47  C   UNL     1      -1.774  -2.046  -5.702  1.00  0.00     0.010 A 
ATOM     48  C   UNL     1      -2.697  -1.118  -5.187  1.00  0.00    -0.014 A 
BRANCH  48  49
ATOM     49  C   UNL     1      -4.080  -1.133  -5.699  1.00  0.00     0.031 A 
ATOM     50  C   UNL     1      -4.951  -2.262  -5.230  1.00  0.00     0.074 A 
ATOM     51  C   UNL     1      -4.537  -0.195  -6.541  1.00  0.00     0.049 A 
ATOM     52  N   UNL     1      -6.149  -2.607  -5.616  1.00  0.00    -0.248 NA
ATOM     53  C   UNL     1      -4.374  -3.139  -4.195  1.00  0.00     0.031 C 
ATOM     54  C   UNL     1      -3.785   0.966  -7.011  1.00  0.00     0.029 A 
ATOM     55  N   UNL     1      -5.752  -0.091  -7.165  1.00  0.00    -0.354 N 
ATOM     56  C   UNL     1      -6.452  -3.753  -4.893  1.00  0.00     0.074 A 
ATOM     57  C   UNL     1      -5.308  -4.065  -4.071  1.00  0.00     0.031 C 
ATOM     58  C   UNL     1      -4.552   1.658  -7.872  1.00  0.00     0.029 A 
ATOM     59  C   UNL     1      -5.829   0.965  -8.038  1.00  0.00     0.049 A 
ATOM     60  H   UNL     1      -6.497  -0.713  -7.003  1.00  0.00     0.167 HD
ATOM     61  C   UNL     1      -7.593  -4.477  -4.913  1.00  0.00     0.037 A 
ATOM     62  C   UNL     1      -6.816   1.300  -8.892  1.00  0.00     0.037 A 
ATOM     63  C   UNL     1      -8.726  -4.144  -5.730  1.00  0.00     0.049 A 
ATOM     64  C   UNL     1      -8.060   0.446  -8.938  1.00  0.00     0.074 A 
ATOM     65  C   UNL     1      -9.946  -4.785  -5.816  1.00  0.00     0.029 A 
ATOM     66  N   UNL     1      -8.768  -3.070  -6.609  1.00  0.00    -0.354 N 
ATOM     67  N   UNL     1      -8.356  -0.627  -8.243  1.00  0.00    -0.248 NA
ATOM     68  C   UNL     1      -9.106   0.850  -9.887  1.00  0.00     0.031 C 
ATOM     69  C   UNL     1     -10.709  -4.131  -6.788  1.00  0.00     0.029 A 
ATOM     70  C   UNL     1      -9.987  -3.045  -7.262  1.00  0.00     0.049 A 
ATOM     71  H   UNL     1      -8.039  -2.423  -6.746  1.00  0.00     0.167 HD
ATOM     72  C   UNL     1      -9.628  -1.010  -8.649  1.00  0.00     0.074 A 
ATOM     73  C   UNL     1     -10.053  -0.044  -9.642  1.00  0.00     0.031 C 
ATOM     74  C   UNL     1     -10.381  -2.062  -8.240  1.00  0.00     0.037 A 
BRANCH  61  75
ATOM     75  C   UNL     1      -7.642  -5.709  -4.060  1.00  0.00     0.064 A 
ATOM     76  C   UNL     1      -7.660  -5.642  -2.658  1.00  0.00     0.173 A 
ATOM     77  C   UNL     1      -7.658  -6.979  -4.655  1.00  0.00     0.173 A 
ATOM     78  F   UNL     1      -7.617  -4.452  -2.038  1.00  0.00    -0.203 F 
ATOM     79  C   UNL     1      -7.659  -6.800  -1.885  1.00  0.00     0.198 A 
ATOM     80  C   UNL     1      -7.692  -8.134  -3.880  1.00  0.00     0.198 A 
ATOM     81  F   UNL     1      -7.633  -7.100  -5.991  1.00  0.00    -0.203 F 
ATOM     82  F   UNL     1      -7.610  -6.711  -0.548  1.00  0.00    -0.200 F 
ATOM     83  C   UNL     1      -7.683  -8.044  -2.496  1.00  0.00     0.200 A 
ATOM     84  F   UNL     1      -7.724  -9.336  -4.472  1.00  0.00    -0.200 F 
ATOM     85  F   UNL     1      -7.684  -9.158  -1.751  1.00  0.00    -0.200 F 
ENDBRANCH  61  75
BRANCH  62  86
ATOM     86  C   UNL     1      -6.664   2.483  -9.780  1.00  0.00     0.064 A 
ATOM     87  C   UNL     1      -7.464   3.621  -9.610  1.00  0.00     0.173 A 
ATOM     88  C   UNL     1      -5.723   2.499 -10.821  1.00  0.00     0.173 A 
ATOM     89  F   UNL     1      -8.393   3.647  -8.643  1.00  0.00    -0.203 F 
ATOM     90  C   UNL     1      -7.342   4.722 -10.456  1.00  0.00     0.198 A 
ATOM     91  C   UNL     1      -5.582   3.611 -11.649  1.00  0.00     0.198 A 
ATOM     92  F   UNL     1      -4.932   1.436 -11.028  1.00  0.00    -0.203 F 
ATOM     93  F   UNL     1      -8.150   5.779 -10.298  1.00  0.00    -0.200 F 
ATOM     94  C   UNL     1      -6.396   4.718 -11.471  1.00  0.00     0.200 A 
ATOM     95  F   UNL     1      -4.657   3.608 -12.618  1.00  0.00    -0.200 F 
ATOM     96  F   UNL     1      -6.275   5.779 -12.280  1.00  0.00    -0.200 F 
ENDBRANCH  62  86
BRANCH  74  97
ATOM     97  C   UNL     1     -11.753  -2.203  -8.834  1.00  0.00     0.064 A 
ATOM     98  C   UNL     1     -11.943  -2.608 -10.163  1.00  0.00     0.173 A 
ATOM     99  C   UNL     1     -12.891  -1.993  -8.040  1.00  0.00     0.173 A 
ATOM    100  F   UNL     1     -10.886  -2.809 -10.965  1.00  0.00    -0.203 F 
ATOM    101  C   UNL     1     -13.223  -2.776 -10.682  1.00  0.00     0.198 A 
ATOM    102  C   UNL     1     -14.169  -2.195  -8.552  1.00  0.00     0.198 A 
ATOM    103  F   UNL     1     -12.762  -1.616  -6.759  1.00  0.00    -0.203 F 
ATOM    104  F   UNL     1     -13.383  -3.121 -11.967  1.00  0.00    -0.200 F 
ATOM    105  C   UNL     1     -14.334  -2.580  -9.874  1.00  0.00     0.200 A 
ATOM    106  F   UNL     1     -15.239  -2.024  -7.765  1.00  0.00    -0.200 F 
ATOM    107  F   UNL     1     -15.566  -2.757 -10.372  1.00  0.00    -0.200 F 
ENDBRANCH  74  97
ENDBRANCH  48  49
ENDBRANCH  41  43
ENDBRANCH  40  41
ENDBRANCH  39  40
ENDBRANCH  38  39
ENDBRANCH  37  38
ENDBRANCH  36  37
ENDBRANCH   1  36
TORSDOF 19
