REMARK SMILES O=C(CNC(=O)[C@@H](CC1=c2ccccc2=NC1)N1C(=O)N=C2C=CC=C[C@H]2C1=O)OCCOCCOC(=O)c1ccc(-c2c3nc(c(-c4c(F)c(F)c(F)c(F)c4F)c4ccc([nH]4)c(-c4c(F)c(F)c(F)c(F)c4F)c4nc(c(-c5c(F)c(F)c(F)c(F)c5F)c5ccc2[nH]5)C=C4)C=C3)cc1
REMARK SMILES IDX 32 1 31 2 30 3 2 4 1 5 3 6 4 7 5 8 6 10 7 11 8 12 9 13 10 14
REMARK SMILES IDX 17 15 11 16 15 17 16 18 12 19 14 20 13 21 18 22 19 23 28 24
REMARK SMILES IDX 21 25 20 26 27 27 29 28 22 29 26 30 23 31 25 32 24 33 33 34
REMARK SMILES IDX 34 35 35 36 36 37 37 38 38 39 39 40 40 41 101 42 41 43
REMARK SMILES IDX 100 44 42 45 43 46 44 47 94 48 45 49 99 50 93 51 95 52 46 53
REMARK SMILES IDX 98 54 92 55 91 56 47 58 79 59 59 60 78 61 60 62 63 63 77 64
REMARK SMILES IDX 96 65 61 66 62 67 76 69 97 70 64 71 48 72 49 73 57 74 50 75
REMARK SMILES IDX 51 76 55 77 58 78 52 79 53 80 56 81 54 82 80 83 81 84 89 85
REMARK SMILES IDX 82 86 83 87 87 88 90 89 84 90 85 91 88 92 86 93 65 94 66 95
REMARK SMILES IDX 74 96 67 97 68 98 72 99 75 100 69 101 70 102 73 103 71 104
REMARK H PARENT 4 9 95 57 63 68
REMARK Flexibility Score: inf
ROOT
ATOM      1  C   UNL     1       6.329  -1.429  -0.275  1.00  0.00     0.202 C 
ENDROOT
BRANCH   1   2
ATOM      2  C   UNL     1       6.194   0.128   0.264  1.00  0.00     0.261 C 
BRANCH   2   3
ATOM      3  O   UNL     1       4.835   0.505   0.685  1.00  0.00    -0.462 OA
BRANCH   3   4
ATOM      4  C   UNL     1       4.411   1.782   0.891  1.00  0.00     0.325 C 
ATOM      5  O   UNL     1       4.115   2.109   2.045  1.00  0.00    -0.250 OA
BRANCH   4   6
ATOM      6  C   UNL     1       3.820   2.650  -0.303  1.00  0.00     0.238 C 
BRANCH   6   7
ATOM      7  N   UNL     1       4.194   2.924  -1.728  1.00  0.00    -0.343 N 
ATOM      8  C   UNL     1       4.198   2.153  -2.887  1.00  0.00     0.244 C 
ATOM      9  H   UNL     1       4.502   3.847  -1.876  1.00  0.00     0.164 HD
ATOM     10  O   UNL     1       4.031   2.706  -3.973  1.00  0.00    -0.273 OA
BRANCH   8  11
ATOM     11  C   UNL     1       4.637   0.683  -2.767  1.00  0.00     0.188 C 
BRANCH  11  12
ATOM     12  C   UNL     1       3.836  -0.104  -1.685  1.00  0.00     0.069 C 
BRANCH  12  13
ATOM     13  C   UNL     1       3.047  -1.150  -0.936  1.00  0.00    -0.037 C 
ATOM     14  C   UNL     1       3.363  -2.218  -0.118  1.00  0.00     0.001 A 
ATOM     15  C   UNL     1       1.564  -0.714  -0.847  1.00  0.00     0.174 C 
ATOM     16  C   UNL     1       4.626  -3.698   0.055  1.00  0.00     0.010 A 
ATOM     17  C   UNL     1       1.547  -2.788  -0.326  1.00  0.00     0.065 A 
ATOM     18  N   UNL     1       0.686  -1.868  -0.603  1.00  0.00    -0.280 NA
ATOM     19  C   UNL     1       4.157  -5.219  -0.130  1.00  0.00     0.001 A 
ATOM     20  C   UNL     1       1.269  -4.640  -0.509  1.00  0.00     0.028 A 
ATOM     21  C   UNL     1       2.375  -5.648  -0.440  1.00  0.00     0.002 A 
ENDBRANCH  12  13
ENDBRANCH  11  12
BRANCH  11  22
ATOM     22  N   UNL     1       5.544   0.138  -3.812  1.00  0.00    -0.249 N 
ATOM     23  C   UNL     1       6.931   0.256  -3.596  1.00  0.00     0.351 C 
ATOM     24  C   UNL     1       5.030  -0.407  -4.970  1.00  0.00     0.244 C 
ATOM     25  N   UNL     1       7.824  -0.075  -4.564  1.00  0.00    -0.197 NA
ATOM     26  O   UNL     1       7.399   0.658  -2.533  1.00  0.00    -0.246 OA
ATOM     27  C   UNL     1       6.001  -0.527  -6.154  1.00  0.00     0.151 C 
ATOM     28  O   UNL     1       3.841  -0.720  -5.071  1.00  0.00    -0.273 OA
ATOM     29  C   UNL     1       7.446  -0.448  -5.733  1.00  0.00     0.062 C 
ATOM     30  C   UNL     1       5.837  -1.761  -7.016  1.00  0.00    -0.007 C 
ATOM     31  C   UNL     1       8.503  -0.801  -6.715  1.00  0.00     0.025 C 
ATOM     32  C   UNL     1       6.861  -2.275  -7.723  1.00  0.00    -0.003 C 
ATOM     33  C   UNL     1       8.176  -1.677  -7.671  1.00  0.00     0.002 C 
ENDBRANCH  11  22
ENDBRANCH   8  11
ENDBRANCH   6   7
ENDBRANCH   4   6
ENDBRANCH   3   4
ENDBRANCH   2   3
ENDBRANCH   1   2
BRANCH   1  34
ATOM     34  O   UNL     1       5.766  -1.900  -1.591  1.00  0.00    -0.374 OA
BRANCH  34  35
ATOM     35  C   UNL     1       4.802  -2.983  -2.098  1.00  0.00     0.202 C 
BRANCH  35  36
ATOM     36  C   UNL     1       3.205  -3.780  -1.472  1.00  0.00     0.261 C 
BRANCH  36  37
ATOM     37  O   UNL     1       2.837  -3.897   0.537  1.00  0.00    -0.460 OA
BRANCH  37  38
ATOM     38  C   UNL     1       2.636  -4.437   1.844  1.00  0.00     0.338 C 
ATOM     39  O   UNL     1       2.127  -5.533   2.099  1.00  0.00    -0.246 OA
BRANCH  38  40
ATOM     40  C   UNL     1       3.316  -3.771   3.045  1.00  0.00     0.060 A 
ATOM     41  C   UNL     1       2.686  -3.926   4.289  1.00  0.00     0.016 A 
ATOM     42  C   UNL     1       4.661  -3.360   3.088  1.00  0.00     0.016 A 
ATOM     43  C   UNL     1       3.377  -3.728   5.503  1.00  0.00     0.010 A 
ATOM     44  C   UNL     1       5.363  -3.156   4.295  1.00  0.00     0.010 A 
ATOM     45  C   UNL     1       4.734  -3.376   5.516  1.00  0.00    -0.014 A 
BRANCH  45  46
ATOM     46  C   UNL     1       5.492  -3.384   6.797  1.00  0.00     0.031 A 
ATOM     47  C   UNL     1       5.637  -2.137   7.611  1.00  0.00     0.074 A 
ATOM     48  C   UNL     1       6.013  -4.540   7.255  1.00  0.00     0.049 A 
ATOM     49  N   UNL     1       5.951  -2.010   8.875  1.00  0.00    -0.248 NA
ATOM     50  C   UNL     1       5.413  -0.865   6.911  1.00  0.00     0.031 C 
ATOM     51  C   UNL     1       6.038  -5.800   6.514  1.00  0.00     0.029 A 
ATOM     52  N   UNL     1       6.596  -4.851   8.461  1.00  0.00    -0.354 N 
ATOM     53  C   UNL     1       5.888  -0.651   9.143  1.00  0.00     0.074 A 
ATOM     54  C   UNL     1       5.598   0.013   7.889  1.00  0.00     0.031 C 
ATOM     55  C   UNL     1       6.566  -6.759   7.294  1.00  0.00     0.029 A 
ATOM     56  C   UNL     1       6.887  -6.188   8.600  1.00  0.00     0.049 A 
ATOM     57  H   UNL     1       6.786  -4.182   9.158  1.00  0.00     0.167 HD
ATOM     58  C   UNL     1       6.020  -0.028  10.339  1.00  0.00     0.037 A 
ATOM     59  C   UNL     1       7.306  -6.886   9.675  1.00  0.00     0.037 A 
ATOM     60  C   UNL     1       6.354  -0.703  11.568  1.00  0.00     0.049 A 
ATOM     61  C   UNL     1       7.444  -6.179  10.999  1.00  0.00     0.074 A 
ATOM     62  C   UNL     1       6.463  -0.178  12.843  1.00  0.00     0.029 A 
ATOM     63  N   UNL     1       6.656  -2.054  11.664  1.00  0.00    -0.354 N 
ATOM     64  N   UNL     1       7.214  -4.921  11.290  1.00  0.00    -0.248 NA
ATOM     65  C   UNL     1       7.866  -6.992  12.149  1.00  0.00     0.031 C 
ATOM     66  C   UNL     1       6.878  -1.202  13.703  1.00  0.00     0.029 A 
ATOM     67  C   UNL     1       6.983  -2.374  12.972  1.00  0.00     0.049 A 
ATOM     68  H   UNL     1       6.641  -2.691  10.914  1.00  0.00     0.167 HD
ATOM     69  C   UNL     1       7.442  -4.795  12.653  1.00  0.00     0.074 A 
ATOM     70  C   UNL     1       7.811  -6.109  13.138  1.00  0.00     0.031 C 
ATOM     71  C   UNL     1       7.355  -3.689  13.433  1.00  0.00     0.037 A 
BRANCH  58  72
ATOM     72  C   UNL     1       5.763   1.450  10.385  1.00  0.00     0.064 A 
ATOM     73  C   UNL     1       4.463   1.959  10.235  1.00  0.00     0.173 A 
ATOM     74  C   UNL     1       6.797   2.361  10.643  1.00  0.00     0.173 A 
ATOM     75  F   UNL     1       3.438   1.130   9.989  1.00  0.00    -0.203 F 
ATOM     76  C   UNL     1       4.212   3.326  10.319  1.00  0.00     0.198 A 
ATOM     77  C   UNL     1       6.539   3.726  10.749  1.00  0.00     0.198 A 
ATOM     78  F   UNL     1       8.056   1.927  10.807  1.00  0.00    -0.203 F 
ATOM     79  F   UNL     1       2.967   3.790  10.142  1.00  0.00    -0.200 F 
ATOM     80  C   UNL     1       5.249   4.208  10.582  1.00  0.00     0.200 A 
ATOM     81  F   UNL     1       7.539   4.577  11.018  1.00  0.00    -0.200 F 
ATOM     82  F   UNL     1       5.006   5.523  10.673  1.00  0.00    -0.200 F 
ENDBRANCH  58  72
BRANCH  59  83
ATOM     83  C   UNL     1       7.523  -8.354   9.563  1.00  0.00     0.064 A 
ATOM     84  C   UNL     1       6.634  -9.264  10.154  1.00  0.00     0.173 A 
ATOM     85  C   UNL     1       8.605  -8.877   8.841  1.00  0.00     0.173 A 
ATOM     86  F   UNL     1       5.595  -8.814  10.873  1.00  0.00    -0.203 F 
ATOM     87  C   UNL     1       6.823 -10.640  10.033  1.00  0.00     0.198 A 
ATOM     88  C   UNL     1       8.780 -10.254   8.702  1.00  0.00     0.198 A 
ATOM     89  F   UNL     1       9.484  -8.051   8.256  1.00  0.00    -0.203 F 
ATOM     90  F   UNL     1       5.975 -11.487  10.632  1.00  0.00    -0.200 F 
ATOM     91  C   UNL     1       7.891 -11.134   9.300  1.00  0.00     0.200 A 
ATOM     92  F   UNL     1       9.809 -10.727   7.984  1.00  0.00    -0.200 F 
ATOM     93  F   UNL     1       8.066 -12.457   9.174  1.00  0.00    -0.200 F 
ENDBRANCH  59  83
BRANCH  71  94
ATOM     94  C   UNL     1       7.675  -3.841  14.891  1.00  0.00     0.064 A 
ATOM     95  C   UNL     1       8.996  -4.001  15.333  1.00  0.00     0.173 A 
ATOM     96  C   UNL     1       6.663  -3.743  15.859  1.00  0.00     0.173 A 
ATOM     97  F   UNL     1       9.996  -4.113  14.446  1.00  0.00    -0.203 F 
ATOM     98  C   UNL     1       9.293  -4.065  16.692  1.00  0.00     0.198 A 
ATOM     99  C   UNL     1       6.967  -3.781  17.217  1.00  0.00     0.198 A 
ATOM    100  F   UNL     1       5.385  -3.582  15.487  1.00  0.00    -0.203 F 
ATOM    101  F   UNL     1      10.559  -4.245  17.091  1.00  0.00    -0.200 F 
ATOM    102  C   UNL     1       8.280  -3.945  17.632  1.00  0.00     0.200 A 
ATOM    103  F   UNL     1       5.990  -3.650  18.125  1.00  0.00    -0.200 F 
ATOM    104  F   UNL     1       8.570  -3.987  18.940  1.00  0.00    -0.200 F 
ENDBRANCH  71  94
ENDBRANCH  45  46
ENDBRANCH  38  40
ENDBRANCH  37  38
ENDBRANCH  36  37
ENDBRANCH  35  36
ENDBRANCH  34  35
ENDBRANCH   1  34
TORSDOF 19
