REMARK SMILES O=C(OCCOCCOC(=O)c1cccc(Nc2ccnc3ccc(Cl)cc23)c1)c1ccc(-c2c3nc(c(-c4c(F)c(F)c(F)c(F)c4F)c4ccc([nH]4)c(-c4c(F)c(F)c(F)c(F)c4F)c4nc(c(-c5c(F)c(F)c(F)c(F)c5F)c5ccc2[nH]5)C=C4)C=C3)cc1
REMARK SMILES IDX 6 1 5 2 4 3 3 4 2 5 1 6 30 7 31 8 92 9 32 10 91 11 33 12
REMARK SMILES IDX 34 13 35 14 85 15 36 16 90 17 84 18 86 19 37 20 89 21 83 22
REMARK SMILES IDX 82 23 38 25 70 26 50 27 69 28 51 29 54 30 68 31 87 32 52 33
REMARK SMILES IDX 53 34 67 36 88 37 55 38 39 39 40 40 48 41 41 42 42 43 46 44
REMARK SMILES IDX 49 45 43 46 44 47 47 48 45 49 71 50 72 51 80 52 73 53 74 54
REMARK SMILES IDX 78 55 81 56 75 57 76 58 79 59 77 60 56 61 57 62 65 63 58 64
REMARK SMILES IDX 59 65 63 66 66 67 60 68 61 69 64 70 62 71 7 72 8 73 9 74
REMARK SMILES IDX 10 75 11 76 12 77 13 78 29 79 14 80 16 81 15 82 17 83 18 85
REMARK SMILES IDX 19 86 28 87 20 88 22 89 27 90 21 91 23 92 25 93 24 94 26 95
REMARK H PARENT 86 24 54 35 17 84
REMARK Flexibility Score: inf
ROOT
ATOM      1  O   UNL     1       3.971  -1.283  -1.243  1.00  0.00    -0.374 OA
ENDROOT
BRANCH   1   2
ATOM      2  C   UNL     1       4.251  -1.602   0.124  1.00  0.00     0.202 C 
BRANCH   2   3
ATOM      3  C   UNL     1       3.869  -0.545   1.156  1.00  0.00     0.261 C 
BRANCH   3   4
ATOM      4  O   UNL     1       2.476  -0.246   1.073  1.00  0.00    -0.460 OA
BRANCH   4   5
ATOM      5  C   UNL     1       1.910   0.819   0.464  1.00  0.00     0.338 C 
ATOM      6  O   UNL     1       0.687   0.935   0.500  1.00  0.00    -0.246 OA
BRANCH   5   7
ATOM      7  C   UNL     1       2.689   1.886  -0.233  1.00  0.00     0.060 A 
ATOM      8  C   UNL     1       3.897   1.699  -0.913  1.00  0.00     0.016 A 
ATOM      9  C   UNL     1       2.095   3.156  -0.284  1.00  0.00     0.016 A 
ATOM     10  C   UNL     1       4.516   2.729  -1.599  1.00  0.00     0.010 A 
ATOM     11  C   UNL     1       2.695   4.196  -0.993  1.00  0.00     0.010 A 
ATOM     12  C   UNL     1       3.913   3.979  -1.644  1.00  0.00    -0.014 A 
BRANCH  12  13
ATOM     13  C   UNL     1       4.650   5.079  -2.275  1.00  0.00     0.031 A 
ATOM     14  C   UNL     1       5.357   6.042  -1.381  1.00  0.00     0.074 A 
ATOM     15  C   UNL     1       4.746   5.136  -3.612  1.00  0.00     0.049 A 
ATOM     16  N   UNL     1       5.966   7.155  -1.676  1.00  0.00    -0.248 NA
ATOM     17  C   UNL     1       5.387   5.692   0.050  1.00  0.00     0.031 C 
ATOM     18  C   UNL     1       4.201   4.141  -4.538  1.00  0.00     0.029 A 
ATOM     19  N   UNL     1       5.343   6.060  -4.423  1.00  0.00    -0.354 N 
ATOM     20  C   UNL     1       6.416   7.661  -0.466  1.00  0.00     0.074 A 
ATOM     21  C   UNL     1       6.016   6.734   0.568  1.00  0.00     0.031 C 
ATOM     22  C   UNL     1       4.483   4.516  -5.796  1.00  0.00     0.029 A 
ATOM     23  C   UNL     1       5.159   5.808  -5.760  1.00  0.00     0.049 A 
ATOM     24  H   UNL     1       5.853   6.830  -4.083  1.00  0.00     0.167 HD
ATOM     25  C   UNL     1       7.088   8.815  -0.254  1.00  0.00     0.037 A 
ATOM     26  C   UNL     1       5.461   6.576  -6.822  1.00  0.00     0.037 A 
ATOM     27  C   UNL     1       7.450   9.709  -1.319  1.00  0.00     0.049 A 
ATOM     28  C   UNL     1       6.119   7.904  -6.557  1.00  0.00     0.074 A 
ATOM     29  C   UNL     1       8.072  10.939  -1.249  1.00  0.00     0.029 A 
ATOM     30  N   UNL     1       7.206   9.454  -2.666  1.00  0.00    -0.354 N 
ATOM     31  N   UNL     1       6.479   8.432  -5.409  1.00  0.00    -0.248 NA
ATOM     32  C   UNL     1       6.402   8.748  -7.722  1.00  0.00     0.031 C 
ATOM     33  C   UNL     1       8.156  11.452  -2.549  1.00  0.00     0.029 A 
ATOM     34  C   UNL     1       7.649  10.512  -3.437  1.00  0.00     0.049 A 
ATOM     35  H   UNL     1       6.781   8.639  -3.018  1.00  0.00     0.167 HD
ATOM     36  C   UNL     1       7.055   9.656  -5.711  1.00  0.00     0.074 A 
ATOM     37  C   UNL     1       6.999   9.789  -7.155  1.00  0.00     0.031 C 
ATOM     38  C   UNL     1       7.584  10.586  -4.877  1.00  0.00     0.037 A 
BRANCH  25  39
ATOM     39  C   UNL     1       7.360   9.188   1.174  1.00  0.00     0.064 A 
ATOM     40  C   UNL     1       8.256   8.468   1.980  1.00  0.00     0.173 A 
ATOM     41  C   UNL     1       6.650  10.243   1.769  1.00  0.00     0.173 A 
ATOM     42  F   UNL     1       8.936   7.429   1.471  1.00  0.00    -0.203 F 
ATOM     43  C   UNL     1       8.393   8.757   3.336  1.00  0.00     0.198 A 
ATOM     44  C   UNL     1       6.815  10.551   3.117  1.00  0.00     0.198 A 
ATOM     45  F   UNL     1       5.774  10.960   1.049  1.00  0.00    -0.203 F 
ATOM     46  F   UNL     1       9.190   8.001   4.104  1.00  0.00    -0.200 F 
ATOM     47  C   UNL     1       7.674   9.799   3.903  1.00  0.00     0.200 A 
ATOM     48  F   UNL     1       6.120  11.560   3.661  1.00  0.00    -0.200 F 
ATOM     49  F   UNL     1       7.792  10.064   5.211  1.00  0.00    -0.200 F 
ENDBRANCH  25  39
BRANCH  26  50
ATOM     50  C   UNL     1       5.098   6.127  -8.191  1.00  0.00     0.064 A 
ATOM     51  C   UNL     1       6.079   5.805  -9.137  1.00  0.00     0.173 A 
ATOM     52  C   UNL     1       3.754   5.982  -8.576  1.00  0.00     0.173 A 
ATOM     53  F   UNL     1       7.377   5.944  -8.829  1.00  0.00    -0.203 F 
ATOM     54  C   UNL     1       5.732   5.363 -10.414  1.00  0.00     0.198 A 
ATOM     55  C   UNL     1       3.409   5.512  -9.841  1.00  0.00     0.198 A 
ATOM     56  F   UNL     1       2.772   6.276  -7.711  1.00  0.00    -0.203 F 
ATOM     57  F   UNL     1       6.691   5.094 -11.311  1.00  0.00    -0.200 F 
ATOM     58  C   UNL     1       4.399   5.209 -10.762  1.00  0.00     0.200 A 
ATOM     59  F   UNL     1       2.119   5.350 -10.165  1.00  0.00    -0.200 F 
ATOM     60  F   UNL     1       4.067   4.772 -11.985  1.00  0.00    -0.200 F 
ENDBRANCH  26  50
BRANCH  38  61
ATOM     61  C   UNL     1       8.197  11.798  -5.512  1.00  0.00     0.064 A 
ATOM     62  C   UNL     1       7.412  12.817  -6.068  1.00  0.00     0.173 A 
ATOM     63  C   UNL     1       9.589  11.972  -5.483  1.00  0.00     0.173 A 
ATOM     64  F   UNL     1       6.078  12.686  -6.130  1.00  0.00    -0.203 F 
ATOM     65  C   UNL     1       8.002  13.965  -6.586  1.00  0.00     0.198 A 
ATOM     66  C   UNL     1      10.172  13.135  -5.972  1.00  0.00     0.198 A 
ATOM     67  F   UNL     1      10.378  11.026  -4.953  1.00  0.00    -0.203 F 
ATOM     68  F   UNL     1       7.239  14.914  -7.145  1.00  0.00    -0.200 F 
ATOM     69  C   UNL     1       9.379  14.129  -6.526  1.00  0.00     0.200 A 
ATOM     70  F   UNL     1      11.500  13.299  -5.896  1.00  0.00    -0.200 F 
ATOM     71  F   UNL     1       9.943  15.245  -7.006  1.00  0.00    -0.200 F 
ENDBRANCH  38  61
ENDBRANCH  12  13
ENDBRANCH   5   7
ENDBRANCH   4   5
ENDBRANCH   3   4
ENDBRANCH   2   3
ENDBRANCH   1   2
BRANCH   1  72
ATOM     72  C   UNL     1       2.668  -1.660  -1.708  1.00  0.00     0.202 C 
BRANCH  72  73
ATOM     73  C   UNL     1       2.787  -2.533  -2.966  1.00  0.00     0.261 C 
BRANCH  73  74
ATOM     74  O   UNL     1       3.595  -3.689  -2.664  1.00  0.00    -0.460 OA
BRANCH  74  75
ATOM     75  C   UNL     1       4.885  -3.628  -3.099  1.00  0.00     0.338 C 
ATOM     76  O   UNL     1       5.351  -2.906  -3.954  1.00  0.00    -0.246 OA
BRANCH  75  77
ATOM     77  C   UNL     1       5.694  -4.353  -2.098  1.00  0.00     0.062 A 
ATOM     78  C   UNL     1       6.361  -3.547  -1.176  1.00  0.00     0.016 A 
ATOM     79  C   UNL     1       5.716  -5.742  -1.969  1.00  0.00     0.041 A 
ATOM     80  C   UNL     1       6.813  -4.092   0.017  1.00  0.00     0.003 A 
ATOM     81  C   UNL     1       6.347  -6.310  -0.853  1.00  0.00     0.039 A 
ATOM     82  C   UNL     1       6.764  -5.468   0.191  1.00  0.00     0.026 A 
BRANCH  81  83
ATOM     83  N   UNL     1       6.513  -7.700  -0.728  1.00  0.00    -0.355 N 
ATOM     84  H   UNL     1       6.721  -8.198  -1.552  1.00  0.00     0.167 HD
BRANCH  83  85
ATOM     85  C   UNL     1       6.410  -8.450   0.461  1.00  0.00     0.050 A 
ATOM     86  C   UNL     1       5.219  -8.339   1.183  1.00  0.00     0.047 A 
ATOM     87  C   UNL     1       7.440  -9.298   0.947  1.00  0.00     0.025 A 
ATOM     88  C   UNL     1       5.090  -9.042   2.355  1.00  0.00     0.114 A 
ATOM     89  C   UNL     1       7.120 -10.093   2.072  1.00  0.00     0.072 A 
ATOM     90  C   UNL     1       8.761  -9.376   0.429  1.00  0.00     0.033 A 
ATOM     91  N   UNL     1       5.991  -9.946   2.777  1.00  0.00    -0.256 NA
ATOM     92  C   UNL     1       8.010 -11.069   2.492  1.00  0.00     0.030 A 
ATOM     93  C   UNL     1       9.674 -10.298   0.948  1.00  0.00     0.041 A 
ATOM     94  C   UNL     1       9.280 -11.194   1.931  1.00  0.00     0.023 A 
ATOM     95  Cl  UNL     1      11.304 -10.318   0.398  1.00  0.00    -0.084 Cl
ENDBRANCH  83  85
ENDBRANCH  81  83
ENDBRANCH  75  77
ENDBRANCH  74  75
ENDBRANCH  73  74
ENDBRANCH  72  73
ENDBRANCH   1  72
TORSDOF 16
