REMARK SMILES CC(C)c1cc(C2CC[NH+](Cc3c[nH]nc3C(=O)OCCOCCOC(=O)c3ccc(-c4c5nc(c(-c6c(F)c(F)c(F)c(F)c6F)c6ccc([nH]6)c(-c6c(F)c(F)c(F)c(F)c6F)c6nc(c(-c7c(F)c(F)c(F)c(F)c7F)c7ccc4[nH]7)C=C6)C=C5)cc3)CC2)n[nH]1
REMARK SMILES IDX 21 1 20 2 19 3 17 4 18 5 16 6 12 7 13 8 14 9 15 10 11 12
REMARK SMILES IDX 10 13 7 14 8 15 92 16 9 17 91 18 6 20 4 21 5 22 94 23 93 24
REMARK SMILES IDX 2 26 1 27 3 28 22 29 23 30 24 31 25 32 26 33 27 34 28 35
REMARK SMILES IDX 29 36 90 37 30 38 89 39 31 40 32 41 33 42 83 43 34 44 88 45
REMARK SMILES IDX 82 46 84 47 35 48 87 49 81 50 80 51 36 53 68 54 48 55 67 56
REMARK SMILES IDX 49 57 52 58 66 59 85 60 50 61 51 62 65 64 86 65 53 66 37 67
REMARK SMILES IDX 38 68 46 69 39 70 40 71 44 72 47 73 41 74 42 75 45 76 43 77
REMARK SMILES IDX 69 78 70 79 78 80 71 81 72 82 76 83 79 84 73 85 74 86 77 87
REMARK SMILES IDX 75 88 54 89 55 90 63 91 56 92 57 93 61 94 64 95 58 96 59 97
REMARK SMILES IDX 62 98 60 99
REMARK H PARENT 14 11 10 19 94 25 84 52 52 63
REMARK Flexibility Score: inf
ROOT
ATOM      1  C   UNL     1       2.121  -6.307  -0.410  1.00  0.00     0.202 C 
ENDROOT
BRANCH   1   2
ATOM      2  C   UNL     1       2.006  -6.964   0.966  1.00  0.00     0.261 C 
BRANCH   2   3
ATOM      3  O   UNL     1       1.127  -6.220   1.829  1.00  0.00    -0.458 OA
BRANCH   3   4
ATOM      4  C   UNL     1       1.774  -5.523   2.812  1.00  0.00     0.359 C 
ATOM      5  O   UNL     1       2.975  -5.640   3.039  1.00  0.00    -0.244 OA
BRANCH   4   6
ATOM      6  C   UNL     1       0.916  -4.573   3.549  1.00  0.00     0.178 A 
ATOM      7  C   UNL     1      -0.514  -4.513   3.767  1.00  0.00     0.059 A 
ATOM      8  C   UNL     1      -0.628  -3.540   4.751  1.00  0.00     0.115 A 
ATOM      9  N   UNL     1       0.584  -2.950   4.888  1.00  0.00    -0.284 N 
ATOM     10  N   UNL     1       1.533  -3.550   4.181  1.00  0.00    -0.168 NA
ATOM     11  H   UNL     1       0.744  -2.160   5.452  1.00  0.00     0.189 HD
BRANCH   7  12
ATOM     12  C   UNL     1      -1.632  -5.391   3.246  1.00  0.00     0.303 C 
BRANCH  12  13
ATOM     13  N   UNL     1      -2.734  -4.690   2.537  1.00  0.00    -0.331 N 
ATOM     14  C   UNL     1      -3.953  -2.344   1.194  1.00  0.00     0.051 C 
ATOM     15  C   UNL     1      -4.466  -2.829   2.549  1.00  0.00     0.071 C 
ATOM     16  C   UNL     1      -3.522  -3.586   0.403  1.00  0.00     0.071 C 
ATOM     17  C   UNL     1      -3.420  -3.649   3.303  1.00  0.00     0.263 C 
ATOM     18  C   UNL     1      -2.457  -4.425   1.127  1.00  0.00     0.263 C 
ATOM     19  H   UNL     1      -3.487  -5.376   2.479  1.00  0.00     0.348 HD
BRANCH  14  20
ATOM     20  C   UNL     1      -2.858  -1.300   1.243  1.00  0.00     0.066 A 
ATOM     21  C   UNL     1      -0.840  -0.358   1.245  1.00  0.00     0.038 A 
ATOM     22  C   UNL     1      -1.540  -1.433   1.731  1.00  0.00     0.049 A 
ATOM     23  N   UNL     1      -1.791   0.458   0.700  1.00  0.00    -0.282 N 
ATOM     24  N   UNL     1      -3.016  -0.107   0.652  1.00  0.00    -0.180 NA
ATOM     25  H   UNL     1      -1.602   1.367   0.374  1.00  0.00     0.190 HD
BRANCH  21  26
ATOM     26  C   UNL     1       0.640  -0.145   1.229  1.00  0.00     0.031 C 
ATOM     27  C   UNL     1       1.123   0.539  -0.046  1.00  0.00     0.014 C 
ATOM     28  C   UNL     1       1.127   0.571   2.482  1.00  0.00     0.014 C 
ENDBRANCH  21  26
ENDBRANCH  14  20
ENDBRANCH  12  13
ENDBRANCH   7  12
ENDBRANCH   4   6
ENDBRANCH   3   4
ENDBRANCH   2   3
ENDBRANCH   1   2
BRANCH   1  29
ATOM     29  O   UNL     1       2.696  -5.003  -0.428  1.00  0.00    -0.374 OA
BRANCH  29  30
ATOM     30  C   UNL     1       1.822  -3.902  -0.165  1.00  0.00     0.202 C 
BRANCH  30  31
ATOM     31  C   UNL     1       0.937  -3.466  -1.339  1.00  0.00     0.261 C 
BRANCH  31  32
ATOM     32  O   UNL     1      -0.116  -4.419  -1.581  1.00  0.00    -0.460 OA
BRANCH  32  33
ATOM     33  C   UNL     1      -0.004  -5.122  -2.735  1.00  0.00     0.338 C 
ATOM     34  O   UNL     1       0.821  -4.973  -3.618  1.00  0.00    -0.246 OA
BRANCH  33  35
ATOM     35  C   UNL     1      -0.932  -6.269  -2.698  1.00  0.00     0.060 A 
ATOM     36  C   UNL     1      -0.413  -7.535  -2.998  1.00  0.00     0.016 A 
ATOM     37  C   UNL     1      -2.291  -6.108  -2.423  1.00  0.00     0.016 A 
ATOM     38  C   UNL     1      -1.261  -8.638  -3.075  1.00  0.00     0.010 A 
ATOM     39  C   UNL     1      -3.142  -7.214  -2.501  1.00  0.00     0.010 A 
ATOM     40  C   UNL     1      -2.637  -8.475  -2.865  1.00  0.00    -0.014 A 
BRANCH  40  41
ATOM     41  C   UNL     1      -3.567  -9.580  -3.202  1.00  0.00     0.031 A 
ATOM     42  C   UNL     1      -4.290  -9.535  -4.520  1.00  0.00     0.074 A 
ATOM     43  C   UNL     1      -3.747 -10.616  -2.364  1.00  0.00     0.049 A 
ATOM     44  N   UNL     1      -5.195 -10.347  -5.002  1.00  0.00    -0.248 NA
ATOM     45  C   UNL     1      -3.945  -8.419  -5.418  1.00  0.00     0.031 C 
ATOM     46  C   UNL     1      -3.073 -10.792  -1.080  1.00  0.00     0.029 A 
ATOM     47  N   UNL     1      -4.565 -11.714  -2.470  1.00  0.00    -0.354 N 
ATOM     48  C   UNL     1      -5.528  -9.841  -6.252  1.00  0.00     0.074 A 
ATOM     49  C   UNL     1      -4.755  -8.634  -6.443  1.00  0.00     0.031 C 
ATOM     50  C   UNL     1      -3.519 -11.924  -0.506  1.00  0.00     0.029 A 
ATOM     51  C   UNL     1      -4.531 -12.532  -1.367  1.00  0.00     0.049 A 
ATOM     52  H   UNL     1      -5.123 -11.896  -3.260  1.00  0.00     0.167 HD
ATOM     53  C   UNL     1      -6.392 -10.346  -7.164  1.00  0.00     0.037 A 
ATOM     54  C   UNL     1      -5.256 -13.631  -1.081  1.00  0.00     0.037 A 
ATOM     55  C   UNL     1      -7.159 -11.548  -6.973  1.00  0.00     0.049 A 
ATOM     56  C   UNL     1      -6.263 -14.134  -2.086  1.00  0.00     0.074 A 
ATOM     57  C   UNL     1      -8.069 -12.137  -7.832  1.00  0.00     0.029 A 
ATOM     58  N   UNL     1      -7.104 -12.344  -5.839  1.00  0.00    -0.354 N 
ATOM     59  N   UNL     1      -6.564 -13.655  -3.268  1.00  0.00    -0.248 NA
ATOM     60  C   UNL     1      -7.028 -15.334  -1.716  1.00  0.00     0.031 C 
ATOM     61  C   UNL     1      -8.593 -13.271  -7.203  1.00  0.00     0.029 A 
ATOM     62  C   UNL     1      -7.972 -13.414  -5.973  1.00  0.00     0.049 A 
ATOM     63  H   UNL     1      -6.532 -12.175  -5.056  1.00  0.00     0.167 HD
ATOM     64  C   UNL     1      -7.522 -14.513  -3.796  1.00  0.00     0.074 A 
ATOM     65  C   UNL     1      -7.745 -15.547  -2.809  1.00  0.00     0.031 C 
ATOM     66  C   UNL     1      -8.160 -14.449  -4.990  1.00  0.00     0.037 A 
BRANCH  53  67
ATOM     67  C   UNL     1      -6.561  -9.596  -8.451  1.00  0.00     0.064 A 
ATOM     68  C   UNL     1      -5.562  -9.597  -9.436  1.00  0.00     0.173 A 
ATOM     69  C   UNL     1      -7.755  -8.913  -8.726  1.00  0.00     0.173 A 
ATOM     70  F   UNL     1      -4.396 -10.223  -9.214  1.00  0.00    -0.203 F 
ATOM     71  C   UNL     1      -5.747  -8.929 -10.643  1.00  0.00     0.198 A 
ATOM     72  C   UNL     1      -7.947  -8.268  -9.945  1.00  0.00     0.198 A 
ATOM     73  F   UNL     1      -8.742  -8.884  -7.818  1.00  0.00    -0.203 F 
ATOM     74  F   UNL     1      -4.766  -8.914 -11.556  1.00  0.00    -0.200 F 
ATOM     75  C   UNL     1      -6.942  -8.273 -10.900  1.00  0.00     0.200 A 
ATOM     76  F   UNL     1      -9.107  -7.645 -10.196  1.00  0.00    -0.200 F 
ATOM     77  F   UNL     1      -7.124  -7.642 -12.069  1.00  0.00    -0.200 F 
ENDBRANCH  53  67
BRANCH  54  78
ATOM     78  C   UNL     1      -5.082 -14.325   0.223  1.00  0.00     0.064 A 
ATOM     79  C   UNL     1      -4.552 -15.621   0.290  1.00  0.00     0.173 A 
ATOM     80  C   UNL     1      -5.487 -13.724   1.424  1.00  0.00     0.173 A 
ATOM     81  F   UNL     1      -4.174 -16.250  -0.833  1.00  0.00    -0.203 F 
ATOM     82  C   UNL     1      -4.461 -16.301   1.504  1.00  0.00     0.198 A 
ATOM     83  C   UNL     1      -5.367 -14.392   2.641  1.00  0.00     0.198 A 
ATOM     84  F   UNL     1      -6.003 -12.486   1.416  1.00  0.00    -0.203 F 
ATOM     85  F   UNL     1      -4.008 -17.561   1.532  1.00  0.00    -0.200 F 
ATOM     86  C   UNL     1      -4.866 -15.684   2.679  1.00  0.00     0.200 A 
ATOM     87  F   UNL     1      -5.750 -13.789   3.774  1.00  0.00    -0.200 F 
ATOM     88  F   UNL     1      -4.785 -16.340   3.844  1.00  0.00    -0.200 F 
ENDBRANCH  54  78
BRANCH  66  89
ATOM     89  C   UNL     1      -9.118 -15.556  -5.323  1.00  0.00     0.064 A 
ATOM     90  C   UNL     1     -10.368 -15.663  -4.698  1.00  0.00     0.173 A 
ATOM     91  C   UNL     1      -8.799 -16.489  -6.321  1.00  0.00     0.173 A 
ATOM     92  F   UNL     1     -10.715 -14.803  -3.729  1.00  0.00    -0.203 F 
ATOM     93  C   UNL     1     -11.255 -16.680  -5.043  1.00  0.00     0.198 A 
ATOM     94  C   UNL     1      -9.699 -17.487  -6.684  1.00  0.00     0.198 A 
ATOM     95  F   UNL     1      -7.618 -16.424  -6.956  1.00  0.00    -0.203 F 
ATOM     96  F   UNL     1     -12.426 -16.791  -4.402  1.00  0.00    -0.200 F 
ATOM     97  C   UNL     1     -10.923 -17.585  -6.040  1.00  0.00     0.200 A 
ATOM     98  F   UNL     1      -9.382 -18.352  -7.658  1.00  0.00    -0.200 F 
ATOM     99  F   UNL     1     -11.781 -18.558  -6.377  1.00  0.00    -0.200 F 
ENDBRANCH  66  89
ENDBRANCH  40  41
ENDBRANCH  33  35
ENDBRANCH  32  33
ENDBRANCH  31  32
ENDBRANCH  30  31
ENDBRANCH  29  30
ENDBRANCH   1  29
TORSDOF 18
