REMARK SMILES [NH3+][C@@]1(C(=O)OCCOCCOC(=O)c2ccc(-c3c4nc(c(-c5c(F)c(F)c(F)c(F)c5F)c5ccc([nH]5)c(-c5c(F)c(F)c(F)c(F)c5F)c5nc(c(-c6c(F)c(F)c(F)c(F)c6F)c6ccc3[nH]6)C=C5)C=C4)cc2)CC[C@H](Sc2cccs2)C1
REMARK SMILES IDX 8 1 7 2 6 3 5 4 3 5 4 6 2 7 77 8 86 9 78 10 79 11 1 12 80 16
REMARK SMILES IDX 81 17 82 18 85 19 83 20 84 21 9 22 10 23 11 24 12 25 13 26
REMARK SMILES IDX 14 27 15 28 76 29 16 30 75 31 17 32 18 33 19 34 69 35 20 36
REMARK SMILES IDX 74 37 68 38 70 39 21 40 73 41 67 42 66 43 22 45 54 46 34 47
REMARK SMILES IDX 53 48 35 49 38 50 52 51 71 52 36 53 37 54 51 56 72 57 39 58
REMARK SMILES IDX 23 59 24 60 32 61 25 62 26 63 30 64 33 65 27 66 28 67 31 68
REMARK SMILES IDX 29 69 55 70 56 71 64 72 57 73 58 74 62 75 65 76 59 77 60 78
REMARK SMILES IDX 63 79 61 80 40 81 41 82 49 83 42 84 43 85 47 86 50 87 44 88
REMARK SMILES IDX 45 89 48 90 46 91
REMARK H PARENT 1 13 1 14 1 15 70 44 38 55
REMARK Flexibility Score: inf
ROOT
ATOM      1  O   UNL     1       3.105   2.234  -3.152  1.00  0.00    -0.374 OA
ENDROOT
BRANCH   1   2
ATOM      2  C   UNL     1       3.015   1.339  -4.259  1.00  0.00     0.202 C 
BRANCH   2   3
ATOM      3  C   UNL     1       2.902  -0.149  -3.924  1.00  0.00     0.261 C 
BRANCH   3   4
ATOM      4  O   UNL     1       1.670  -0.445  -3.244  1.00  0.00    -0.459 OA
BRANCH   4   5
ATOM      5  C   UNL     1       1.799  -0.936  -1.987  1.00  0.00     0.368 C 
ATOM      6  O   UNL     1       2.866  -1.246  -1.459  1.00  0.00    -0.245 OA
BRANCH   5   7
ATOM      7  C   UNL     1       0.447  -1.088  -1.232  1.00  0.00     0.193 C 
ATOM      8  C   UNL     1      -0.001  -2.548  -1.331  1.00  0.00     0.082 C 
ATOM      9  C   UNL     1      -0.753  -0.312  -1.800  1.00  0.00     0.095 C 
ATOM     10  C   UNL     1      -0.725  -2.599  -2.673  1.00  0.00     0.022 C 
ATOM     11  C   UNL     1      -1.507  -1.283  -2.732  1.00  0.00     0.059 C 
BRANCH   7  12
ATOM     12  N   UNL     1       0.687  -0.662   0.170  1.00  0.00    -0.343 N 
ATOM     13  H   UNL     1       1.482  -1.176   0.549  1.00  0.00     0.345 HD
ATOM     14  H   UNL     1      -0.142  -0.857   0.731  1.00  0.00     0.345 HD
ATOM     15  H   UNL     1       0.886   0.338   0.192  1.00  0.00     0.345 HD
ENDBRANCH   7  12
BRANCH  11  16
ATOM     16  S   UNL     1      -1.640  -0.591  -4.405  1.00  0.00    -0.112 SA
BRANCH  16  17
ATOM     17  C   UNL     1      -2.739  -1.657  -5.265  1.00  0.00     0.060 A 
ATOM     18  C   UNL     1      -3.434  -2.760  -4.813  1.00  0.00     0.027 A 
ATOM     19  S   UNL     1      -3.068  -1.363  -6.924  1.00  0.00    -0.137 S 
ATOM     20  C   UNL     1      -4.207  -3.381  -5.842  1.00  0.00     0.013 A 
ATOM     21  C   UNL     1      -4.103  -2.713  -7.040  1.00  0.00     0.066 A 
ENDBRANCH  16  17
ENDBRANCH  11  16
ENDBRANCH   5   7
ENDBRANCH   4   5
ENDBRANCH   3   4
ENDBRANCH   2   3
ENDBRANCH   1   2
BRANCH   1  22
ATOM     22  C   UNL     1       1.900   2.529  -2.444  1.00  0.00     0.202 C 
BRANCH  22  23
ATOM     23  C   UNL     1       0.910   3.472  -3.142  1.00  0.00     0.261 C 
BRANCH  23  24
ATOM     24  O   UNL     1       0.333   2.890  -4.327  1.00  0.00    -0.460 OA
BRANCH  24  25
ATOM     25  C   UNL     1       0.657   3.508  -5.487  1.00  0.00     0.338 C 
ATOM     26  O   UNL     1       1.313   4.533  -5.625  1.00  0.00    -0.246 OA
BRANCH  25  27
ATOM     27  C   UNL     1       0.254   2.682  -6.638  1.00  0.00     0.060 A 
ATOM     28  C   UNL     1       1.243   2.322  -7.564  1.00  0.00     0.016 A 
ATOM     29  C   UNL     1      -1.081   2.347  -6.863  1.00  0.00     0.016 A 
ATOM     30  C   UNL     1       0.896   1.650  -8.736  1.00  0.00     0.010 A 
ATOM     31  C   UNL     1      -1.429   1.692  -8.049  1.00  0.00     0.010 A 
ATOM     32  C   UNL     1      -0.448   1.361  -9.002  1.00  0.00    -0.014 A 
BRANCH  32  33
ATOM     33  C   UNL     1      -0.853   0.863 -10.340  1.00  0.00     0.031 A 
ATOM     34  C   UNL     1      -1.409   1.841 -11.337  1.00  0.00     0.074 A 
ATOM     35  C   UNL     1      -0.716  -0.433 -10.673  1.00  0.00     0.049 A 
ATOM     36  N   UNL     1      -1.904   1.626 -12.529  1.00  0.00    -0.248 NA
ATOM     37  C   UNL     1      -1.405   3.256 -10.932  1.00  0.00     0.031 C 
ATOM     38  C   UNL     1      -0.145  -1.470  -9.818  1.00  0.00     0.029 A 
ATOM     39  N   UNL     1      -1.061  -1.097 -11.825  1.00  0.00    -0.354 N 
ATOM     40  C   UNL     1      -2.277   2.873 -13.012  1.00  0.00     0.074 A 
ATOM     41  C   UNL     1      -1.976   3.838 -11.977  1.00  0.00     0.031 C 
ATOM     42  C   UNL     1      -0.189  -2.645 -10.470  1.00  0.00     0.029 A 
ATOM     43  C   UNL     1      -0.827  -2.449 -11.771  1.00  0.00     0.049 A 
ATOM     44  H   UNL     1      -1.440  -0.647 -12.614  1.00  0.00     0.167 HD
ATOM     45  C   UNL     1      -2.815   3.187 -14.214  1.00  0.00     0.037 A 
ATOM     46  C   UNL     1      -1.122  -3.417 -12.661  1.00  0.00     0.037 A 
ATOM     47  C   UNL     1      -3.118   2.230 -15.243  1.00  0.00     0.049 A 
ATOM     48  C   UNL     1      -1.803  -3.054 -13.956  1.00  0.00     0.074 A 
ATOM     49  C   UNL     1      -3.670   2.450 -16.493  1.00  0.00     0.029 A 
ATOM     50  N   UNL     1      -2.894   0.865 -15.139  1.00  0.00    -0.354 N 
ATOM     51  N   UNL     1      -2.151  -1.873 -14.407  1.00  0.00    -0.248 NA
ATOM     52  C   UNL     1      -2.139  -4.161 -14.865  1.00  0.00     0.031 C 
ATOM     53  C   UNL     1      -3.819   1.213 -17.129  1.00  0.00     0.029 A 
ATOM     54  C   UNL     1      -3.316   0.229 -16.294  1.00  0.00     0.049 A 
ATOM     55  H   UNL     1      -2.495   0.416 -14.359  1.00  0.00     0.167 HD
ATOM     56  C   UNL     1      -2.715  -2.091 -15.658  1.00  0.00     0.074 A 
ATOM     57  C   UNL     1      -2.658  -3.517 -15.900  1.00  0.00     0.031 C 
ATOM     58  C   UNL     1      -3.233  -1.190 -16.528  1.00  0.00     0.037 A 
BRANCH  45  59
ATOM     59  C   UNL     1      -3.133   4.630 -14.472  1.00  0.00     0.064 A 
ATOM     60  C   UNL     1      -2.123   5.573 -14.710  1.00  0.00     0.173 A 
ATOM     61  C   UNL     1      -4.466   5.067 -14.513  1.00  0.00     0.173 A 
ATOM     62  F   UNL     1      -0.833   5.206 -14.667  1.00  0.00    -0.203 F 
ATOM     63  C   UNL     1      -2.434   6.907 -14.960  1.00  0.00     0.198 A 
ATOM     64  C   UNL     1      -4.774   6.396 -14.788  1.00  0.00     0.198 A 
ATOM     65  F   UNL     1      -5.468   4.203 -14.295  1.00  0.00    -0.203 F 
ATOM     66  F   UNL     1      -1.452   7.799 -15.145  1.00  0.00    -0.200 F 
ATOM     67  C   UNL     1      -3.759   7.316 -15.005  1.00  0.00     0.200 A 
ATOM     68  F   UNL     1      -6.055   6.787 -14.843  1.00  0.00    -0.200 F 
ATOM     69  F   UNL     1      -4.058   8.598 -15.253  1.00  0.00    -0.200 F 
ENDBRANCH  45  59
BRANCH  46  70
ATOM     70  C   UNL     1      -0.800  -4.836 -12.353  1.00  0.00     0.064 A 
ATOM     71  C   UNL     1       0.178  -5.529 -13.080  1.00  0.00     0.173 A 
ATOM     72  C   UNL     1      -1.488  -5.536 -11.351  1.00  0.00     0.173 A 
ATOM     73  F   UNL     1       0.840  -4.912 -14.069  1.00  0.00    -0.203 F 
ATOM     74  C   UNL     1       0.443  -6.874 -12.829  1.00  0.00     0.198 A 
ATOM     75  C   UNL     1      -1.203  -6.873 -11.082  1.00  0.00     0.198 A 
ATOM     76  F   UNL     1      -2.440  -4.922 -10.633  1.00  0.00    -0.203 F 
ATOM     77  F   UNL     1       1.346  -7.527 -13.572  1.00  0.00    -0.200 F 
ATOM     78  C   UNL     1      -0.244  -7.544 -11.827  1.00  0.00     0.200 A 
ATOM     79  F   UNL     1      -1.864  -7.514 -10.109  1.00  0.00    -0.200 F 
ATOM     80  F   UNL     1       0.009  -8.837 -11.587  1.00  0.00    -0.200 F 
ENDBRANCH  46  70
BRANCH  58  81
ATOM     81  C   UNL     1      -3.739  -1.704 -17.843  1.00  0.00     0.064 A 
ATOM     82  C   UNL     1      -4.949  -2.405 -17.943  1.00  0.00     0.173 A 
ATOM     83  C   UNL     1      -3.034  -1.435 -19.027  1.00  0.00     0.173 A 
ATOM     84  F   UNL     1      -5.652  -2.699 -16.839  1.00  0.00    -0.203 F 
ATOM     85  C   UNL     1      -5.428  -2.831 -19.179  1.00  0.00     0.198 A 
ATOM     86  C   UNL     1      -3.529  -1.840 -20.263  1.00  0.00     0.198 A 
ATOM     87  F   UNL     1      -1.875  -0.762 -18.985  1.00  0.00    -0.203 F 
ATOM     88  F   UNL     1      -6.570  -3.529 -19.249  1.00  0.00    -0.200 F 
ATOM     89  C   UNL     1      -4.723  -2.541 -20.338  1.00  0.00     0.200 A 
ATOM     90  F   UNL     1      -2.853  -1.547 -21.383  1.00  0.00    -0.200 F 
ATOM     91  F   UNL     1      -5.193  -2.940 -21.528  1.00  0.00    -0.200 F 
ENDBRANCH  58  81
ENDBRANCH  32  33
ENDBRANCH  25  27
ENDBRANCH  24  25
ENDBRANCH  23  24
ENDBRANCH  22  23
ENDBRANCH   1  22
TORSDOF 17
