REMARK SMILES O=C(OCCOCCOC(=O)[C@@H]1C[N@@H+](CC(=O)c2ccc[nH]2)CC[NH2+]1)c1ccc(-c2c3nc(c(-c4c(F)c(F)c(F)c(F)c4F)c4ccc([nH]4)c(-c4c(F)c(F)c(F)c(F)c4F)c4nc(c(-c5c(F)c(F)c(F)c(F)c5F)c5ccc2[nH]5)C=C4)C=C3)cc1
REMARK SMILES IDX 7 1 6 2 5 3 4 4 3 5 2 6 1 7 26 8 27 9 88 10 28 11 87 12
REMARK SMILES IDX 29 13 30 14 31 15 81 16 32 17 86 18 80 19 82 20 33 21 85 22
REMARK SMILES IDX 79 23 78 24 34 26 66 27 46 28 65 29 47 30 50 31 64 32 83 33
REMARK SMILES IDX 48 34 49 35 63 37 84 38 51 39 35 40 36 41 44 42 37 43 38 44
REMARK SMILES IDX 42 45 45 46 39 47 40 48 43 49 41 50 67 51 68 52 76 53 69 54
REMARK SMILES IDX 70 55 74 56 77 57 71 58 72 59 75 60 73 61 52 62 53 63 61 64
REMARK SMILES IDX 54 65 55 66 59 67 62 68 56 69 57 70 60 71 58 72 8 73 9 74
REMARK SMILES IDX 10 75 11 76 12 77 13 78 25 79 14 80 24 81 23 84 15 86 16 87
REMARK SMILES IDX 17 88 18 89 19 90 22 91 20 92 21 93
REMARK H PARENT 82 25 50 36 25 82 25 83 14 85 22 94
REMARK Flexibility Score: inf
ROOT
ATOM      1  C   UNL     1       2.469   1.277  -1.546  1.00  0.00     0.202 C 
ENDROOT
BRANCH   1   2
ATOM      2  O   UNL     1       3.690   1.205  -0.794  1.00  0.00    -0.374 OA
BRANCH   2   3
ATOM      3  C   UNL     1       4.396  -0.035  -0.755  1.00  0.00     0.202 C 
BRANCH   3   4
ATOM      4  C   UNL     1       3.782  -1.198   0.050  1.00  0.00     0.261 C 
BRANCH   4   5
ATOM      5  O   UNL     1       2.352  -1.145   0.146  1.00  0.00    -0.460 OA
BRANCH   5   6
ATOM      6  C   UNL     1       1.604  -0.489   1.063  1.00  0.00     0.338 C 
ATOM      7  O   UNL     1       0.391  -0.385   0.893  1.00  0.00    -0.246 OA
BRANCH   6   8
ATOM      8  C   UNL     1       2.179   0.058   2.320  1.00  0.00     0.060 A 
ATOM      9  C   UNL     1       3.481   0.545   2.457  1.00  0.00     0.016 A 
ATOM     10  C   UNL     1       1.308   0.139   3.420  1.00  0.00     0.016 A 
ATOM     11  C   UNL     1       3.961   0.961   3.686  1.00  0.00     0.010 A 
ATOM     12  C   UNL     1       1.752   0.637   4.639  1.00  0.00     0.010 A 
ATOM     13  C   UNL     1       3.087   1.029   4.767  1.00  0.00    -0.014 A 
BRANCH  13  14
ATOM     14  C   UNL     1       3.562   1.750   5.960  1.00  0.00     0.031 A 
ATOM     15  C   UNL     1       3.595   3.269   5.727  1.00  0.00     0.074 A 
ATOM     16  C   UNL     1       3.904   0.978   7.028  1.00  0.00     0.049 A 
ATOM     17  N   UNL     1       4.245   4.202   6.355  1.00  0.00    -0.248 NA
ATOM     18  C   UNL     1       2.828   3.830   4.576  1.00  0.00     0.031 C 
ATOM     19  C   UNL     1       3.825  -0.495   7.040  1.00  0.00     0.029 A 
ATOM     20  N   UNL     1       4.387   1.242   8.293  1.00  0.00    -0.354 N 
ATOM     21  C   UNL     1       3.781   5.435   5.848  1.00  0.00     0.074 A 
ATOM     22  C   UNL     1       3.048   5.141   4.658  1.00  0.00     0.031 C 
ATOM     23  C   UNL     1       4.292  -0.991   8.202  1.00  0.00     0.029 A 
ATOM     24  C   UNL     1       4.687   0.097   9.075  1.00  0.00     0.049 A 
ATOM     25  H   UNL     1       4.513   2.159   8.629  1.00  0.00     0.167 HD
ATOM     26  C   UNL     1       3.854   6.603   6.548  1.00  0.00     0.037 A 
ATOM     27  C   UNL     1       5.239   0.026  10.326  1.00  0.00     0.037 A 
ATOM     28  C   UNL     1       4.589   6.412   7.752  1.00  0.00     0.049 A 
ATOM     29  C   UNL     1       5.271   1.415  10.816  1.00  0.00     0.074 A 
ATOM     30  C   UNL     1       5.918   6.236   8.027  1.00  0.00     0.029 A 
ATOM     31  N   UNL     1       3.860   6.102   8.873  1.00  0.00    -0.354 N 
ATOM     32  N   UNL     1       4.220   2.086  11.187  1.00  0.00    -0.248 NA
ATOM     33  C   UNL     1       6.542   2.147  10.811  1.00  0.00     0.031 C 
ATOM     34  C   UNL     1       5.929   5.442   9.195  1.00  0.00     0.029 A 
ATOM     35  C   UNL     1       4.617   5.256   9.644  1.00  0.00     0.049 A 
ATOM     36  H   UNL     1       2.956   6.427   9.085  1.00  0.00     0.167 HD
ATOM     37  C   UNL     1       4.666   3.386  11.134  1.00  0.00     0.074 A 
ATOM     38  C   UNL     1       6.106   3.334  11.223  1.00  0.00     0.031 C 
ATOM     39  C   UNL     1       3.918   4.324  10.500  1.00  0.00     0.037 A 
BRANCH  26  40
ATOM     40  C   UNL     1       3.057   7.879   6.423  1.00  0.00     0.064 A 
ATOM     41  C   UNL     1       3.502   9.007   7.156  1.00  0.00     0.173 A 
ATOM     42  C   UNL     1       1.729   7.923   5.974  1.00  0.00     0.173 A 
ATOM     43  F   UNL     1       4.773   9.094   7.580  1.00  0.00    -0.203 F 
ATOM     44  C   UNL     1       2.628  10.014   7.564  1.00  0.00     0.198 A 
ATOM     45  C   UNL     1       0.871   8.966   6.337  1.00  0.00     0.198 A 
ATOM     46  F   UNL     1       1.190   6.920   5.272  1.00  0.00    -0.203 F 
ATOM     47  F   UNL     1       3.056  10.969   8.402  1.00  0.00    -0.200 F 
ATOM     48  C   UNL     1       1.306   9.979   7.174  1.00  0.00     0.200 A 
ATOM     49  F   UNL     1      -0.409   8.935   5.942  1.00  0.00    -0.200 F 
ATOM     50  F   UNL     1       0.441  10.894   7.632  1.00  0.00    -0.200 F 
ENDBRANCH  26  40
BRANCH  27  51
ATOM     51  C   UNL     1       5.818  -1.040  11.233  1.00  0.00     0.064 A 
ATOM     52  C   UNL     1       5.740  -2.426  11.039  1.00  0.00     0.173 A 
ATOM     53  C   UNL     1       6.590  -0.666  12.372  1.00  0.00     0.173 A 
ATOM     54  F   UNL     1       4.943  -2.956  10.108  1.00  0.00    -0.203 F 
ATOM     55  C   UNL     1       6.467  -3.340  11.825  1.00  0.00     0.198 A 
ATOM     56  C   UNL     1       7.340  -1.566  13.130  1.00  0.00     0.198 A 
ATOM     57  F   UNL     1       6.650   0.602  12.797  1.00  0.00    -0.203 F 
ATOM     58  F   UNL     1       6.368  -4.653  11.576  1.00  0.00    -0.200 F 
ATOM     59  C   UNL     1       7.296  -2.907  12.843  1.00  0.00     0.200 A 
ATOM     60  F   UNL     1       8.117  -1.110  14.123  1.00  0.00    -0.200 F 
ATOM     61  F   UNL     1       8.033  -3.775  13.550  1.00  0.00    -0.200 F 
ENDBRANCH  27  51
BRANCH  39  62
ATOM     62  C   UNL     1       2.442   3.976  10.429  1.00  0.00     0.064 A 
ATOM     63  C   UNL     1       1.682   3.879  11.603  1.00  0.00     0.173 A 
ATOM     64  C   UNL     1       1.788   3.609   9.242  1.00  0.00     0.173 A 
ATOM     65  F   UNL     1       2.222   4.234  12.779  1.00  0.00    -0.203 F 
ATOM     66  C   UNL     1       0.361   3.420  11.586  1.00  0.00     0.198 A 
ATOM     67  C   UNL     1       0.470   3.151   9.218  1.00  0.00     0.198 A 
ATOM     68  F   UNL     1       2.413   3.700   8.072  1.00  0.00    -0.203 F 
ATOM     69  F   UNL     1      -0.332   3.340  12.730  1.00  0.00    -0.200 F 
ATOM     70  C   UNL     1      -0.242   3.050  10.395  1.00  0.00     0.200 A 
ATOM     71  F   UNL     1      -0.103   2.818   8.051  1.00  0.00    -0.200 F 
ATOM     72  F   UNL     1      -1.510   2.614  10.379  1.00  0.00    -0.200 F 
ENDBRANCH  39  62
ENDBRANCH  13  14
ENDBRANCH   6   8
ENDBRANCH   5   6
ENDBRANCH   4   5
ENDBRANCH   3   4
ENDBRANCH   2   3
ENDBRANCH   1   2
BRANCH   1  73
ATOM     73  C   UNL     1       2.464   0.702  -2.964  1.00  0.00     0.261 C 
BRANCH  73  74
ATOM     74  O   UNL     1       2.691  -0.716  -2.929  1.00  0.00    -0.459 OA
BRANCH  74  75
ATOM     75  C   UNL     1       3.418  -1.200  -3.979  1.00  0.00     0.371 C 
ATOM     76  O   UNL     1       3.619  -0.587  -5.011  1.00  0.00    -0.245 OA
BRANCH  75  77
ATOM     77  C   UNL     1       4.140  -2.504  -3.607  1.00  0.00     0.348 C 
ATOM     78  C   UNL     1       4.671  -3.172  -4.888  1.00  0.00     0.341 C 
ATOM     79  N   UNL     1       3.334  -3.440  -2.782  1.00  0.00    -0.325 N 
ATOM     80  N   UNL     1       5.454  -4.394  -4.666  1.00  0.00    -0.318 N 
ATOM     81  C   UNL     1       4.163  -4.621  -2.464  1.00  0.00     0.323 C 
ATOM     82  H   UNL     1       2.506  -3.731  -3.303  1.00  0.00     0.347 HD
ATOM     83  H   UNL     1       3.038  -2.980  -1.922  1.00  0.00     0.347 HD
ATOM     84  C   UNL     1       4.807  -5.298  -3.702  1.00  0.00     0.324 C 
ATOM     85  H   UNL     1       5.441  -4.905  -5.549  1.00  0.00     0.348 HD
BRANCH  80  86
ATOM     86  C   UNL     1       6.904  -4.183  -4.486  1.00  0.00     0.346 C 
BRANCH  86  87
ATOM     87  C   UNL     1       7.366  -3.795  -3.080  1.00  0.00     0.232 C 
ATOM     88  O   UNL     1       7.536  -4.664  -2.220  1.00  0.00    -0.286 OA
BRANCH  87  89
ATOM     89  C   UNL     1       7.581  -2.393  -2.754  1.00  0.00     0.088 A 
ATOM     90  C   UNL     1       7.430  -1.225  -3.484  1.00  0.00     0.031 A 
ATOM     91  N   UNL     1       7.992  -2.014  -1.491  1.00  0.00    -0.359 N 
ATOM     92  C   UNL     1       7.670  -0.131  -2.614  1.00  0.00     0.020 A 
ATOM     93  C   UNL     1       8.018  -0.651  -1.390  1.00  0.00     0.083 A 
ATOM     94  H   UNL     1       8.231  -2.637  -0.767  1.00  0.00     0.166 HD
ENDBRANCH  87  89
ENDBRANCH  86  87
ENDBRANCH  80  86
ENDBRANCH  75  77
ENDBRANCH  74  75
ENDBRANCH  73  74
ENDBRANCH   1  73
TORSDOF 17
