REMARK SMILES COc1ccc(N2C(=O)/C(=C/c3c(C(=O)OCCOCCOC(=O)c4ccc(-c5c6nc(c(-c7c(F)c(F)c(F)c(F)c7F)c7ccc([nH]7)c(-c7c(F)c(F)c(F)c(F)c7F)c7nc(c(-c8c(F)c(F)c(F)c(F)c8F)c8ccc5[nH]8)C=C7)C=C6)cc4)[nH]c4cc(OC)ccc34)SC2=S)cc1
REMARK SMILES IDX 18 1 17 2 16 3 14 4 15 5 13 6 12 7 96 8 88 9 89 10 95 11
REMARK SMILES IDX 90 13 94 14 91 15 11 16 7 17 8 18 98 19 9 20 10 21 97 22
REMARK SMILES IDX 99 23 6 24 3 25 4 26 101 27 5 28 100 29 2 30 1 31 92 32
REMARK SMILES IDX 93 33 19 34 20 35 21 36 22 37 23 38 24 39 25 40 26 41 87 42
REMARK SMILES IDX 27 43 86 44 28 45 29 46 30 47 80 48 31 49 85 50 79 51 81 52
REMARK SMILES IDX 32 53 84 54 78 55 77 56 33 58 65 59 45 60 64 61 46 62 49 63
REMARK SMILES IDX 63 64 82 65 47 66 48 67 62 69 83 70 50 71 34 72 35 73 43 74
REMARK SMILES IDX 36 75 37 76 41 77 44 78 38 79 39 80 42 81 40 82 66 83 67 84
REMARK SMILES IDX 75 85 68 86 69 87 73 88 76 89 70 90 71 91 74 92 72 93 51 94
REMARK SMILES IDX 52 95 60 96 53 97 54 98 58 99 61 100 55 101 56 102 59 103
REMARK SMILES IDX 57 104
REMARK H PARENT 88 12 81 57 49 68
REMARK Flexibility Score: inf
ROOT
ATOM      1  C   UNL     1       3.850  -5.398  -7.652  1.00  0.00     0.202 C 
ENDROOT
BRANCH   1   2
ATOM      2  C   UNL     1       4.472  -4.002  -7.787  1.00  0.00     0.261 C 
BRANCH   2   3
ATOM      3  O   UNL     1       3.873  -3.211  -8.822  1.00  0.00    -0.459 OA
BRANCH   3   4
ATOM      4  C   UNL     1       4.621  -3.105  -9.959  1.00  0.00     0.355 C 
ATOM      5  O   UNL     1       5.758  -3.538 -10.099  1.00  0.00    -0.244 OA
BRANCH   4   6
ATOM      6  C   UNL     1       3.841  -2.572 -11.052  1.00  0.00     0.133 A 
ATOM      7  C   UNL     1       2.781  -1.673 -11.169  1.00  0.00     0.016 A 
ATOM      8  C   UNL     1       2.392  -1.640 -12.557  1.00  0.00     0.008 A 
ATOM      9  N   UNL     1       4.096  -3.050 -12.313  1.00  0.00    -0.348 N 
ATOM     10  C   UNL     1       3.172  -2.595 -13.208  1.00  0.00     0.050 A 
ATOM     11  C   UNL     1       1.444  -0.947 -13.348  1.00  0.00     0.015 A 
ATOM     12  H   UNL     1       4.848  -3.643 -12.542  1.00  0.00     0.167 HD
ATOM     13  C   UNL     1       2.989  -2.976 -14.539  1.00  0.00     0.073 A 
ATOM     14  C   UNL     1       1.290  -1.274 -14.718  1.00  0.00     0.047 A 
ATOM     15  C   UNL     1       2.033  -2.303 -15.296  1.00  0.00     0.120 A 
BRANCH   7  16
ATOM     16  C   UNL     1       2.141  -1.059 -10.032  1.00  0.00     0.032 C 
ATOM     17  N   UNL     1       3.273  -0.317  -6.726  1.00  0.00    -0.261 N 
ATOM     18  C   UNL     1       2.212  -0.388  -7.646  1.00  0.00     0.270 C 
ATOM     19  C   UNL     1       4.533  -0.116  -7.290  1.00  0.00     0.152 C 
ATOM     20  O   UNL     1       1.014  -0.491  -7.414  1.00  0.00    -0.268 OA
ATOM     21  C   UNL     1       2.761  -0.396  -9.038  1.00  0.00     0.081 C 
ATOM     22  S   UNL     1       4.372   0.188  -9.019  1.00  0.00    -0.054 SA
ATOM     23  S   UNL     1       6.067  -0.275  -6.638  1.00  0.00    -0.051 S 
BRANCH  17  24
ATOM     24  C   UNL     1       3.062  -0.597  -5.328  1.00  0.00     0.051 A 
ATOM     25  C   UNL     1       2.825  -1.380  -2.608  1.00  0.00     0.119 A 
ATOM     26  C   UNL     1       2.065  -1.976  -3.601  1.00  0.00     0.048 A 
ATOM     27  C   UNL     1       3.706  -0.372  -2.959  1.00  0.00     0.048 A 
ATOM     28  C   UNL     1       2.146  -1.576  -4.938  1.00  0.00     0.030 A 
ATOM     29  C   UNL     1       3.814   0.019  -4.307  1.00  0.00     0.030 A 
BRANCH  25  30
ATOM     30  O   UNL     1       2.652  -1.900  -1.360  1.00  0.00    -0.497 OA
ATOM     31  C   UNL     1       2.702  -0.963  -0.294  1.00  0.00     0.278 C 
ENDBRANCH  25  30
ENDBRANCH  17  24
ENDBRANCH   7  16
BRANCH  15  32
ATOM     32  O   UNL     1       1.898  -2.796 -16.564  1.00  0.00    -0.497 OA
ATOM     33  C   UNL     1       1.450  -1.893 -17.564  1.00  0.00     0.278 C 
ENDBRANCH  15  32
ENDBRANCH   4   6
ENDBRANCH   3   4
ENDBRANCH   2   3
ENDBRANCH   1   2
BRANCH   1  34
ATOM     34  O   UNL     1       3.742  -6.189  -8.830  1.00  0.00    -0.374 OA
BRANCH  34  35
ATOM     35  C   UNL     1       2.724  -5.867  -9.774  1.00  0.00     0.202 C 
BRANCH  35  36
ATOM     36  C   UNL     1       1.259  -6.099  -9.390  1.00  0.00     0.261 C 
BRANCH  36  37
ATOM     37  O   UNL     1       0.788  -5.283  -8.300  1.00  0.00    -0.460 OA
BRANCH  37  38
ATOM     38  C   UNL     1       0.484  -5.981  -7.177  1.00  0.00     0.338 C 
ATOM     39  O   UNL     1       0.669  -7.173  -6.987  1.00  0.00    -0.246 OA
BRANCH  38  40
ATOM     40  C   UNL     1      -0.039  -5.106  -6.106  1.00  0.00     0.060 A 
ATOM     41  C   UNL     1       0.437  -5.334  -4.813  1.00  0.00     0.016 A 
ATOM     42  C   UNL     1      -1.072  -4.186  -6.319  1.00  0.00     0.016 A 
ATOM     43  C   UNL     1      -0.145  -4.675  -3.732  1.00  0.00     0.010 A 
ATOM     44  C   UNL     1      -1.657  -3.521  -5.226  1.00  0.00     0.010 A 
ATOM     45  C   UNL     1      -1.205  -3.767  -3.922  1.00  0.00    -0.014 A 
BRANCH  45  46
ATOM     46  C   UNL     1      -1.858  -3.206  -2.704  1.00  0.00     0.031 A 
ATOM     47  C   UNL     1      -2.676  -4.130  -1.849  1.00  0.00     0.074 A 
ATOM     48  C   UNL     1      -1.635  -1.943  -2.290  1.00  0.00     0.049 A 
ATOM     49  N   UNL     1      -3.147  -3.954  -0.642  1.00  0.00    -0.248 NA
ATOM     50  C   UNL     1      -3.031  -5.422  -2.456  1.00  0.00     0.031 C 
ATOM     51  C   UNL     1      -0.915  -0.925  -3.042  1.00  0.00     0.029 A 
ATOM     52  N   UNL     1      -1.914  -1.328  -1.088  1.00  0.00    -0.354 N 
ATOM     53  C   UNL     1      -3.901  -5.086  -0.367  1.00  0.00     0.074 A 
ATOM     54  C   UNL     1      -3.775  -5.969  -1.508  1.00  0.00     0.031 C 
ATOM     55  C   UNL     1      -0.653   0.116  -2.235  1.00  0.00     0.029 A 
ATOM     56  C   UNL     1      -1.240  -0.135  -0.922  1.00  0.00     0.049 A 
ATOM     57  H   UNL     1      -2.530  -1.702  -0.417  1.00  0.00     0.167 HD
ATOM     58  C   UNL     1      -4.681  -5.336   0.712  1.00  0.00     0.037 A 
ATOM     59  C   UNL     1      -1.079   0.628   0.181  1.00  0.00     0.037 A 
ATOM     60  C   UNL     1      -4.830  -4.443   1.829  1.00  0.00     0.049 A 
ATOM     61  C   UNL     1      -1.817   0.246   1.441  1.00  0.00     0.074 A 
ATOM     62  C   UNL     1      -5.667  -4.554   2.925  1.00  0.00     0.029 A 
ATOM     63  N   UNL     1      -4.115  -3.265   1.990  1.00  0.00    -0.354 N 
ATOM     64  N   UNL     1      -2.526  -0.826   1.697  1.00  0.00    -0.248 NA
ATOM     65  C   UNL     1      -1.756   1.204   2.557  1.00  0.00     0.031 C 
ATOM     66  C   UNL     1      -5.483  -3.425   3.733  1.00  0.00     0.029 A 
ATOM     67  C   UNL     1      -4.497  -2.636   3.163  1.00  0.00     0.049 A 
ATOM     68  H   UNL     1      -3.437  -2.926   1.362  1.00  0.00     0.167 HD
ATOM     69  C   UNL     1      -3.028  -0.651   2.980  1.00  0.00     0.074 A 
ATOM     70  C   UNL     1      -2.459   0.578   3.490  1.00  0.00     0.031 C 
ATOM     71  C   UNL     1      -3.928  -1.409   3.654  1.00  0.00     0.037 A 
BRANCH  58  72
ATOM     72  C   UNL     1      -5.524  -6.573   0.657  1.00  0.00     0.064 A 
ATOM     73  C   UNL     1      -4.982  -7.856   0.817  1.00  0.00     0.173 A 
ATOM     74  C   UNL     1      -6.898  -6.466   0.390  1.00  0.00     0.173 A 
ATOM     75  F   UNL     1      -3.669  -8.011   1.042  1.00  0.00    -0.203 F 
ATOM     76  C   UNL     1      -5.782  -8.989   0.679  1.00  0.00     0.198 A 
ATOM     77  C   UNL     1      -7.698  -7.598   0.280  1.00  0.00     0.198 A 
ATOM     78  F   UNL     1      -7.462  -5.260   0.221  1.00  0.00    -0.203 F 
ATOM     79  F   UNL     1      -5.234 -10.208   0.773  1.00  0.00    -0.200 F 
ATOM     80  C   UNL     1      -7.137  -8.859   0.413  1.00  0.00     0.200 A 
ATOM     81  F   UNL     1      -9.007  -7.469   0.026  1.00  0.00    -0.200 F 
ATOM     82  F   UNL     1      -7.902  -9.950   0.269  1.00  0.00    -0.200 F 
ENDBRANCH  58  72
BRANCH  59  83
ATOM     83  C   UNL     1      -0.134   1.784   0.201  1.00  0.00     0.064 A 
ATOM     84  C   UNL     1       0.966   1.774   1.078  1.00  0.00     0.173 A 
ATOM     85  C   UNL     1      -0.295   2.919  -0.604  1.00  0.00     0.173 A 
ATOM     86  F   UNL     1       1.166   0.723   1.888  1.00  0.00    -0.203 F 
ATOM     87  C   UNL     1       1.858   2.841   1.148  1.00  0.00     0.198 A 
ATOM     88  C   UNL     1       0.616   3.977  -0.555  1.00  0.00     0.198 A 
ATOM     89  F   UNL     1      -1.335   3.005  -1.445  1.00  0.00    -0.203 F 
ATOM     90  F   UNL     1       2.877   2.804   2.018  1.00  0.00    -0.200 F 
ATOM     91  C   UNL     1       1.687   3.940   0.325  1.00  0.00     0.200 A 
ATOM     92  F   UNL     1       0.453   5.035  -1.361  1.00  0.00    -0.200 F 
ATOM     93  F   UNL     1       2.550   4.964   0.383  1.00  0.00    -0.200 F 
ENDBRANCH  59  83
BRANCH  71  94
ATOM     94  C   UNL     1      -4.394  -0.895   4.985  1.00  0.00     0.064 A 
ATOM     95  C   UNL     1      -5.212   0.243   5.074  1.00  0.00     0.173 A 
ATOM     96  C   UNL     1      -4.057  -1.556   6.174  1.00  0.00     0.173 A 
ATOM     97  F   UNL     1      -5.555   0.916   3.965  1.00  0.00    -0.203 F 
ATOM     98  C   UNL     1      -5.648   0.718   6.307  1.00  0.00     0.198 A 
ATOM     99  C   UNL     1      -4.519  -1.093   7.404  1.00  0.00     0.198 A 
ATOM    100  F   UNL     1      -3.285  -2.652   6.144  1.00  0.00    -0.203 F 
ATOM    101  F   UNL     1      -6.387   1.835   6.369  1.00  0.00    -0.200 F 
ATOM    102  C   UNL     1      -5.306   0.047   7.470  1.00  0.00     0.200 A 
ATOM    103  F   UNL     1      -4.198  -1.748   8.529  1.00  0.00    -0.200 F 
ATOM    104  F   UNL     1      -5.729   0.504   8.657  1.00  0.00    -0.200 F 
ENDBRANCH  71  94
ENDBRANCH  45  46
ENDBRANCH  38  40
ENDBRANCH  37  38
ENDBRANCH  36  37
ENDBRANCH  35  36
ENDBRANCH  34  35
ENDBRANCH   1  34
TORSDOF 18
