REMARK SMILES Cc1c[nH]c(C[N@H+]2C[C@@H]3CN(S(C)(=O)=O)C[C@]3(C(=O)OCCOCCOC(=O)c3ccc(-c4c5nc(c(-c6c(F)c(F)c(F)c(F)c6F)c6ccc([nH]6)c(-c6c(F)c(F)c(F)c(F)c6F)c6nc(c(-c7c(F)c(F)c(F)c(F)c7F)c7ccc4[nH]7)C=C6)C=C5)cc3)C2)n1
REMARK SMILES IDX 23 1 22 2 21 3 20 4 18 5 19 6 17 7 7 8 8 9 92 10 9 12 10 13
REMARK SMILES IDX 16 14 11 15 6 16 5 17 1 18 2 19 3 20 93 21 4 22 12 24 13 25
REMARK SMILES IDX 14 26 15 27 24 28 25 29 26 30 27 31 28 32 29 33 30 34 91 35
REMARK SMILES IDX 31 36 90 37 32 38 33 39 34 40 84 41 35 42 89 43 83 44 85 45
REMARK SMILES IDX 36 46 88 47 82 48 81 49 37 51 69 52 49 53 68 54 50 55 53 56
REMARK SMILES IDX 67 57 86 58 51 59 52 60 66 62 87 63 54 64 38 65 39 66 47 67
REMARK SMILES IDX 40 68 41 69 45 70 48 71 42 72 43 73 46 74 44 75 70 76 71 77
REMARK SMILES IDX 79 78 72 79 73 80 77 81 80 82 74 83 75 84 78 85 76 86 55 87
REMARK SMILES IDX 56 88 64 89 57 90 58 91 62 92 65 93 59 94 60 95 63 96 61 97
REMARK H PARENT 7 11 4 23 85 50 53 61
REMARK Flexibility Score: inf
ROOT
ATOM      1  O   UNL     1       2.150   6.691   1.171  1.00  0.00    -0.374 OA
ENDROOT
BRANCH   1   2
ATOM      2  C   UNL     1       1.017   7.386   1.686  1.00  0.00     0.202 C 
BRANCH   2   3
ATOM      3  C   UNL     1      -0.309   7.004   1.028  1.00  0.00     0.261 C 
BRANCH   3   4
ATOM      4  O   UNL     1      -0.895   5.845   1.643  1.00  0.00    -0.463 OA
BRANCH   4   5
ATOM      5  C   UNL     1      -0.480   4.559   1.373  1.00  0.00     0.319 C 
ATOM      6  O   UNL     1       0.248   4.238   0.455  1.00  0.00    -0.251 OA
BRANCH   5   7
ATOM      7  C   UNL     1      -1.207   3.651   2.368  1.00  0.00     0.140 C 
ATOM      8  N   UNL     1      -2.840   1.986   1.546  1.00  0.00    -0.327 N 
ATOM      9  C   UNL     1      -2.122   1.405   2.660  1.00  0.00     0.268 C 
ATOM     10  C   UNL     1      -2.511   3.422   1.569  1.00  0.00     0.283 C 
ATOM     11  H   UNL     1      -3.848   1.870   1.646  1.00  0.00     0.348 HD
ATOM     12  C   UNL     1      -0.842   2.234   2.852  1.00  0.00     0.084 C 
ATOM     13  C   UNL     1      -0.598   2.245   4.370  1.00  0.00     0.113 C 
ATOM     14  C   UNL     1      -1.101   4.471   3.675  1.00  0.00     0.127 C 
ATOM     15  N   UNL     1      -1.066   3.551   4.795  1.00  0.00    -0.200 NA
BRANCH   8  16
ATOM     16  C   UNL     1      -2.644   1.282   0.258  1.00  0.00     0.338 C 
BRANCH  16  17
ATOM     17  C   UNL     1      -1.376   0.489   0.075  1.00  0.00     0.161 A 
ATOM     18  C   UNL     1       2.147  -0.050  -0.055  1.00  0.00     0.068 C 
ATOM     19  C   UNL     1       0.673  -0.180  -0.043  1.00  0.00     0.056 A 
ATOM     20  C   UNL     1      -0.095  -1.321  -0.086  1.00  0.00     0.107 A 
ATOM     21  N   UNL     1      -0.134   0.931   0.040  1.00  0.00    -0.233 NA
ATOM     22  N   UNL     1      -1.389  -0.884  -0.034  1.00  0.00    -0.344 N 
ATOM     23  H   UNL     1      -2.192  -1.453  -0.068  1.00  0.00     0.167 HD
ENDBRANCH  16  17
ENDBRANCH   8  16
BRANCH  15  24
ATOM     24  S   UNL     1      -1.873   3.898   6.201  1.00  0.00     0.211 S 
ATOM     25  C   UNL     1      -3.552   4.031   5.620  1.00  0.00     0.176 C 
ATOM     26  O   UNL     1      -1.778   2.755   7.087  1.00  0.00    -0.213 OA
ATOM     27  O   UNL     1      -1.456   5.216   6.619  1.00  0.00    -0.213 OA
ENDBRANCH  15  24
ENDBRANCH   5   7
ENDBRANCH   4   5
ENDBRANCH   3   4
ENDBRANCH   2   3
ENDBRANCH   1   2
BRANCH   1  28
ATOM     28  C   UNL     1       2.498   5.474   1.831  1.00  0.00     0.202 C 
BRANCH  28  29
ATOM     29  C   UNL     1       3.478   5.615   2.992  1.00  0.00     0.261 C 
BRANCH  29  30
ATOM     30  O   UNL     1       2.908   6.417   4.041  1.00  0.00    -0.460 OA
BRANCH  30  31
ATOM     31  C   UNL     1       3.284   7.714   3.984  1.00  0.00     0.338 C 
ATOM     32  O   UNL     1       4.115   8.209   3.240  1.00  0.00    -0.246 OA
BRANCH  31  33
ATOM     33  C   UNL     1       2.438   8.545   4.858  1.00  0.00     0.060 A 
ATOM     34  C   UNL     1       2.010   9.766   4.325  1.00  0.00     0.016 A 
ATOM     35  C   UNL     1       2.170   8.215   6.188  1.00  0.00     0.016 A 
ATOM     36  C   UNL     1       1.419  10.713   5.149  1.00  0.00     0.010 A 
ATOM     37  C   UNL     1       1.569   9.169   7.018  1.00  0.00     0.010 A 
ATOM     38  C   UNL     1       1.255  10.444   6.514  1.00  0.00    -0.014 A 
BRANCH  38  39
ATOM     39  C   UNL     1       0.928  11.579   7.411  1.00  0.00     0.031 A 
ATOM     40  C   UNL     1       2.029  12.214   8.218  1.00  0.00     0.074 A 
ATOM     41  C   UNL     1      -0.306  12.110   7.412  1.00  0.00     0.049 A 
ATOM     42  N   UNL     1       1.991  13.271   8.991  1.00  0.00    -0.248 NA
ATOM     43  C   UNL     1       3.354  11.579   8.139  1.00  0.00     0.031 C 
ATOM     44  C   UNL     1      -1.438  11.606   6.637  1.00  0.00     0.029 A 
ATOM     45  N   UNL     1      -0.806  13.202   8.072  1.00  0.00    -0.354 N 
ATOM     46  C   UNL     1       3.279  13.422   9.489  1.00  0.00     0.074 A 
ATOM     47  C   UNL     1       4.067  12.329   8.965  1.00  0.00     0.031 C 
ATOM     48  C   UNL     1      -2.502  12.395   6.858  1.00  0.00     0.029 A 
ATOM     49  C   UNL     1      -2.132  13.439   7.813  1.00  0.00     0.049 A 
ATOM     50  H   UNL     1      -0.266  13.762   8.675  1.00  0.00     0.167 HD
ATOM     51  C   UNL     1       3.763  14.394  10.300  1.00  0.00     0.037 A 
ATOM     52  C   UNL     1      -2.956  14.386   8.301  1.00  0.00     0.037 A 
ATOM     53  C   UNL     1       2.973  15.480  10.819  1.00  0.00     0.049 A 
ATOM     54  C   UNL     1      -2.406  15.418   9.251  1.00  0.00     0.074 A 
ATOM     55  C   UNL     1       3.369  16.522  11.640  1.00  0.00     0.029 A 
ATOM     56  N   UNL     1       1.618  15.659  10.574  1.00  0.00    -0.354 N 
ATOM     57  N   UNL     1      -1.183  15.570   9.697  1.00  0.00    -0.248 NA
ATOM     58  C   UNL     1      -3.355  16.419   9.755  1.00  0.00     0.031 C 
ATOM     59  C   UNL     1       2.242  17.293  11.944  1.00  0.00     0.029 A 
ATOM     60  C   UNL     1       1.158  16.779  11.250  1.00  0.00     0.049 A 
ATOM     61  H   UNL     1       1.065  15.077  10.005  1.00  0.00     0.167 HD
ATOM     62  C   UNL     1      -1.205  16.702  10.501  1.00  0.00     0.074 A 
ATOM     63  C   UNL     1      -2.562  17.207  10.467  1.00  0.00     0.031 C 
ATOM     64  C   UNL     1      -0.195  17.275  11.202  1.00  0.00     0.037 A 
BRANCH  51  65
ATOM     65  C   UNL     1       5.209  14.309  10.703  1.00  0.00     0.064 A 
ATOM     66  C   UNL     1       6.250  14.522   9.787  1.00  0.00     0.173 A 
ATOM     67  C   UNL     1       5.557  14.046  12.037  1.00  0.00     0.173 A 
ATOM     68  F   UNL     1       5.976  14.766   8.496  1.00  0.00    -0.203 F 
ATOM     69  C   UNL     1       7.583  14.446  10.184  1.00  0.00     0.198 A 
ATOM     70  C   UNL     1       6.890  14.005  12.438  1.00  0.00     0.198 A 
ATOM     71  F   UNL     1       4.603  13.840  12.957  1.00  0.00    -0.203 F 
ATOM     72  F   UNL     1       8.561  14.603   9.281  1.00  0.00    -0.200 F 
ATOM     73  C   UNL     1       7.902  14.197  11.510  1.00  0.00     0.200 A 
ATOM     74  F   UNL     1       7.195  13.780  13.724  1.00  0.00    -0.200 F 
ATOM     75  F   UNL     1       9.185  14.135  11.894  1.00  0.00    -0.200 F 
ENDBRANCH  51  65
BRANCH  52  76
ATOM     76  C   UNL     1      -4.387  14.402   7.899  1.00  0.00     0.064 A 
ATOM     77  C   UNL     1      -4.918  15.451   7.137  1.00  0.00     0.173 A 
ATOM     78  C   UNL     1      -5.259  13.374   8.289  1.00  0.00     0.173 A 
ATOM     79  F   UNL     1      -4.131  16.469   6.758  1.00  0.00    -0.203 F 
ATOM     80  C   UNL     1      -6.270  15.485   6.801  1.00  0.00     0.198 A 
ATOM     81  C   UNL     1      -6.602  13.390   7.923  1.00  0.00     0.198 A 
ATOM     82  F   UNL     1      -4.802  12.345   9.018  1.00  0.00    -0.203 F 
ATOM     83  F   UNL     1      -6.763  16.527   6.119  1.00  0.00    -0.200 F 
ATOM     84  C   UNL     1      -7.110  14.451   7.189  1.00  0.00     0.200 A 
ATOM     85  F   UNL     1      -7.405  12.380   8.285  1.00  0.00    -0.200 F 
ATOM     86  F   UNL     1      -8.409  14.481   6.862  1.00  0.00    -0.200 F 
ENDBRANCH  52  76
BRANCH  64  87
ATOM     87  C   UNL     1      -0.506  18.546  11.944  1.00  0.00     0.064 A 
ATOM     88  C   UNL     1      -1.356  18.569  13.060  1.00  0.00     0.173 A 
ATOM     89  C   UNL     1       0.067  19.761  11.535  1.00  0.00     0.173 A 
ATOM     90  F   UNL     1      -1.939  17.439  13.489  1.00  0.00    -0.203 F 
ATOM     91  C   UNL     1      -1.659  19.765  13.707  1.00  0.00     0.198 A 
ATOM     92  C   UNL     1      -0.206  20.948  12.208  1.00  0.00     0.198 A 
ATOM     93  F   UNL     1       0.897  19.797  10.481  1.00  0.00    -0.203 F 
ATOM     94  F   UNL     1      -2.531  19.772  14.724  1.00  0.00    -0.200 F 
ATOM     95  C   UNL     1      -1.079  20.952  13.284  1.00  0.00     0.200 A 
ATOM     96  F   UNL     1       0.371  22.090  11.810  1.00  0.00    -0.200 F 
ATOM     97  F   UNL     1      -1.372  22.102  13.907  1.00  0.00    -0.200 F 
ENDBRANCH  64  87
ENDBRANCH  38  39
ENDBRANCH  31  33
ENDBRANCH  30  31
ENDBRANCH  29  30
ENDBRANCH  28  29
ENDBRANCH   1  28
TORSDOF 17
