REMARK SMILES C[C@H](Nc1ccc(F)cc1Br)[C@@H](C)C(=O)OCCOCCOC(=O)c1ccc(-c2c3nc(c(-c4c(F)c(F)c(F)c(F)c4F)c4ccc([nH]4)c(-c4c(F)c(F)c(F)c(F)c4F)c4nc(c(-c5c(F)c(F)c(F)c(F)c5F)c5ccc2[nH]5)C=C4)C=C3)cc1
REMARK SMILES IDX 18 1 17 2 16 3 14 4 15 5 12 6 13 7 2 8 1 9 3 10 4 12 5 13
REMARK SMILES IDX 10 14 6 15 9 16 11 17 7 18 8 19 19 20 20 21 21 22 22 23
REMARK SMILES IDX 23 24 24 25 25 26 26 27 87 28 27 29 86 30 28 31 29 32 30 33
REMARK SMILES IDX 80 34 31 35 85 36 79 37 81 38 32 39 84 40 78 41 77 42 33 44
REMARK SMILES IDX 65 45 45 46 64 47 46 48 49 49 63 50 82 51 47 52 48 53 62 55
REMARK SMILES IDX 83 56 50 57 34 58 35 59 43 60 36 61 37 62 41 63 44 64 38 65
REMARK SMILES IDX 39 66 42 67 40 68 66 69 67 70 75 71 68 72 69 73 73 74 76 75
REMARK SMILES IDX 70 76 71 77 74 78 72 79 51 80 52 81 60 82 53 83 54 84 58 85
REMARK SMILES IDX 61 86 55 87 56 88 59 89 57 90
REMARK H PARENT 3 11 81 43 49 54
REMARK Flexibility Score: inf
ROOT
ATOM      1  C   UNL     1      -2.118   0.725   5.581  1.00  0.00     0.202 C 
ENDROOT
BRANCH   1   2
ATOM      2  C   UNL     1      -2.306  -0.187   4.366  1.00  0.00     0.261 C 
BRANCH   2   3
ATOM      3  O   UNL     1      -1.380  -0.014   3.273  1.00  0.00    -0.463 OA
BRANCH   3   4
ATOM      4  C   UNL     1      -1.938   0.466   2.123  1.00  0.00     0.310 C 
ATOM      5  O   UNL     1      -3.036   1.007   2.066  1.00  0.00    -0.252 OA
BRANCH   4   6
ATOM      6  C   UNL     1      -1.133   0.135   0.870  1.00  0.00     0.118 C 
ATOM      7  C   UNL     1      -1.408  -1.339   0.568  1.00  0.00     0.022 C 
BRANCH   6   8
ATOM      8  C   UNL     1       0.363   0.517   0.954  1.00  0.00     0.090 C 
ATOM      9  C   UNL     1       0.503   2.036   1.171  1.00  0.00     0.031 C 
BRANCH   8  10
ATOM     10  N   UNL     1       1.131   0.053  -0.239  1.00  0.00    -0.381 N 
ATOM     11  H   UNL     1       1.343  -0.904  -0.341  1.00  0.00     0.160 HD
BRANCH  10  12
ATOM     12  C   UNL     1       1.554   0.963  -1.216  1.00  0.00     0.049 A 
ATOM     13  C   UNL     1       2.624   1.827  -0.923  1.00  0.00     0.030 A 
ATOM     14  C   UNL     1       0.832   1.186  -2.405  1.00  0.00     0.044 A 
ATOM     15  C   UNL     1       2.888   2.943  -1.718  1.00  0.00     0.041 A 
ATOM     16  C   UNL     1       1.096   2.299  -3.205  1.00  0.00     0.057 A 
ATOM     17  Br  UNL     1      -0.560   0.020  -2.960  1.00  0.00    -0.048 Br
ATOM     18  C   UNL     1       2.102   3.181  -2.836  1.00  0.00     0.124 A 
ATOM     19  F   UNL     1       2.311   4.285  -3.564  1.00  0.00    -0.207 F 
ENDBRANCH  10  12
ENDBRANCH   8  10
ENDBRANCH   6   8
ENDBRANCH   4   6
ENDBRANCH   3   4
ENDBRANCH   2   3
ENDBRANCH   1   2
BRANCH   1  20
ATOM     20  O   UNL     1      -2.151   2.130   5.420  1.00  0.00    -0.374 OA
BRANCH  20  21
ATOM     21  C   UNL     1      -1.222   2.788   4.577  1.00  0.00     0.202 C 
BRANCH  21  22
ATOM     22  C   UNL     1       0.257   2.375   4.543  1.00  0.00     0.261 C 
BRANCH  22  23
ATOM     23  O   UNL     1       0.669   1.383   5.460  1.00  0.00    -0.460 OA
BRANCH  23  24
ATOM     24  C   UNL     1       1.131   1.829   6.639  1.00  0.00     0.338 C 
ATOM     25  O   UNL     1       1.216   2.965   7.048  1.00  0.00    -0.246 OA
BRANCH  24  26
ATOM     26  C   UNL     1       1.453   0.606   7.377  1.00  0.00     0.060 A 
ATOM     27  C   UNL     1       0.665   0.279   8.477  1.00  0.00     0.016 A 
ATOM     28  C   UNL     1       2.488  -0.228   6.936  1.00  0.00     0.016 A 
ATOM     29  C   UNL     1       0.970  -0.863   9.200  1.00  0.00     0.010 A 
ATOM     30  C   UNL     1       2.780  -1.384   7.653  1.00  0.00     0.010 A 
ATOM     31  C   UNL     1       2.054  -1.673   8.818  1.00  0.00    -0.014 A 
BRANCH  31  32
ATOM     32  C   UNL     1       2.492  -2.727   9.753  1.00  0.00     0.031 A 
ATOM     33  C   UNL     1       3.681  -2.464  10.631  1.00  0.00     0.074 A 
ATOM     34  C   UNL     1       1.754  -3.840   9.894  1.00  0.00     0.049 A 
ATOM     35  N   UNL     1       4.126  -3.153  11.650  1.00  0.00    -0.248 NA
ATOM     36  C   UNL     1       4.473  -1.261  10.328  1.00  0.00     0.031 C 
ATOM     37  C   UNL     1       0.583  -4.179   9.087  1.00  0.00     0.029 A 
ATOM     38  N   UNL     1       1.860  -4.870  10.790  1.00  0.00    -0.354 N 
ATOM     39  C   UNL     1       5.237  -2.461  12.113  1.00  0.00     0.074 A 
ATOM     40  C   UNL     1       5.433  -1.329  11.237  1.00  0.00     0.031 C 
ATOM     41  C   UNL     1       0.055  -5.325   9.548  1.00  0.00     0.029 A 
ATOM     42  C   UNL     1       0.864  -5.805  10.666  1.00  0.00     0.049 A 
ATOM     43  H   UNL     1       2.581  -4.934  11.457  1.00  0.00     0.167 HD
ATOM     44  C   UNL     1       6.010  -2.739  13.189  1.00  0.00     0.037 A 
ATOM     45  C   UNL     1       0.630  -6.916  11.388  1.00  0.00     0.037 A 
ATOM     46  C   UNL     1       5.802  -3.874  14.049  1.00  0.00     0.049 A 
ATOM     47  C   UNL     1       1.522  -7.216  12.563  1.00  0.00     0.074 A 
ATOM     48  C   UNL     1       6.513  -4.247  15.176  1.00  0.00     0.029 A 
ATOM     49  N   UNL     1       4.811  -4.829  13.867  1.00  0.00    -0.354 N 
ATOM     50  N   UNL     1       2.540  -6.532  13.028  1.00  0.00    -0.248 NA
ATOM     51  C   UNL     1       1.220  -8.434  13.324  1.00  0.00     0.031 C 
ATOM     52  C   UNL     1       5.990  -5.459  15.639  1.00  0.00     0.029 A 
ATOM     53  C   UNL     1       4.909  -5.807  14.844  1.00  0.00     0.049 A 
ATOM     54  H   UNL     1       4.138  -4.814  13.149  1.00  0.00     0.167 HD
ATOM     55  C   UNL     1       2.985  -7.220  14.149  1.00  0.00     0.074 A 
ATOM     56  C   UNL     1       2.105  -8.361  14.307  1.00  0.00     0.031 C 
ATOM     57  C   UNL     1       4.025  -6.939  14.974  1.00  0.00     0.037 A 
BRANCH  44  58
ATOM     58  C   UNL     1       7.162  -1.818  13.473  1.00  0.00     0.064 A 
ATOM     59  C   UNL     1       6.968  -0.499  13.915  1.00  0.00     0.173 A 
ATOM     60  C   UNL     1       8.482  -2.268  13.320  1.00  0.00     0.173 A 
ATOM     61  F   UNL     1       5.727  -0.011  14.060  1.00  0.00    -0.203 F 
ATOM     62  C   UNL     1       8.052   0.340  14.166  1.00  0.00     0.198 A 
ATOM     63  C   UNL     1       9.562  -1.438  13.604  1.00  0.00     0.198 A 
ATOM     64  F   UNL     1       8.725  -3.518  12.898  1.00  0.00    -0.203 F 
ATOM     65  F   UNL     1       7.841   1.611  14.536  1.00  0.00    -0.200 F 
ATOM     66  C   UNL     1       9.347  -0.132  14.019  1.00  0.00     0.200 A 
ATOM     67  F   UNL     1      10.813  -1.900  13.471  1.00  0.00    -0.200 F 
ATOM     68  F   UNL     1      10.388   0.673  14.268  1.00  0.00    -0.200 F 
ENDBRANCH  44  58
BRANCH  45  69
ATOM     69  C   UNL     1      -0.503  -7.808  11.028  1.00  0.00     0.064 A 
ATOM     70  C   UNL     1      -1.610  -7.966  11.874  1.00  0.00     0.173 A 
ATOM     71  C   UNL     1      -0.498  -8.527   9.823  1.00  0.00     0.173 A 
ATOM     72  F   UNL     1      -1.656  -7.314  13.045  1.00  0.00    -0.203 F 
ATOM     73  C   UNL     1      -2.656  -8.824  11.539  1.00  0.00     0.198 A 
ATOM     74  C   UNL     1      -1.559  -9.358   9.474  1.00  0.00     0.198 A 
ATOM     75  F   UNL     1       0.534  -8.408   8.974  1.00  0.00    -0.203 F 
ATOM     76  F   UNL     1      -3.678  -8.994  12.388  1.00  0.00    -0.200 F 
ATOM     77  C   UNL     1      -2.633  -9.514  10.336  1.00  0.00     0.200 A 
ATOM     78  F   UNL     1      -1.540 -10.008   8.302  1.00  0.00    -0.200 F 
ATOM     79  F   UNL     1      -3.642 -10.334  10.012  1.00  0.00    -0.200 F 
ENDBRANCH  45  69
BRANCH  57  80
ATOM     80  C   UNL     1       4.240  -7.868  16.136  1.00  0.00     0.064 A 
ATOM     81  C   UNL     1       4.668  -9.192  15.955  1.00  0.00     0.173 A 
ATOM     82  C   UNL     1       4.016  -7.425  17.448  1.00  0.00     0.173 A 
ATOM     83  F   UNL     1       4.887  -9.669  14.720  1.00  0.00    -0.203 F 
ATOM     84  C   UNL     1       4.809 -10.053  17.040  1.00  0.00     0.198 A 
ATOM     85  C   UNL     1       4.198  -8.277  18.534  1.00  0.00     0.198 A 
ATOM     86  F   UNL     1       3.619  -6.165  17.680  1.00  0.00    -0.203 F 
ATOM     87  F   UNL     1       5.143 -11.335  16.836  1.00  0.00    -0.200 F 
ATOM     88  C   UNL     1       4.579  -9.594  18.328  1.00  0.00     0.200 A 
ATOM     89  F   UNL     1       3.993  -7.826  19.779  1.00  0.00    -0.200 F 
ATOM     90  F   UNL     1       4.711 -10.425  19.371  1.00  0.00    -0.200 F 
ENDBRANCH  57  80
ENDBRANCH  31  32
ENDBRANCH  24  26
ENDBRANCH  23  24
ENDBRANCH  22  23
ENDBRANCH  21  22
ENDBRANCH  20  21
ENDBRANCH   1  20
TORSDOF 17
