REMARK SMILES [NH3+][C@]1(C(=O)OCCOCCOC(=O)c2ccc(-c3c4nc(c(-c5c(F)c(F)c(F)c(F)c5F)c5ccc([nH]5)c(-c5c(F)c(F)c(F)c(F)c5F)c5nc(c(-c6c(F)c(F)c(F)c(F)c6F)c6ccc3[nH]6)C=C5)C=C4)cc2)CC[C@@H]([NH+]2CCC(C(F)(F)F)CC2)C1
REMARK SMILES IDX 8 1 7 2 6 3 5 4 3 5 4 6 2 7 77 8 90 9 78 10 79 11 1 12 80 16
REMARK SMILES IDX 81 17 89 18 82 20 88 21 83 22 84 23 85 24 86 25 87 26 9 27
REMARK SMILES IDX 10 28 11 29 12 30 13 31 14 32 15 33 76 34 16 35 75 36 17 37
REMARK SMILES IDX 18 38 19 39 69 40 20 41 74 42 68 43 70 44 21 45 73 46 67 47
REMARK SMILES IDX 66 48 22 50 54 51 34 52 53 53 35 54 38 55 52 56 71 57 36 58
REMARK SMILES IDX 37 59 51 61 72 62 39 63 23 64 24 65 32 66 25 67 26 68 30 69
REMARK SMILES IDX 33 70 27 71 28 72 31 73 29 74 55 75 56 76 64 77 57 78 58 79
REMARK SMILES IDX 62 80 65 81 59 82 60 83 63 84 61 85 40 86 41 87 49 88 42 89
REMARK SMILES IDX 43 90 47 91 50 92 44 93 45 94 48 95 46 96
REMARK H PARENT 1 13 1 14 1 15 80 19 70 49 38 60
REMARK Flexibility Score: inf
ROOT
ATOM      1  O   UNL     1       1.789   0.228  -2.818  1.00  0.00    -0.374 OA
ENDROOT
BRANCH   1   2
ATOM      2  C   UNL     1       2.126   1.404  -2.077  1.00  0.00     0.202 C 
BRANCH   2   3
ATOM      3  C   UNL     1       1.055   1.862  -1.082  1.00  0.00     0.261 C 
BRANCH   3   4
ATOM      4  O   UNL     1       1.024   0.991   0.069  1.00  0.00    -0.459 OA
BRANCH   4   5
ATOM      5  C   UNL     1      -0.152   0.364   0.339  1.00  0.00     0.368 C 
ATOM      6  O   UNL     1      -1.187   0.520  -0.301  1.00  0.00    -0.245 OA
BRANCH   5   7
ATOM      7  C   UNL     1      -0.057  -0.606   1.546  1.00  0.00     0.198 C 
ATOM      8  C   UNL     1       0.122  -2.054   1.067  1.00  0.00     0.087 C 
ATOM      9  C   UNL     1       1.147  -0.411   2.482  1.00  0.00     0.145 C 
ATOM     10  C   UNL     1       0.582  -2.804   2.308  1.00  0.00     0.072 C 
ATOM     11  C   UNL     1       1.494  -1.811   3.053  1.00  0.00     0.191 C 
BRANCH   7  12
ATOM     12  N   UNL     1      -1.319  -0.520   2.328  1.00  0.00    -0.343 N 
ATOM     13  H   UNL     1      -1.269  -1.155   3.125  1.00  0.00     0.345 HD
ATOM     14  H   UNL     1      -2.106  -0.783   1.733  1.00  0.00     0.345 HD
ATOM     15  H   UNL     1      -1.449   0.435   2.660  1.00  0.00     0.345 HD
ENDBRANCH   7  12
BRANCH  11  16
ATOM     16  N   UNL     1       2.928  -2.183   3.025  1.00  0.00    -0.332 N 
ATOM     17  C   UNL     1       3.513  -2.310   1.686  1.00  0.00     0.263 C 
ATOM     18  C   UNL     1       3.725  -1.310   3.900  1.00  0.00     0.263 C 
ATOM     19  H   UNL     1       2.962  -3.131   3.399  1.00  0.00     0.348 HD
ATOM     20  C   UNL     1       4.953  -2.822   1.750  1.00  0.00     0.074 C 
ATOM     21  C   UNL     1       5.170  -1.797   4.016  1.00  0.00     0.074 C 
ATOM     22  C   UNL     1       5.816  -1.920   2.634  1.00  0.00     0.106 C 
BRANCH  22  23
ATOM     23  C   UNL     1       7.237  -2.439   2.725  1.00  0.00     0.392 C 
ATOM     24  F   UNL     1       7.798  -2.496   1.495  1.00  0.00    -0.171 F 
ATOM     25  F   UNL     1       8.002  -1.613   3.473  1.00  0.00    -0.171 F 
ATOM     26  F   UNL     1       7.300  -3.670   3.268  1.00  0.00    -0.171 F 
ENDBRANCH  22  23
ENDBRANCH  11  16
ENDBRANCH   5   7
ENDBRANCH   4   5
ENDBRANCH   3   4
ENDBRANCH   2   3
ENDBRANCH   1   2
BRANCH   1  27
ATOM     27  C   UNL     1       1.945  -1.008  -2.124  1.00  0.00     0.202 C 
BRANCH  27  28
ATOM     28  C   UNL     1       3.321  -1.660  -2.268  1.00  0.00     0.261 C 
BRANCH  28  29
ATOM     29  O   UNL     1       4.333  -0.842  -1.652  1.00  0.00    -0.460 OA
BRANCH  29  30
ATOM     30  C   UNL     1       5.113  -0.178  -2.533  1.00  0.00     0.338 C 
ATOM     31  O   UNL     1       5.137  -0.317  -3.750  1.00  0.00    -0.246 OA
BRANCH  30  32
ATOM     32  C   UNL     1       5.870   0.890  -1.857  1.00  0.00     0.060 A 
ATOM     33  C   UNL     1       5.940   2.122  -2.516  1.00  0.00     0.016 A 
ATOM     34  C   UNL     1       6.578   0.678  -0.670  1.00  0.00     0.016 A 
ATOM     35  C   UNL     1       6.796   3.112  -2.050  1.00  0.00     0.010 A 
ATOM     36  C   UNL     1       7.432   1.681  -0.194  1.00  0.00     0.010 A 
ATOM     37  C   UNL     1       7.593   2.874  -0.922  1.00  0.00    -0.014 A 
BRANCH  37  38
ATOM     38  C   UNL     1       8.734   3.788  -0.671  1.00  0.00     0.031 A 
ATOM     39  C   UNL     1      10.106   3.375  -1.134  1.00  0.00     0.074 A 
ATOM     40  C   UNL     1       8.542   5.007  -0.139  1.00  0.00     0.049 A 
ATOM     41  N   UNL     1      11.227   4.051  -1.126  1.00  0.00    -0.248 NA
ATOM     42  C   UNL     1      10.230   2.014  -1.680  1.00  0.00     0.031 C 
ATOM     43  C   UNL     1       7.262   5.529   0.330  1.00  0.00     0.029 A 
ATOM     44  N   UNL     1       9.429   6.029   0.083  1.00  0.00    -0.354 N 
ATOM     45  C   UNL     1      12.184   3.199  -1.663  1.00  0.00     0.074 A 
ATOM     46  C   UNL     1      11.525   1.943  -1.944  1.00  0.00     0.031 C 
ATOM     47  C   UNL     1       7.445   6.779   0.789  1.00  0.00     0.029 A 
ATOM     48  C   UNL     1       8.857   7.138   0.652  1.00  0.00     0.049 A 
ATOM     49  H   UNL     1      10.386   5.972  -0.144  1.00  0.00     0.167 HD
ATOM     50  C   UNL     1      13.491   3.446  -1.919  1.00  0.00     0.037 A 
ATOM     51  C   UNL     1       9.410   8.309   1.020  1.00  0.00     0.037 A 
ATOM     52  C   UNL     1      14.147   4.696  -1.647  1.00  0.00     0.049 A 
ATOM     53  C   UNL     1      10.870   8.559   0.746  1.00  0.00     0.074 A 
ATOM     54  C   UNL     1      15.460   5.057  -1.895  1.00  0.00     0.029 A 
ATOM     55  N   UNL     1      13.536   5.792  -1.054  1.00  0.00    -0.354 N 
ATOM     56  N   UNL     1      11.755   7.766   0.190  1.00  0.00    -0.248 NA
ATOM     57  C   UNL     1      11.401   9.873   1.131  1.00  0.00     0.031 C 
ATOM     58  C   UNL     1      15.655   6.355  -1.409  1.00  0.00     0.029 A 
ATOM     59  C   UNL     1      14.451   6.821  -0.905  1.00  0.00     0.049 A 
ATOM     60  H   UNL     1      12.591   5.831  -0.779  1.00  0.00     0.167 HD
ATOM     61  C   UNL     1      12.940   8.489   0.141  1.00  0.00     0.074 A 
ATOM     62  C   UNL     1      12.655   9.792   0.708  1.00  0.00     0.031 C 
ATOM     63  C   UNL     1      14.153   8.110  -0.333  1.00  0.00     0.037 A 
BRANCH  50  64
ATOM     64  C   UNL     1      14.296   2.321  -2.502  1.00  0.00     0.064 A 
ATOM     65  C   UNL     1      14.103   1.878  -3.819  1.00  0.00     0.173 A 
ATOM     66  C   UNL     1      15.267   1.669  -1.726  1.00  0.00     0.173 A 
ATOM     67  F   UNL     1      13.175   2.456  -4.597  1.00  0.00    -0.203 F 
ATOM     68  C   UNL     1      14.824   0.799  -4.326  1.00  0.00     0.198 A 
ATOM     69  C   UNL     1      16.007   0.610  -2.246  1.00  0.00     0.198 A 
ATOM     70  F   UNL     1      15.494   2.055  -0.462  1.00  0.00    -0.203 F 
ATOM     71  F   UNL     1      14.579   0.354  -5.566  1.00  0.00    -0.200 F 
ATOM     72  C   UNL     1      15.777   0.169  -3.540  1.00  0.00     0.200 A 
ATOM     73  F   UNL     1      16.935   0.009  -1.489  1.00  0.00    -0.200 F 
ATOM     74  F   UNL     1      16.467  -0.872  -4.027  1.00  0.00    -0.200 F 
ENDBRANCH  50  64
BRANCH  51  75
ATOM     75  C   UNL     1       8.567   9.337   1.681  1.00  0.00     0.064 A 
ATOM     76  C   UNL     1       8.198  10.515   1.019  1.00  0.00     0.173 A 
ATOM     77  C   UNL     1       8.094   9.145   2.988  1.00  0.00     0.173 A 
ATOM     78  F   UNL     1       8.643  10.752  -0.223  1.00  0.00    -0.203 F 
ATOM     79  C   UNL     1       7.393  11.467   1.643  1.00  0.00     0.198 A 
ATOM     80  C   UNL     1       7.270  10.085   3.601  1.00  0.00     0.198 A 
ATOM     81  F   UNL     1       8.419   8.032   3.662  1.00  0.00    -0.203 F 
ATOM     82  F   UNL     1       7.078  12.599   1.000  1.00  0.00    -0.200 F 
ATOM     83  C   UNL     1       6.923  11.247   2.929  1.00  0.00     0.200 A 
ATOM     84  F   UNL     1       6.807   9.862   4.839  1.00  0.00    -0.200 F 
ATOM     85  F   UNL     1       6.138  12.157   3.523  1.00  0.00    -0.200 F 
ENDBRANCH  51  75
BRANCH  63  86
ATOM     86  C   UNL     1      15.260   9.123  -0.277  1.00  0.00     0.064 A 
ATOM     87  C   UNL     1      15.863   9.488   0.936  1.00  0.00     0.173 A 
ATOM     88  C   UNL     1      15.749   9.708  -1.456  1.00  0.00     0.173 A 
ATOM     89  F   UNL     1      15.423   8.967   2.091  1.00  0.00    -0.203 F 
ATOM     90  C   UNL     1      16.894  10.423   0.970  1.00  0.00     0.198 A 
ATOM     91  C   UNL     1      16.799  10.621  -1.421  1.00  0.00     0.198 A 
ATOM     92  F   UNL     1      15.213   9.386  -2.643  1.00  0.00    -0.203 F 
ATOM     93  F   UNL     1      17.422  10.793   2.145  1.00  0.00    -0.200 F 
ATOM     94  C   UNL     1      17.365  10.984  -0.208  1.00  0.00     0.200 A 
ATOM     95  F   UNL     1      17.261  11.152  -2.561  1.00  0.00    -0.200 F 
ATOM     96  F   UNL     1      18.360  11.881  -0.174  1.00  0.00    -0.200 F 
ENDBRANCH  63  86
ENDBRANCH  37  38
ENDBRANCH  30  32
ENDBRANCH  29  30
ENDBRANCH  28  29
ENDBRANCH  27  28
ENDBRANCH   1  27
TORSDOF 17
