REMARK SMILES O=C(COc1ccccc1[C@@H]1[NH2+]CCc2cc(O)c(O)cc21)OCCOCCOC(=O)c1ccc(-c2c3nc(c(-c4c(F)c(F)c(F)c(F)c4F)c4ccc([nH]4)c(-c4c(F)c(F)c(F)c(F)c4F)c4nc(c(-c5c(F)c(F)c(F)c(F)c5F)c5ccc2[nH]5)C=C4)C=C3)cc1
REMARK SMILES IDX 25 1 24 2 23 3 2 4 1 5 3 6 4 7 5 8 6 9 10 10 7 11 9 12 8 13
REMARK SMILES IDX 11 14 12 15 22 16 13 17 15 20 21 21 14 22 16 23 19 24 17 25
REMARK SMILES IDX 20 26 18 28 26 30 27 31 28 32 29 33 30 34 31 35 32 36 33 37
REMARK SMILES IDX 94 38 34 39 93 40 35 41 36 42 37 43 87 44 38 45 92 46 86 47
REMARK SMILES IDX 88 48 39 49 91 50 85 51 84 52 40 54 72 55 52 56 71 57 53 58
REMARK SMILES IDX 56 59 70 60 89 61 54 62 55 63 69 65 90 66 57 67 41 68 42 69
REMARK SMILES IDX 50 70 43 71 44 72 48 73 51 74 45 75 46 76 49 77 47 78 73 79
REMARK SMILES IDX 74 80 82 81 75 82 76 83 80 84 83 85 77 86 78 87 81 88 79 89
REMARK SMILES IDX 58 90 59 91 67 92 60 93 61 94 65 95 68 96 62 97 63 98 66 99
REMARK SMILES IDX 64 100
REMARK H PARENT 12 18 12 19 20 27 18 29 88 53 56 64
REMARK Flexibility Score: inf
ROOT
ATOM      1  C   UNL     1       5.478  -1.556  -0.198  1.00  0.00     0.202 C 
ENDROOT
BRANCH   1   2
ATOM      2  C   UNL     1       5.531  -0.186   0.502  1.00  0.00     0.261 C 
BRANCH   2   3
ATOM      3  O   UNL     1       4.255   0.177   1.049  1.00  0.00    -0.461 OA
BRANCH   3   4
ATOM      4  C   UNL     1       3.251   0.218   0.142  1.00  0.00     0.344 C 
ATOM      5  O   UNL     1       2.288  -0.538   0.246  1.00  0.00    -0.248 OA
BRANCH   4   6
ATOM      6  C   UNL     1       3.475   1.226  -0.995  1.00  0.00     0.351 C 
BRANCH   6   7
ATOM      7  O   UNL     1       3.702   2.586  -0.740  1.00  0.00    -0.481 OA
BRANCH   7   8
ATOM      8  C   UNL     1       3.027   3.320   0.188  1.00  0.00     0.129 A 
ATOM      9  C   UNL     1       3.840   4.415   0.557  1.00  0.00     0.047 A 
ATOM     10  C   UNL     1       1.735   3.186   0.747  1.00  0.00     0.056 A 
ATOM     11  C   UNL     1       3.441   5.348   1.503  1.00  0.00     0.004 A 
ATOM     12  C   UNL     1       1.378   4.132   1.745  1.00  0.00     0.014 A 
ATOM     13  C   UNL     1       2.210   5.196   2.112  1.00  0.00     0.001 A 
BRANCH  10  14
ATOM     14  C   UNL     1       0.718   2.081   0.438  1.00  0.00     0.249 C 
ATOM     15  N   UNL     1       0.738   1.603  -0.954  1.00  0.00    -0.336 N 
ATOM     16  C   UNL     1      -0.767   2.307   0.750  1.00  0.00     0.021 A 
ATOM     17  C   UNL     1       0.204   2.564  -1.927  1.00  0.00     0.266 C 
ATOM     18  H   UNL     1       0.182   0.750  -1.008  1.00  0.00     0.347 HD
ATOM     19  H   UNL     1       1.717   1.452  -1.198  1.00  0.00     0.347 HD
ATOM     20  C   UNL     1      -1.530   3.013  -0.212  1.00  0.00    -0.029 A 
ATOM     21  C   UNL     1      -1.410   1.631   1.798  1.00  0.00     0.060 A 
ATOM     22  C   UNL     1      -0.777   3.607  -1.372  1.00  0.00     0.097 C 
ATOM     23  C   UNL     1      -2.921   3.027  -0.140  1.00  0.00     0.054 A 
ATOM     24  C   UNL     1      -2.800   1.625   1.835  1.00  0.00     0.157 A 
ATOM     25  C   UNL     1      -3.542   2.308   0.869  1.00  0.00     0.157 A 
BRANCH  24  26
ATOM     26  O   UNL     1      -3.492   0.906   2.771  1.00  0.00    -0.504 OA
ATOM     27  H   UNL     1      -4.429   0.919   2.773  1.00  0.00     0.293 HD
ENDBRANCH  24  26
BRANCH  25  28
ATOM     28  O   UNL     1      -4.905   2.221   0.875  1.00  0.00    -0.504 OA
ATOM     29  H   UNL     1      -5.406   2.678   0.228  1.00  0.00     0.293 HD
ENDBRANCH  25  28
ENDBRANCH  10  14
ENDBRANCH   7   8
ENDBRANCH   6   7
ENDBRANCH   4   6
ENDBRANCH   3   4
ENDBRANCH   2   3
ENDBRANCH   1   2
BRANCH   1  30
ATOM     30  O   UNL     1       5.230  -1.548  -1.604  1.00  0.00    -0.374 OA
BRANCH  30  31
ATOM     31  C   UNL     1       3.952  -1.921  -2.126  1.00  0.00     0.202 C 
BRANCH  31  32
ATOM     32  C   UNL     1       3.328  -3.308  -1.881  1.00  0.00     0.261 C 
BRANCH  32  33
ATOM     33  O   UNL     1       3.629  -3.896  -0.619  1.00  0.00    -0.460 OA
BRANCH  33  34
ATOM     34  C   UNL     1       4.756  -4.637  -0.628  1.00  0.00     0.338 C 
ATOM     35  O   UNL     1       5.460  -4.915  -1.593  1.00  0.00    -0.246 OA
BRANCH  34  36
ATOM     36  C   UNL     1       5.156  -4.903   0.757  1.00  0.00     0.060 A 
ATOM     37  C   UNL     1       6.463  -4.560   1.116  1.00  0.00     0.016 A 
ATOM     38  C   UNL     1       4.285  -5.496   1.676  1.00  0.00     0.016 A 
ATOM     39  C   UNL     1       6.928  -4.853   2.387  1.00  0.00     0.010 A 
ATOM     40  C   UNL     1       4.763  -5.823   2.946  1.00  0.00     0.010 A 
ATOM     41  C   UNL     1       6.099  -5.541   3.280  1.00  0.00    -0.014 A 
BRANCH  41  42
ATOM     42  C   UNL     1       6.742  -6.172   4.449  1.00  0.00     0.031 A 
ATOM     43  C   UNL     1       7.237  -7.582   4.298  1.00  0.00     0.074 A 
ATOM     44  C   UNL     1       6.985  -5.460   5.560  1.00  0.00     0.049 A 
ATOM     45  N   UNL     1       7.921  -8.317   5.134  1.00  0.00    -0.248 NA
ATOM     46  C   UNL     1       6.928  -8.251   3.022  1.00  0.00     0.031 C 
ATOM     47  C   UNL     1       6.583  -4.072   5.777  1.00  0.00     0.029 A 
ATOM     48  N   UNL     1       7.646  -5.807   6.708  1.00  0.00    -0.354 N 
ATOM     49  C   UNL     1       8.139  -9.522   4.479  1.00  0.00     0.074 A 
ATOM     50  C   UNL     1       7.479  -9.442   3.197  1.00  0.00     0.031 C 
ATOM     51  C   UNL     1       7.002  -3.684   6.994  1.00  0.00     0.029 A 
ATOM     52  C   UNL     1       7.687  -4.802   7.640  1.00  0.00     0.049 A 
ATOM     53  H   UNL     1       8.052  -6.693   6.850  1.00  0.00     0.167 HD
ATOM     54  C   UNL     1       8.845 -10.594   4.907  1.00  0.00     0.037 A 
ATOM     55  C   UNL     1       8.216  -4.800   8.877  1.00  0.00     0.037 A 
ATOM     56  C   UNL     1       9.480 -10.667   6.195  1.00  0.00     0.049 A 
ATOM     57  C   UNL     1       8.943  -6.030   9.355  1.00  0.00     0.074 A 
ATOM     58  C   UNL     1      10.195 -11.712   6.750  1.00  0.00     0.029 A 
ATOM     59  N   UNL     1       9.468  -9.644   7.133  1.00  0.00    -0.354 N 
ATOM     60  N   UNL     1       9.154  -7.165   8.729  1.00  0.00    -0.248 NA
ATOM     61  C   UNL     1       9.519  -5.975  10.705  1.00  0.00     0.031 C 
ATOM     62  C   UNL     1      10.581 -11.336   8.042  1.00  0.00     0.029 A 
ATOM     63  C   UNL     1      10.151 -10.038   8.271  1.00  0.00     0.049 A 
ATOM     64  H   UNL     1       9.037  -8.768   7.008  1.00  0.00     0.167 HD
ATOM     65  C   UNL     1       9.900  -7.949   9.598  1.00  0.00     0.074 A 
ATOM     66  C   UNL     1      10.129  -7.149  10.785  1.00  0.00     0.031 C 
ATOM     67  C   UNL     1      10.354  -9.218   9.438  1.00  0.00     0.037 A 
BRANCH  54  68
ATOM     68  C   UNL     1       8.942 -11.770   3.982  1.00  0.00     0.064 A 
ATOM     69  C   UNL     1       9.720 -11.723   2.814  1.00  0.00     0.173 A 
ATOM     70  C   UNL     1       8.261 -12.961   4.269  1.00  0.00     0.173 A 
ATOM     71  F   UNL     1      10.372 -10.599   2.481  1.00  0.00    -0.203 F 
ATOM     72  C   UNL     1       9.795 -12.820   1.958  1.00  0.00     0.198 A 
ATOM     73  C   UNL     1       8.360 -14.065   3.426  1.00  0.00     0.198 A 
ATOM     74  F   UNL     1       7.500 -13.056   5.369  1.00  0.00    -0.203 F 
ATOM     75  F   UNL     1      10.507 -12.737   0.826  1.00  0.00    -0.200 F 
ATOM     76  C   UNL     1       9.122 -13.992   2.269  1.00  0.00     0.200 A 
ATOM     77  F   UNL     1       7.715 -15.199   3.730  1.00  0.00    -0.200 F 
ATOM     78  F   UNL     1       9.200 -15.049   1.448  1.00  0.00    -0.200 F 
ENDBRANCH  54  68
BRANCH  55  79
ATOM     79  C   UNL     1       8.069  -3.604   9.746  1.00  0.00     0.064 A 
ATOM     80  C   UNL     1       9.174  -2.825  10.114  1.00  0.00     0.173 A 
ATOM     81  C   UNL     1       6.811  -3.224  10.240  1.00  0.00     0.173 A 
ATOM     82  F   UNL     1      10.401  -3.157   9.685  1.00  0.00    -0.203 F 
ATOM     83  C   UNL     1       9.031  -1.726  10.959  1.00  0.00     0.198 A 
ATOM     84  C   UNL     1       6.665  -2.109  11.060  1.00  0.00     0.198 A 
ATOM     85  F   UNL     1       5.721  -3.935   9.918  1.00  0.00    -0.203 F 
ATOM     86  F   UNL     1      10.111  -1.027  11.335  1.00  0.00    -0.200 F 
ATOM     87  C   UNL     1       7.776  -1.365  11.427  1.00  0.00     0.200 A 
ATOM     88  F   UNL     1       5.448  -1.757  11.499  1.00  0.00    -0.200 F 
ATOM     89  F   UNL     1       7.638  -0.308  12.238  1.00  0.00    -0.200 F 
ENDBRANCH  55  79
BRANCH  67  90
ATOM     90  C   UNL     1      11.153  -9.800  10.568  1.00  0.00     0.064 A 
ATOM     91  C   UNL     1      10.553 -10.152  11.786  1.00  0.00     0.173 A 
ATOM     92  C   UNL     1      12.530 -10.023  10.422  1.00  0.00     0.173 A 
ATOM     93  F   UNL     1       9.241  -9.945  11.977  1.00  0.00    -0.203 F 
ATOM     94  C   UNL     1      11.311 -10.669  12.832  1.00  0.00     0.198 A 
ATOM     95  C   UNL     1      13.278 -10.572  11.459  1.00  0.00     0.198 A 
ATOM     96  F   UNL     1      13.149  -9.714   9.273  1.00  0.00    -0.203 F 
ATOM     97  F   UNL     1      10.728 -10.940  14.008  1.00  0.00    -0.200 F 
ATOM     98  C   UNL     1      12.671 -10.883  12.667  1.00  0.00     0.200 A 
ATOM     99  F   UNL     1      14.590 -10.792  11.293  1.00  0.00    -0.200 F 
ATOM    100  F   UNL     1      13.399 -11.380  13.676  1.00  0.00    -0.200 F 
ENDBRANCH  67  90
ENDBRANCH  41  42
ENDBRANCH  34  36
ENDBRANCH  33  34
ENDBRANCH  32  33
ENDBRANCH  31  32
ENDBRANCH  30  31
ENDBRANCH   1  30
TORSDOF 19
