REMARK SMILES O=C1CN(S(=O)(=O)c2ccc(CC(=O)OCCOCCOC(=O)c3ccc(-c4c5nc(c(-c6c(F)c(F)c(F)c(F)c6F)c6ccc([nH]6)c(-c6c(F)c(F)c(F)c(F)c6F)c6nc(c(-c7c(F)c(F)c(F)c(F)c7F)c7ccc4[nH]7)C=C6)C=C5)cc3)cc2)CCN1
REMARK SMILES IDX 17 1 16 2 15 3 13 4 14 5 12 6 11 7 8 8 9 9 88 10 10 11 87 12
REMARK SMILES IDX 5 13 6 14 7 15 4 16 1 17 2 18 3 19 91 20 90 21 89 23 18 24
REMARK SMILES IDX 19 25 20 26 21 27 22 28 23 29 24 30 25 31 86 32 26 33 85 34
REMARK SMILES IDX 27 35 28 36 29 37 79 38 30 39 84 40 78 41 80 42 31 43 83 44
REMARK SMILES IDX 77 45 76 46 32 48 64 49 44 50 63 51 45 52 48 53 62 54 81 55
REMARK SMILES IDX 46 56 47 57 61 59 82 60 49 61 33 62 34 63 42 64 35 65 36 66
REMARK SMILES IDX 40 67 43 68 37 69 38 70 41 71 39 72 65 73 66 74 74 75 67 76
REMARK SMILES IDX 68 77 72 78 75 79 69 80 70 81 73 82 71 83 50 84 51 85 59 86
REMARK SMILES IDX 52 87 53 88 57 89 60 90 54 91 55 92 58 93 56 94
REMARK H PARENT 91 22 80 47 48 58
REMARK Flexibility Score: inf
ROOT
ATOM      1  C   UNL     1      -0.351  -4.734   8.938  1.00  0.00     0.202 C 
ENDROOT
BRANCH   1   2
ATOM      2  C   UNL     1       0.930  -5.185   8.228  1.00  0.00     0.261 C 
BRANCH   2   3
ATOM      3  O   UNL     1       0.845  -5.101   6.793  1.00  0.00    -0.463 OA
BRANCH   3   4
ATOM      4  C   UNL     1       0.900  -6.291   6.137  1.00  0.00     0.310 C 
ATOM      5  O   UNL     1       1.086  -7.374   6.684  1.00  0.00    -0.252 OA
BRANCH   4   6
ATOM      6  C   UNL     1       0.736  -6.196   4.637  1.00  0.00     0.158 C 
BRANCH   6   7
ATOM      7  C   UNL     1       0.179  -4.925   4.032  1.00  0.00    -0.037 A 
ATOM      8  C   UNL     1      -0.818  -2.609   2.787  1.00  0.00     0.082 A 
ATOM      9  C   UNL     1      -1.690  -3.649   3.115  1.00  0.00     0.022 A 
ATOM     10  C   UNL     1       0.542  -2.709   3.103  1.00  0.00     0.022 A 
ATOM     11  C   UNL     1      -1.189  -4.803   3.731  1.00  0.00     0.006 A 
ATOM     12  C   UNL     1       1.037  -3.865   3.710  1.00  0.00     0.006 A 
BRANCH   8  13
ATOM     13  S   UNL     1      -1.454  -1.068   2.164  1.00  0.00     0.243 S 
ATOM     14  O   UNL     1      -0.601  -0.017   2.683  1.00  0.00    -0.207 OA
ATOM     15  O   UNL     1      -2.876  -1.041   2.427  1.00  0.00    -0.207 OA
BRANCH  13  16
ATOM     16  N   UNL     1      -1.264  -1.132   0.465  1.00  0.00    -0.187 NA
ATOM     17  O   UNL     1       2.191  -0.024   0.110  1.00  0.00    -0.274 OA
ATOM     18  C   UNL     1       0.964   0.001   0.035  1.00  0.00     0.235 C 
ATOM     19  C   UNL     1       0.131  -1.270  -0.043  1.00  0.00     0.202 C 
ATOM     20  N   UNL     1       0.299   1.193  -0.101  1.00  0.00    -0.354 N 
ATOM     21  C   UNL     1      -1.145   1.333  -0.003  1.00  0.00     0.132 C 
ATOM     22  H   UNL     1       0.831   2.003  -0.276  1.00  0.00     0.163 HD
ATOM     23  C   UNL     1      -1.912   0.024  -0.249  1.00  0.00     0.124 C 
ENDBRANCH  13  16
ENDBRANCH   8  13
ENDBRANCH   6   7
ENDBRANCH   4   6
ENDBRANCH   3   4
ENDBRANCH   2   3
ENDBRANCH   1   2
BRANCH   1  24
ATOM     24  O   UNL     1      -1.567  -5.399   8.608  1.00  0.00    -0.374 OA
BRANCH  24  25
ATOM     25  C   UNL     1      -2.137  -5.157   7.324  1.00  0.00     0.202 C 
BRANCH  25  26
ATOM     26  C   UNL     1      -2.771  -3.784   7.062  1.00  0.00     0.261 C 
BRANCH  26  27
ATOM     27  O   UNL     1      -1.849  -2.692   7.206  1.00  0.00    -0.460 OA
BRANCH  27  28
ATOM     28  C   UNL     1      -2.084  -1.909   8.287  1.00  0.00     0.338 C 
ATOM     29  O   UNL     1      -2.998  -2.007   9.089  1.00  0.00    -0.246 OA
BRANCH  28  30
ATOM     30  C   UNL     1      -0.961  -0.979   8.504  1.00  0.00     0.060 A 
ATOM     31  C   UNL     1      -0.401  -0.943   9.788  1.00  0.00     0.016 A 
ATOM     32  C   UNL     1      -0.537  -0.089   7.516  1.00  0.00     0.016 A 
ATOM     33  C   UNL     1       0.532   0.037  10.114  1.00  0.00     0.010 A 
ATOM     34  C   UNL     1       0.399   0.897   7.846  1.00  0.00     0.010 A 
ATOM     35  C   UNL     1       0.898   0.994   9.159  1.00  0.00    -0.014 A 
BRANCH  35  36
ATOM     36  C   UNL     1       1.660   2.190   9.593  1.00  0.00     0.031 A 
ATOM     37  C   UNL     1       0.922   3.484   9.802  1.00  0.00     0.074 A 
ATOM     38  C   UNL     1       2.977   2.110   9.850  1.00  0.00     0.049 A 
ATOM     39  N   UNL     1       1.379   4.655  10.167  1.00  0.00    -0.248 NA
ATOM     40  C   UNL     1      -0.530   3.454   9.566  1.00  0.00     0.031 C 
ATOM     41  C   UNL     1       3.788   0.901   9.727  1.00  0.00     0.029 A 
ATOM     42  N   UNL     1       3.864   3.071  10.268  1.00  0.00    -0.354 N 
ATOM     43  C   UNL     1       0.276   5.500  10.194  1.00  0.00     0.074 A 
ATOM     44  C   UNL     1      -0.867   4.718   9.775  1.00  0.00     0.031 C 
ATOM     45  C   UNL     1       5.058   1.193  10.055  1.00  0.00     0.029 A 
ATOM     46  C   UNL     1       5.154   2.615  10.379  1.00  0.00     0.049 A 
ATOM     47  H   UNL     1       3.600   3.998  10.468  1.00  0.00     0.167 HD
ATOM     48  C   UNL     1       0.221   6.806  10.546  1.00  0.00     0.037 A 
ATOM     49  C   UNL     1       6.284   3.280  10.687  1.00  0.00     0.037 A 
ATOM     50  C   UNL     1       1.363   7.577  10.964  1.00  0.00     0.049 A 
ATOM     51  C   UNL     1       6.207   4.750  11.012  1.00  0.00     0.074 A 
ATOM     52  C   UNL     1       1.415   8.903  11.356  1.00  0.00     0.029 A 
ATOM     53  N   UNL     1       2.660   7.088  11.038  1.00  0.00    -0.354 N 
ATOM     54  N   UNL     1       5.158   5.536  11.057  1.00  0.00    -0.248 NA
ATOM     55  C   UNL     1       7.472   5.422  11.339  1.00  0.00     0.031 C 
ATOM     56  C   UNL     1       2.750   9.232  11.608  1.00  0.00     0.029 A 
ATOM     57  C   UNL     1       3.523   8.094  11.444  1.00  0.00     0.049 A 
ATOM     58  H   UNL     1       2.928   6.163  10.832  1.00  0.00     0.167 HD
ATOM     59  C   UNL     1       5.629   6.782  11.453  1.00  0.00     0.074 A 
ATOM     60  C   UNL     1       7.058   6.643  11.645  1.00  0.00     0.031 C 
ATOM     61  C   UNL     1       4.941   7.935  11.645  1.00  0.00     0.037 A 
BRANCH  48  62
ATOM     62  C   UNL     1      -1.112   7.494  10.463  1.00  0.00     0.064 A 
ATOM     63  C   UNL     1      -2.161   7.189  11.345  1.00  0.00     0.173 A 
ATOM     64  C   UNL     1      -1.334   8.496   9.505  1.00  0.00     0.173 A 
ATOM     65  F   UNL     1      -2.007   6.231  12.271  1.00  0.00    -0.203 F 
ATOM     66  C   UNL     1      -3.389   7.840  11.251  1.00  0.00     0.198 A 
ATOM     67  C   UNL     1      -2.551   9.168   9.436  1.00  0.00     0.198 A 
ATOM     68  F   UNL     1      -0.365   8.832   8.640  1.00  0.00    -0.203 F 
ATOM     69  F   UNL     1      -4.393   7.495  12.070  1.00  0.00    -0.200 F 
ATOM     70  C   UNL     1      -3.581   8.834  10.303  1.00  0.00     0.200 A 
ATOM     71  F   UNL     1      -2.729  10.138   8.529  1.00  0.00    -0.200 F 
ATOM     72  F   UNL     1      -4.760   9.465  10.219  1.00  0.00    -0.200 F 
ENDBRANCH  48  62
BRANCH  49  73
ATOM     73  C   UNL     1       7.588   2.564  10.698  1.00  0.00     0.064 A 
ATOM     74  C   UNL     1       8.300   2.371  11.890  1.00  0.00     0.173 A 
ATOM     75  C   UNL     1       8.157   2.073   9.513  1.00  0.00     0.173 A 
ATOM     76  F   UNL     1       7.810   2.841  13.046  1.00  0.00    -0.203 F 
ATOM     77  C   UNL     1       9.540   1.735  11.893  1.00  0.00     0.198 A 
ATOM     78  C   UNL     1       9.381   1.409   9.522  1.00  0.00     0.198 A 
ATOM     79  F   UNL     1       7.518   2.231   8.345  1.00  0.00    -0.203 F 
ATOM     80  F   UNL     1      10.223   1.611  13.039  1.00  0.00    -0.200 F 
ATOM     81  C   UNL     1      10.077   1.249  10.711  1.00  0.00     0.200 A 
ATOM     82  F   UNL     1       9.889   0.929   8.379  1.00  0.00    -0.200 F 
ATOM     83  F   UNL     1      11.268   0.636  10.715  1.00  0.00    -0.200 F 
ENDBRANCH  49  73
BRANCH  61  84
ATOM     84  C   UNL     1       5.712   9.126  12.143  1.00  0.00     0.064 A 
ATOM     85  C   UNL     1       6.641   9.800  11.339  1.00  0.00     0.173 A 
ATOM     86  C   UNL     1       5.485   9.620  13.438  1.00  0.00     0.173 A 
ATOM     87  F   UNL     1       6.905   9.363  10.098  1.00  0.00    -0.203 F 
ATOM     88  C   UNL     1       7.340  10.904  11.823  1.00  0.00     0.198 A 
ATOM     89  C   UNL     1       6.158  10.745  13.906  1.00  0.00     0.198 A 
ATOM     90  F   UNL     1       4.599   9.019  14.246  1.00  0.00    -0.203 F 
ATOM     91  F   UNL     1       8.265  11.497  11.057  1.00  0.00    -0.200 F 
ATOM     92  C   UNL     1       7.092  11.379  13.102  1.00  0.00     0.200 A 
ATOM     93  F   UNL     1       5.903  11.213  15.135  1.00  0.00    -0.200 F 
ATOM     94  F   UNL     1       7.760  12.446  13.563  1.00  0.00    -0.200 F 
ENDBRANCH  61  84
ENDBRANCH  35  36
ENDBRANCH  28  30
ENDBRANCH  27  28
ENDBRANCH  26  27
ENDBRANCH  25  26
ENDBRANCH  24  25
ENDBRANCH   1  24
TORSDOF 17
