REMARK SMILES O=C(OCCOCCOC(=O)[C@H]1CCC(=O)N(C[C@@H]2COc3ccccc32)C1)c1ccc(-c2c3nc(c(-c4c(F)c(F)c(F)c(F)c4F)c4ccc([nH]4)c(-c4c(F)c(F)c(F)c(F)c4F)c4nc(c(-c5c(F)c(F)c(F)c(F)c5F)c5ccc2[nH]5)C=C4)C=C3)cc1
REMARK SMILES IDX 6 1 5 2 4 3 3 4 2 5 1 6 29 7 30 8 91 9 31 10 90 11 32 12
REMARK SMILES IDX 33 13 34 14 84 15 35 16 89 17 83 18 85 19 36 20 88 21 82 22
REMARK SMILES IDX 81 23 37 25 69 26 49 27 68 28 50 29 53 30 67 31 86 32 51 33
REMARK SMILES IDX 52 34 66 36 87 37 54 38 38 39 39 40 47 41 40 42 41 43 45 44
REMARK SMILES IDX 48 45 42 46 43 47 46 48 44 49 70 50 71 51 79 52 72 53 73 54
REMARK SMILES IDX 77 55 80 56 74 57 75 58 78 59 76 60 55 61 56 62 64 63 57 64
REMARK SMILES IDX 58 65 62 66 65 67 59 68 60 69 63 70 61 71 7 72 8 73 9 74
REMARK SMILES IDX 10 75 11 76 12 77 13 78 28 79 14 80 17 81 15 82 16 83 18 84
REMARK SMILES IDX 19 85 20 86 27 87 21 88 22 89 26 90 23 91 25 92 24 93
REMARK H PARENT 85 24 53 35
REMARK Flexibility Score: inf
ROOT
ATOM      1  O   UNL     1       1.756   7.754  11.336  1.00  0.00    -0.374 OA
ENDROOT
BRANCH   1   2
ATOM      2  C   UNL     1       0.520   8.328  10.905  1.00  0.00     0.202 C 
BRANCH   2   3
ATOM      3  C   UNL     1      -0.270   8.986  12.036  1.00  0.00     0.261 C 
BRANCH   3   4
ATOM      4  O   UNL     1       0.521   9.988  12.687  1.00  0.00    -0.460 OA
BRANCH   4   5
ATOM      5  C   UNL     1       1.369   9.837  13.729  1.00  0.00     0.338 C 
ATOM      6  O   UNL     1       2.096  10.786  14.022  1.00  0.00    -0.246 OA
BRANCH   5   7
ATOM      7  C   UNL     1       1.470   8.605  14.578  1.00  0.00     0.060 A 
ATOM      8  C   UNL     1       1.188   7.295  14.176  1.00  0.00     0.016 A 
ATOM      9  C   UNL     1       1.999   8.790  15.868  1.00  0.00     0.016 A 
ATOM     10  C   UNL     1       1.412   6.210  15.016  1.00  0.00     0.010 A 
ATOM     11  C   UNL     1       2.241   7.706  16.715  1.00  0.00     0.010 A 
ATOM     12  C   UNL     1       1.945   6.411  16.284  1.00  0.00    -0.014 A 
BRANCH  12  13
ATOM     13  C   UNL     1       2.131   5.246  17.162  1.00  0.00     0.031 A 
ATOM     14  C   UNL     1       1.090   4.958  18.194  1.00  0.00     0.074 A 
ATOM     15  C   UNL     1       3.180   4.430  16.960  1.00  0.00     0.049 A 
ATOM     16  N   UNL     1       1.073   4.033  19.114  1.00  0.00    -0.248 NA
ATOM     17  C   UNL     1      -0.104   5.820  18.178  1.00  0.00     0.031 C 
ATOM     18  C   UNL     1       4.179   4.590  15.901  1.00  0.00     0.029 A 
ATOM     19  N   UNL     1       3.575   3.301  17.626  1.00  0.00    -0.354 N 
ATOM     20  C   UNL     1      -0.117   4.216  19.802  1.00  0.00     0.074 A 
ATOM     21  C   UNL     1      -0.805   5.331  19.191  1.00  0.00     0.031 C 
ATOM     22  C   UNL     1       5.076   3.595  15.992  1.00  0.00     0.029 A 
ATOM     23  C   UNL     1       4.747   2.768  17.148  1.00  0.00     0.049 A 
ATOM     24  H   UNL     1       3.069   2.910  18.374  1.00  0.00     0.167 HD
ATOM     25  C   UNL     1      -0.576   3.514  20.862  1.00  0.00     0.037 A 
ATOM     26  C   UNL     1       5.485   1.750  17.630  1.00  0.00     0.037 A 
ATOM     27  C   UNL     1       0.136   2.412  21.449  1.00  0.00     0.049 A 
ATOM     28  C   UNL     1       4.991   1.046  18.867  1.00  0.00     0.074 A 
ATOM     29  C   UNL     1      -0.209   1.641  22.542  1.00  0.00     0.029 A 
ATOM     30  N   UNL     1       1.353   1.932  20.981  1.00  0.00    -0.354 N 
ATOM     31  N   UNL     1       3.880   1.238  19.539  1.00  0.00    -0.248 NA
ATOM     32  C   UNL     1       5.860   0.004  19.429  1.00  0.00     0.031 C 
ATOM     33  C   UNL     1       0.823   0.722  22.763  1.00  0.00     0.029 A 
ATOM     34  C   UNL     1       1.790   0.894  21.784  1.00  0.00     0.049 A 
ATOM     35  H   UNL     1       1.832   2.279  20.195  1.00  0.00     0.167 HD
ATOM     36  C   UNL     1       3.914   0.346  20.599  1.00  0.00     0.074 A 
ATOM     37  C   UNL     1       5.143  -0.412  20.463  1.00  0.00     0.031 C 
ATOM     38  C   UNL     1       3.024   0.172  21.607  1.00  0.00     0.037 A 
BRANCH  25  39
ATOM     39  C   UNL     1      -1.860   3.966  21.483  1.00  0.00     0.064 A 
ATOM     40  C   UNL     1      -3.103   3.715  20.884  1.00  0.00     0.173 A 
ATOM     41  C   UNL     1      -1.843   4.666  22.698  1.00  0.00     0.173 A 
ATOM     42  F   UNL     1      -3.169   3.075  19.708  1.00  0.00    -0.203 F 
ATOM     43  C   UNL     1      -4.283   4.163  21.475  1.00  0.00     0.198 A 
ATOM     44  C   UNL     1      -3.025   5.095  23.295  1.00  0.00     0.198 A 
ATOM     45  F   UNL     1      -0.677   4.940  23.303  1.00  0.00    -0.203 F 
ATOM     46  F   UNL     1      -5.458   3.948  20.868  1.00  0.00    -0.200 F 
ATOM     47  C   UNL     1      -4.243   4.847  22.681  1.00  0.00     0.200 A 
ATOM     48  F   UNL     1      -2.984   5.757  24.460  1.00  0.00    -0.200 F 
ATOM     49  F   UNL     1      -5.379   5.278  23.247  1.00  0.00    -0.200 F 
ENDBRANCH  25  39
BRANCH  26  50
ATOM     50  C   UNL     1       6.783   1.391  17.000  1.00  0.00     0.064 A 
ATOM     51  C   UNL     1       6.984   0.141  16.399  1.00  0.00     0.173 A 
ATOM     52  C   UNL     1       7.867   2.284  17.013  1.00  0.00     0.173 A 
ATOM     53  F   UNL     1       5.990  -0.760  16.381  1.00  0.00    -0.203 F 
ATOM     54  C   UNL     1       8.220  -0.210  15.857  1.00  0.00     0.198 A 
ATOM     55  C   UNL     1       9.093   1.945  16.444  1.00  0.00     0.198 A 
ATOM     56  F   UNL     1       7.736   3.493  17.581  1.00  0.00    -0.203 F 
ATOM     57  F   UNL     1       8.399  -1.432  15.339  1.00  0.00    -0.200 F 
ATOM     58  C   UNL     1       9.272   0.694  15.875  1.00  0.00     0.200 A 
ATOM     59  F   UNL     1      10.102   2.827  16.455  1.00  0.00    -0.200 F 
ATOM     60  F   UNL     1      10.461   0.355  15.358  1.00  0.00    -0.200 F 
ENDBRANCH  26  50
BRANCH  38  61
ATOM     61  C   UNL     1       3.357  -0.870  22.629  1.00  0.00     0.064 A 
ATOM     62  C   UNL     1       4.337  -0.639  23.605  1.00  0.00     0.173 A 
ATOM     63  C   UNL     1       2.655  -2.082  22.665  1.00  0.00     0.173 A 
ATOM     64  F   UNL     1       5.044   0.500  23.595  1.00  0.00    -0.203 F 
ATOM     65  C   UNL     1       4.612  -1.597  24.575  1.00  0.00     0.198 A 
ATOM     66  C   UNL     1       2.915  -3.026  23.653  1.00  0.00     0.198 A 
ATOM     67  F   UNL     1       1.705  -2.341  21.753  1.00  0.00    -0.203 F 
ATOM     68  F   UNL     1       5.577  -1.373  25.478  1.00  0.00    -0.200 F 
ATOM     69  C   UNL     1       3.896  -2.784  24.604  1.00  0.00     0.200 A 
ATOM     70  F   UNL     1       2.214  -4.168  23.687  1.00  0.00    -0.200 F 
ATOM     71  F   UNL     1       4.154  -3.700  25.547  1.00  0.00    -0.200 F 
ENDBRANCH  38  61
ENDBRANCH  12  13
ENDBRANCH   5   7
ENDBRANCH   4   5
ENDBRANCH   3   4
ENDBRANCH   2   3
ENDBRANCH   1   2
BRANCH   1  72
ATOM     72  C   UNL     1       2.914   8.589  11.191  1.00  0.00     0.202 C 
BRANCH  72  73
ATOM     73  C   UNL     1       3.928   7.905  10.275  1.00  0.00     0.261 C 
BRANCH  73  74
ATOM     74  O   UNL     1       3.268   7.625   9.034  1.00  0.00    -0.463 OA
BRANCH  74  75
ATOM     75  C   UNL     1       2.633   6.420   9.009  1.00  0.00     0.310 C 
ATOM     76  O   UNL     1       2.894   5.469   9.727  1.00  0.00    -0.252 OA
BRANCH  75  77
ATOM     77  C   UNL     1       1.448   6.438   8.063  1.00  0.00     0.119 C 
ATOM     78  C   UNL     1       1.476   7.543   7.020  1.00  0.00     0.027 C 
ATOM     79  C   UNL     1       1.407   5.081   7.398  1.00  0.00     0.134 C 
ATOM     80  C   UNL     1       0.229   7.429   6.167  1.00  0.00     0.101 C 
ATOM     81  N   UNL     1       0.650   4.984   6.155  1.00  0.00    -0.341 N 
ATOM     82  C   UNL     1       0.089   6.075   5.505  1.00  0.00     0.222 C 
ATOM     83  O   UNL     1      -0.550   5.976   4.457  1.00  0.00    -0.275 OA
BRANCH  81  84
ATOM     84  C   UNL     1       0.650   3.675   5.482  1.00  0.00     0.131 C 
BRANCH  84  85
ATOM     85  C   UNL     1       2.017   3.214   4.925  1.00  0.00     0.080 C 
ATOM     86  C   UNL     1       2.926   2.541   5.975  1.00  0.00     0.239 C 
ATOM     87  C   UNL     1       2.922   4.295   4.452  1.00  0.00     0.002 A 
ATOM     88  O   UNL     1       4.215   3.200   6.026  1.00  0.00    -0.493 OA
ATOM     89  C   UNL     1       4.124   4.235   5.137  1.00  0.00     0.122 A 
ATOM     90  C   UNL     1       2.681   5.306   3.536  1.00  0.00     0.008 A 
ATOM     91  C   UNL     1       5.110   5.186   4.965  1.00  0.00     0.047 A 
ATOM     92  C   UNL     1       3.662   6.283   3.351  1.00  0.00     0.001 A 
ATOM     93  C   UNL     1       4.869   6.226   4.065  1.00  0.00     0.004 A 
ENDBRANCH  84  85
ENDBRANCH  81  84
ENDBRANCH  75  77
ENDBRANCH  74  75
ENDBRANCH  73  74
ENDBRANCH  72  73
ENDBRANCH   1  72
TORSDOF 16
