REMARK SMILES CCn1nc(C(C)C)cc1C(=O)N1CCCC[C@@H]1C(=O)OCCOCCOC(=O)c1ccc(-c2c3nc(c(-c4c(F)c(F)c(F)c(F)c4F)c4ccc([nH]4)c(-c4c(F)c(F)c(F)c(F)c4F)c4nc(c(-c5c(F)c(F)c(F)c(F)c5F)c5ccc2[nH]5)C=C4)C=C3)cc1
REMARK SMILES IDX 23 1 22 2 21 3 19 4 20 5 18 6 13 7 14 8 15 9 17 10 16 11
REMARK SMILES IDX 11 12 12 13 10 14 3 15 4 16 5 17 9 18 2 19 1 20 6 21 7 22
REMARK SMILES IDX 8 23 24 24 25 25 26 26 27 27 28 28 29 29 30 30 31 31 92 32
REMARK SMILES IDX 32 33 91 34 33 35 34 36 35 37 85 38 36 39 90 40 84 41 86 42
REMARK SMILES IDX 37 43 89 44 83 45 82 46 38 48 70 49 50 50 69 51 51 52 54 53
REMARK SMILES IDX 68 54 87 55 52 56 53 57 67 59 88 60 55 61 39 62 40 63 48 64
REMARK SMILES IDX 41 65 42 66 46 67 49 68 43 69 44 70 47 71 45 72 71 73 72 74
REMARK SMILES IDX 80 75 73 76 74 77 78 78 81 79 75 80 76 81 79 82 77 83 56 84
REMARK SMILES IDX 57 85 65 86 58 87 59 88 63 89 66 90 60 91 61 92 64 93 62 94
REMARK H PARENT 86 47 54 58
REMARK Flexibility Score: inf
ROOT
ATOM      1  C   UNL     1       5.872   4.119  -0.112  1.00  0.00     0.202 C 
ENDROOT
BRANCH   1   2
ATOM      2  C   UNL     1       4.547   3.367  -0.221  1.00  0.00     0.261 C 
BRANCH   2   3
ATOM      3  O   UNL     1       4.468   2.520  -1.372  1.00  0.00    -0.462 OA
BRANCH   3   4
ATOM      4  C   UNL     1       3.896   3.105  -2.460  1.00  0.00     0.328 C 
ATOM      5  O   UNL     1       3.564   4.283  -2.538  1.00  0.00    -0.250 OA
BRANCH   4   6
ATOM      6  C   UNL     1       3.689   2.104  -3.593  1.00  0.00     0.195 C 
ATOM      7  N   UNL     1       2.392   1.402  -3.631  1.00  0.00    -0.323 N 
ATOM      8  C   UNL     1       2.207   0.535  -4.788  1.00  0.00     0.121 C 
ATOM      9  C   UNL     1       3.367  -0.444  -4.974  1.00  0.00     0.022 C 
ATOM     10  C   UNL     1       4.878   1.141  -3.759  1.00  0.00     0.037 C 
ATOM     11  C   UNL     1       4.704   0.292  -5.019  1.00  0.00     0.005 C 
BRANCH   7  12
ATOM     12  C   UNL     1       1.706   1.069  -2.453  1.00  0.00     0.272 C 
ATOM     13  O   UNL     1       1.521  -0.110  -2.170  1.00  0.00    -0.267 OA
BRANCH  12  14
ATOM     14  C   UNL     1       1.171   2.198  -1.706  1.00  0.00     0.126 A 
ATOM     15  N   UNL     1       0.758   2.291  -0.391  1.00  0.00    -0.260 N 
ATOM     16  N   UNL     1       0.607   3.584   0.013  1.00  0.00    -0.177 NA
ATOM     17  C   UNL     1       0.725   4.311  -1.097  1.00  0.00     0.066 A 
ATOM     18  C   UNL     1       0.927   3.474  -2.208  1.00  0.00     0.059 A 
BRANCH  15  19
ATOM     19  C   UNL     1       0.418   1.319   0.630  1.00  0.00     0.142 C 
ATOM     20  C   UNL     1       0.744  -0.148   0.467  1.00  0.00     0.029 C 
ENDBRANCH  15  19
BRANCH  17  21
ATOM     21  C   UNL     1       0.686   5.815  -1.089  1.00  0.00     0.034 C 
ATOM     22  C   UNL     1      -0.749   6.337  -1.103  1.00  0.00     0.014 C 
ATOM     23  C   UNL     1       1.472   6.437   0.069  1.00  0.00     0.014 C 
ENDBRANCH  17  21
ENDBRANCH  12  14
ENDBRANCH   7  12
ENDBRANCH   4   6
ENDBRANCH   3   4
ENDBRANCH   2   3
ENDBRANCH   1   2
BRANCH   1  24
ATOM     24  O   UNL     1       6.224   5.081  -1.104  1.00  0.00    -0.374 OA
BRANCH  24  25
ATOM     25  C   UNL     1       6.586   4.707  -2.430  1.00  0.00     0.202 C 
BRANCH  25  26
ATOM     26  C   UNL     1       7.957   4.101  -2.675  1.00  0.00     0.261 C 
BRANCH  26  27
ATOM     27  O   UNL     1       8.050   2.862  -1.995  1.00  0.00    -0.460 OA
BRANCH  27  28
ATOM     28  C   UNL     1       8.630   2.950  -0.782  1.00  0.00     0.338 C 
ATOM     29  O   UNL     1       9.072   3.961  -0.244  1.00  0.00    -0.246 OA
BRANCH  28  30
ATOM     30  C   UNL     1       8.757   1.595  -0.222  1.00  0.00     0.060 A 
ATOM     31  C   UNL     1       9.803   1.526   0.693  1.00  0.00     0.016 A 
ATOM     32  C   UNL     1       8.414   0.523  -1.060  1.00  0.00     0.016 A 
ATOM     33  C   UNL     1      10.795   0.633   0.403  1.00  0.00     0.010 A 
ATOM     34  C   UNL     1       9.405  -0.374  -1.350  1.00  0.00     0.010 A 
ATOM     35  C   UNL     1      10.624  -0.216  -0.698  1.00  0.00    -0.014 A 
BRANCH  35  36
ATOM     36  C   UNL     1      11.737  -1.057  -1.052  1.00  0.00     0.031 A 
ATOM     37  C   UNL     1      11.917  -2.128  -0.056  1.00  0.00     0.074 A 
ATOM     38  C   UNL     1      12.459  -0.881  -2.170  1.00  0.00     0.049 A 
ATOM     39  N   UNL     1      12.883  -2.246   0.790  1.00  0.00    -0.248 NA
ATOM     40  C   UNL     1      10.771  -3.015   0.200  1.00  0.00     0.031 C 
ATOM     41  C   UNL     1      12.224   0.020  -3.299  1.00  0.00     0.029 A 
ATOM     42  N   UNL     1      13.553  -1.586  -2.560  1.00  0.00    -0.354 N 
ATOM     43  C   UNL     1      12.554  -3.348   1.567  1.00  0.00     0.074 A 
ATOM     44  C   UNL     1      11.169  -3.633   1.310  1.00  0.00     0.031 C 
ATOM     45  C   UNL     1      13.004  -0.361  -4.338  1.00  0.00     0.029 A 
ATOM     46  C   UNL     1      13.866  -1.446  -3.907  1.00  0.00     0.049 A 
ATOM     47  H   UNL     1      14.078  -2.146  -1.943  1.00  0.00     0.167 HD
ATOM     48  C   UNL     1      13.524  -4.098   2.149  1.00  0.00     0.037 A 
ATOM     49  C   UNL     1      14.684  -2.291  -4.587  1.00  0.00     0.037 A 
ATOM     50  C   UNL     1      14.759  -3.360   2.241  1.00  0.00     0.049 A 
ATOM     51  C   UNL     1      15.547  -2.963  -3.568  1.00  0.00     0.074 A 
ATOM     52  C   UNL     1      15.131  -2.196   2.889  1.00  0.00     0.029 A 
ATOM     53  N   UNL     1      15.713  -3.572   1.274  1.00  0.00    -0.354 N 
ATOM     54  N   UNL     1      16.445  -2.325  -2.863  1.00  0.00    -0.248 NA
ATOM     55  C   UNL     1      15.050  -4.198  -2.971  1.00  0.00     0.031 C 
ATOM     56  C   UNL     1      15.992  -1.523   1.974  1.00  0.00     0.029 A 
ATOM     57  C   UNL     1      16.163  -2.343   0.860  1.00  0.00     0.049 A 
ATOM     58  H   UNL     1      16.018  -4.447   0.940  1.00  0.00     0.167 HD
ATOM     59  C   UNL     1      16.311  -2.830  -1.576  1.00  0.00     0.074 A 
ATOM     60  C   UNL     1      15.471  -4.018  -1.714  1.00  0.00     0.031 C 
ATOM     61  C   UNL     1      16.630  -2.077  -0.481  1.00  0.00     0.037 A 
BRANCH  48  62
ATOM     62  C   UNL     1      13.451  -5.597   2.261  1.00  0.00     0.064 A 
ATOM     63  C   UNL     1      14.465  -6.272   2.964  1.00  0.00     0.173 A 
ATOM     64  C   UNL     1      12.608  -6.415   1.474  1.00  0.00     0.173 A 
ATOM     65  F   UNL     1      15.330  -5.594   3.734  1.00  0.00    -0.203 F 
ATOM     66  C   UNL     1      14.672  -7.645   2.817  1.00  0.00     0.198 A 
ATOM     67  C   UNL     1      12.783  -7.792   1.375  1.00  0.00     0.198 A 
ATOM     68  F   UNL     1      11.654  -5.920   0.678  1.00  0.00    -0.203 F 
ATOM     69  F   UNL     1      15.731  -8.221   3.401  1.00  0.00    -0.200 F 
ATOM     70  C   UNL     1      13.836  -8.402   2.017  1.00  0.00     0.200 A 
ATOM     71  F   UNL     1      11.969  -8.501   0.580  1.00  0.00    -0.200 F 
ATOM     72  F   UNL     1      14.072  -9.705   1.823  1.00  0.00    -0.200 F 
ENDBRANCH  48  62
BRANCH  49  73
ATOM     73  C   UNL     1      14.471  -2.833  -5.954  1.00  0.00     0.064 A 
ATOM     74  C   UNL     1      15.478  -3.559  -6.613  1.00  0.00     0.173 A 
ATOM     75  C   UNL     1      13.189  -2.883  -6.539  1.00  0.00     0.173 A 
ATOM     76  F   UNL     1      16.717  -3.608  -6.103  1.00  0.00    -0.203 F 
ATOM     77  C   UNL     1      15.212  -4.303  -7.770  1.00  0.00     0.198 A 
ATOM     78  C   UNL     1      12.927  -3.619  -7.696  1.00  0.00     0.198 A 
ATOM     79  F   UNL     1      12.135  -2.298  -5.954  1.00  0.00    -0.203 F 
ATOM     80  F   UNL     1      16.185  -5.031  -8.337  1.00  0.00    -0.200 F 
ATOM     81  C   UNL     1      13.935  -4.340  -8.304  1.00  0.00     0.200 A 
ATOM     82  F   UNL     1      11.677  -3.671  -8.179  1.00  0.00    -0.200 F 
ATOM     83  F   UNL     1      13.665  -5.099  -9.376  1.00  0.00    -0.200 F 
ENDBRANCH  49  73
BRANCH  61  84
ATOM     84  C   UNL     1      17.316  -0.757  -0.705  1.00  0.00     0.064 A 
ATOM     85  C   UNL     1      16.736   0.320  -1.400  1.00  0.00     0.173 A 
ATOM     86  C   UNL     1      18.528  -0.515  -0.047  1.00  0.00     0.173 A 
ATOM     87  F   UNL     1      15.526   0.204  -1.962  1.00  0.00    -0.203 F 
ATOM     88  C   UNL     1      17.363   1.563  -1.469  1.00  0.00     0.198 A 
ATOM     89  C   UNL     1      19.134   0.738  -0.084  1.00  0.00     0.198 A 
ATOM     90  F   UNL     1      19.099  -1.484   0.685  1.00  0.00    -0.203 F 
ATOM     91  F   UNL     1      16.791   2.570  -2.146  1.00  0.00    -0.200 F 
ATOM     92  C   UNL     1      18.559   1.773  -0.803  1.00  0.00     0.200 A 
ATOM     93  F   UNL     1      20.262   0.951   0.609  1.00  0.00    -0.200 F 
ATOM     94  F   UNL     1      19.141   2.980  -0.829  1.00  0.00    -0.200 F 
ENDBRANCH  61  84
ENDBRANCH  35  36
ENDBRANCH  28  30
ENDBRANCH  27  28
ENDBRANCH  26  27
ENDBRANCH  25  26
ENDBRANCH  24  25
ENDBRANCH   1  24
TORSDOF 18
