REMARK SMILES O=C(OCCOCCOC(=O)c1cccc(S(=O)(=O)Nc2ccccc2N2CCOCC2)c1)c1ccc(-c2c3nc(c(-c4c(F)c(F)c(F)c(F)c4F)c4ccc([nH]4)c(-c4c(F)c(F)c(F)c(F)c4F)c4nc(c(-c5c(F)c(F)c(F)c(F)c5F)c5ccc2[nH]5)C=C4)C=C3)cc1
REMARK SMILES IDX 7 1 6 2 5 3 4 4 3 5 2 6 1 7 34 8 35 9 96 10 36 11 95 12
REMARK SMILES IDX 37 13 38 14 39 15 89 16 40 17 94 18 88 19 90 20 41 21 93 22
REMARK SMILES IDX 87 23 86 24 42 26 74 27 54 28 73 29 55 30 58 31 72 32 91 33
REMARK SMILES IDX 56 34 57 35 71 37 92 38 59 39 43 40 44 41 52 42 45 43 46 44
REMARK SMILES IDX 50 45 53 46 47 47 48 48 51 49 49 50 75 51 76 52 84 53 77 54
REMARK SMILES IDX 78 55 82 56 85 57 79 58 80 59 83 60 81 61 60 62 61 63 69 64
REMARK SMILES IDX 62 65 63 66 67 67 70 68 64 69 65 70 68 71 66 72 8 73 9 74
REMARK SMILES IDX 10 75 11 76 12 77 13 78 33 79 14 80 16 81 15 82 17 83 18 84
REMARK SMILES IDX 19 85 20 86 21 88 22 89 26 90 23 91 25 92 24 93 27 94 28 95
REMARK SMILES IDX 32 96 29 97 31 98 30 99
REMARK H PARENT 90 25 58 36 20 87
REMARK Flexibility Score: inf
ROOT
ATOM      1  C   UNL     1       2.277   0.712   1.002  1.00  0.00     0.202 C 
ENDROOT
BRANCH   1   2
ATOM      2  O   UNL     1       3.609   0.515   0.526  1.00  0.00    -0.374 OA
BRANCH   2   3
ATOM      3  C   UNL     1       3.955   1.181  -0.690  1.00  0.00     0.202 C 
BRANCH   3   4
ATOM      4  C   UNL     1       3.880   0.256  -1.905  1.00  0.00     0.261 C 
BRANCH   4   5
ATOM      5  O   UNL     1       2.573  -0.327  -2.021  1.00  0.00    -0.460 OA
BRANCH   5   6
ATOM      6  C   UNL     1       2.077  -1.404  -1.367  1.00  0.00     0.338 C 
ATOM      7  O   UNL     1       0.864  -1.607  -1.421  1.00  0.00    -0.246 OA
BRANCH   6   8
ATOM      8  C   UNL     1       2.908  -2.395  -0.607  1.00  0.00     0.060 A 
ATOM      9  C   UNL     1       4.158  -2.151  -0.035  1.00  0.00     0.016 A 
ATOM     10  C   UNL     1       2.331  -3.662  -0.393  1.00  0.00     0.016 A 
ATOM     11  C   UNL     1       4.814  -3.102   0.723  1.00  0.00     0.010 A 
ATOM     12  C   UNL     1       2.995  -4.644   0.350  1.00  0.00     0.010 A 
ATOM     13  C   UNL     1       4.245  -4.356   0.898  1.00  0.00    -0.014 A 
BRANCH  13  14
ATOM     14  C   UNL     1       5.114  -5.369   1.504  1.00  0.00     0.031 A 
ATOM     15  C   UNL     1       5.940  -6.205   0.579  1.00  0.00     0.074 A 
ATOM     16  C   UNL     1       5.327  -5.340   2.830  1.00  0.00     0.049 A 
ATOM     17  N   UNL     1       6.814  -7.130   0.856  1.00  0.00    -0.248 NA
ATOM     18  C   UNL     1       5.789  -5.927  -0.863  1.00  0.00     0.031 C 
ATOM     19  C   UNL     1       4.695  -4.402   3.761  1.00  0.00     0.029 A 
ATOM     20  N   UNL     1       6.174  -6.072   3.614  1.00  0.00    -0.354 N 
ATOM     21  C   UNL     1       7.303  -7.556  -0.371  1.00  0.00     0.074 A 
ATOM     22  C   UNL     1       6.645  -6.782  -1.397  1.00  0.00     0.031 C 
ATOM     23  C   UNL     1       5.194  -4.605   4.992  1.00  0.00     0.029 A 
ATOM     24  C   UNL     1       6.125  -5.727   4.942  1.00  0.00     0.049 A 
ATOM     25  H   UNL     1       6.763  -6.778   3.260  1.00  0.00     0.167 HD
ATOM     26  C   UNL     1       8.212  -8.528  -0.605  1.00  0.00     0.037 A 
ATOM     27  C   UNL     1       6.743  -6.297   5.992  1.00  0.00     0.037 A 
ATOM     28  C   UNL     1       8.823  -9.290   0.447  1.00  0.00     0.049 A 
ATOM     29  C   UNL     1       7.647  -7.469   5.709  1.00  0.00     0.074 A 
ATOM     30  C   UNL     1       9.643 -10.396   0.360  1.00  0.00     0.029 A 
ATOM     31  N   UNL     1       8.666  -9.004   1.799  1.00  0.00    -0.354 N 
ATOM     32  N   UNL     1       8.012  -7.969   4.551  1.00  0.00    -0.248 NA
ATOM     33  C   UNL     1       8.201  -8.172   6.870  1.00  0.00     0.031 C 
ATOM     34  C   UNL     1       9.956 -10.801   1.664  1.00  0.00     0.029 A 
ATOM     35  C   UNL     1       9.365  -9.921   2.560  1.00  0.00     0.049 A 
ATOM     36  H   UNL     1       8.135  -8.258   2.161  1.00  0.00     0.167 HD
ATOM     37  C   UNL     1       8.837  -9.044   4.841  1.00  0.00     0.074 A 
ATOM     38  C   UNL     1       8.947  -9.100   6.287  1.00  0.00     0.031 C 
ATOM     39  C   UNL     1       9.439  -9.922   3.999  1.00  0.00     0.037 A 
BRANCH  26  40
ATOM     40  C   UNL     1       8.494  -8.861  -2.037  1.00  0.00     0.064 A 
ATOM     41  C   UNL     1       9.274  -8.029  -2.853  1.00  0.00     0.173 A 
ATOM     42  C   UNL     1       7.923 -10.003  -2.616  1.00  0.00     0.173 A 
ATOM     43  F   UNL     1       9.807  -6.902  -2.357  1.00  0.00    -0.203 F 
ATOM     44  C   UNL     1       9.454  -8.319  -4.204  1.00  0.00     0.198 A 
ATOM     45  C   UNL     1       8.122 -10.301  -3.962  1.00  0.00     0.198 A 
ATOM     46  F   UNL     1       7.152 -10.820  -1.882  1.00  0.00    -0.203 F 
ATOM     47  F   UNL     1      10.157  -7.482  -4.981  1.00  0.00    -0.200 F 
ATOM     48  C   UNL     1       8.881  -9.456  -4.756  1.00  0.00     0.200 A 
ATOM     49  F   UNL     1       7.562 -11.396  -4.494  1.00  0.00    -0.200 F 
ATOM     50  F   UNL     1       9.045  -9.726  -6.059  1.00  0.00    -0.200 F 
ENDBRANCH  26  40
BRANCH  27  51
ATOM     51  C   UNL     1       6.465  -5.837   7.380  1.00  0.00     0.064 A 
ATOM     52  C   UNL     1       7.477  -5.319   8.200  1.00  0.00     0.173 A 
ATOM     53  C   UNL     1       5.177  -5.941   7.932  1.00  0.00     0.173 A 
ATOM     54  F   UNL     1       8.731  -5.218   7.735  1.00  0.00    -0.203 F 
ATOM     55  C   UNL     1       7.217  -4.944   9.518  1.00  0.00     0.198 A 
ATOM     56  C   UNL     1       4.911  -5.534   9.237  1.00  0.00     0.198 A 
ATOM     57  F   UNL     1       4.169  -6.437   7.199  1.00  0.00    -0.203 F 
ATOM     58  F   UNL     1       8.215  -4.502  10.297  1.00  0.00    -0.200 F 
ATOM     59  C   UNL     1       5.933  -5.046  10.034  1.00  0.00     0.200 A 
ATOM     60  F   UNL     1       3.665  -5.623   9.723  1.00  0.00    -0.200 F 
ATOM     61  F   UNL     1       5.685  -4.687  11.301  1.00  0.00    -0.200 F 
ENDBRANCH  27  51
BRANCH  39  62
ATOM     62  C   UNL     1      10.268 -10.993   4.635  1.00  0.00     0.064 A 
ATOM     63  C   UNL     1       9.674 -12.082   5.288  1.00  0.00     0.173 A 
ATOM     64  C   UNL     1      11.666 -10.947   4.553  1.00  0.00     0.173 A 
ATOM     65  F   UNL     1       8.339 -12.155   5.402  1.00  0.00    -0.203 F 
ATOM     66  C   UNL     1      10.456 -13.079   5.860  1.00  0.00     0.198 A 
ATOM     67  C   UNL     1      12.444 -11.960   5.103  1.00  0.00     0.198 A 
ATOM     68  F   UNL     1      12.275  -9.926   3.932  1.00  0.00    -0.203 F 
ATOM     69  F   UNL     1       9.872 -14.089   6.519  1.00  0.00    -0.200 F 
ATOM     70  C   UNL     1      11.838 -13.021   5.761  1.00  0.00     0.200 A 
ATOM     71  F   UNL     1      13.778 -11.910   4.997  1.00  0.00    -0.200 F 
ATOM     72  F   UNL     1      12.590 -13.986   6.307  1.00  0.00    -0.200 F 
ENDBRANCH  39  62
ENDBRANCH  13  14
ENDBRANCH   6   8
ENDBRANCH   5   6
ENDBRANCH   4   5
ENDBRANCH   3   4
ENDBRANCH   2   3
ENDBRANCH   1   2
BRANCH   1  73
ATOM     73  C   UNL     1       2.301   1.632   2.212  1.00  0.00     0.261 C 
BRANCH  73  74
ATOM     74  O   UNL     1       2.695   2.930   1.766  1.00  0.00    -0.460 OA
BRANCH  74  75
ATOM     75  C   UNL     1       4.029   3.136   1.659  1.00  0.00     0.338 C 
ATOM     76  O   UNL     1       4.937   2.423   2.050  1.00  0.00    -0.246 OA
BRANCH  75  77
ATOM     77  C   UNL     1       4.245   4.401   0.933  1.00  0.00     0.061 A 
ATOM     78  C   UNL     1       5.446   4.638   0.256  1.00  0.00     0.016 A 
ATOM     79  C   UNL     1       3.325   5.422   1.110  1.00  0.00     0.038 A 
ATOM     80  C   UNL     1       5.747   5.931  -0.176  1.00  0.00     0.002 A 
ATOM     81  C   UNL     1       3.720   6.725   0.863  1.00  0.00     0.088 A 
ATOM     82  C   UNL     1       4.906   6.992   0.175  1.00  0.00     0.022 A 
BRANCH  81  83
ATOM     83  S   UNL     1       2.749   7.997   1.625  1.00  0.00     0.261 S 
ATOM     84  O   UNL     1       3.399   9.262   1.320  1.00  0.00    -0.201 OA
ATOM     85  O   UNL     1       1.370   7.758   1.286  1.00  0.00    -0.201 OA
BRANCH  83  86
ATOM     86  N   UNL     1       2.990   7.768   3.291  1.00  0.00    -0.278 N 
ATOM     87  H   UNL     1       3.304   8.523   3.839  1.00  0.00     0.180 HD
BRANCH  86  88
ATOM     88  C   UNL     1       2.748   6.494   3.924  1.00  0.00     0.072 A 
ATOM     89  C   UNL     1       1.439   6.007   4.027  1.00  0.00     0.029 A 
ATOM     90  C   UNL     1       3.851   5.703   4.357  1.00  0.00     0.061 A 
ATOM     91  C   UNL     1       1.199   4.743   4.571  1.00  0.00     0.002 A 
ATOM     92  C   UNL     1       3.573   4.439   4.906  1.00  0.00     0.028 A 
ATOM     93  C   UNL     1       2.263   3.965   5.018  1.00  0.00     0.002 A 
BRANCH  90  94
ATOM     94  N   UNL     1       5.165   6.145   4.187  1.00  0.00    -0.365 N 
ATOM     95  C   UNL     1       5.645   7.220   5.074  1.00  0.00     0.145 C 
ATOM     96  C   UNL     1       6.241   5.173   3.892  1.00  0.00     0.145 C 
ATOM     97  C   UNL     1       6.829   7.912   4.377  1.00  0.00     0.181 C 
ATOM     98  C   UNL     1       7.433   5.914   3.265  1.00  0.00     0.181 C 
ATOM     99  O   UNL     1       7.894   6.982   4.110  1.00  0.00    -0.378 OA
ENDBRANCH  90  94
ENDBRANCH  86  88
ENDBRANCH  83  86
ENDBRANCH  81  83
ENDBRANCH  75  77
ENDBRANCH  74  75
ENDBRANCH  73  74
ENDBRANCH   1  73
TORSDOF 18
