REMARK SMILES O=C(OCCOCCOC(=O)c1nn(Cc2ccc(F)cc2)c2c1CN(C(=O)[C@H]1CC1(F)F)CC2)c1ccc(-c2c3nc(c(-c4c(F)c(F)c(F)c(F)c4F)c4ccc([nH]4)c(-c4c(F)c(F)c(F)c(F)c4F)c4nc(c(-c5c(F)c(F)c(F)c(F)c5F)c5ccc2[nH]5)C=C4)C=C3)cc1
REMARK SMILES IDX 6 1 5 2 4 3 3 4 2 5 1 6 36 7 37 8 98 9 38 10 97 11 39 12
REMARK SMILES IDX 40 13 41 14 91 15 42 16 96 17 90 18 92 19 43 20 95 21 89 22
REMARK SMILES IDX 88 23 44 25 76 26 56 27 75 28 57 29 60 30 74 31 93 32 58 33
REMARK SMILES IDX 59 34 73 36 94 37 61 38 45 39 46 40 54 41 47 42 48 43 52 44
REMARK SMILES IDX 55 45 49 46 50 47 53 48 51 49 77 50 78 51 86 52 79 53 80 54
REMARK SMILES IDX 84 55 87 56 81 57 82 58 85 59 83 60 62 61 63 62 71 63 64 64
REMARK SMILES IDX 65 65 69 66 72 67 66 68 67 69 70 70 68 71 7 72 8 73 9 74
REMARK SMILES IDX 10 75 11 76 12 77 13 78 24 79 14 80 23 81 25 82 35 83 26 84
REMARK SMILES IDX 34 85 15 86 16 87 17 88 22 89 18 90 21 91 19 92 20 93 27 94
REMARK SMILES IDX 28 95 29 96 30 97 31 98 32 99 33 100
REMARK H PARENT 92 24 60 35
REMARK Flexibility Score: inf
ROOT
ATOM      1  O   UNL     1      16.050   2.997   0.880  1.00  0.00    -0.374 OA
ENDROOT
BRANCH   1   2
ATOM      2  C   UNL     1      15.129   2.067   0.327  1.00  0.00     0.202 C 
BRANCH   2   3
ATOM      3  C   UNL     1      14.004   2.630  -0.540  1.00  0.00     0.261 C 
BRANCH   3   4
ATOM      4  O   UNL     1      14.463   3.249  -1.755  1.00  0.00    -0.460 OA
BRANCH   4   5
ATOM      5  C   UNL     1      15.380   4.244  -1.790  1.00  0.00     0.338 C 
ATOM      6  O   UNL     1      16.326   4.205  -2.570  1.00  0.00    -0.246 OA
BRANCH   5   7
ATOM      7  C   UNL     1      15.024   5.524  -1.128  1.00  0.00     0.060 A 
ATOM      8  C   UNL     1      14.229   5.636   0.011  1.00  0.00     0.016 A 
ATOM      9  C   UNL     1      15.451   6.687  -1.784  1.00  0.00     0.016 A 
ATOM     10  C   UNL     1      13.641   6.846   0.325  1.00  0.00     0.010 A 
ATOM     11  C   UNL     1      14.932   7.918  -1.421  1.00  0.00     0.010 A 
ATOM     12  C   UNL     1      13.946   7.970  -0.440  1.00  0.00    -0.014 A 
BRANCH  12  13
ATOM     13  C   UNL     1      13.209   9.190  -0.149  1.00  0.00     0.031 A 
ATOM     14  C   UNL     1      13.373   9.745   1.222  1.00  0.00     0.074 A 
ATOM     15  C   UNL     1      12.492   9.824  -1.095  1.00  0.00     0.049 A 
ATOM     16  N   UNL     1      12.460  10.063   2.084  1.00  0.00    -0.248 NA
ATOM     17  C   UNL     1      14.749   9.909   1.714  1.00  0.00     0.031 C 
ATOM     18  C   UNL     1      12.452   9.555  -2.535  1.00  0.00     0.029 A 
ATOM     19  N   UNL     1      11.730  10.944  -0.967  1.00  0.00    -0.354 N 
ATOM     20  C   UNL     1      13.136  10.595   3.179  1.00  0.00     0.074 A 
ATOM     21  C   UNL     1      14.542  10.391   2.938  1.00  0.00     0.031 C 
ATOM     22  C   UNL     1      11.915  10.620  -3.167  1.00  0.00     0.029 A 
ATOM     23  C   UNL     1      11.458  11.573  -2.170  1.00  0.00     0.049 A 
ATOM     24  H   UNL     1      11.403  11.277  -0.100  1.00  0.00     0.167 HD
ATOM     25  C   UNL     1      12.514  11.324   4.144  1.00  0.00     0.037 A 
ATOM     26  C   UNL     1      10.990  12.833  -2.322  1.00  0.00     0.037 A 
ATOM     27  C   UNL     1      11.099  11.095   4.177  1.00  0.00     0.049 A 
ATOM     28  C   UNL     1      10.364  13.240  -1.039  1.00  0.00     0.074 A 
ATOM     29  C   UNL     1      10.303   9.997   4.437  1.00  0.00     0.029 A 
ATOM     30  N   UNL     1      10.266  12.028   3.616  1.00  0.00    -0.354 N 
ATOM     31  N   UNL     1       9.264  12.731  -0.559  1.00  0.00    -0.248 NA
ATOM     32  C   UNL     1      11.187  13.962  -0.079  1.00  0.00     0.031 C 
ATOM     33  C   UNL     1       9.170  10.148   3.586  1.00  0.00     0.029 A 
ATOM     34  C   UNL     1       9.340  11.338   2.878  1.00  0.00     0.049 A 
ATOM     35  H   UNL     1      10.322  13.005   3.723  1.00  0.00     0.167 HD
ATOM     36  C   UNL     1       9.452  12.713   0.815  1.00  0.00     0.074 A 
ATOM     37  C   UNL     1      10.598  13.581   1.056  1.00  0.00     0.031 C 
ATOM     38  C   UNL     1       8.837  11.781   1.600  1.00  0.00     0.037 A 
BRANCH  25  39
ATOM     39  C   UNL     1      13.169  12.457   4.882  1.00  0.00     0.064 A 
ATOM     40  C   UNL     1      14.204  13.233   4.317  1.00  0.00     0.173 A 
ATOM     41  C   UNL     1      12.590  12.968   6.058  1.00  0.00     0.173 A 
ATOM     42  F   UNL     1      14.748  12.924   3.133  1.00  0.00    -0.203 F 
ATOM     43  C   UNL     1      14.643  14.421   4.896  1.00  0.00     0.198 A 
ATOM     44  C   UNL     1      12.997  14.188   6.607  1.00  0.00     0.198 A 
ATOM     45  F   UNL     1      11.569  12.331   6.649  1.00  0.00    -0.203 F 
ATOM     46  F   UNL     1      15.623  15.120   4.306  1.00  0.00    -0.200 F 
ATOM     47  C   UNL     1      14.024  14.912   6.027  1.00  0.00     0.200 A 
ATOM     48  F   UNL     1      12.349  14.690   7.667  1.00  0.00    -0.200 F 
ATOM     49  F   UNL     1      14.383  16.102   6.524  1.00  0.00    -0.200 F 
ENDBRANCH  25  39
BRANCH  26  50
ATOM     50  C   UNL     1      11.357  13.805  -3.377  1.00  0.00     0.064 A 
ATOM     51  C   UNL     1      12.607  13.755  -4.028  1.00  0.00     0.173 A 
ATOM     52  C   UNL     1      10.594  14.964  -3.581  1.00  0.00     0.173 A 
ATOM     53  F   UNL     1      13.452  12.733  -3.830  1.00  0.00    -0.203 F 
ATOM     54  C   UNL     1      13.067  14.803  -4.824  1.00  0.00     0.198 A 
ATOM     55  C   UNL     1      11.063  16.021  -4.366  1.00  0.00     0.198 A 
ATOM     56  F   UNL     1       9.414  15.111  -2.961  1.00  0.00    -0.203 F 
ATOM     57  F   UNL     1      14.283  14.727  -5.385  1.00  0.00    -0.200 F 
ATOM     58  C   UNL     1      12.302  15.943  -4.981  1.00  0.00     0.200 A 
ATOM     59  F   UNL     1      10.336  17.141  -4.482  1.00  0.00    -0.200 F 
ATOM     60  F   UNL     1      12.777  16.979  -5.685  1.00  0.00    -0.200 F 
ENDBRANCH  26  50
BRANCH  38  61
ATOM     61  C   UNL     1       7.744  10.955   0.986  1.00  0.00     0.064 A 
ATOM     62  C   UNL     1       6.481  10.957   1.592  1.00  0.00     0.173 A 
ATOM     63  C   UNL     1       7.957  10.047  -0.066  1.00  0.00     0.173 A 
ATOM     64  F   UNL     1       6.239  11.758   2.642  1.00  0.00    -0.203 F 
ATOM     65  C   UNL     1       5.475  10.094   1.166  1.00  0.00     0.198 A 
ATOM     66  C   UNL     1       6.937   9.210  -0.515  1.00  0.00     0.198 A 
ATOM     67  F   UNL     1       9.166   9.910  -0.624  1.00  0.00    -0.203 F 
ATOM     68  F   UNL     1       4.296  10.076   1.804  1.00  0.00    -0.200 F 
ATOM     69  C   UNL     1       5.700   9.228   0.107  1.00  0.00     0.200 A 
ATOM     70  F   UNL     1       7.164   8.355  -1.523  1.00  0.00    -0.200 F 
ATOM     71  F   UNL     1       4.734   8.388  -0.292  1.00  0.00    -0.200 F 
ENDBRANCH  38  61
ENDBRANCH  12  13
ENDBRANCH   5   7
ENDBRANCH   4   5
ENDBRANCH   3   4
ENDBRANCH   2   3
ENDBRANCH   1   2
BRANCH   1  72
ATOM     72  C   UNL     1      17.376   2.982   0.327  1.00  0.00     0.202 C 
BRANCH  72  73
ATOM     73  C   UNL     1      18.269   1.751   0.563  1.00  0.00     0.261 C 
BRANCH  73  74
ATOM     74  O   UNL     1      17.841   0.591  -0.176  1.00  0.00    -0.458 OA
BRANCH  74  75
ATOM     75  C   UNL     1      17.130  -0.336   0.534  1.00  0.00     0.359 C 
ATOM     76  O   UNL     1      16.924  -0.261   1.743  1.00  0.00    -0.244 OA
BRANCH  75  77
ATOM     77  C   UNL     1      16.441  -1.318  -0.316  1.00  0.00     0.175 A 
ATOM     78  N   UNL     1      17.020  -1.948  -1.358  1.00  0.00    -0.165 NA
ATOM     79  C   UNL     1      15.090  -1.739  -0.165  1.00  0.00     0.028 A 
ATOM     80  N   UNL     1      16.072  -2.804  -1.819  1.00  0.00    -0.264 N 
ATOM     81  C   UNL     1      14.895  -2.693  -1.138  1.00  0.00     0.046 A 
ATOM     82  C   UNL     1      14.043  -1.298   0.796  1.00  0.00     0.159 C 
ATOM     83  C   UNL     1      13.644  -3.479  -1.302  1.00  0.00     0.078 C 
ATOM     84  N   UNL     1      12.915  -2.238   0.766  1.00  0.00    -0.337 N 
ATOM     85  C   UNL     1      12.499  -2.753  -0.558  1.00  0.00     0.126 C 
BRANCH  80  86
ATOM     86  C   UNL     1      16.440  -3.833  -2.787  1.00  0.00     0.180 C 
BRANCH  86  87
ATOM     87  C   UNL     1      16.468  -3.339  -4.213  1.00  0.00    -0.026 A 
ATOM     88  C   UNL     1      17.490  -2.475  -4.644  1.00  0.00     0.008 A 
ATOM     89  C   UNL     1      15.517  -3.784  -5.146  1.00  0.00     0.008 A 
ATOM     90  C   UNL     1      17.570  -2.080  -5.981  1.00  0.00     0.039 A 
ATOM     91  C   UNL     1      15.599  -3.387  -6.483  1.00  0.00     0.039 A 
ATOM     92  C   UNL     1      16.627  -2.544  -6.889  1.00  0.00     0.123 A 
ATOM     93  F   UNL     1      16.714  -2.181  -8.175  1.00  0.00    -0.207 F 
ENDBRANCH  86  87
ENDBRANCH  80  86
BRANCH  84  94
ATOM     94  C   UNL     1      12.202  -2.398   1.945  1.00  0.00     0.232 C 
ATOM     95  O   UNL     1      12.413  -1.734   2.952  1.00  0.00    -0.274 OA
BRANCH  94  96
ATOM     96  C   UNL     1      11.114  -3.392   1.955  1.00  0.00     0.154 C 
ATOM     97  C   UNL     1      11.419  -4.876   1.837  1.00  0.00     0.097 C 
ATOM     98  C   UNL     1      10.975  -4.293   3.125  1.00  0.00     0.260 C 
ATOM     99  F   UNL     1      11.847  -4.296   4.187  1.00  0.00    -0.206 F 
ATOM    100  F   UNL     1       9.731  -4.624   3.613  1.00  0.00    -0.206 F 
ENDBRANCH  94  96
ENDBRANCH  84  94
ENDBRANCH  75  77
ENDBRANCH  74  75
ENDBRANCH  73  74
ENDBRANCH  72  73
ENDBRANCH   1  72
TORSDOF 18
