REMARK SMILES COc1ccc(-c2nc(NCC(=O)OCCOCCOC(=O)c3ccc(-c4c5nc(c(-c6c(F)c(F)c(F)c(F)c6F)c6ccc([nH]6)c(-c6c(F)c(F)c(F)c(F)c6F)c6nc(c(-c7c(F)c(F)c(F)c(F)c7F)c7ccc4[nH]7)C=C6)C=C5)cc3)sc2-c2ccc(OC)cc2)cc1
REMARK SMILES IDX 16 1 15 2 14 3 12 4 13 5 11 6 10 7 9 9 7 10 8 11 87 12 86 13
REMARK SMILES IDX 6 14 3 15 4 16 97 17 5 18 96 19 2 20 1 21 88 22 89 23 95 24
REMARK SMILES IDX 90 25 94 26 91 27 92 28 93 29 17 30 18 31 19 32 20 33 21 34
REMARK SMILES IDX 22 35 23 36 24 37 85 38 25 39 84 40 26 41 27 42 28 43 78 44
REMARK SMILES IDX 29 45 83 46 77 47 79 48 30 49 82 50 76 51 75 52 31 54 63 55
REMARK SMILES IDX 43 56 62 57 44 58 47 59 61 60 80 61 45 62 46 63 60 65 81 66
REMARK SMILES IDX 48 67 32 68 33 69 41 70 34 71 35 72 39 73 42 74 36 75 37 76
REMARK SMILES IDX 40 77 38 78 64 79 65 80 73 81 66 82 67 83 71 84 74 85 68 86
REMARK SMILES IDX 69 87 72 88 70 89 49 90 50 91 58 92 51 93 52 94 56 95 59 96
REMARK SMILES IDX 53 97 54 98 57 99 55 100
REMARK H PARENT 10 8 79 53 47 64
REMARK Flexibility Score: inf
ROOT
ATOM      1  C   UNL     1       7.908  -7.654   8.328  1.00  0.00     0.202 C 
ENDROOT
BRANCH   1   2
ATOM      2  C   UNL     1       6.546  -8.353   8.353  1.00  0.00     0.261 C 
BRANCH   2   3
ATOM      3  O   UNL     1       5.496  -7.403   8.112  1.00  0.00    -0.462 OA
BRANCH   3   4
ATOM      4  C   UNL     1       4.472  -7.409   9.008  1.00  0.00     0.325 C 
ATOM      5  O   UNL     1       4.287  -8.285   9.847  1.00  0.00    -0.250 OA
BRANCH   4   6
ATOM      6  C   UNL     1       3.635  -6.135   8.965  1.00  0.00     0.238 C 
BRANCH   6   7
ATOM      7  N   UNL     1       3.873  -5.267   7.815  1.00  0.00    -0.351 N 
ATOM      8  H   UNL     1       4.719  -4.763   7.783  1.00  0.00     0.163 HD
BRANCH   7   9
ATOM      9  C   UNL     1       3.005  -5.114   6.795  1.00  0.00     0.184 A 
ATOM     10  C   UNL     1       1.968  -4.076   5.136  1.00  0.00     0.091 A 
ATOM     11  N   UNL     1       3.031  -4.049   6.025  1.00  0.00    -0.220 NA
ATOM     12  C   UNL     1       1.202  -5.230   5.170  1.00  0.00     0.064 A 
ATOM     13  S   UNL     1       1.798  -6.271   6.387  1.00  0.00    -0.096 S 
BRANCH  10  14
ATOM     14  C   UNL     1       1.690  -2.973   4.226  1.00  0.00     0.002 A 
ATOM     15  C   UNL     1       1.042  -1.037   2.294  1.00  0.00     0.118 A 
ATOM     16  C   UNL     1       0.122  -1.376   3.286  1.00  0.00     0.047 A 
ATOM     17  C   UNL     1       2.310  -1.622   2.305  1.00  0.00     0.047 A 
ATOM     18  C   UNL     1       0.440  -2.340   4.245  1.00  0.00     0.014 A 
ATOM     19  C   UNL     1       2.636  -2.583   3.272  1.00  0.00     0.014 A 
BRANCH  15  20
ATOM     20  O   UNL     1       0.604  -0.108   1.392  1.00  0.00    -0.497 OA
ATOM     21  C   UNL     1       1.198  -0.175   0.100  1.00  0.00     0.278 C 
ENDBRANCH  15  20
ENDBRANCH  10  14
BRANCH  12  22
ATOM     22  C   UNL     1       0.071  -5.650   4.351  1.00  0.00    -0.006 A 
ATOM     23  C   UNL     1      -1.198  -5.821   4.913  1.00  0.00     0.013 A 
ATOM     24  C   UNL     1       0.244  -5.851   2.977  1.00  0.00     0.013 A 
ATOM     25  C   UNL     1      -2.276  -6.188   4.106  1.00  0.00     0.047 A 
ATOM     26  C   UNL     1      -0.837  -6.219   2.172  1.00  0.00     0.047 A 
ATOM     27  C   UNL     1      -2.103  -6.386   2.734  1.00  0.00     0.118 A 
BRANCH  27  28
ATOM     28  O   UNL     1      -3.239  -6.737   2.060  1.00  0.00    -0.497 OA
ATOM     29  C   UNL     1      -3.122  -6.886   0.650  1.00  0.00     0.278 C 
ENDBRANCH  27  28
ENDBRANCH  12  22
ENDBRANCH   7   9
ENDBRANCH   6   7
ENDBRANCH   4   6
ENDBRANCH   3   4
ENDBRANCH   2   3
ENDBRANCH   1   2
BRANCH   1  30
ATOM     30  O   UNL     1       8.124  -6.678   9.348  1.00  0.00    -0.374 OA
BRANCH  30  31
ATOM     31  C   UNL     1       7.477  -5.413   9.203  1.00  0.00     0.202 C 
BRANCH  31  32
ATOM     32  C   UNL     1       8.068  -4.453   8.164  1.00  0.00     0.261 C 
BRANCH  32  33
ATOM     33  O   UNL     1       7.923  -4.946   6.819  1.00  0.00    -0.460 OA
BRANCH  33  34
ATOM     34  C   UNL     1       9.087  -5.205   6.179  1.00  0.00     0.338 C 
ATOM     35  O   UNL     1      10.222  -4.996   6.586  1.00  0.00    -0.246 OA
BRANCH  34  36
ATOM     36  C   UNL     1       8.832  -5.962   4.941  1.00  0.00     0.060 A 
ATOM     37  C   UNL     1       9.493  -7.187   4.783  1.00  0.00     0.016 A 
ATOM     38  C   UNL     1       8.031  -5.452   3.917  1.00  0.00     0.016 A 
ATOM     39  C   UNL     1       9.388  -7.890   3.584  1.00  0.00     0.010 A 
ATOM     40  C   UNL     1       7.937  -6.152   2.709  1.00  0.00     0.010 A 
ATOM     41  C   UNL     1       8.637  -7.359   2.527  1.00  0.00    -0.014 A 
BRANCH  41  42
ATOM     42  C   UNL     1       8.684  -8.009   1.195  1.00  0.00     0.031 A 
ATOM     43  C   UNL     1       9.612  -7.467   0.144  1.00  0.00     0.074 A 
ATOM     44  C   UNL     1       7.919  -9.083   0.929  1.00  0.00     0.049 A 
ATOM     45  N   UNL     1       9.777  -7.850  -1.097  1.00  0.00    -0.248 NA
ATOM     46  C   UNL     1      10.469  -6.341   0.547  1.00  0.00     0.031 C 
ATOM     47  C   UNL     1       7.008  -9.723   1.875  1.00  0.00     0.029 A 
ATOM     48  N   UNL     1       7.782  -9.816  -0.223  1.00  0.00    -0.354 N 
ATOM     49  C   UNL     1      10.749  -7.010  -1.625  1.00  0.00     0.074 A 
ATOM     50  C   UNL     1      11.121  -6.082  -0.578  1.00  0.00     0.031 C 
ATOM     51  C   UNL     1       6.391 -10.746   1.260  1.00  0.00     0.029 A 
ATOM     52  C   UNL     1       6.841 -10.811  -0.130  1.00  0.00     0.049 A 
ATOM     53  H   UNL     1       8.308  -9.645  -1.037  1.00  0.00     0.167 HD
ATOM     54  C   UNL     1      11.285  -7.017  -2.868  1.00  0.00     0.037 A 
ATOM     55  C   UNL     1       6.378 -11.659  -1.069  1.00  0.00     0.037 A 
ATOM     56  C   UNL     1      10.918  -7.943  -3.908  1.00  0.00     0.049 A 
ATOM     57  C   UNL     1       6.943 -11.603  -2.464  1.00  0.00     0.074 A 
ATOM     58  C   UNL     1      11.428  -8.048  -5.190  1.00  0.00     0.029 A 
ATOM     59  N   UNL     1       9.940  -8.918  -3.785  1.00  0.00    -0.354 N 
ATOM     60  N   UNL     1       7.881 -10.825  -2.947  1.00  0.00    -0.248 NA
ATOM     61  C   UNL     1       6.384 -12.544  -3.445  1.00  0.00     0.031 C 
ATOM     62  C   UNL     1      10.725  -9.055  -5.860  1.00  0.00     0.029 A 
ATOM     63  C   UNL     1       9.810  -9.610  -4.979  1.00  0.00     0.049 A 
ATOM     64  H   UNL     1       9.416  -9.094  -2.971  1.00  0.00     0.167 HD
ATOM     65  C   UNL     1       8.041 -11.197  -4.275  1.00  0.00     0.074 A 
ATOM     66  C   UNL     1       7.112 -12.280  -4.521  1.00  0.00     0.031 C 
ATOM     67  C   UNL     1       8.882 -10.687  -5.209  1.00  0.00     0.037 A 
BRANCH  54  68
ATOM     68  C   UNL     1      12.313  -5.972  -3.186  1.00  0.00     0.064 A 
ATOM     69  C   UNL     1      13.613  -6.034  -2.664  1.00  0.00     0.173 A 
ATOM     70  C   UNL     1      12.004  -4.918  -4.059  1.00  0.00     0.173 A 
ATOM     71  F   UNL     1      13.953  -7.016  -1.815  1.00  0.00    -0.203 F 
ATOM     72  C   UNL     1      14.561  -5.067  -2.988  1.00  0.00     0.198 A 
ATOM     73  C   UNL     1      12.961  -3.967  -4.401  1.00  0.00     0.198 A 
ATOM     74  F   UNL     1      10.776  -4.816  -4.588  1.00  0.00    -0.203 F 
ATOM     75  F   UNL     1      15.786  -5.124  -2.448  1.00  0.00    -0.200 F 
ATOM     76  C   UNL     1      14.237  -4.039  -3.862  1.00  0.00     0.200 A 
ATOM     77  F   UNL     1      12.649  -2.981  -5.253  1.00  0.00    -0.200 F 
ATOM     78  F   UNL     1      15.153  -3.114  -4.179  1.00  0.00    -0.200 F 
ENDBRANCH  54  68
BRANCH  55  79
ATOM     79  C   UNL     1       5.299 -12.623  -0.728  1.00  0.00     0.064 A 
ATOM     80  C   UNL     1       5.548 -14.001  -0.675  1.00  0.00     0.173 A 
ATOM     81  C   UNL     1       3.992 -12.184  -0.470  1.00  0.00     0.173 A 
ATOM     82  F   UNL     1       6.775 -14.470  -0.943  1.00  0.00    -0.203 F 
ATOM     83  C   UNL     1       4.526 -14.905  -0.392  1.00  0.00     0.198 A 
ATOM     84  C   UNL     1       2.977 -13.086  -0.161  1.00  0.00     0.198 A 
ATOM     85  F   UNL     1       3.701 -10.875  -0.515  1.00  0.00    -0.203 F 
ATOM     86  F   UNL     1       4.779 -16.221  -0.394  1.00  0.00    -0.200 F 
ATOM     87  C   UNL     1       3.243 -14.447  -0.130  1.00  0.00     0.200 A 
ATOM     88  F   UNL     1       1.741 -12.638   0.098  1.00  0.00    -0.200 F 
ATOM     89  F   UNL     1       2.261 -15.317   0.142  1.00  0.00    -0.200 F 
ENDBRANCH  55  79
BRANCH  67  90
ATOM     90  C   UNL     1       8.855 -11.308  -6.575  1.00  0.00     0.064 A 
ATOM     91  C   UNL     1       7.789 -11.091  -7.460  1.00  0.00     0.173 A 
ATOM     92  C   UNL     1       9.929 -12.094  -7.019  1.00  0.00     0.173 A 
ATOM     93  F   UNL     1       6.732 -10.359  -7.077  1.00  0.00    -0.203 F 
ATOM     94  C   UNL     1       7.790 -11.656  -8.733  1.00  0.00     0.198 A 
ATOM     95  C   UNL     1       9.939 -12.635  -8.302  1.00  0.00     0.198 A 
ATOM     96  F   UNL     1      10.976 -12.327  -6.214  1.00  0.00    -0.203 F 
ATOM     97  F   UNL     1       6.741 -11.470  -9.546  1.00  0.00    -0.200 F 
ATOM     98  C   UNL     1       8.867 -12.421  -9.155  1.00  0.00     0.200 A 
ATOM     99  F   UNL     1      10.986 -13.363  -8.713  1.00  0.00    -0.200 F 
ATOM    100  F   UNL     1       8.869 -12.957 -10.383  1.00  0.00    -0.200 F 
ENDBRANCH  67  90
ENDBRANCH  41  42
ENDBRANCH  34  36
ENDBRANCH  33  34
ENDBRANCH  32  33
ENDBRANCH  31  32
ENDBRANCH  30  31
ENDBRANCH   1  30
TORSDOF 20
