REMARK SMILES COC(=O)C[C@H](NC(=O)N(C)C[C@@H]1CCC[N@H+]1C)C(=O)OCCOCCOC(=O)c1ccc(-c2c3nc(c(-c4c(F)c(F)c(F)c(F)c4F)c4ccc([nH]4)c(-c4c(F)c(F)c(F)c(F)c4F)c4nc(c(-c5c(F)c(F)c(F)c(F)c5F)c5ccc2[nH]5)C=C4)C=C3)cc1
REMARK SMILES IDX 23 1 22 2 21 3 19 4 20 5 6 6 5 7 3 8 4 9 2 10 1 11 7 12 8 13
REMARK SMILES IDX 9 15 10 16 11 17 12 18 13 19 14 20 17 21 15 22 16 23 18 24
REMARK SMILES IDX 24 26 25 27 26 28 27 29 28 30 29 31 30 32 31 33 92 34 32 35
REMARK SMILES IDX 91 36 33 37 34 38 35 39 85 40 36 41 90 42 84 43 86 44 37 45
REMARK SMILES IDX 89 46 83 47 82 48 38 50 70 51 50 52 69 53 51 54 54 55 68 56
REMARK SMILES IDX 87 57 52 58 53 59 67 61 88 62 55 63 39 64 40 65 48 66 41 67
REMARK SMILES IDX 42 68 46 69 49 70 43 71 44 72 47 73 45 74 71 75 72 76 80 77
REMARK SMILES IDX 73 78 74 79 78 80 81 81 75 82 76 83 79 84 77 85 56 86 57 87
REMARK SMILES IDX 65 88 58 89 59 90 63 91 66 92 60 93 61 94 64 95 62 96
REMARK H PARENT 7 14 17 25 86 49 54 60
REMARK Flexibility Score: inf
ROOT
ATOM      1  C   UNL     1      -3.464   3.731   1.692  1.00  0.00     0.202 C 
ENDROOT
BRANCH   1   2
ATOM      2  C   UNL     1      -2.532   3.890   2.895  1.00  0.00     0.261 C 
BRANCH   2   3
ATOM      3  O   UNL     1      -1.198   3.441   2.607  1.00  0.00    -0.462 OA
BRANCH   3   4
ATOM      4  C   UNL     1      -0.853   2.258   3.181  1.00  0.00     0.329 C 
ATOM      5  O   UNL     1      -1.565   1.629   3.957  1.00  0.00    -0.250 OA
BRANCH   4   6
ATOM      6  C   UNL     1       0.548   1.764   2.761  1.00  0.00     0.204 C 
BRANCH   6   7
ATOM      7  C   UNL     1       1.559   1.538   3.887  1.00  0.00     0.159 C 
BRANCH   7   8
ATOM      8  C   UNL     1       0.935   1.511   5.261  1.00  0.00     0.308 C 
ATOM      9  O   UNL     1       0.881   0.513   5.965  1.00  0.00    -0.252 OA
BRANCH   8  10
ATOM     10  O   UNL     1       0.444   2.739   5.586  1.00  0.00    -0.469 OA
ATOM     11  C   UNL     1      -0.491   2.759   6.673  1.00  0.00     0.282 C 
ENDBRANCH   8  10
ENDBRANCH   7   8
ENDBRANCH   6   7
BRANCH   6  12
ATOM     12  N   UNL     1       1.094   2.352   1.521  1.00  0.00    -0.324 N 
ATOM     13  C   UNL     1       1.770   3.406   1.055  1.00  0.00     0.318 C 
ATOM     14  H   UNL     1       0.886   1.752   0.769  1.00  0.00     0.166 HD
ATOM     15  O   UNL     1       1.897   3.393  -0.175  1.00  0.00    -0.249 OA
BRANCH  13  16
ATOM     16  N   UNL     1       2.298   4.397   1.824  1.00  0.00    -0.322 N 
ATOM     17  C   UNL     1       1.981   4.698   3.207  1.00  0.00     0.149 C 
BRANCH  16  18
ATOM     18  C   UNL     1       3.118   5.407   1.129  1.00  0.00     0.185 C 
BRANCH  18  19
ATOM     19  C   UNL     1       4.648   5.157   0.958  1.00  0.00     0.203 C 
ATOM     20  C   UNL     1       5.236   6.396   0.241  1.00  0.00     0.073 C 
ATOM     21  N   UNL     1       5.106   4.047   0.097  1.00  0.00    -0.333 N 
ATOM     22  C   UNL     1       6.303   5.890  -0.715  1.00  0.00     0.068 C 
ATOM     23  C   UNL     1       6.440   4.422  -0.388  1.00  0.00     0.262 C 
ATOM     24  C   UNL     1       5.178   2.759   0.778  1.00  0.00     0.333 C 
ATOM     25  H   UNL     1       4.428   3.918  -0.654  1.00  0.00     0.348 HD
ENDBRANCH  18  19
ENDBRANCH  16  18
ENDBRANCH  13  16
ENDBRANCH   6  12
ENDBRANCH   4   6
ENDBRANCH   3   4
ENDBRANCH   2   3
ENDBRANCH   1   2
BRANCH   1  26
ATOM     26  O   UNL     1      -3.643   2.408   1.192  1.00  0.00    -0.374 OA
BRANCH  26  27
ATOM     27  C   UNL     1      -2.616   1.868   0.360  1.00  0.00     0.202 C 
BRANCH  27  28
ATOM     28  C   UNL     1      -2.537   2.388  -1.080  1.00  0.00     0.261 C 
BRANCH  28  29
ATOM     29  O   UNL     1      -2.161   3.774  -1.138  1.00  0.00    -0.460 OA
BRANCH  29  30
ATOM     30  C   UNL     1      -3.134   4.608  -1.565  1.00  0.00     0.338 C 
ATOM     31  O   UNL     1      -4.256   4.304  -1.952  1.00  0.00    -0.246 OA
BRANCH  30  32
ATOM     32  C   UNL     1      -2.744   6.011  -1.340  1.00  0.00     0.060 A 
ATOM     33  C   UNL     1      -3.652   6.829  -0.654  1.00  0.00     0.016 A 
ATOM     34  C   UNL     1      -1.567   6.543  -1.869  1.00  0.00     0.016 A 
ATOM     35  C   UNL     1      -3.419   8.197  -0.552  1.00  0.00     0.010 A 
ATOM     36  C   UNL     1      -1.339   7.921  -1.774  1.00  0.00     0.010 A 
ATOM     37  C   UNL     1      -2.284   8.757  -1.153  1.00  0.00    -0.014 A 
BRANCH  37  38
ATOM     38  C   UNL     1      -2.177  10.232  -1.264  1.00  0.00     0.031 A 
ATOM     39  C   UNL     1      -2.565  10.895  -2.556  1.00  0.00     0.074 A 
ATOM     40  C   UNL     1      -1.780  10.973  -0.215  1.00  0.00     0.049 A 
ATOM     41  N   UNL     1      -2.531  12.162  -2.885  1.00  0.00    -0.248 NA
ATOM     42  C   UNL     1      -3.061  10.010  -3.622  1.00  0.00     0.031 C 
ATOM     43  C   UNL     1      -1.420  10.447   1.099  1.00  0.00     0.029 A 
ATOM     44  N   UNL     1      -1.608  12.329  -0.097  1.00  0.00    -0.354 N 
ATOM     45  C   UNL     1      -2.995  12.224  -4.193  1.00  0.00     0.074 A 
ATOM     46  C   UNL     1      -3.276  10.867  -4.609  1.00  0.00     0.031 C 
ATOM     47  C   UNL     1      -1.058  11.471   1.892  1.00  0.00     0.029 A 
ATOM     48  C   UNL     1      -1.130  12.716   1.129  1.00  0.00     0.049 A 
ATOM     49  H   UNL     1      -1.809  12.963  -0.823  1.00  0.00     0.167 HD
ATOM     50  C   UNL     1      -3.180  13.317  -4.972  1.00  0.00     0.037 A 
ATOM     51  C   UNL     1      -0.769  13.935   1.575  1.00  0.00     0.037 A 
ATOM     52  C   UNL     1      -2.898  14.665  -4.555  1.00  0.00     0.049 A 
ATOM     53  C   UNL     1      -0.915  15.127   0.664  1.00  0.00     0.074 A 
ATOM     54  C   UNL     1      -3.064  15.841  -5.265  1.00  0.00     0.029 A 
ATOM     55  N   UNL     1      -2.383  15.015  -3.316  1.00  0.00    -0.354 N 
ATOM     56  N   UNL     1      -1.375  15.182  -0.562  1.00  0.00    -0.248 NA
ATOM     57  C   UNL     1      -0.495  16.428   1.203  1.00  0.00     0.031 C 
ATOM     58  C   UNL     1      -2.601  16.898  -4.474  1.00  0.00     0.029 A 
ATOM     59  C   UNL     1      -2.199  16.387  -3.250  1.00  0.00     0.049 A 
ATOM     60  H   UNL     1      -2.178  14.383  -2.590  1.00  0.00     0.167 HD
ATOM     61  C   UNL     1      -1.327  16.520  -0.931  1.00  0.00     0.074 A 
ATOM     62  C   UNL     1      -0.804  17.247   0.207  1.00  0.00     0.031 C 
ATOM     63  C   UNL     1      -1.683  17.096  -2.106  1.00  0.00     0.037 A 
BRANCH  50  64
ATOM     64  C   UNL     1      -3.688  13.095  -6.367  1.00  0.00     0.064 A 
ATOM     65  C   UNL     1      -5.011  12.698  -6.616  1.00  0.00     0.173 A 
ATOM     66  C   UNL     1      -2.850  13.314  -7.471  1.00  0.00     0.173 A 
ATOM     67  F   UNL     1      -5.849  12.464  -5.595  1.00  0.00    -0.203 F 
ATOM     68  C   UNL     1      -5.468  12.504  -7.917  1.00  0.00     0.198 A 
ATOM     69  C   UNL     1      -3.319  13.147  -8.771  1.00  0.00     0.198 A 
ATOM     70  F   UNL     1      -1.578  13.698  -7.288  1.00  0.00    -0.203 F 
ATOM     71  F   UNL     1      -6.722  12.082  -8.130  1.00  0.00    -0.200 F 
ATOM     72  C   UNL     1      -4.624  12.735  -8.993  1.00  0.00     0.200 A 
ATOM     73  F   UNL     1      -2.505  13.383  -9.810  1.00  0.00    -0.200 F 
ATOM     74  F   UNL     1      -5.067  12.556 -10.245  1.00  0.00    -0.200 F 
ENDBRANCH  50  64
BRANCH  51  75
ATOM     75  C   UNL     1      -0.220  14.089   2.947  1.00  0.00     0.064 A 
ATOM     76  C   UNL     1      -0.934  14.771   3.942  1.00  0.00     0.173 A 
ATOM     77  C   UNL     1       1.037  13.567   3.287  1.00  0.00     0.173 A 
ATOM     78  F   UNL     1      -2.129  15.309   3.659  1.00  0.00    -0.203 F 
ATOM     79  C   UNL     1      -0.404  14.939   5.220  1.00  0.00     0.198 A 
ATOM     80  C   UNL     1       1.553  13.711   4.572  1.00  0.00     0.198 A 
ATOM     81  F   UNL     1       1.760  12.906   2.371  1.00  0.00    -0.203 F 
ATOM     82  F   UNL     1      -1.087  15.634   6.140  1.00  0.00    -0.200 F 
ATOM     83  C   UNL     1       0.836  14.404   5.536  1.00  0.00     0.200 A 
ATOM     84  F   UNL     1       2.744  13.179   4.877  1.00  0.00    -0.200 F 
ATOM     85  F   UNL     1       1.343  14.561   6.766  1.00  0.00    -0.200 F 
ENDBRANCH  51  75
BRANCH  63  86
ATOM     86  C   UNL     1      -1.555  18.589  -2.210  1.00  0.00     0.064 A 
ATOM     87  C   UNL     1      -0.305  19.217  -2.297  1.00  0.00     0.173 A 
ATOM     88  C   UNL     1      -2.702  19.396  -2.266  1.00  0.00     0.173 A 
ATOM     89  F   UNL     1       0.822  18.491  -2.234  1.00  0.00    -0.203 F 
ATOM     90  C   UNL     1      -0.206  20.602  -2.410  1.00  0.00     0.198 A 
ATOM     91  C   UNL     1      -2.600  20.777  -2.410  1.00  0.00     0.198 A 
ATOM     92  F   UNL     1      -3.922  18.845  -2.194  1.00  0.00    -0.203 F 
ATOM     93  F   UNL     1       1.000  21.185  -2.444  1.00  0.00    -0.200 F 
ATOM     94  C   UNL     1      -1.353  21.379  -2.474  1.00  0.00     0.200 A 
ATOM     95  F   UNL     1      -3.709  21.525  -2.485  1.00  0.00    -0.200 F 
ATOM     96  F   UNL     1      -1.256  22.711  -2.590  1.00  0.00    -0.200 F 
ENDBRANCH  63  86
ENDBRANCH  37  38
ENDBRANCH  30  32
ENDBRANCH  29  30
ENDBRANCH  28  29
ENDBRANCH  27  28
ENDBRANCH  26  27
ENDBRANCH   1  26
TORSDOF 21
