REMARK SMILES Cc1ccc2c(c1)c(-c1ccnc3c(C)cccc13)c(C)n2CC(=O)OCCOCCOC(=O)c1ccc(-c2c3nc(c(-c4c(F)c(F)c(F)c(F)c4F)c4ccc([nH]4)c(-c4c(F)c(F)c(F)c(F)c4F)c4nc(c(-c5c(F)c(F)c(F)c(F)c5F)c5ccc2[nH]5)C=C4)C=C3)cc1
REMARK SMILES IDX 29 1 28 2 27 3 26 4 24 5 25 6 23 7 22 8 1 9 2 10 3 11 7 12
REMARK SMILES IDX 4 13 6 14 5 15 8 16 20 17 21 18 9 19 10 20 19 21 11 22 13 23
REMARK SMILES IDX 18 24 12 25 14 26 17 27 15 28 16 29 30 30 31 31 32 32 33 33
REMARK SMILES IDX 34 34 35 35 36 36 97 37 37 38 96 39 38 40 39 41 40 42 90 43
REMARK SMILES IDX 41 44 95 45 89 46 91 47 42 48 94 49 88 50 87 51 43 53 75 54
REMARK SMILES IDX 55 55 74 56 56 57 59 58 73 59 92 60 57 61 58 62 72 64 93 65
REMARK SMILES IDX 60 66 44 67 45 68 53 69 46 70 47 71 51 72 54 73 48 74 49 75
REMARK SMILES IDX 52 76 50 77 76 78 77 79 85 80 78 81 79 82 83 83 86 84 80 85
REMARK SMILES IDX 81 86 84 87 82 88 61 89 62 90 70 91 63 92 64 93 68 94 71 95
REMARK SMILES IDX 65 96 66 97 69 98 67 99
REMARK H PARENT 91 52 59 63
REMARK Flexibility Score: inf
ROOT
ATOM      1  O   UNL     1      -1.054   9.502   2.635  1.00  0.00    -0.374 OA
ENDROOT
BRANCH   1   2
ATOM      2  C   UNL     1      -1.499   8.659   3.686  1.00  0.00     0.202 C 
BRANCH   2   3
ATOM      3  C   UNL     1      -2.260   7.356   3.391  1.00  0.00     0.261 C 
BRANCH   3   4
ATOM      4  O   UNL     1      -1.764   6.600   2.271  1.00  0.00    -0.462 OA
BRANCH   4   5
ATOM      5  C   UNL     1      -2.602   6.559   1.202  1.00  0.00     0.326 C 
ATOM      6  O   UNL     1      -3.729   7.052   1.200  1.00  0.00    -0.250 OA
BRANCH   5   7
ATOM      7  C   UNL     1      -2.066   5.906  -0.046  1.00  0.00     0.244 C 
BRANCH   7   8
ATOM      8  N   UNL     1      -0.721   5.326  -0.030  1.00  0.00    -0.333 N 
ATOM      9  C   UNL     1       0.946  -0.075   0.067  1.00  0.00     0.044 C 
ATOM     10  C   UNL     1       0.469   1.343   0.190  1.00  0.00    -0.050 A 
ATOM     11  C   UNL     1      -0.871   1.610   0.477  1.00  0.00     0.005 A 
ATOM     12  C   UNL     1       1.345   2.407  -0.061  1.00  0.00     0.014 A 
ATOM     13  C   UNL     1      -1.368   2.919   0.496  1.00  0.00     0.027 A 
ATOM     14  C   UNL     1       0.859   3.731  -0.091  1.00  0.00     0.008 A 
ATOM     15  C   UNL     1      -0.492   3.968   0.168  1.00  0.00     0.049 A 
ATOM     16  C   UNL     1       1.461   4.984  -0.391  1.00  0.00     0.011 A 
ATOM     17  C   UNL     1       0.434   5.910  -0.544  1.00  0.00     0.024 A 
ATOM     18  C   UNL     1       0.495   7.253  -1.196  1.00  0.00     0.065 C 
BRANCH  16  19
ATOM     19  C   UNL     1       2.864   5.259  -0.696  1.00  0.00    -0.005 A 
ATOM     20  C   UNL     1       3.298   5.155  -2.014  1.00  0.00     0.029 A 
ATOM     21  C   UNL     1       3.785   5.624   0.321  1.00  0.00     0.008 A 
ATOM     22  C   UNL     1       4.609   5.479  -2.285  1.00  0.00     0.112 A 
ATOM     23  C   UNL     1       5.094   6.000  -0.071  1.00  0.00     0.074 A 
ATOM     24  C   UNL     1       3.461   5.614   1.695  1.00  0.00     0.011 A 
ATOM     25  N   UNL     1       5.484   5.925  -1.359  1.00  0.00    -0.256 NA
ATOM     26  C   UNL     1       5.990   6.453   0.912  1.00  0.00    -0.025 A 
ATOM     27  C   UNL     1       4.383   6.006   2.656  1.00  0.00     0.001 A 
ATOM     28  C   UNL     1       7.371   6.949   0.571  1.00  0.00     0.047 C 
ATOM     29  C   UNL     1       5.625   6.471   2.266  1.00  0.00     0.005 A 
ENDBRANCH  16  19
ENDBRANCH   7   8
ENDBRANCH   5   7
ENDBRANCH   4   5
ENDBRANCH   3   4
ENDBRANCH   2   3
ENDBRANCH   1   2
BRANCH   1  30
ATOM     30  C   UNL     1      -0.149   8.958   1.684  1.00  0.00     0.202 C 
BRANCH  30  31
ATOM     31  C   UNL     1       1.213   8.404   2.138  1.00  0.00     0.261 C 
BRANCH  31  32
ATOM     32  O   UNL     1       1.117   7.481   3.221  1.00  0.00    -0.460 OA
BRANCH  32  33
ATOM     33  C   UNL     1       2.044   7.685   4.202  1.00  0.00     0.338 C 
ATOM     34  O   UNL     1       3.084   8.291   4.141  1.00  0.00    -0.246 OA
BRANCH  33  35
ATOM     35  C   UNL     1       1.325   7.434   5.458  1.00  0.00     0.060 A 
ATOM     36  C   UNL     1       0.504   6.313   5.625  1.00  0.00     0.016 A 
ATOM     37  C   UNL     1       1.197   8.581   6.251  1.00  0.00     0.016 A 
ATOM     38  C   UNL     1      -0.549   6.407   6.521  1.00  0.00     0.010 A 
ATOM     39  C   UNL     1       0.116   8.689   7.097  1.00  0.00     0.010 A 
ATOM     40  C   UNL     1      -0.779   7.621   7.191  1.00  0.00    -0.014 A 
BRANCH  40  41
ATOM     41  C   UNL     1      -1.817   7.674   8.211  1.00  0.00     0.031 A 
ATOM     42  C   UNL     1      -1.406   6.896   9.408  1.00  0.00     0.074 A 
ATOM     43  C   UNL     1      -2.900   8.478   8.175  1.00  0.00     0.049 A 
ATOM     44  N   UNL     1      -1.950   5.828   9.889  1.00  0.00    -0.248 NA
ATOM     45  C   UNL     1      -0.107   7.237  10.022  1.00  0.00     0.031 C 
ATOM     46  C   UNL     1      -3.224   9.505   7.184  1.00  0.00     0.029 A 
ATOM     47  N   UNL     1      -3.906   8.620   9.086  1.00  0.00    -0.354 N 
ATOM     48  C   UNL     1      -1.165   5.484  10.986  1.00  0.00     0.074 A 
ATOM     49  C   UNL     1       0.053   6.236  10.885  1.00  0.00     0.031 C 
ATOM     50  C   UNL     1      -4.213  10.299   7.653  1.00  0.00     0.029 A 
ATOM     51  C   UNL     1      -4.670   9.775   8.925  1.00  0.00     0.049 A 
ATOM     52  H   UNL     1      -4.077   7.962   9.798  1.00  0.00     0.167 HD
ATOM     53  C   UNL     1      -1.709   4.856  12.061  1.00  0.00     0.037 A 
ATOM     54  C   UNL     1      -5.557  10.283   9.818  1.00  0.00     0.037 A 
ATOM     55  C   UNL     1      -2.978   4.270  11.730  1.00  0.00     0.049 A 
ATOM     56  C   UNL     1      -5.914   9.181  10.739  1.00  0.00     0.074 A 
ATOM     57  C   UNL     1      -3.415   3.216  10.959  1.00  0.00     0.029 A 
ATOM     58  N   UNL     1      -4.051   5.097  11.931  1.00  0.00    -0.354 N 
ATOM     59  N   UNL     1      -6.598   8.131  10.387  1.00  0.00    -0.248 NA
ATOM     60  C   UNL     1      -5.199   9.071  12.003  1.00  0.00     0.031 C 
ATOM     61  C   UNL     1      -4.707   3.592  10.483  1.00  0.00     0.029 A 
ATOM     62  C   UNL     1      -5.032   4.841  11.014  1.00  0.00     0.049 A 
ATOM     63  H   UNL     1      -4.107   5.780  12.638  1.00  0.00     0.167 HD
ATOM     64  C   UNL     1      -6.065   7.104  11.143  1.00  0.00     0.074 A 
ATOM     65  C   UNL     1      -5.342   7.763  12.225  1.00  0.00     0.031 C 
ATOM     66  C   UNL     1      -6.007   5.840  10.637  1.00  0.00     0.037 A 
BRANCH  53  67
ATOM     67  C   UNL     1      -1.335   5.199  13.486  1.00  0.00     0.064 A 
ATOM     68  C   UNL     1      -1.810   4.392  14.536  1.00  0.00     0.173 A 
ATOM     69  C   UNL     1      -0.781   6.440  13.880  1.00  0.00     0.173 A 
ATOM     70  F   UNL     1      -2.414   3.222  14.275  1.00  0.00    -0.203 F 
ATOM     71  C   UNL     1      -1.754   4.808  15.870  1.00  0.00     0.198 A 
ATOM     72  C   UNL     1      -0.668   6.823  15.213  1.00  0.00     0.198 A 
ATOM     73  F   UNL     1      -0.440   7.384  12.995  1.00  0.00    -0.203 F 
ATOM     74  F   UNL     1      -2.317   4.057  16.826  1.00  0.00    -0.200 F 
ATOM     75  C   UNL     1      -1.176   6.019  16.208  1.00  0.00     0.200 A 
ATOM     76  F   UNL     1      -0.138   8.018  15.512  1.00  0.00    -0.200 F 
ATOM     77  F   UNL     1      -1.157   6.437  17.480  1.00  0.00    -0.200 F 
ENDBRANCH  53  67
BRANCH  54  78
ATOM     78  C   UNL     1      -5.869  11.696  10.160  1.00  0.00     0.064 A 
ATOM     79  C   UNL     1      -6.966  12.000  10.990  1.00  0.00     0.173 A 
ATOM     80  C   UNL     1      -4.926  12.723   9.977  1.00  0.00     0.173 A 
ATOM     81  F   UNL     1      -7.903  11.072  11.236  1.00  0.00    -0.203 F 
ATOM     82  C   UNL     1      -7.070  13.225  11.657  1.00  0.00     0.198 A 
ATOM     83  C   UNL     1      -5.035  13.950  10.638  1.00  0.00     0.198 A 
ATOM     84  F   UNL     1      -3.823  12.522   9.243  1.00  0.00    -0.203 F 
ATOM     85  F   UNL     1      -8.078  13.437  12.514  1.00  0.00    -0.200 F 
ATOM     86  C   UNL     1      -6.092  14.191  11.497  1.00  0.00     0.200 A 
ATOM     87  F   UNL     1      -4.066  14.867  10.500  1.00  0.00    -0.200 F 
ATOM     88  F   UNL     1      -6.142  15.329  12.203  1.00  0.00    -0.200 F 
ENDBRANCH  54  78
BRANCH  66  89
ATOM     89  C   UNL     1      -6.913   5.525   9.482  1.00  0.00     0.064 A 
ATOM     90  C   UNL     1      -6.801   6.088   8.200  1.00  0.00     0.173 A 
ATOM     91  C   UNL     1      -7.883   4.531   9.670  1.00  0.00     0.173 A 
ATOM     92  F   UNL     1      -5.846   6.984   7.920  1.00  0.00    -0.203 F 
ATOM     93  C   UNL     1      -7.650   5.697   7.166  1.00  0.00     0.198 A 
ATOM     94  C   UNL     1      -8.702   4.115   8.627  1.00  0.00     0.198 A 
ATOM     95  F   UNL     1      -8.005   3.931  10.864  1.00  0.00    -0.203 F 
ATOM     96  F   UNL     1      -7.536   6.258   5.953  1.00  0.00    -0.200 F 
ATOM     97  C   UNL     1      -8.593   4.704   7.378  1.00  0.00     0.200 A 
ATOM     98  F   UNL     1      -9.580   3.123   8.827  1.00  0.00    -0.200 F 
ATOM     99  F   UNL     1      -9.381   4.296   6.373  1.00  0.00    -0.200 F 
ENDBRANCH  66  89
ENDBRANCH  40  41
ENDBRANCH  33  35
ENDBRANCH  32  33
ENDBRANCH  31  32
ENDBRANCH  30  31
ENDBRANCH   1  30
TORSDOF 16
