REMARK SMILES CC(C)(C)OC(=O)N1CCN(C(=O)c2ccc3c(c2)OCO3)[C@H](C(=O)OCCOCCOC(=O)c2ccc(-c3c4nc(c(-c5c(F)c(F)c(F)c(F)c5F)c5ccc([nH]5)c(-c5c(F)c(F)c(F)c(F)c5F)c5nc(c(-c6c(F)c(F)c(F)c(F)c6F)c6ccc3[nH]6)C=C5)C=C4)cc2)C1
REMARK SMILES IDX 28 1 27 2 26 3 24 4 25 5 23 6 8 7 9 8 98 9 10 10 11 11 6 12
REMARK SMILES IDX 7 13 5 14 2 15 1 16 3 17 4 18 12 19 13 20 14 21 15 22 19 23
REMARK SMILES IDX 16 24 18 25 17 26 20 27 22 28 21 29 29 30 30 31 31 32 32 33
REMARK SMILES IDX 33 34 34 35 35 36 36 37 97 38 37 39 96 40 38 41 39 42 40 43
REMARK SMILES IDX 90 44 41 45 95 46 89 47 91 48 42 49 94 50 88 51 87 52 43 54
REMARK SMILES IDX 75 55 55 56 74 57 56 58 59 59 73 60 92 61 57 62 58 63 72 65
REMARK SMILES IDX 93 66 60 67 44 68 45 69 53 70 46 71 47 72 51 73 54 74 48 75
REMARK SMILES IDX 49 76 52 77 50 78 76 79 77 80 85 81 78 82 79 83 83 84 86 85
REMARK SMILES IDX 80 86 81 87 84 88 82 89 61 90 62 91 70 92 63 93 64 94 68 95
REMARK SMILES IDX 71 96 65 97 66 98 69 99 67 100
REMARK H PARENT 91 53 59 64
REMARK Flexibility Score: inf
ROOT
ATOM      1  C   UNL     1       5.423   6.632   0.194  1.00  0.00     0.202 C 
ENDROOT
BRANCH   1   2
ATOM      2  C   UNL     1       5.877   5.221  -0.316  1.00  0.00     0.261 C 
BRANCH   2   3
ATOM      3  O   UNL     1       5.115   4.733  -1.390  1.00  0.00    -0.462 OA
BRANCH   3   4
ATOM      4  C   UNL     1       3.931   4.214  -1.072  1.00  0.00     0.330 C 
ATOM      5  O   UNL     1       3.644   3.672  -0.015  1.00  0.00    -0.250 OA
BRANCH   4   6
ATOM      6  C   UNL     1       3.001   4.420  -2.226  1.00  0.00     0.215 C 
ATOM      7  N   UNL     1       1.346   3.239  -3.469  1.00  0.00    -0.304 N 
ATOM      8  C   UNL     1       1.049   4.422  -4.311  1.00  0.00     0.144 C 
ATOM      9  C   UNL     1       2.731   3.143  -2.995  1.00  0.00     0.160 C 
ATOM     10  C   UNL     1       1.778   5.738  -3.826  1.00  0.00     0.142 C 
ATOM     11  N   UNL     1       3.139   5.505  -3.237  1.00  0.00    -0.321 N 
BRANCH   7  12
ATOM     12  C   UNL     1       0.402   2.313  -3.067  1.00  0.00     0.410 C 
ATOM     13  O   UNL     1      -0.720   2.201  -3.556  1.00  0.00    -0.224 OA
BRANCH  12  14
ATOM     14  O   UNL     1       0.883   1.571  -2.045  1.00  0.00    -0.444 OA
BRANCH  14  15
ATOM     15  C   UNL     1       0.349   0.320  -1.542  1.00  0.00     0.106 C 
ATOM     16  C   UNL     1       1.011   0.147  -0.164  1.00  0.00     0.056 C 
ATOM     17  C   UNL     1       0.829  -0.801  -2.466  1.00  0.00     0.056 C 
ATOM     18  C   UNL     1      -1.167   0.301  -1.365  1.00  0.00     0.056 C 
ENDBRANCH  14  15
ENDBRANCH  12  14
ENDBRANCH   7  12
BRANCH  11  19
ATOM     19  C   UNL     1       4.298   5.719  -4.055  1.00  0.00     0.254 C 
ATOM     20  O   UNL     1       4.151   5.767  -5.279  1.00  0.00    -0.269 OA
BRANCH  19  21
ATOM     21  C   UNL     1       5.743   5.989  -3.537  1.00  0.00     0.044 A 
ATOM     22  C   UNL     1       6.838   5.224  -3.947  1.00  0.00     0.018 A 
ATOM     23  C   UNL     1       6.128   7.124  -2.812  1.00  0.00     0.064 A 
ATOM     24  C   UNL     1       8.184   5.547  -3.552  1.00  0.00     0.051 A 
ATOM     25  C   UNL     1       7.410   7.443  -2.411  1.00  0.00     0.166 A 
ATOM     26  C   UNL     1       8.443   6.658  -2.763  1.00  0.00     0.165 A 
ATOM     27  O   UNL     1       7.756   8.553  -1.709  1.00  0.00    -0.454 OA
ATOM     28  O   UNL     1       9.618   7.162  -2.303  1.00  0.00    -0.454 OA
ATOM     29  C   UNL     1       9.165   8.330  -1.559  1.00  0.00     0.468 C 
ENDBRANCH  19  21
ENDBRANCH  11  19
ENDBRANCH   4   6
ENDBRANCH   3   4
ENDBRANCH   2   3
ENDBRANCH   1   2
BRANCH   1  30
ATOM     30  O   UNL     1       4.907   7.720  -0.612  1.00  0.00    -0.374 OA
BRANCH  30  31
ATOM     31  C   UNL     1       3.604   7.854  -1.231  1.00  0.00     0.202 C 
BRANCH  31  32
ATOM     32  C   UNL     1       3.536   8.899  -2.562  1.00  0.00     0.261 C 
BRANCH  32  33
ATOM     33  O   UNL     1       4.094   8.492  -3.937  1.00  0.00    -0.460 OA
BRANCH  33  34
ATOM     34  C   UNL     1       5.096   9.227  -4.584  1.00  0.00     0.338 C 
ATOM     35  O   UNL     1       5.459  10.330  -4.191  1.00  0.00    -0.246 OA
BRANCH  34  36
ATOM     36  C   UNL     1       5.938   8.503  -5.685  1.00  0.00     0.060 A 
ATOM     37  C   UNL     1       7.343   8.409  -5.542  1.00  0.00     0.016 A 
ATOM     38  C   UNL     1       5.442   7.973  -6.881  1.00  0.00     0.016 A 
ATOM     39  C   UNL     1       8.189   7.703  -6.460  1.00  0.00     0.010 A 
ATOM     40  C   UNL     1       6.303   7.326  -7.846  1.00  0.00     0.010 A 
ATOM     41  C   UNL     1       7.692   7.150  -7.649  1.00  0.00    -0.014 A 
BRANCH  41  42
ATOM     42  C   UNL     1       8.625   6.626  -8.748  1.00  0.00     0.031 A 
ATOM     43  C   UNL     1       9.279   7.634  -9.683  1.00  0.00     0.074 A 
ATOM     44  C   UNL     1       8.960   5.328  -8.968  1.00  0.00     0.049 A 
ATOM     45  N   UNL     1      10.013   7.451 -10.760  1.00  0.00    -0.248 NA
ATOM     46  C   UNL     1       9.081   9.046  -9.336  1.00  0.00     0.031 C 
ATOM     47  C   UNL     1       8.575   4.191  -8.140  1.00  0.00     0.029 A 
ATOM     48  N   UNL     1       9.722   4.742  -9.978  1.00  0.00    -0.354 N 
ATOM     49  C   UNL     1      10.345   8.721 -11.225  1.00  0.00     0.074 A 
ATOM     50  C   UNL     1       9.734   9.663 -10.308  1.00  0.00     0.031 C 
ATOM     51  C   UNL     1       9.073   3.057  -8.678  1.00  0.00     0.029 A 
ATOM     52  C   UNL     1       9.783   3.362  -9.925  1.00  0.00     0.049 A 
ATOM     53  H   UNL     1      10.180   5.269 -10.672  1.00  0.00     0.167 HD
ATOM     54  C   UNL     1      11.071   9.093 -12.311  1.00  0.00     0.037 A 
ATOM     55  C   UNL     1      10.308   2.445 -10.779  1.00  0.00     0.037 A 
ATOM     56  C   UNL     1      11.683   8.201 -13.264  1.00  0.00     0.049 A 
ATOM     57  C   UNL     1      10.993   2.874 -12.069  1.00  0.00     0.074 A 
ATOM     58  C   UNL     1      12.410   8.521 -14.401  1.00  0.00     0.029 A 
ATOM     59  N   UNL     1      11.632   6.819 -13.208  1.00  0.00    -0.354 N 
ATOM     60  N   UNL     1      11.269   4.078 -12.504  1.00  0.00    -0.248 NA
ATOM     61  C   UNL     1      11.430   1.807 -12.994  1.00  0.00     0.031 C 
ATOM     62  C   UNL     1      12.739   7.337 -15.069  1.00  0.00     0.029 A 
ATOM     63  C   UNL     1      12.284   6.275 -14.308  1.00  0.00     0.049 A 
ATOM     64  H   UNL     1      11.197   6.298 -12.495  1.00  0.00     0.167 HD
ATOM     65  C   UNL     1      11.937   3.912 -13.717  1.00  0.00     0.074 A 
ATOM     66  C   UNL     1      12.040   2.491 -13.952  1.00  0.00     0.031 C 
ATOM     67  C   UNL     1      12.420   4.862 -14.555  1.00  0.00     0.037 A 
BRANCH  54  68
ATOM     68  C   UNL     1      11.190  10.570 -12.578  1.00  0.00     0.064 A 
ATOM     69  C   UNL     1      11.964  11.413 -11.767  1.00  0.00     0.173 A 
ATOM     70  C   UNL     1      10.526  11.144 -13.674  1.00  0.00     0.173 A 
ATOM     71  F   UNL     1      12.613  10.917 -10.702  1.00  0.00    -0.203 F 
ATOM     72  C   UNL     1      12.032  12.782 -12.017  1.00  0.00     0.198 A 
ATOM     73  C   UNL     1      10.627  12.506 -13.943  1.00  0.00     0.198 A 
ATOM     74  F   UNL     1       9.786  10.381 -14.493  1.00  0.00    -0.203 F 
ATOM     75  F   UNL     1      12.723  13.578 -11.190  1.00  0.00    -0.200 F 
ATOM     76  C   UNL     1      11.368  13.326 -13.106  1.00  0.00     0.200 A 
ATOM     77  F   UNL     1      10.002  13.025 -15.008  1.00  0.00    -0.200 F 
ATOM     78  F   UNL     1      11.434  14.643 -13.344  1.00  0.00    -0.200 F 
ENDBRANCH  54  68
BRANCH  55  79
ATOM     79  C   UNL     1      10.176   0.973 -10.509  1.00  0.00     0.064 A 
ATOM     80  C   UNL     1      11.303   0.151 -10.329  1.00  0.00     0.173 A 
ATOM     81  C   UNL     1       8.924   0.339 -10.539  1.00  0.00     0.173 A 
ATOM     82  F   UNL     1      12.533   0.686 -10.355  1.00  0.00    -0.203 F 
ATOM     83  C   UNL     1      11.183  -1.235 -10.202  1.00  0.00     0.198 A 
ATOM     84  C   UNL     1       8.802  -1.043 -10.376  1.00  0.00     0.198 A 
ATOM     85  F   UNL     1       7.812   1.058 -10.747  1.00  0.00    -0.203 F 
ATOM     86  F   UNL     1      12.282  -1.997 -10.103  1.00  0.00    -0.200 F 
ATOM     87  C   UNL     1       9.932  -1.830 -10.217  1.00  0.00     0.200 A 
ATOM     88  F   UNL     1       7.590  -1.613 -10.394  1.00  0.00    -0.200 F 
ATOM     89  F   UNL     1       9.816  -3.160 -10.098  1.00  0.00    -0.200 F 
ENDBRANCH  55  79
BRANCH  67  90
ATOM     90  C   UNL     1      13.167   4.426 -15.791  1.00  0.00     0.064 A 
ATOM     91  C   UNL     1      12.527   3.804 -16.873  1.00  0.00     0.173 A 
ATOM     92  C   UNL     1      14.542   4.690 -15.919  1.00  0.00     0.173 A 
ATOM     93  F   UNL     1      11.217   3.518 -16.810  1.00  0.00    -0.203 F 
ATOM     94  C   UNL     1      13.234   3.443 -18.021  1.00  0.00     0.198 A 
ATOM     95  C   UNL     1      15.239   4.357 -17.079  1.00  0.00     0.198 A 
ATOM     96  F   UNL     1      15.210   5.291 -14.923  1.00  0.00    -0.203 F 
ATOM     97  F   UNL     1      12.607   2.810 -19.022  1.00  0.00    -0.200 F 
ATOM     98  C   UNL     1      14.587   3.727 -18.126  1.00  0.00     0.200 A 
ATOM     99  F   UNL     1      16.543   4.651 -17.184  1.00  0.00    -0.200 F 
ATOM    100  F   UNL     1      15.262   3.390 -19.234  1.00  0.00    -0.200 F 
ENDBRANCH  67  90
ENDBRANCH  41  42
ENDBRANCH  34  36
ENDBRANCH  33  34
ENDBRANCH  32  33
ENDBRANCH  31  32
ENDBRANCH  30  31
ENDBRANCH   1  30
TORSDOF 19
