REMARK SMILES C[C@@H]1CC[N@@H+]1CC1(CC(=O)OCCOCCOC(=O)c2ccc(-c3c4nc(c(-c5c(F)c(F)c(F)c(F)c5F)c5ccc([nH]5)c(-c5c(F)c(F)c(F)c(F)c5F)c5nc(c(-c6c(F)c(F)c(F)c(F)c6F)c6ccc3[nH]6)C=C5)C=C4)cc2)CCCCC1
REMARK SMILES IDX 13 1 12 2 11 3 9 4 10 5 8 6 7 7 83 8 87 9 84 10 86 11 85 12
REMARK SMILES IDX 6 13 5 14 1 15 2 16 3 17 4 18 14 20 15 21 16 22 17 23 18 24
REMARK SMILES IDX 19 25 20 26 21 27 82 28 22 29 81 30 23 31 24 32 25 33 75 34
REMARK SMILES IDX 26 35 80 36 74 37 76 38 27 39 79 40 73 41 72 42 28 44 60 45
REMARK SMILES IDX 40 46 59 47 41 48 44 49 58 50 77 51 42 52 43 53 57 55 78 56
REMARK SMILES IDX 45 57 29 58 30 59 38 60 31 61 32 62 36 63 39 64 33 65 34 66
REMARK SMILES IDX 37 67 35 68 61 69 62 70 70 71 63 72 64 73 68 74 71 75 65 76
REMARK SMILES IDX 66 77 69 78 67 79 46 80 47 81 55 82 48 83 49 84 53 85 56 86
REMARK SMILES IDX 50 87 51 88 54 89 52 90
REMARK H PARENT 5 19 76 43 44 54
REMARK Flexibility Score: inf
ROOT
ATOM      1  C   UNL     1      -5.880   3.182   0.843  1.00  0.00     0.202 C 
ENDROOT
BRANCH   1   2
ATOM      2  C   UNL     1      -4.905   3.594   1.947  1.00  0.00     0.261 C 
BRANCH   2   3
ATOM      3  O   UNL     1      -3.560   3.129   1.700  1.00  0.00    -0.463 OA
BRANCH   3   4
ATOM      4  C   UNL     1      -3.095   2.206   2.571  1.00  0.00     0.306 C 
ATOM      5  O   UNL     1      -3.753   1.736   3.495  1.00  0.00    -0.252 OA
BRANCH   4   6
ATOM      6  C   UNL     1      -1.634   1.837   2.408  1.00  0.00     0.135 C 
BRANCH   6   7
ATOM      7  C   UNL     1      -0.772   2.022   1.097  1.00  0.00     0.030 C 
ATOM      8  C   UNL     1       0.690   1.725   1.548  1.00  0.00     0.013 C 
ATOM      9  C   UNL     1      -0.824   3.471   0.561  1.00  0.00     0.013 C 
ATOM     10  C   UNL     1       1.316   2.784   2.463  1.00  0.00     0.001 C 
ATOM     11  C   UNL     1      -0.271   4.509   1.534  1.00  0.00     0.001 C 
ATOM     12  C   UNL     1       1.177   4.186   1.888  1.00  0.00     0.000 C 
BRANCH   7  13
ATOM     13  C   UNL     1      -1.285   0.956   0.036  1.00  0.00     0.269 C 
BRANCH  13  14
ATOM     14  N   UNL     1      -0.883   0.639  -1.345  1.00  0.00    -0.332 N 
ATOM     15  C   UNL     1       1.182  -0.773  -0.704  1.00  0.00     0.075 C 
ATOM     16  C   UNL     1       0.469   0.137  -1.676  1.00  0.00     0.186 C 
ATOM     17  C   UNL     1       0.869   1.587  -2.045  1.00  0.00     0.126 C 
ATOM     18  C   UNL     1      -0.653   1.789  -2.238  1.00  0.00     0.268 C 
ATOM     19  H   UNL     1      -1.666  -0.006  -1.450  1.00  0.00     0.348 HD
ENDBRANCH  13  14
ENDBRANCH   7  13
ENDBRANCH   6   7
ENDBRANCH   4   6
ENDBRANCH   3   4
ENDBRANCH   2   3
ENDBRANCH   1   2
BRANCH   1  20
ATOM     20  O   UNL     1      -6.207   1.796   0.775  1.00  0.00    -0.374 OA
BRANCH  20  21
ATOM     21  C   UNL     1      -5.228   0.922   0.215  1.00  0.00     0.202 C 
BRANCH  21  22
ATOM     22  C   UNL     1      -5.105   0.955  -1.314  1.00  0.00     0.261 C 
BRANCH  22  23
ATOM     23  O   UNL     1      -4.591   2.218  -1.783  1.00  0.00    -0.460 OA
BRANCH  23  24
ATOM     24  C   UNL     1      -5.434   2.905  -2.592  1.00  0.00     0.338 C 
ATOM     25  O   UNL     1      -6.503   2.531  -3.040  1.00  0.00    -0.246 OA
BRANCH  24  26
ATOM     26  C   UNL     1      -4.973   4.299  -2.748  1.00  0.00     0.060 A 
ATOM     27  C   UNL     1      -5.891   5.314  -2.449  1.00  0.00     0.016 A 
ATOM     28  C   UNL     1      -3.719   4.612  -3.275  1.00  0.00     0.016 A 
ATOM     29  C   UNL     1      -5.586   6.642  -2.738  1.00  0.00     0.010 A 
ATOM     30  C   UNL     1      -3.416   5.948  -3.572  1.00  0.00     0.010 A 
ATOM     31  C   UNL     1      -4.366   6.963  -3.347  1.00  0.00    -0.014 A 
BRANCH  31  32
ATOM     32  C   UNL     1      -4.171   8.322  -3.912  1.00  0.00     0.031 A 
ATOM     33  C   UNL     1      -4.400   8.535  -5.385  1.00  0.00     0.074 A 
ATOM     34  C   UNL     1      -3.844   9.365  -3.127  1.00  0.00     0.049 A 
ATOM     35  N   UNL     1      -4.253   9.621  -6.102  1.00  0.00    -0.248 NA
ATOM     36  C   UNL     1      -4.860   7.366  -6.153  1.00  0.00     0.031 C 
ATOM     37  C   UNL     1      -3.650   9.306  -1.680  1.00  0.00     0.029 A 
ATOM     38  N   UNL     1      -3.615  10.682  -3.445  1.00  0.00    -0.354 N 
ATOM     39  C   UNL     1      -4.590   9.263  -7.401  1.00  0.00     0.074 A 
ATOM     40  C   UNL     1      -4.931   7.858  -7.382  1.00  0.00     0.031 C 
ATOM     41  C   UNL     1      -3.316  10.531  -1.236  1.00  0.00     0.029 A 
ATOM     42  C   UNL     1      -3.241  11.451  -2.370  1.00  0.00     0.049 A 
ATOM     43  H   UNL     1      -3.710  11.040  -4.357  1.00  0.00     0.167 HD
ATOM     44  C   UNL     1      -4.618  10.039  -8.510  1.00  0.00     0.037 A 
ATOM     45  C   UNL     1      -2.858  12.742  -2.315  1.00  0.00     0.037 A 
ATOM     46  C   UNL     1      -4.302  11.442  -8.531  1.00  0.00     0.049 A 
ATOM     47  C   UNL     1      -2.837  13.567  -3.578  1.00  0.00     0.074 A 
ATOM     48  C   UNL     1      -4.324  12.314  -9.605  1.00  0.00     0.029 A 
ATOM     49  N   UNL     1      -3.907  12.178  -7.425  1.00  0.00    -0.354 N 
ATOM     50  N   UNL     1      -3.175  13.225  -4.797  1.00  0.00    -0.248 NA
ATOM     51  C   UNL     1      -2.381  14.961  -3.455  1.00  0.00     0.031 C 
ATOM     52  C   UNL     1      -3.899  13.569  -9.159  1.00  0.00     0.029 A 
ATOM     53  C   UNL     1      -3.660  13.489  -7.797  1.00  0.00     0.049 A 
ATOM     54  H   UNL     1      -3.815  11.822  -6.512  1.00  0.00     0.167 HD
ATOM     55  C   UNL     1      -3.011  14.365  -5.574  1.00  0.00     0.074 A 
ATOM     56  C   UNL     1      -2.545  15.412  -4.691  1.00  0.00     0.031 C 
ATOM     57  C   UNL     1      -3.231  14.529  -6.901  1.00  0.00     0.037 A 
BRANCH  44  58
ATOM     58  C   UNL     1      -4.985   9.390  -9.810  1.00  0.00     0.064 A 
ATOM     59  C   UNL     1      -6.309   9.044 -10.112  1.00  0.00     0.173 A 
ATOM     60  C   UNL     1      -4.007   9.182 -10.794  1.00  0.00     0.173 A 
ATOM     61  F   UNL     1      -7.276   9.213  -9.198  1.00  0.00    -0.203 F 
ATOM     62  C   UNL     1      -6.641   8.506 -11.352  1.00  0.00     0.198 A 
ATOM     63  C   UNL     1      -4.346   8.665 -12.041  1.00  0.00     0.198 A 
ATOM     64  F   UNL     1      -2.727   9.501 -10.553  1.00  0.00    -0.203 F 
ATOM     65  F   UNL     1      -7.909   8.159 -11.614  1.00  0.00    -0.200 F 
ATOM     66  C   UNL     1      -5.661   8.326 -12.319  1.00  0.00     0.200 A 
ATOM     67  F   UNL     1      -3.400   8.504 -12.977  1.00  0.00    -0.200 F 
ATOM     68  F   UNL     1      -5.985   7.824 -13.518  1.00  0.00    -0.200 F 
ENDBRANCH  44  58
BRANCH  45  69
ATOM     69  C   UNL     1      -2.433  13.341  -1.022  1.00  0.00     0.064 A 
ATOM     70  C   UNL     1      -3.183  14.354  -0.408  1.00  0.00     0.173 A 
ATOM     71  C   UNL     1      -1.239  12.945  -0.400  1.00  0.00     0.173 A 
ATOM     72  F   UNL     1      -4.316  14.787  -0.979  1.00  0.00    -0.203 F 
ATOM     73  C   UNL     1      -2.742  14.965   0.764  1.00  0.00     0.198 A 
ATOM     74  C   UNL     1      -0.815  13.537   0.787  1.00  0.00     0.198 A 
ATOM     75  F   UNL     1      -0.482  11.984  -0.949  1.00  0.00    -0.203 F 
ATOM     76  F   UNL     1      -3.449  15.970   1.299  1.00  0.00    -0.200 F 
ATOM     77  C   UNL     1      -1.561  14.554   1.363  1.00  0.00     0.200 A 
ATOM     78  F   UNL     1       0.323  13.130   1.366  1.00  0.00    -0.200 F 
ATOM     79  F   UNL     1      -1.134  15.146   2.487  1.00  0.00    -0.200 F 
ENDBRANCH  45  69
BRANCH  57  80
ATOM     80  C   UNL     1      -3.034  15.900  -7.479  1.00  0.00     0.064 A 
ATOM     81  C   UNL     1      -1.756  16.435  -7.691  1.00  0.00     0.173 A 
ATOM     82  C   UNL     1      -4.142  16.656  -7.892  1.00  0.00     0.173 A 
ATOM     83  F   UNL     1      -0.667  15.755  -7.301  1.00  0.00    -0.203 F 
ATOM     84  C   UNL     1      -1.594  17.685  -8.283  1.00  0.00     0.198 A 
ATOM     85  C   UNL     1      -3.975  17.893  -8.507  1.00  0.00     0.198 A 
ATOM     86  F   UNL     1      -5.385  16.184  -7.718  1.00  0.00    -0.203 F 
ATOM     87  F   UNL     1      -0.365  18.192  -8.447  1.00  0.00    -0.200 F 
ATOM     88  C   UNL     1      -2.703  18.408  -8.699  1.00  0.00     0.200 A 
ATOM     89  F   UNL     1      -5.047  18.584  -8.921  1.00  0.00    -0.200 F 
ATOM     90  F   UNL     1      -2.543  19.604  -9.282  1.00  0.00    -0.200 F 
ENDBRANCH  57  80
ENDBRANCH  31  32
ENDBRANCH  24  26
ENDBRANCH  23  24
ENDBRANCH  22  23
ENDBRANCH  21  22
ENDBRANCH  20  21
ENDBRANCH   1  20
TORSDOF 17
