REMARK SMILES N#C[C@@H]1CN(C(=O)N2CCCCC[C@H]2C(=O)OCCOCCOC(=O)c2ccc(-c3c4nc(c(-c5c(F)c(F)c(F)c(F)c5F)c5ccc([nH]5)c(-c5c(F)c(F)c(F)c(F)c5F)c5nc(c(-c6c(F)c(F)c(F)c(F)c6F)c6ccc3[nH]6)C=C5)C=C4)cc2)CCO1
REMARK SMILES IDX 19 1 18 2 17 3 15 4 16 5 14 6 8 7 6 8 7 9 5 10 3 11 4 12
REMARK SMILES IDX 91 13 90 14 89 15 2 16 1 17 9 18 10 19 11 20 13 22 12 23
REMARK SMILES IDX 20 25 21 26 22 27 23 28 24 29 25 30 26 31 27 32 88 33 28 34
REMARK SMILES IDX 87 35 29 36 30 37 31 38 81 39 32 40 86 41 80 42 82 43 33 44
REMARK SMILES IDX 85 45 79 46 78 47 34 49 66 50 46 51 65 52 47 53 50 54 64 55
REMARK SMILES IDX 83 56 48 57 49 58 63 60 84 61 51 62 35 63 36 64 44 65 37 66
REMARK SMILES IDX 38 67 42 68 45 69 39 70 40 71 43 72 41 73 67 74 68 75 76 76
REMARK SMILES IDX 69 77 70 78 74 79 77 80 71 81 72 82 75 83 73 84 52 85 53 86
REMARK SMILES IDX 61 87 54 88 55 89 59 90 62 91 56 92 57 93 60 94 58 95
REMARK H PARENT 82 48 50 59
REMARK Flexibility Score: 100.00
ROOT
ATOM      1  C   UNL     1       3.508   5.145   1.911  1.00  0.00     0.202 C 
ENDROOT
BRANCH   1   2
ATOM      2  C   UNL     1       3.993   3.967   1.069  1.00  0.00     0.261 C 
BRANCH   2   3
ATOM      3  O   UNL     1       3.979   4.184  -0.348  1.00  0.00    -0.462 OA
BRANCH   3   4
ATOM      4  C   UNL     1       2.880   3.647  -0.970  1.00  0.00     0.329 C 
ATOM      5  O   UNL     1       1.888   3.248  -0.377  1.00  0.00    -0.250 OA
BRANCH   4   6
ATOM      6  C   UNL     1       3.115   3.526  -2.484  1.00  0.00     0.196 C 
BRANCH   6   7
ATOM      7  N   UNL     1       2.399   2.332  -2.979  1.00  0.00    -0.311 N 
BRANCH   7   8
ATOM      8  C   UNL     1       2.937   1.085  -3.250  1.00  0.00     0.320 C 
ATOM      9  O   UNL     1       2.432   0.385  -4.134  1.00  0.00    -0.248 OA
BRANCH   8  10
ATOM     10  N   UNL     1       3.987   0.576  -2.503  1.00  0.00    -0.319 N 
ATOM     11  C   UNL     1       3.751   0.012  -0.095  1.00  0.00     0.240 C 
ATOM     12  C   UNL     1       4.388   0.933  -1.143  1.00  0.00     0.169 C 
ATOM     13  O   UNL     1       4.243  -1.336  -0.381  1.00  0.00    -0.360 OA
ATOM     14  C   UNL     1       3.915  -1.768  -1.729  1.00  0.00     0.183 C 
ATOM     15  C   UNL     1       4.435  -0.793  -2.807  1.00  0.00     0.150 C 
BRANCH  11  16
ATOM     16  C   UNL     1       2.231   0.012  -0.095  1.00  0.00     0.096 C 
ATOM     17  N   UNL     1       0.970   0.012  -0.095  1.00  0.00    -0.195 NA
ENDBRANCH  11  16
ENDBRANCH   8  10
ENDBRANCH   7   8
BRANCH   7  18
ATOM     18  C   UNL     1       0.969   2.486  -3.275  1.00  0.00     0.122 C 
BRANCH  18  19
ATOM     19  C   UNL     1       0.688   2.993  -4.687  1.00  0.00     0.022 C 
BRANCH  19  20
ATOM     20  C   UNL     1       0.951   4.482  -4.870  1.00  0.00     0.002 CG0
ATOM     21  G   UNL     1       2.394   4.893  -4.588  1.00  0.00     0.000 G0
ENDBRANCH  19  20
ENDBRANCH  18  19
ENDBRANCH   7  18
ENDBRANCH   6   7
BRANCH   6  22
ATOM     22  C   UNL     1       2.717   4.880  -3.099  1.00  0.00     0.037 C 
BRANCH  22  23
ATOM     23  C   UNL     1       2.394   4.893  -4.588  1.00  0.00     0.003 CG0
ATOM     24  G   UNL     1       0.951   4.482  -4.870  1.00  0.00     0.000 G0
ENDBRANCH  22  23
ENDBRANCH   6  22
ENDBRANCH   4   6
ENDBRANCH   3   4
ENDBRANCH   2   3
ENDBRANCH   1   2
BRANCH   1  25
ATOM     25  O   UNL     1       2.257   5.731   1.591  1.00  0.00    -0.374 OA
BRANCH  25  26
ATOM     26  C   UNL     1       2.155   6.518   0.407  1.00  0.00     0.202 C 
BRANCH  26  27
ATOM     27  C   UNL     1       2.893   7.858   0.377  1.00  0.00     0.261 C 
BRANCH  27  28
ATOM     28  O   UNL     1       4.324   7.691   0.406  1.00  0.00    -0.460 OA
BRANCH  28  29
ATOM     29  C   UNL     1       4.923   8.197   1.509  1.00  0.00     0.338 C 
ATOM     30  O   UNL     1       4.395   8.820   2.421  1.00  0.00    -0.246 OA
BRANCH  29  31
ATOM     31  C   UNL     1       6.319   7.740   1.594  1.00  0.00     0.060 A 
ATOM     32  C   UNL     1       6.716   7.100   2.777  1.00  0.00     0.016 A 
ATOM     33  C   UNL     1       7.251   8.041   0.599  1.00  0.00     0.016 A 
ATOM     34  C   UNL     1       8.061   6.824   3.002  1.00  0.00     0.010 A 
ATOM     35  C   UNL     1       8.604   7.777   0.833  1.00  0.00     0.010 A 
ATOM     36  C   UNL     1       9.016   7.214   2.055  1.00  0.00    -0.014 A 
BRANCH  36  37
ATOM     37  C   UNL     1      10.446   7.216   2.441  1.00  0.00     0.031 A 
ATOM     38  C   UNL     1      11.048   8.494   2.960  1.00  0.00     0.074 A 
ATOM     39  C   UNL     1      11.178   6.091   2.388  1.00  0.00     0.049 A 
ATOM     40  N   UNL     1      12.273   8.737   3.351  1.00  0.00    -0.248 NA
ATOM     41  C   UNL     1      10.145   9.652   3.053  1.00  0.00     0.031 C 
ATOM     42  C   UNL     1      10.687   4.785   1.957  1.00  0.00     0.029 A 
ATOM     43  N   UNL     1      12.495   5.872   2.704  1.00  0.00    -0.354 N 
ATOM     44  C   UNL     1      12.286  10.072   3.737  1.00  0.00     0.074 A 
ATOM     45  C   UNL     1      10.958  10.596   3.504  1.00  0.00     0.031 C 
ATOM     46  C   UNL     1      11.694   3.898   2.028  1.00  0.00     0.029 A 
ATOM     47  C   UNL     1      12.904   4.581   2.483  1.00  0.00     0.049 A 
ATOM     48  H   UNL     1      13.089   6.574   3.056  1.00  0.00     0.167 HD
ATOM     49  C   UNL     1      13.311  10.792   4.248  1.00  0.00     0.037 A 
ATOM     50  C   UNL     1      14.123   4.024   2.619  1.00  0.00     0.037 A 
ATOM     51  C   UNL     1      14.632  10.270   4.476  1.00  0.00     0.049 A 
ATOM     52  C   UNL     1      15.268   4.869   3.114  1.00  0.00     0.074 A 
ATOM     53  C   UNL     1      15.741  10.917   4.990  1.00  0.00     0.029 A 
ATOM     54  N   UNL     1      15.021   8.968   4.196  1.00  0.00    -0.354 N 
ATOM     55  N   UNL     1      15.271   6.126   3.484  1.00  0.00    -0.248 NA
ATOM     56  C   UNL     1      16.580   4.213   3.211  1.00  0.00     0.031 C 
ATOM     57  C   UNL     1      16.814  10.018   4.981  1.00  0.00     0.029 A 
ATOM     58  C   UNL     1      16.360   8.798   4.506  1.00  0.00     0.049 A 
ATOM     59  H   UNL     1      14.432   8.268   3.831  1.00  0.00     0.167 HD
ATOM     60  C   UNL     1      16.572   6.406   3.882  1.00  0.00     0.074 A 
ATOM     61  C   UNL     1      17.329   5.182   3.719  1.00  0.00     0.031 C 
ATOM     62  C   UNL     1      17.093   7.569   4.343  1.00  0.00     0.037 A 
BRANCH  49  63
ATOM     63  C   UNL     1      13.049  12.233   4.573  1.00  0.00     0.064 A 
ATOM     64  C   UNL     1      12.268  12.607   5.677  1.00  0.00     0.173 A 
ATOM     65  C   UNL     1      13.605  13.251   3.786  1.00  0.00     0.173 A 
ATOM     66  F   UNL     1      11.699  11.670   6.450  1.00  0.00    -0.203 F 
ATOM     67  C   UNL     1      12.036  13.949   5.968  1.00  0.00     0.198 A 
ATOM     68  C   UNL     1      13.393  14.592   4.095  1.00  0.00     0.198 A 
ATOM     69  F   UNL     1      14.360  12.946   2.720  1.00  0.00    -0.203 F 
ATOM     70  F   UNL     1      11.252  14.284   7.001  1.00  0.00    -0.200 F 
ATOM     71  C   UNL     1      12.604  14.940   5.181  1.00  0.00     0.200 A 
ATOM     72  F   UNL     1      13.949  15.548   3.338  1.00  0.00    -0.200 F 
ATOM     73  F   UNL     1      12.384  16.232   5.464  1.00  0.00    -0.200 F 
ENDBRANCH  49  63
BRANCH  50  74
ATOM     74  C   UNL     1      14.326   2.595   2.272  1.00  0.00     0.064 A 
ATOM     75  C   UNL     1      14.597   1.642   3.263  1.00  0.00     0.173 A 
ATOM     76  C   UNL     1      14.264   2.154   0.942  1.00  0.00     0.173 A 
ATOM     77  F   UNL     1      14.690   2.019   4.547  1.00  0.00    -0.203 F 
ATOM     78  C   UNL     1      14.812   0.304   2.936  1.00  0.00     0.198 A 
ATOM     79  C   UNL     1      14.454   0.813   0.618  1.00  0.00     0.198 A 
ATOM     80  F   UNL     1      14.008   3.027  -0.043  1.00  0.00    -0.203 F 
ATOM     81  F   UNL     1      15.108  -0.580   3.898  1.00  0.00    -0.200 F 
ATOM     82  C   UNL     1      14.734  -0.110   1.614  1.00  0.00     0.200 A 
ATOM     83  F   UNL     1      14.365   0.415  -0.658  1.00  0.00    -0.200 F 
ATOM     84  F   UNL     1      14.935  -1.397   1.300  1.00  0.00    -0.200 F 
ENDBRANCH  50  74
BRANCH  62  85
ATOM     85  C   UNL     1      18.541   7.567   4.735  1.00  0.00     0.064 A 
ATOM     86  C   UNL     1      19.562   7.533   3.775  1.00  0.00     0.173 A 
ATOM     87  C   UNL     1      18.910   7.647   6.087  1.00  0.00     0.173 A 
ATOM     88  F   UNL     1      19.260   7.442   2.471  1.00  0.00    -0.203 F 
ATOM     89  C   UNL     1      20.902   7.556   4.155  1.00  0.00     0.198 A 
ATOM     90  C   UNL     1      20.250   7.697   6.462  1.00  0.00     0.198 A 
ATOM     91  F   UNL     1      17.970   7.690   7.043  1.00  0.00    -0.203 F 
ATOM     92  F   UNL     1      21.862   7.479   3.224  1.00  0.00    -0.200 F 
ATOM     93  C   UNL     1      21.244   7.645   5.497  1.00  0.00     0.200 A 
ATOM     94  F   UNL     1      20.578   7.796   7.757  1.00  0.00    -0.200 F 
ATOM     95  F   UNL     1      22.534   7.674   5.860  1.00  0.00    -0.200 F 
ENDBRANCH  62  85
ENDBRANCH  36  37
ENDBRANCH  29  31
ENDBRANCH  28  29
ENDBRANCH  27  28
ENDBRANCH  26  27
ENDBRANCH  25  26
ENDBRANCH   1  25
TORSDOF 17
