REMARK SMILES N#Cc1nccnc1N(CC(=O)OCCOCCOC(=O)c1ccc(-c2c3nc(c(-c4c(F)c(F)c(F)c(F)c4F)c4ccc([nH]4)c(-c4c(F)c(F)c(F)c(F)c4F)c4nc(c(-c5c(F)c(F)c(F)c(F)c5F)c5ccc2[nH]5)C=C4)C=C3)cc1)CC(F)(F)F
REMARK SMILES IDX 15 1 14 2 13 3 11 4 12 5 10 6 9 7 8 8 3 9 4 10 5 11 7 12
REMARK SMILES IDX 6 13 2 14 1 15 85 16 86 17 87 18 88 19 89 20 16 21 17 22
REMARK SMILES IDX 18 23 19 24 20 25 21 26 22 27 23 28 84 29 24 30 83 31 25 32
REMARK SMILES IDX 26 33 27 34 77 35 28 36 82 37 76 38 78 39 29 40 81 41 75 42
REMARK SMILES IDX 74 43 30 45 62 46 42 47 61 48 43 49 46 50 60 51 79 52 44 53
REMARK SMILES IDX 45 54 59 56 80 57 47 58 31 59 32 60 40 61 33 62 34 63 38 64
REMARK SMILES IDX 41 65 35 66 36 67 39 68 37 69 63 70 64 71 72 72 65 73 66 74
REMARK SMILES IDX 70 75 73 76 67 77 68 78 71 79 69 80 48 81 49 82 57 83 50 84
REMARK SMILES IDX 51 85 55 86 58 87 52 88 53 89 56 90 54 91
REMARK H PARENT 78 44 46 55
REMARK Flexibility Score: inf
ROOT
ATOM      1  C   UNL     1       2.595  -6.116   2.573  1.00  0.00     0.202 C 
ENDROOT
BRANCH   1   2
ATOM      2  C   UNL     1       3.992  -5.517   2.368  1.00  0.00     0.261 C 
BRANCH   2   3
ATOM      3  O   UNL     1       4.022  -4.372   1.482  1.00  0.00    -0.462 OA
BRANCH   3   4
ATOM      4  C   UNL     1       4.717  -4.556   0.327  1.00  0.00     0.325 C 
ATOM      5  O   UNL     1       5.234  -5.627   0.011  1.00  0.00    -0.250 OA
BRANCH   4   6
ATOM      6  C   UNL     1       4.796  -3.358  -0.622  1.00  0.00     0.241 C 
BRANCH   6   7
ATOM      7  N   UNL     1       4.043  -2.112  -0.325  1.00  0.00    -0.334 N 
BRANCH   7   8
ATOM      8  C   UNL     1       4.776  -0.948  -0.150  1.00  0.00     0.166 A 
ATOM      9  C   UNL     1       4.390   0.377  -0.476  1.00  0.00     0.183 A 
ATOM     10  N   UNL     1       5.168   1.477  -0.246  1.00  0.00    -0.240 NA
ATOM     11  C   UNL     1       6.367   1.241   0.310  1.00  0.00     0.133 A 
ATOM     12  N   UNL     1       6.009  -1.126   0.393  1.00  0.00    -0.235 NA
ATOM     13  C   UNL     1       6.782  -0.035   0.613  1.00  0.00     0.133 A 
BRANCH   9  14
ATOM     14  C   UNL     1       3.169   0.720  -1.153  1.00  0.00     0.123 C 
ATOM     15  N   UNL     1       2.164   0.959  -1.683  1.00  0.00    -0.191 NA
ENDBRANCH   9  14
ENDBRANCH   7   8
BRANCH   7  16
ATOM     16  C   UNL     1       2.570  -2.140  -0.415  1.00  0.00     0.234 C 
BRANCH  16  17
ATOM     17  C   UNL     1       1.834  -1.630   0.833  1.00  0.00     0.405 C 
ATOM     18  F   UNL     1       2.055  -0.322   1.079  1.00  0.00    -0.169 F 
ATOM     19  F   UNL     1       0.498  -1.786   0.694  1.00  0.00    -0.169 F 
ATOM     20  F   UNL     1       2.229  -2.302   1.933  1.00  0.00    -0.169 F 
ENDBRANCH  16  17
ENDBRANCH   7  16
ENDBRANCH   6   7
ENDBRANCH   4   6
ENDBRANCH   3   4
ENDBRANCH   2   3
ENDBRANCH   1   2
BRANCH   1  21
ATOM     21  O   UNL     1       1.927  -6.641   1.430  1.00  0.00    -0.374 OA
BRANCH  21  22
ATOM     22  C   UNL     1       1.386  -5.702   0.507  1.00  0.00     0.202 C 
BRANCH  22  23
ATOM     23  C   UNL     1       0.132  -4.931   0.951  1.00  0.00     0.261 C 
BRANCH  23  24
ATOM     24  O   UNL     1       0.396  -4.055   2.064  1.00  0.00    -0.460 OA
BRANCH  24  25
ATOM     25  C   UNL     1      -0.221  -4.349   3.235  1.00  0.00     0.338 C 
ATOM     26  O   UNL     1      -1.047  -5.227   3.418  1.00  0.00    -0.246 OA
BRANCH  25  27
ATOM     27  C   UNL     1       0.412  -3.599   4.353  1.00  0.00     0.060 A 
ATOM     28  C   UNL     1       0.647  -2.223   4.310  1.00  0.00     0.016 A 
ATOM     29  C   UNL     1       0.770  -4.322   5.497  1.00  0.00     0.016 A 
ATOM     30  C   UNL     1       1.229  -1.578   5.413  1.00  0.00     0.010 A 
ATOM     31  C   UNL     1       1.317  -3.672   6.610  1.00  0.00     0.010 A 
ATOM     32  C   UNL     1       1.538  -2.287   6.591  1.00  0.00    -0.014 A 
BRANCH  32  33
ATOM     33  C   UNL     1       1.968  -1.570   7.830  1.00  0.00     0.031 A 
ATOM     34  C   UNL     1       3.326  -1.778   8.447  1.00  0.00     0.074 A 
ATOM     35  C   UNL     1       1.092  -0.747   8.445  1.00  0.00     0.049 A 
ATOM     36  N   UNL     1       3.846  -1.208   9.509  1.00  0.00    -0.248 NA
ATOM     37  C   UNL     1       4.211  -2.758   7.804  1.00  0.00     0.031 C 
ATOM     38  C   UNL     1      -0.277  -0.497   7.995  1.00  0.00     0.029 A 
ATOM     39  N   UNL     1       1.216   0.031   9.572  1.00  0.00    -0.354 N 
ATOM     40  C   UNL     1       5.118  -1.748   9.652  1.00  0.00     0.074 A 
ATOM     41  C   UNL     1       5.269  -2.737   8.605  1.00  0.00     0.031 C 
ATOM     42  C   UNL     1      -0.850   0.404   8.807  1.00  0.00     0.029 A 
ATOM     43  C   UNL     1       0.091   0.766   9.863  1.00  0.00     0.049 A 
ATOM     44  H   UNL     1       2.034   0.059  10.120  1.00  0.00     0.167 HD
ATOM     45  C   UNL     1       6.080  -1.427  10.553  1.00  0.00     0.037 A 
ATOM     46  C   UNL     1      -0.163   1.635  10.863  1.00  0.00     0.037 A 
ATOM     47  C   UNL     1       5.933  -0.444  11.597  1.00  0.00     0.049 A 
ATOM     48  C   UNL     1       0.905   1.934  11.881  1.00  0.00     0.074 A 
ATOM     49  C   UNL     1       6.878  -0.019  12.517  1.00  0.00     0.029 A 
ATOM     50  N   UNL     1       4.769   0.257  11.873  1.00  0.00    -0.354 N 
ATOM     51  N   UNL     1       2.138   1.495  11.937  1.00  0.00    -0.248 NA
ATOM     52  C   UNL     1       0.547   2.848  12.978  1.00  0.00     0.031 C 
ATOM     53  C   UNL     1       6.269   0.888  13.387  1.00  0.00     0.029 A 
ATOM     54  C   UNL     1       4.961   1.078  12.974  1.00  0.00     0.049 A 
ATOM     55  H   UNL     1       3.930   0.183  11.362  1.00  0.00     0.167 HD
ATOM     56  C   UNL     1       2.706   2.091  13.056  1.00  0.00     0.074 A 
ATOM     57  C   UNL     1       1.692   2.941  13.640  1.00  0.00     0.031 C 
ATOM     58  C   UNL     1       3.956   1.933  13.553  1.00  0.00     0.037 A 
BRANCH  45  59
ATOM     59  C   UNL     1       7.409  -2.124  10.447  1.00  0.00     0.064 A 
ATOM     60  C   UNL     1       8.283  -1.862   9.381  1.00  0.00     0.173 A 
ATOM     61  C   UNL     1       7.861  -2.975  11.469  1.00  0.00     0.173 A 
ATOM     62  F   UNL     1       7.905  -1.053   8.380  1.00  0.00    -0.203 F 
ATOM     63  C   UNL     1       9.548  -2.442   9.330  1.00  0.00     0.198 A 
ATOM     64  C   UNL     1       9.140  -3.526  11.431  1.00  0.00     0.198 A 
ATOM     65  F   UNL     1       7.076  -3.244  12.523  1.00  0.00    -0.203 F 
ATOM     66  F   UNL     1      10.351  -2.202   8.284  1.00  0.00    -0.200 F 
ATOM     67  C   UNL     1       9.980  -3.264  10.360  1.00  0.00     0.200 A 
ATOM     68  F   UNL     1       9.564  -4.301  12.439  1.00  0.00    -0.200 F 
ATOM     69  F   UNL     1      11.206  -3.803  10.319  1.00  0.00    -0.200 F 
ENDBRANCH  45  59
BRANCH  46  70
ATOM     70  C   UNL     1      -1.485   2.316  10.928  1.00  0.00     0.064 A 
ATOM     71  C   UNL     1      -1.593   3.696  10.707  1.00  0.00     0.173 A 
ATOM     72  C   UNL     1      -2.666   1.605  11.192  1.00  0.00     0.173 A 
ATOM     73  F   UNL     1      -0.491   4.425  10.474  1.00  0.00    -0.203 F 
ATOM     74  C   UNL     1      -2.827   4.341  10.758  1.00  0.00     0.198 A 
ATOM     75  C   UNL     1      -3.904   2.245  11.209  1.00  0.00     0.198 A 
ATOM     76  F   UNL     1      -2.620   0.283  11.411  1.00  0.00    -0.203 F 
ATOM     77  F   UNL     1      -2.895   5.668  10.584  1.00  0.00    -0.200 F 
ATOM     78  C   UNL     1      -3.983   3.613  10.999  1.00  0.00     0.200 A 
ATOM     79  F   UNL     1      -5.019   1.535  11.426  1.00  0.00    -0.200 F 
ATOM     80  F   UNL     1      -5.171   4.231  11.033  1.00  0.00    -0.200 F 
ENDBRANCH  46  70
BRANCH  58  81
ATOM     81  C   UNL     1       4.327   2.686  14.800  1.00  0.00     0.064 A 
ATOM     82  C   UNL     1       3.820   2.314  16.053  1.00  0.00     0.173 A 
ATOM     83  C   UNL     1       5.298   3.700  14.761  1.00  0.00     0.173 A 
ATOM     84  F   UNL     1       2.881   1.360  16.145  1.00  0.00    -0.203 F 
ATOM     85  C   UNL     1       4.275   2.923  17.220  1.00  0.00     0.198 A 
ATOM     86  C   UNL     1       5.772   4.286  15.932  1.00  0.00     0.198 A 
ATOM     87  F   UNL     1       5.821   4.091  13.588  1.00  0.00    -0.203 F 
ATOM     88  F   UNL     1       3.766   2.559  18.405  1.00  0.00    -0.200 F 
ATOM     89  C   UNL     1       5.262   3.895  17.160  1.00  0.00     0.200 A 
ATOM     90  F   UNL     1       6.741   5.210  15.873  1.00  0.00    -0.200 F 
ATOM     91  F   UNL     1       5.726   4.452  18.288  1.00  0.00    -0.200 F 
ENDBRANCH  58  81
ENDBRANCH  32  33
ENDBRANCH  25  27
ENDBRANCH  24  25
ENDBRANCH  23  24
ENDBRANCH  22  23
ENDBRANCH  21  22
ENDBRANCH   1  21
TORSDOF 19
