REMARK SMILES CC(C)(C(=O)OCCOCCOC(=O)c1ccc(-c2c3nc(c(-c4c(F)c(F)c(F)c(F)c4F)c4ccc([nH]4)c(-c4c(F)c(F)c(F)c(F)c4F)c4nc(c(-c5c(F)c(F)c(F)c(F)c5F)c5ccc2[nH]5)C=C4)C=C3)cc1)n1nnnc1C(F)(F)C(F)F
REMARK SMILES IDX 8 1 7 2 6 3 4 4 5 5 2 6 1 7 3 8 78 9 79 10 82 11 80 12 81 13
REMARK SMILES IDX 83 14 84 15 85 16 86 17 87 18 88 19 9 20 10 21 11 22 12 23
REMARK SMILES IDX 13 24 14 25 15 26 16 27 77 28 17 29 76 30 18 31 19 32 20 33
REMARK SMILES IDX 70 34 21 35 75 36 69 37 71 38 22 39 74 40 68 41 67 42 23 44
REMARK SMILES IDX 55 45 35 46 54 47 36 48 39 49 53 50 72 51 37 52 38 53 52 55
REMARK SMILES IDX 73 56 40 57 24 58 25 59 33 60 26 61 27 62 31 63 34 64 28 65
REMARK SMILES IDX 29 66 32 67 30 68 56 69 57 70 65 71 58 72 59 73 63 74 66 75
REMARK SMILES IDX 60 76 61 77 64 78 62 79 41 80 42 81 50 82 43 83 44 84 48 85
REMARK SMILES IDX 51 86 45 87 46 88 49 89 47 90
REMARK H PARENT 71 43 39 54
REMARK Flexibility Score: inf
ROOT
ATOM      1  C   UNL     1      -3.753  -0.574  -0.243  1.00  0.00     0.202 C 
ENDROOT
BRANCH   1   2
ATOM      2  C   UNL     1      -2.967  -1.583   0.604  1.00  0.00     0.261 C 
BRANCH   2   3
ATOM      3  O   UNL     1      -1.562  -1.288   0.728  1.00  0.00    -0.461 OA
BRANCH   3   4
ATOM      4  C   UNL     1      -0.761  -2.004  -0.110  1.00  0.00     0.333 C 
ATOM      5  O   UNL     1      -1.199  -2.815  -0.917  1.00  0.00    -0.249 OA
BRANCH   4   6
ATOM      6  C   UNL     1       0.728  -1.680   0.029  1.00  0.00     0.158 C 
ATOM      7  C   UNL     1       0.898  -0.127   0.096  1.00  0.00     0.049 C 
ATOM      8  C   UNL     1       1.325  -2.209   1.344  1.00  0.00     0.049 C 
BRANCH   6   9
ATOM      9  N   UNL     1       1.442  -2.234  -1.144  1.00  0.00    -0.207 N 
ATOM     10  N   UNL     1       2.236  -1.373  -1.830  1.00  0.00    -0.044 NA
ATOM     11  C   UNL     1       1.479  -3.461  -1.797  1.00  0.00     0.228 A 
ATOM     12  N   UNL     1       2.672  -2.018  -2.889  1.00  0.00    -0.024 NA
ATOM     13  N   UNL     1       2.225  -3.295  -2.884  1.00  0.00    -0.107 NA
BRANCH  11  14
ATOM     14  C   UNL     1       0.840  -4.788  -1.500  1.00  0.00     0.367 C 
ATOM     15  F   UNL     1      -0.386  -4.911  -2.087  1.00  0.00    -0.191 F 
ATOM     16  F   UNL     1       1.591  -5.761  -2.131  1.00  0.00    -0.191 F 
BRANCH  14  17
ATOM     17  C   UNL     1       0.762  -5.243  -0.051  1.00  0.00     0.419 C 
ATOM     18  F   UNL     1       1.932  -5.008   0.602  1.00  0.00    -0.203 F 
ATOM     19  F   UNL     1      -0.201  -4.603   0.655  1.00  0.00    -0.203 F 
ENDBRANCH  14  17
ENDBRANCH  11  14
ENDBRANCH   6   9
ENDBRANCH   4   6
ENDBRANCH   3   4
ENDBRANCH   2   3
ENDBRANCH   1   2
BRANCH   1  20
ATOM     20  O   UNL     1      -3.396  -0.418  -1.612  1.00  0.00    -0.374 OA
BRANCH  20  21
ATOM     21  C   UNL     1      -2.227   0.334  -1.929  1.00  0.00     0.202 C 
BRANCH  21  22
ATOM     22  C   UNL     1      -2.266   1.846  -1.678  1.00  0.00     0.261 C 
BRANCH  22  23
ATOM     23  O   UNL     1      -2.421   2.157  -0.281  1.00  0.00    -0.460 OA
BRANCH  23  24
ATOM     24  C   UNL     1      -3.509   2.918  -0.001  1.00  0.00     0.338 C 
ATOM     25  O   UNL     1      -4.263   3.453  -0.794  1.00  0.00    -0.246 OA
BRANCH  24  26
ATOM     26  C   UNL     1      -3.809   2.878   1.442  1.00  0.00     0.060 A 
ATOM     27  C   UNL     1      -5.080   2.422   1.813  1.00  0.00     0.016 A 
ATOM     28  C   UNL     1      -2.926   3.383   2.399  1.00  0.00     0.016 A 
ATOM     29  C   UNL     1      -5.502   2.536   3.134  1.00  0.00     0.010 A 
ATOM     30  C   UNL     1      -3.357   3.506   3.727  1.00  0.00     0.010 A 
ATOM     31  C   UNL     1      -4.663   3.127   4.088  1.00  0.00    -0.014 A 
BRANCH  31  32
ATOM     32  C   UNL     1      -5.242   3.502   5.401  1.00  0.00     0.031 A 
ATOM     33  C   UNL     1      -5.748   4.906   5.598  1.00  0.00     0.074 A 
ATOM     34  C   UNL     1      -5.401   2.586   6.372  1.00  0.00     0.049 A 
ATOM     35  N   UNL     1      -6.357   5.435   6.629  1.00  0.00    -0.248 NA
ATOM     36  C   UNL     1      -5.546   5.839   4.476  1.00  0.00     0.031 C 
ATOM     37  C   UNL     1      -4.985   1.189   6.290  1.00  0.00     0.029 A 
ATOM     38  N   UNL     1      -5.969   2.698   7.617  1.00  0.00    -0.354 N 
ATOM     39  C   UNL     1      -6.625   6.751   6.275  1.00  0.00     0.074 A 
ATOM     40  C   UNL     1      -6.075   6.956   4.953  1.00  0.00     0.031 C 
ATOM     41  C   UNL     1      -5.308   0.570   7.439  1.00  0.00     0.029 A 
ATOM     42  C   UNL     1      -5.941   1.532   8.340  1.00  0.00     0.049 A 
ATOM     43  H   UNL     1      -6.359   3.535   7.958  1.00  0.00     0.167 HD
ATOM     44  C   UNL     1      -7.287   7.699   6.980  1.00  0.00     0.037 A 
ATOM     45  C   UNL     1      -6.374   1.274   9.589  1.00  0.00     0.037 A 
ATOM     46  C   UNL     1      -7.826   7.503   8.300  1.00  0.00     0.049 A 
ATOM     47  C   UNL     1      -7.056   2.364  10.376  1.00  0.00     0.074 A 
ATOM     48  C   UNL     1      -8.497   8.408   9.104  1.00  0.00     0.029 A 
ATOM     49  N   UNL     1      -7.751   6.315   9.011  1.00  0.00    -0.354 N 
ATOM     50  N   UNL     1      -7.322   3.598  10.024  1.00  0.00    -0.248 NA
ATOM     51  C   UNL     1      -7.511   2.017  11.731  1.00  0.00     0.031 C 
ATOM     52  C   UNL     1      -8.799   7.778  10.316  1.00  0.00     0.029 A 
ATOM     53  C   UNL     1      -8.352   6.468  10.250  1.00  0.00     0.049 A 
ATOM     54  H   UNL     1      -7.332   5.486   8.685  1.00  0.00     0.167 HD
ATOM     55  C   UNL     1      -7.991   4.167  11.100  1.00  0.00     0.074 A 
ATOM     56  C   UNL     1      -8.109   3.137  12.111  1.00  0.00     0.031 C 
ATOM     57  C   UNL     1      -8.464   5.430  11.241  1.00  0.00     0.037 A 
BRANCH  44  58
ATOM     58  C   UNL     1      -7.458   9.042   6.336  1.00  0.00     0.064 A 
ATOM     59  C   UNL     1      -8.366   9.237   5.284  1.00  0.00     0.173 A 
ATOM     60  C   UNL     1      -6.734  10.152   6.795  1.00  0.00     0.173 A 
ATOM     61  F   UNL     1      -9.069   8.202   4.800  1.00  0.00    -0.203 F 
ATOM     62  C   UNL     1      -8.528  10.491   4.702  1.00  0.00     0.198 A 
ATOM     63  C   UNL     1      -6.917  11.410   6.226  1.00  0.00     0.198 A 
ATOM     64  F   UNL     1      -5.855  10.018   7.799  1.00  0.00    -0.203 F 
ATOM     65  F   UNL     1      -9.373  10.647   3.673  1.00  0.00    -0.200 F 
ATOM     66  C   UNL     1      -7.809  11.578   5.178  1.00  0.00     0.200 A 
ATOM     67  F   UNL     1      -6.227  12.461   6.692  1.00  0.00    -0.200 F 
ATOM     68  F   UNL     1      -7.971  12.786   4.621  1.00  0.00    -0.200 F 
ENDBRANCH  44  58
BRANCH  45  69
ATOM     69  C   UNL     1      -6.173  -0.073  10.181  1.00  0.00     0.064 A 
ATOM     70  C   UNL     1      -7.255  -0.927  10.432  1.00  0.00     0.173 A 
ATOM     71  C   UNL     1      -4.891  -0.522  10.532  1.00  0.00     0.173 A 
ATOM     72  F   UNL     1      -8.502  -0.532  10.137  1.00  0.00    -0.203 F 
ATOM     73  C   UNL     1      -7.065  -2.171  11.032  1.00  0.00     0.198 A 
ATOM     74  C   UNL     1      -4.699  -1.776  11.106  1.00  0.00     0.198 A 
ATOM     75  F   UNL     1      -3.823   0.259  10.312  1.00  0.00    -0.203 F 
ATOM     76  F   UNL     1      -8.121  -2.949  11.305  1.00  0.00    -0.200 F 
ATOM     77  C   UNL     1      -5.787  -2.596  11.364  1.00  0.00     0.200 A 
ATOM     78  F   UNL     1      -3.462  -2.187  11.415  1.00  0.00    -0.200 F 
ATOM     79  F   UNL     1      -5.605  -3.792  11.940  1.00  0.00    -0.200 F 
ENDBRANCH  45  69
BRANCH  57  80
ATOM     80  C   UNL     1      -9.173   5.758  12.522  1.00  0.00     0.064 A 
ATOM     81  C   UNL     1      -8.475   5.911  13.729  1.00  0.00     0.173 A 
ATOM     82  C   UNL     1     -10.563   5.949  12.537  1.00  0.00     0.173 A 
ATOM     83  F   UNL     1      -7.147   5.724  13.768  1.00  0.00    -0.203 F 
ATOM     84  C   UNL     1      -9.146   6.217  14.910  1.00  0.00     0.198 A 
ATOM     85  C   UNL     1     -11.228   6.280  13.714  1.00  0.00     0.198 A 
ATOM     86  F   UNL     1     -11.276   5.821  11.408  1.00  0.00    -0.203 F 
ATOM     87  F   UNL     1      -8.465   6.311  16.060  1.00  0.00    -0.200 F 
ATOM     88  C   UNL     1     -10.521   6.406  14.901  1.00  0.00     0.200 A 
ATOM     89  F   UNL     1     -12.554   6.473  13.702  1.00  0.00    -0.200 F 
ATOM     90  F   UNL     1     -11.165   6.701  16.038  1.00  0.00    -0.200 F 
ENDBRANCH  57  80
ENDBRANCH  31  32
ENDBRANCH  24  26
ENDBRANCH  23  24
ENDBRANCH  22  23
ENDBRANCH  21  22
ENDBRANCH  20  21
ENDBRANCH   1  20
TORSDOF 17
