REMARK SMILES CCCCCCNC(=O)Oc1cccc(-c2ccc([C@@H](C)C(=O)OCCOCCOC(=O)c3ccc(-c4c5nc(c(-c6c(F)c(F)c(F)c(F)c6F)c6ccc([nH]6)c(-c6c(F)c(F)c(F)c(F)c6F)c6nc(c(-c7c(F)c(F)c(F)c(F)c7F)c7ccc4[nH]7)C=C6)C=C5)cc3)cc2N)c1
REMARK SMILES IDX 22 1 23 2 20 3 21 4 19 5 16 6 17 7 97 8 18 9 96 10 15 11
REMARK SMILES IDX 11 12 12 13 99 14 13 15 14 16 10 17 8 18 7 19 9 21 6 22 5 23
REMARK SMILES IDX 4 24 3 25 2 26 1 27 98 28 24 31 25 32 26 33 27 34 28 35
REMARK SMILES IDX 29 36 30 37 31 38 32 39 33 40 34 41 95 42 35 43 94 44 36 45
REMARK SMILES IDX 37 46 38 47 88 48 39 49 93 50 87 51 89 52 40 53 92 54 86 55
REMARK SMILES IDX 85 56 41 58 73 59 53 60 72 61 54 62 57 63 71 64 90 65 55 66
REMARK SMILES IDX 56 67 70 69 91 70 58 71 42 72 43 73 51 74 44 75 45 76 49 77
REMARK SMILES IDX 52 78 46 79 47 80 50 81 48 82 74 83 75 84 83 85 76 86 77 87
REMARK SMILES IDX 81 88 84 89 78 90 79 91 82 92 80 93 59 94 60 95 68 96 61 97
REMARK SMILES IDX 62 98 66 99 69 100 63 101 64 102 67 103 65 104
REMARK H PARENT 7 20 98 29 98 30 89 57 57 68
REMARK Flexibility Score: inf
ROOT
ATOM      1  C   UNL     1      -3.638  -9.614 -11.585  1.00  0.00     0.313 C 
ATOM      2  O   UNL     1      -3.320 -10.797 -11.672  1.00  0.00    -0.252 OA
ENDROOT
BRANCH   1   3
ATOM      3  C   UNL     1      -4.823  -9.165 -10.745  1.00  0.00     0.126 C 
ATOM      4  C   UNL     1      -6.111  -9.412 -11.527  1.00  0.00     0.025 C 
BRANCH   3   5
ATOM      5  C   UNL     1      -4.784  -7.765 -10.141  1.00  0.00    -0.032 A 
ATOM      6  C   UNL     1      -4.912  -5.196  -8.906  1.00  0.00     0.005 A 
ATOM      7  C   UNL     1      -4.899  -5.344 -10.307  1.00  0.00     0.011 A 
ATOM      8  C   UNL     1      -4.857  -6.365  -8.114  1.00  0.00     0.040 A 
ATOM      9  C   UNL     1      -4.848  -6.604 -10.916  1.00  0.00     0.005 A 
ATOM     10  C   UNL     1      -4.754  -7.619  -8.741  1.00  0.00     0.030 A 
BRANCH   6  11
ATOM     11  C   UNL     1      -5.044  -3.842  -8.325  1.00  0.00    -0.013 A 
ATOM     12  C   UNL     1      -4.255  -2.049  -6.887  1.00  0.00     0.133 A 
ATOM     13  C   UNL     1      -5.384  -1.285  -7.169  1.00  0.00     0.047 A 
ATOM     14  C   UNL     1      -4.079  -3.316  -7.450  1.00  0.00     0.056 A 
ATOM     15  C   UNL     1      -6.342  -1.784  -8.047  1.00  0.00     0.004 A 
ATOM     16  C   UNL     1      -6.173  -3.050  -8.616  1.00  0.00     0.009 A 
BRANCH  12  17
ATOM     17  O   UNL     1      -3.375  -1.543  -5.916  1.00  0.00    -0.410 OA
BRANCH  17  18
ATOM     18  C   UNL     1      -2.029  -1.464  -6.238  1.00  0.00     0.412 C 
ATOM     19  N   UNL     1      -1.256  -0.989  -5.214  1.00  0.00    -0.321 N 
ATOM     20  H   UNL     1      -0.288  -0.935  -5.386  1.00  0.00     0.167 HD
ATOM     21  O   UNL     1      -1.528  -1.762  -7.317  1.00  0.00    -0.224 OA
BRANCH  19  22
ATOM     22  C   UNL     1      -1.702  -0.557  -3.904  1.00  0.00     0.119 C 
BRANCH  22  23
ATOM     23  C   UNL     1      -1.094  -1.396  -2.779  1.00  0.00     0.021 C 
BRANCH  23  24
ATOM     24  C   UNL     1       0.435  -1.327  -2.673  1.00  0.00     0.002 C 
BRANCH  24  25
ATOM     25  C   UNL     1       1.023   0.070  -2.445  1.00  0.00    -0.000 C 
BRANCH  25  26
ATOM     26  C   UNL     1       0.550   0.786  -1.178  1.00  0.00    -0.003 C 
ATOM     27  C   UNL     1       0.942   0.066   0.104  1.00  0.00     0.004 C 
ENDBRANCH  25  26
ENDBRANCH  24  25
ENDBRANCH  23  24
ENDBRANCH  22  23
ENDBRANCH  19  22
ENDBRANCH  17  18
ENDBRANCH  12  17
ENDBRANCH   6  11
BRANCH   8  28
ATOM     28  N   UNL     1      -4.811  -6.319  -6.720  1.00  0.00    -0.398 N 
ATOM     29  H   UNL     1      -4.880  -5.455  -6.254  1.00  0.00     0.156 HD
ATOM     30  H   UNL     1      -4.708  -7.150  -6.204  1.00  0.00     0.156 HD
ENDBRANCH   8  28
ENDBRANCH   3   5
ENDBRANCH   1   3
BRANCH   1  31
ATOM     31  O   UNL     1      -3.014  -8.603 -12.245  1.00  0.00    -0.463 OA
BRANCH  31  32
ATOM     32  C   UNL     1      -1.809  -8.960 -12.945  1.00  0.00     0.261 C 
BRANCH  32  33
ATOM     33  C   UNL     1      -0.589  -8.255 -12.348  1.00  0.00     0.202 C 
BRANCH  33  34
ATOM     34  O   UNL     1      -0.228  -8.629 -11.020  1.00  0.00    -0.374 OA
BRANCH  34  35
ATOM     35  C   UNL     1      -1.011  -8.096  -9.950  1.00  0.00     0.202 C 
BRANCH  35  36
ATOM     36  C   UNL     1      -0.763  -6.629  -9.576  1.00  0.00     0.261 C 
BRANCH  36  37
ATOM     37  O   UNL     1      -1.150  -5.722 -10.624  1.00  0.00    -0.460 OA
BRANCH  37  38
ATOM     38  C   UNL     1      -0.124  -5.064 -11.216  1.00  0.00     0.338 C 
ATOM     39  O   UNL     1       1.058  -5.116 -10.933  1.00  0.00    -0.246 OA
BRANCH  38  40
ATOM     40  C   UNL     1      -0.610  -4.391 -12.437  1.00  0.00     0.060 A 
ATOM     41  C   UNL     1       0.049  -4.683 -13.639  1.00  0.00     0.016 A 
ATOM     42  C   UNL     1      -1.637  -3.447 -12.401  1.00  0.00     0.016 A 
ATOM     43  C   UNL     1      -0.290  -4.003 -14.806  1.00  0.00     0.010 A 
ATOM     44  C   UNL     1      -1.970  -2.757 -13.572  1.00  0.00     0.010 A 
ATOM     45  C   UNL     1      -1.278  -3.011 -14.772  1.00  0.00    -0.014 A 
BRANCH  45  46
ATOM     46  C   UNL     1      -1.497  -2.152 -15.961  1.00  0.00     0.031 A 
ATOM     47  C   UNL     1      -0.878  -0.783 -15.998  1.00  0.00     0.074 A 
ATOM     48  C   UNL     1      -2.228  -2.590 -17.000  1.00  0.00     0.049 A 
ATOM     49  N   UNL     1      -0.992   0.156 -16.903  1.00  0.00    -0.248 NA
ATOM     50  C   UNL     1      -0.016  -0.425 -14.862  1.00  0.00     0.031 C 
ATOM     51  C   UNL     1      -2.844  -3.911 -17.099  1.00  0.00     0.029 A 
ATOM     52  N   UNL     1      -2.590  -1.959 -18.165  1.00  0.00    -0.354 N 
ATOM     53  C   UNL     1      -0.230   1.220 -16.439  1.00  0.00     0.074 A 
ATOM     54  C   UNL     1       0.326   0.819 -15.164  1.00  0.00     0.031 C 
ATOM     55  C   UNL     1      -3.530  -3.985 -18.251  1.00  0.00     0.029 A 
ATOM     56  C   UNL     1      -3.432  -2.705 -18.951  1.00  0.00     0.049 A 
ATOM     57  H   UNL     1      -2.275  -1.059 -18.412  1.00  0.00     0.167 HD
ATOM     58  C   UNL     1      -0.014   2.421 -17.026  1.00  0.00     0.037 A 
ATOM     59  C   UNL     1      -4.079  -2.377 -20.087  1.00  0.00     0.037 A 
ATOM     60  C   UNL     1      -0.561   2.812 -18.298  1.00  0.00     0.049 A 
ATOM     61  C   UNL     1      -3.885  -1.008 -20.683  1.00  0.00     0.074 A 
ATOM     62  C   UNL     1      -0.350   3.982 -19.006  1.00  0.00     0.029 A 
ATOM     63  N   UNL     1      -1.444   2.046 -19.046  1.00  0.00    -0.354 N 
ATOM     64  N   UNL     1      -3.129  -0.022 -20.263  1.00  0.00    -0.248 NA
ATOM     65  C   UNL     1      -4.638  -0.702 -21.908  1.00  0.00     0.031 C 
ATOM     66  C   UNL     1      -1.154   3.951 -20.150  1.00  0.00     0.029 A 
ATOM     67  C   UNL     1      -1.825   2.739 -20.184  1.00  0.00     0.049 A 
ATOM     68  H   UNL     1      -1.753   1.143 -18.804  1.00  0.00     0.167 HD
ATOM     69  C   UNL     1      -3.305   1.012 -21.172  1.00  0.00     0.074 A 
ATOM     70  C   UNL     1      -4.226   0.529 -22.180  1.00  0.00     0.031 C 
ATOM     71  C   UNL     1      -2.755   2.251 -21.171  1.00  0.00     0.037 A 
BRANCH  58  72
ATOM     72  C   UNL     1       0.823   3.417 -16.279  1.00  0.00     0.064 A 
ATOM     73  C   UNL     1       2.208   3.257 -16.126  1.00  0.00     0.173 A 
ATOM     74  C   UNL     1       0.230   4.566 -15.732  1.00  0.00     0.173 A 
ATOM     75  F   UNL     1       2.821   2.172 -16.621  1.00  0.00    -0.203 F 
ATOM     76  C   UNL     1       2.964   4.197 -15.429  1.00  0.00     0.198 A 
ATOM     77  C   UNL     1       0.993   5.516 -15.061  1.00  0.00     0.198 A 
ATOM     78  F   UNL     1      -1.090   4.769 -15.856  1.00  0.00    -0.203 F 
ATOM     79  F   UNL     1       4.279   4.002 -15.256  1.00  0.00    -0.200 F 
ATOM     80  C   UNL     1       2.357   5.328 -14.903  1.00  0.00     0.200 A 
ATOM     81  F   UNL     1       0.407   6.615 -14.564  1.00  0.00    -0.200 F 
ATOM     82  F   UNL     1       3.087   6.233 -14.237  1.00  0.00    -0.200 F 
ENDBRANCH  58  72
BRANCH  59  83
ATOM     83  C   UNL     1      -5.008  -3.356 -20.709  1.00  0.00     0.064 A 
ATOM     84  C   UNL     1      -4.708  -3.966 -21.933  1.00  0.00     0.173 A 
ATOM     85  C   UNL     1      -6.216  -3.702 -20.085  1.00  0.00     0.173 A 
ATOM     86  F   UNL     1      -3.579  -3.647 -22.582  1.00  0.00    -0.203 F 
ATOM     87  C   UNL     1      -5.584  -4.883 -22.513  1.00  0.00     0.198 A 
ATOM     88  C   UNL     1      -7.078  -4.638 -20.652  1.00  0.00     0.198 A 
ATOM     89  F   UNL     1      -6.552  -3.141 -18.914  1.00  0.00    -0.203 F 
ATOM     90  F   UNL     1      -5.290  -5.426 -23.702  1.00  0.00    -0.200 F 
ATOM     91  C   UNL     1      -6.764  -5.224 -21.868  1.00  0.00     0.200 A 
ATOM     92  F   UNL     1      -8.211  -4.972 -20.019  1.00  0.00    -0.200 F 
ATOM     93  F   UNL     1      -7.600  -6.112 -22.421  1.00  0.00    -0.200 F 
ENDBRANCH  59  83
BRANCH  71  94
ATOM     94  C   UNL     1      -3.131   3.178 -22.290  1.00  0.00     0.064 A 
ATOM     95  C   UNL     1      -4.399   3.777 -22.347  1.00  0.00     0.173 A 
ATOM     96  C   UNL     1      -2.198   3.521 -23.280  1.00  0.00     0.173 A 
ATOM     97  F   UNL     1      -5.332   3.470 -21.434  1.00  0.00    -0.203 F 
ATOM     98  C   UNL     1      -4.721   4.674 -23.362  1.00  0.00     0.198 A 
ATOM     99  C   UNL     1      -2.514   4.439 -24.277  1.00  0.00     0.198 A 
ATOM    100  F   UNL     1      -0.970   2.981 -23.268  1.00  0.00    -0.203 F 
ATOM    101  F   UNL     1      -5.950   5.207 -23.417  1.00  0.00    -0.200 F 
ATOM    102  C   UNL     1      -3.776   5.012 -24.320  1.00  0.00     0.200 A 
ATOM    103  F   UNL     1      -1.596   4.775 -25.194  1.00  0.00    -0.200 F 
ATOM    104  F   UNL     1      -4.084   5.887 -25.288  1.00  0.00    -0.200 F 
ENDBRANCH  71  94
ENDBRANCH  45  46
ENDBRANCH  38  40
ENDBRANCH  37  38
ENDBRANCH  36  37
ENDBRANCH  35  36
ENDBRANCH  34  35
ENDBRANCH  33  34
ENDBRANCH  32  33
ENDBRANCH  31  32
ENDBRANCH   1  31
TORSDOF 24
