REMARK SMILES O=C(COc1ccccc1/C=N/N1[C@@H](S)N=N[C@H]1[C@@H]1C=C(c2ccccc2)N=N1)OCCOCCOC(=O)c1ccc(-c2c3nc(c(-c4c(F)c(F)c(F)c(F)c4F)c4ccc([nH]4)c(-c4c(F)c(F)c(F)c(F)c4F)c4nc(c(-c5c(F)c(F)c(F)c(F)c5F)c5ccc2[nH]5)C=C4)C=C3)cc1
REMARK SMILES IDX 31 1 30 2 2 3 1 4 3 5 4 6 5 7 6 8 10 9 7 10 9 11 8 12 11 13
REMARK SMILES IDX 12 14 13 15 14 16 18 17 16 18 17 19 15 20 19 22 20 23 29 24
REMARK SMILES IDX 21 25 28 26 22 27 23 28 27 29 24 30 26 31 25 32 32 33 33 34
REMARK SMILES IDX 34 35 35 36 36 37 37 38 38 39 39 40 40 41 101 42 41 43
REMARK SMILES IDX 100 44 42 45 43 46 44 47 94 48 45 49 99 50 93 51 95 52 46 53
REMARK SMILES IDX 98 54 92 55 91 56 47 58 79 59 59 60 78 61 60 62 63 63 77 64
REMARK SMILES IDX 96 65 61 66 62 67 76 69 97 70 64 71 48 72 49 73 57 74 50 75
REMARK SMILES IDX 51 76 55 77 58 78 52 79 53 80 56 81 54 82 80 83 81 84 89 85
REMARK SMILES IDX 82 86 83 87 87 88 90 89 84 90 85 91 88 92 86 93 65 94 66 95
REMARK SMILES IDX 74 96 67 97 68 98 72 99 75 100 69 101 70 102 73 103 71 104
REMARK H PARENT 15 21 95 57 63 68
REMARK Flexibility Score: inf
ROOT
ATOM      1  C   UNL     1       4.521   1.416  -0.304  1.00  0.00     0.261 C 
ENDROOT
BRANCH   1   2
ATOM      2  O   UNL     1       4.042   1.574   1.040  1.00  0.00    -0.461 OA
BRANCH   2   3
ATOM      3  C   UNL     1       2.681   1.613   1.205  1.00  0.00     0.344 C 
ATOM      4  O   UNL     1       1.850   1.819   0.341  1.00  0.00    -0.248 OA
BRANCH   3   5
ATOM      5  C   UNL     1       2.322   1.290   2.640  1.00  0.00     0.352 C 
BRANCH   5   6
ATOM      6  O   UNL     1       2.773  -0.046   2.809  1.00  0.00    -0.481 OA
BRANCH   6   7
ATOM      7  C   UNL     1       1.964  -0.872   3.538  1.00  0.00     0.129 A 
ATOM      8  C   UNL     1       2.361  -1.083   4.860  1.00  0.00     0.047 A 
ATOM      9  C   UNL     1       1.071  -1.760   2.915  1.00  0.00     0.037 A 
ATOM     10  C   UNL     1       1.925  -2.218   5.542  1.00  0.00     0.004 A 
ATOM     11  C   UNL     1       0.647  -2.902   3.602  1.00  0.00     0.013 A 
ATOM     12  C   UNL     1       1.094  -3.140   4.904  1.00  0.00     0.001 A 
BRANCH   9  13
ATOM     13  C   UNL     1       0.641  -1.553   1.517  1.00  0.00     0.145 C 
ATOM     14  N   UNL     1       0.130  -2.494   0.769  1.00  0.00    -0.180 NA
BRANCH  14  15
ATOM     15  N   UNL     1      -0.096  -2.023  -0.492  1.00  0.00    -0.233 NA
ATOM     16  C   UNL     1      -1.452  -1.981  -1.054  1.00  0.00     0.298 C 
ATOM     17  C   UNL     1       0.601  -2.640  -1.641  1.00  0.00     0.274 C 
ATOM     18  N   UNL     1      -1.294  -1.822  -2.522  1.00  0.00    -0.153 NA
ATOM     19  N   UNL     1      -0.137  -2.190  -2.857  1.00  0.00    -0.161 NA
BRANCH  16  20
ATOM     20  S   UNL     1      -2.489  -0.746  -0.220  1.00  0.00    -0.128 SA
ATOM     21  H   UNL     1      -1.923   0.484  -0.351  1.00  0.00     0.106 HD
ENDBRANCH  16  20
BRANCH  17  22
ATOM     22  C   UNL     1       2.101  -2.293  -1.817  1.00  0.00     0.202 C 
ATOM     23  C   UNL     1       3.068  -3.140  -1.036  1.00  0.00     0.037 C 
ATOM     24  N   UNL     1       2.357  -0.942  -1.269  1.00  0.00    -0.177 NA
ATOM     25  C   UNL     1       3.618  -2.312  -0.148  1.00  0.00     0.091 C 
ATOM     26  N   UNL     1       3.135  -1.040  -0.289  1.00  0.00    -0.155 NA
BRANCH  25  27
ATOM     27  C   UNL     1       4.632  -2.531   0.888  1.00  0.00     0.002 A 
ATOM     28  C   UNL     1       4.274  -3.054   2.135  1.00  0.00     0.010 A 
ATOM     29  C   UNL     1       5.888  -1.924   0.746  1.00  0.00     0.010 A 
ATOM     30  C   UNL     1       5.100  -2.853   3.246  1.00  0.00     0.001 A 
ATOM     31  C   UNL     1       6.711  -1.722   1.856  1.00  0.00     0.001 A 
ATOM     32  C   UNL     1       6.301  -2.157   3.113  1.00  0.00     0.000 A 
ENDBRANCH  25  27
ENDBRANCH  17  22
ENDBRANCH  14  15
ENDBRANCH   9  13
ENDBRANCH   6   7
ENDBRANCH   5   6
ENDBRANCH   3   5
ENDBRANCH   2   3
ENDBRANCH   1   2
BRANCH   1  33
ATOM     33  C   UNL     1       5.557   2.463  -0.672  1.00  0.00     0.202 C 
BRANCH  33  34
ATOM     34  O   UNL     1       5.131   3.814  -0.833  1.00  0.00    -0.374 OA
BRANCH  34  35
ATOM     35  C   UNL     1       3.764   4.084  -1.114  1.00  0.00     0.202 C 
BRANCH  35  36
ATOM     36  C   UNL     1       3.282   3.875  -2.544  1.00  0.00     0.261 C 
BRANCH  36  37
ATOM     37  O   UNL     1       3.389   2.527  -2.992  1.00  0.00    -0.460 OA
BRANCH  37  38
ATOM     38  C   UNL     1       4.528   2.253  -3.651  1.00  0.00     0.338 C 
ATOM     39  O   UNL     1       5.540   2.950  -3.692  1.00  0.00    -0.246 OA
BRANCH  38  40
ATOM     40  C   UNL     1       4.329   1.115  -4.559  1.00  0.00     0.060 A 
ATOM     41  C   UNL     1       5.414   0.886  -5.409  1.00  0.00     0.016 A 
ATOM     42  C   UNL     1       3.014   0.793  -4.926  1.00  0.00     0.016 A 
ATOM     43  C   UNL     1       5.146   0.707  -6.743  1.00  0.00     0.010 A 
ATOM     44  C   UNL     1       2.748   0.616  -6.264  1.00  0.00     0.010 A 
ATOM     45  C   UNL     1       3.810   0.699  -7.160  1.00  0.00    -0.014 A 
BRANCH  45  46
ATOM     46  C   UNL     1       3.578   0.747  -8.587  1.00  0.00     0.031 A 
ATOM     47  C   UNL     1       3.893  -0.526  -9.263  1.00  0.00     0.074 A 
ATOM     48  C   UNL     1       3.076   1.830  -9.209  1.00  0.00     0.049 A 
ATOM     49  N   UNL     1       4.794  -0.754 -10.159  1.00  0.00    -0.248 NA
ATOM     50  C   UNL     1       3.209  -1.727  -8.759  1.00  0.00     0.031 C 
ATOM     51  C   UNL     1       2.477   3.028  -8.618  1.00  0.00     0.029 A 
ATOM     52  N   UNL     1       2.914   2.032 -10.544  1.00  0.00    -0.354 N 
ATOM     53  C   UNL     1       4.679  -2.106 -10.455  1.00  0.00     0.074 A 
ATOM     54  C   UNL     1       3.815  -2.683  -9.459  1.00  0.00     0.031 C 
ATOM     55  C   UNL     1       1.819   3.714  -9.582  1.00  0.00     0.029 A 
ATOM     56  C   UNL     1       2.055   3.071 -10.864  1.00  0.00     0.049 A 
ATOM     57  H   UNL     1       3.369   1.486 -11.225  1.00  0.00     0.167 HD
ATOM     58  C   UNL     1       5.107  -2.611 -11.641  1.00  0.00     0.037 A 
ATOM     59  C   UNL     1       1.515   3.304 -12.086  1.00  0.00     0.037 A 
ATOM     60  C   UNL     1       6.080  -1.758 -12.265  1.00  0.00     0.049 A 
ATOM     61  C   UNL     1       2.329   2.564 -13.087  1.00  0.00     0.074 A 
ATOM     62  C   UNL     1       7.336  -1.307 -11.904  1.00  0.00     0.029 A 
ATOM     63  N   UNL     1       5.673  -0.935 -13.286  1.00  0.00    -0.354 N 
ATOM     64  N   UNL     1       3.550   2.880 -13.416  1.00  0.00    -0.248 NA
ATOM     65  C   UNL     1       1.933   1.198 -13.404  1.00  0.00     0.031 C 
ATOM     66  C   UNL     1       7.406   0.032 -12.386  1.00  0.00     0.029 A 
ATOM     67  C   UNL     1       6.210   0.305 -13.049  1.00  0.00     0.049 A 
ATOM     68  H   UNL     1       5.101  -1.188 -14.046  1.00  0.00     0.167 HD
ATOM     69  C   UNL     1       4.198   1.664 -13.584  1.00  0.00     0.074 A 
ATOM     70  C   UNL     1       3.133   0.669 -13.655  1.00  0.00     0.031 C 
ATOM     71  C   UNL     1       5.540   1.545 -13.366  1.00  0.00     0.037 A 
BRANCH  58  72
ATOM     72  C   UNL     1       4.372  -3.703 -12.365  1.00  0.00     0.064 A 
ATOM     73  C   UNL     1       4.977  -4.339 -13.462  1.00  0.00     0.173 A 
ATOM     74  C   UNL     1       2.993  -3.962 -12.189  1.00  0.00     0.173 A 
ATOM     75  F   UNL     1       6.271  -4.127 -13.745  1.00  0.00    -0.203 F 
ATOM     76  C   UNL     1       4.243  -5.141 -14.340  1.00  0.00     0.198 A 
ATOM     77  C   UNL     1       2.280  -4.811 -13.029  1.00  0.00     0.198 A 
ATOM     78  F   UNL     1       2.259  -3.322 -11.271  1.00  0.00    -0.203 F 
ATOM     79  F   UNL     1       4.832  -5.636 -15.437  1.00  0.00    -0.200 F 
ATOM     80  C   UNL     1       2.897  -5.378 -14.121  1.00  0.00     0.200 A 
ATOM     81  F   UNL     1       0.972  -5.008 -12.810  1.00  0.00    -0.200 F 
ATOM     82  F   UNL     1       2.183  -6.107 -14.988  1.00  0.00    -0.200 F 
ENDBRANCH  58  72
BRANCH  59  83
ATOM     83  C   UNL     1       0.164   3.828 -12.401  1.00  0.00     0.064 A 
ATOM     84  C   UNL     1      -0.149   4.295 -13.688  1.00  0.00     0.173 A 
ATOM     85  C   UNL     1      -0.923   3.626 -11.527  1.00  0.00     0.173 A 
ATOM     86  F   UNL     1       0.820   4.467 -14.598  1.00  0.00    -0.203 F 
ATOM     87  C   UNL     1      -1.472   4.525 -14.082  1.00  0.00     0.198 A 
ATOM     88  C   UNL     1      -2.240   3.866 -11.919  1.00  0.00     0.198 A 
ATOM     89  F   UNL     1      -0.740   3.099 -10.309  1.00  0.00    -0.203 F 
ATOM     90  F   UNL     1      -1.738   4.910 -15.339  1.00  0.00    -0.200 F 
ATOM     91  C   UNL     1      -2.516   4.302 -13.200  1.00  0.00     0.200 A 
ATOM     92  F   UNL     1      -3.243   3.609 -11.067  1.00  0.00    -0.200 F 
ATOM     93  F   UNL     1      -3.786   4.465 -13.596  1.00  0.00    -0.200 F 
ENDBRANCH  59  83
BRANCH  71  94
ATOM     94  C   UNL     1       6.331   2.812 -13.191  1.00  0.00     0.064 A 
ATOM     95  C   UNL     1       6.123   3.726 -12.143  1.00  0.00     0.173 A 
ATOM     96  C   UNL     1       7.426   3.040 -14.035  1.00  0.00     0.173 A 
ATOM     97  F   UNL     1       5.165   3.522 -11.230  1.00  0.00    -0.203 F 
ATOM     98  C   UNL     1       6.942   4.843 -11.983  1.00  0.00     0.198 A 
ATOM     99  C   UNL     1       8.267   4.135 -13.849  1.00  0.00     0.198 A 
ATOM    100  F   UNL     1       7.711   2.171 -15.017  1.00  0.00    -0.203 F 
ATOM    101  F   UNL     1       6.711   5.710 -10.986  1.00  0.00    -0.200 F 
ATOM    102  C   UNL     1       8.018   5.042 -12.832  1.00  0.00     0.200 A 
ATOM    103  F   UNL     1       9.336   4.295 -14.640  1.00  0.00    -0.200 F 
ATOM    104  F   UNL     1       8.831   6.093 -12.654  1.00  0.00    -0.200 F 
ENDBRANCH  71  94
ENDBRANCH  45  46
ENDBRANCH  38  40
ENDBRANCH  37  38
ENDBRANCH  36  37
ENDBRANCH  35  36
ENDBRANCH  34  35
ENDBRANCH  33  34
ENDBRANCH   1  33
TORSDOF 21
