REMARK SMILES O=C(OCCOCCOC(=O)c1ccc(-c2c3nc(c(-c4c(F)c(F)c(F)c(F)c4F)c4ccc([nH]4)c(-c4c(F)c(F)c(F)c(F)c4F)c4nc(c(-c5c(F)c(F)c(F)c(F)c5F)c5ccc2[nH]5)C=C4)C=C3)cc1)C1=Cc2cc(Cl)cc(C#Cc3ccccc3)c2O[C@@H]1C(F)(F)F
REMARK SMILES IDX 6 1 5 2 4 3 3 4 2 5 1 6 75 7 76 8 93 9 77 10 92 11 78 12
REMARK SMILES IDX 91 13 79 14 82 15 80 16 81 17 94 18 95 19 96 20 97 21 83 22
REMARK SMILES IDX 84 23 85 24 86 25 90 26 87 27 89 28 88 29 7 30 8 31 9 32
REMARK SMILES IDX 10 33 11 34 12 35 13 36 74 37 14 38 73 39 15 40 16 41 17 42
REMARK SMILES IDX 67 43 18 44 72 45 66 46 68 47 19 48 71 49 65 50 64 51 20 53
REMARK SMILES IDX 52 54 32 55 51 56 33 57 36 58 50 59 69 60 34 61 35 62 49 64
REMARK SMILES IDX 70 65 37 66 21 67 22 68 30 69 23 70 24 71 28 72 31 73 25 74
REMARK SMILES IDX 26 75 29 76 27 77 53 78 54 79 62 80 55 81 56 82 60 83 63 84
REMARK SMILES IDX 57 85 58 86 61 87 59 88 38 89 39 90 47 91 40 92 41 93 45 94
REMARK SMILES IDX 48 95 42 96 43 97 46 98 44 99
REMARK H PARENT 68 52 36 63
REMARK Flexibility Score: inf
ROOT
ATOM      1  O   UNL     1       3.755   2.252  -0.637  1.00  0.00    -0.374 OA
ENDROOT
BRANCH   1   2
ATOM      2  C   UNL     1       4.226   0.972   0.105  1.00  0.00     0.202 C 
BRANCH   2   3
ATOM      3  C   UNL     1       3.155  -0.819   0.731  1.00  0.00     0.261 C 
BRANCH   3   4
ATOM      4  O   UNL     1       2.277  -0.989   1.988  1.00  0.00    -0.460 OA
BRANCH   4   5
ATOM      5  C   UNL     1       2.591  -0.136   2.966  1.00  0.00     0.338 C 
ATOM      6  O   UNL     1       2.097   0.019   4.051  1.00  0.00    -0.246 OA
BRANCH   5   7
ATOM      7  C   UNL     1       3.493   0.662   2.171  1.00  0.00     0.087 C 
ATOM      8  C   UNL     1       4.795  -0.062   2.048  1.00  0.00     0.027 C 
ATOM      9  C   UNL     1       2.283   1.013   0.700  1.00  0.00     0.316 C 
ATOM     10  C   UNL     1       5.353  -0.844   0.499  1.00  0.00     0.020 A 
ATOM     11  O   UNL     1       2.837   0.153  -0.929  1.00  0.00    -0.474 OA
ATOM     12  C   UNL     1       6.478  -1.615   0.542  1.00  0.00     0.032 A 
ATOM     13  C   UNL     1       4.349  -0.856  -0.947  1.00  0.00     0.143 A 
ATOM     14  C   UNL     1       6.666  -2.385  -0.603  1.00  0.00     0.043 A 
ATOM     15  C   UNL     1       4.582  -1.688  -1.998  1.00  0.00     0.069 A 
ATOM     16  Cl  UNL     1       8.088  -3.380  -0.663  1.00  0.00    -0.084 Cl
ATOM     17  C   UNL     1       5.766  -2.435  -1.755  1.00  0.00     0.041 A 
BRANCH   9  18
ATOM     18  C   UNL     1       1.893   2.517   0.952  1.00  0.00     0.430 C 
ATOM     19  F   UNL     1       1.180   3.099  -0.028  1.00  0.00    -0.167 F 
ATOM     20  F   UNL     1       1.086   2.540   2.055  1.00  0.00    -0.167 F 
ATOM     21  F   UNL     1       2.935   3.316   1.286  1.00  0.00    -0.167 F 
ENDBRANCH   9  18
BRANCH  15  22
ATOM     22  C   UNL     1       3.810  -1.830  -3.203  1.00  0.00    -0.058 C 
ATOM     23  C   UNL     1       3.335  -1.942  -4.306  1.00  0.00    -0.062 C 
BRANCH  23  24
ATOM     24  C   UNL     1       3.047  -2.009  -5.725  1.00  0.00     0.025 A 
ATOM     25  C   UNL     1       2.767  -0.835  -6.438  1.00  0.00     0.017 A 
ATOM     26  C   UNL     1       3.300  -3.183  -6.446  1.00  0.00     0.017 A 
ATOM     27  C   UNL     1       2.837  -0.815  -7.840  1.00  0.00     0.001 A 
ATOM     28  C   UNL     1       3.377  -3.163  -7.846  1.00  0.00     0.001 A 
ATOM     29  C   UNL     1       3.167  -1.975  -8.542  1.00  0.00     0.000 A 
ENDBRANCH  23  24
ENDBRANCH  15  22
ENDBRANCH   5   7
ENDBRANCH   4   5
ENDBRANCH   3   4
ENDBRANCH   2   3
ENDBRANCH   1   2
BRANCH   1  30
ATOM     30  C   UNL     1       2.982   2.435  -1.827  1.00  0.00     0.202 C 
BRANCH  30  31
ATOM     31  C   UNL     1       3.541   2.287  -3.233  1.00  0.00     0.261 C 
BRANCH  31  32
ATOM     32  O   UNL     1       4.420   1.198  -3.453  1.00  0.00    -0.460 OA
BRANCH  32  33
ATOM     33  C   UNL     1       5.740   1.498  -3.548  1.00  0.00     0.338 C 
ATOM     34  O   UNL     1       6.313   2.495  -3.160  1.00  0.00    -0.246 OA
BRANCH  33  35
ATOM     35  C   UNL     1       6.337   0.383  -4.314  1.00  0.00     0.060 A 
ATOM     36  C   UNL     1       7.261  -0.497  -3.753  1.00  0.00     0.016 A 
ATOM     37  C   UNL     1       5.818   0.121  -5.574  1.00  0.00     0.016 A 
ATOM     38  C   UNL     1       7.520  -1.741  -4.379  1.00  0.00     0.010 A 
ATOM     39  C   UNL     1       6.062  -1.116  -6.166  1.00  0.00     0.010 A 
ATOM     40  C   UNL     1       6.851  -2.107  -5.556  1.00  0.00    -0.014 A 
BRANCH  40  41
ATOM     41  C   UNL     1       7.000  -3.433  -6.261  1.00  0.00     0.031 A 
ATOM     42  C   UNL     1       7.529  -3.409  -7.672  1.00  0.00     0.074 A 
ATOM     43  C   UNL     1       6.529  -4.620  -5.800  1.00  0.00     0.049 A 
ATOM     44  N   UNL     1       7.568  -4.370  -8.560  1.00  0.00    -0.248 NA
ATOM     45  C   UNL     1       7.982  -2.104  -8.181  1.00  0.00     0.031 C 
ATOM     46  C   UNL     1       5.797  -4.824  -4.561  1.00  0.00     0.029 A 
ATOM     47  N   UNL     1       6.532  -5.891  -6.353  1.00  0.00    -0.354 N 
ATOM     48  C   UNL     1       8.006  -3.769  -9.728  1.00  0.00     0.074 A 
ATOM     49  C   UNL     1       8.099  -2.351  -9.473  1.00  0.00     0.031 C 
ATOM     50  C   UNL     1       5.481  -6.120  -4.399  1.00  0.00     0.029 A 
ATOM     51  C   UNL     1       5.916  -6.856  -5.577  1.00  0.00     0.049 A 
ATOM     52  H   UNL     1       6.940  -6.090  -7.226  1.00  0.00     0.167 HD
ATOM     53  C   UNL     1       8.369  -4.343 -10.896  1.00  0.00     0.037 A 
ATOM     54  C   UNL     1       5.684  -8.171  -5.791  1.00  0.00     0.037 A 
ATOM     55  C   UNL     1       8.366  -5.754 -11.146  1.00  0.00     0.049 A 
ATOM     56  C   UNL     1       6.130  -8.796  -7.092  1.00  0.00     0.074 A 
ATOM     57  C   UNL     1       8.868  -6.426 -12.245  1.00  0.00     0.029 A 
ATOM     58  N   UNL     1       7.839  -6.708 -10.294  1.00  0.00    -0.354 N 
ATOM     59  N   UNL     1       6.718  -8.236  -8.119  1.00  0.00    -0.248 NA
ATOM     60  C   UNL     1       5.881 -10.239  -7.268  1.00  0.00     0.031 C 
ATOM     61  C   UNL     1       8.587  -7.783 -12.091  1.00  0.00     0.029 A 
ATOM     62  C   UNL     1       7.969  -7.963 -10.865  1.00  0.00     0.049 A 
ATOM     63  H   UNL     1       7.433  -6.523  -9.416  1.00  0.00     0.167 HD
ATOM     64  C   UNL     1       6.948  -9.258  -9.032  1.00  0.00     0.074 A 
ATOM     65  C   UNL     1       6.455 -10.478  -8.438  1.00  0.00     0.031 C 
ATOM     66  C   UNL     1       7.513  -9.184 -10.260  1.00  0.00     0.037 A 
BRANCH  53  67
ATOM     67  C   UNL     1       8.869  -3.438 -11.979  1.00  0.00     0.064 A 
ATOM     68  C   UNL     1      10.082  -2.743 -11.847  1.00  0.00     0.173 A 
ATOM     69  C   UNL     1       8.156  -3.303 -13.177  1.00  0.00     0.173 A 
ATOM     70  F   UNL     1      10.792  -2.830 -10.711  1.00  0.00    -0.203 F 
ATOM     71  C   UNL     1      10.546  -1.919 -12.864  1.00  0.00     0.198 A 
ATOM     72  C   UNL     1       8.646  -2.511 -14.210  1.00  0.00     0.198 A 
ATOM     73  F   UNL     1       6.993  -3.949 -13.351  1.00  0.00    -0.203 F 
ATOM     74  F   UNL     1      11.675  -1.218 -12.692  1.00  0.00    -0.200 F 
ATOM     75  C   UNL     1       9.834  -1.813 -14.050  1.00  0.00     0.200 A 
ATOM     76  F   UNL     1       7.967  -2.422 -15.362  1.00  0.00    -0.200 F 
ATOM     77  F   UNL     1      10.293  -1.035 -15.038  1.00  0.00    -0.200 F 
ENDBRANCH  53  67
BRANCH  54  78
ATOM     78  C   UNL     1       4.999  -9.033  -4.776  1.00  0.00     0.064 A 
ATOM     79  C   UNL     1       5.682 -10.102  -4.168  1.00  0.00     0.173 A 
ATOM     80  C   UNL     1       3.633  -8.900  -4.486  1.00  0.00     0.173 A 
ATOM     81  F   UNL     1       6.982 -10.299  -4.433  1.00  0.00    -0.203 F 
ATOM     82  C   UNL     1       5.016 -11.033  -3.369  1.00  0.00     0.198 A 
ATOM     83  C   UNL     1       2.976  -9.810  -3.653  1.00  0.00     0.198 A 
ATOM     84  F   UNL     1       2.924  -7.901  -5.032  1.00  0.00    -0.203 F 
ATOM     85  F   UNL     1       5.677 -12.097  -2.893  1.00  0.00    -0.200 F 
ATOM     86  C   UNL     1       3.663 -10.887  -3.113  1.00  0.00     0.200 A 
ATOM     87  F   UNL     1       1.669  -9.661  -3.399  1.00  0.00    -0.200 F 
ATOM     88  F   UNL     1       3.018 -11.795  -2.368  1.00  0.00    -0.200 F 
ENDBRANCH  54  78
BRANCH  66  89
ATOM     89  C   UNL     1       7.691 -10.455 -11.039  1.00  0.00     0.064 A 
ATOM     90  C   UNL     1       6.601 -11.140 -11.595  1.00  0.00     0.173 A 
ATOM     91  C   UNL     1       8.980 -10.942 -11.310  1.00  0.00     0.173 A 
ATOM     92  F   UNL     1       5.348 -10.723 -11.355  1.00  0.00    -0.203 F 
ATOM     93  C   UNL     1       6.794 -12.271 -12.382  1.00  0.00     0.198 A 
ATOM     94  C   UNL     1       9.171 -12.051 -12.128  1.00  0.00     0.198 A 
ATOM     95  F   UNL     1      10.057 -10.319 -10.809  1.00  0.00    -0.203 F 
ATOM     96  F   UNL     1       5.736 -12.931 -12.874  1.00  0.00    -0.200 F 
ATOM     97  C   UNL     1       8.078 -12.718 -12.660  1.00  0.00     0.200 A 
ATOM     98  F   UNL     1      10.413 -12.466 -12.412  1.00  0.00    -0.200 F 
ATOM     99  F   UNL     1       8.262 -13.791 -13.440  1.00  0.00    -0.200 F 
ENDBRANCH  66  89
ENDBRANCH  40  41
ENDBRANCH  33  35
ENDBRANCH  32  33
ENDBRANCH  31  32
ENDBRANCH  30  31
ENDBRANCH   1  30
TORSDOF 17
