REMARK SMILES COc1cccc(NC(=O)[C@@H]2[C@@H](C(=O)OCCOCCOC(=O)c3ccc(-c4c5nc(c(-c6c(F)c(F)c(F)c(F)c6F)c6ccc([nH]6)c(-c6c(F)c(F)c(F)c(F)c6F)c6nc(c(-c7c(F)c(F)c(F)c(F)c7F)c7ccc4[nH]7)C=C6)C=C5)cc3)[C@H]3C=C[C@@H]2C3)c1
REMARK SMILES IDX 17 1 16 2 15 3 13 4 14 5 12 6 11 7 90 8 87 9 89 10 91 11
REMARK SMILES IDX 88 12 9 13 8 14 10 16 7 17 3 18 4 19 92 20 5 21 6 22 2 23
REMARK SMILES IDX 1 24 18 25 19 26 20 27 21 28 22 29 23 30 24 31 25 32 86 33
REMARK SMILES IDX 26 34 85 35 27 36 28 37 29 38 79 39 30 40 84 41 78 42 80 43
REMARK SMILES IDX 31 44 83 45 77 46 76 47 32 49 64 50 44 51 63 52 45 53 48 54
REMARK SMILES IDX 62 55 81 56 46 57 47 58 61 60 82 61 49 62 33 63 34 64 42 65
REMARK SMILES IDX 35 66 36 67 40 68 43 69 37 70 38 71 41 72 39 73 65 74 66 75
REMARK SMILES IDX 74 76 67 77 68 78 72 79 75 80 69 81 70 82 73 83 71 84 50 85
REMARK SMILES IDX 51 86 59 87 52 88 53 89 57 90 60 91 54 92 55 93 58 94 56 95
REMARK H PARENT 8 15 80 48 48 59
REMARK Flexibility Score: inf
ROOT
ATOM      1  C   UNL     1      -0.850   0.535   7.553  1.00  0.00     0.202 C 
ENDROOT
BRANCH   1   2
ATOM      2  C   UNL     1       0.380   0.761   8.438  1.00  0.00     0.261 C 
BRANCH   2   3
ATOM      3  O   UNL     1       1.641   0.317   7.900  1.00  0.00    -0.463 OA
BRANCH   3   4
ATOM      4  C   UNL     1       1.971  -0.972   8.214  1.00  0.00     0.310 C 
ATOM      5  O   UNL     1       1.221  -1.721   8.823  1.00  0.00    -0.252 OA
BRANCH   4   6
ATOM      6  C   UNL     1       3.378  -1.337   7.726  1.00  0.00     0.119 C 
ATOM      7  C   UNL     1       3.469  -2.502   6.645  1.00  0.00     0.100 C 
ATOM      8  C   UNL     1       4.322  -3.551   7.430  1.00  0.00     0.025 C 
ATOM      9  C   UNL     1       4.187  -1.904   8.939  1.00  0.00     0.027 C 
ATOM     10  C   UNL     1       3.509  -4.076   8.591  1.00  0.00    -0.027 C 
ATOM     11  C   UNL     1       5.299  -2.675   8.244  1.00  0.00     0.017 C 
ATOM     12  C   UNL     1       3.476  -3.108   9.519  1.00  0.00    -0.027 C 
BRANCH   7  13
ATOM     13  C   UNL     1       4.282  -2.117   5.394  1.00  0.00     0.228 C 
ATOM     14  N   UNL     1       3.856  -2.063   4.110  1.00  0.00    -0.326 N 
ATOM     15  H   UNL     1       4.586  -1.786   3.510  1.00  0.00     0.169 HD
ATOM     16  O   UNL     1       5.458  -1.740   5.515  1.00  0.00    -0.274 OA
BRANCH  14  17
ATOM     17  C   UNL     1       2.679  -2.287   3.389  1.00  0.00     0.044 A 
ATOM     18  C   UNL     1       1.238  -1.312   1.684  1.00  0.00     0.120 A 
ATOM     19  C   UNL     1       0.217  -2.185   2.041  1.00  0.00     0.046 A 
ATOM     20  C   UNL     1       2.484  -1.406   2.303  1.00  0.00     0.072 A 
ATOM     21  C   UNL     1       0.453  -3.157   3.023  1.00  0.00     0.006 A 
ATOM     22  C   UNL     1       1.677  -3.195   3.718  1.00  0.00     0.026 A 
BRANCH  18  23
ATOM     23  O   UNL     1       0.933  -0.167   0.994  1.00  0.00    -0.497 OA
ATOM     24  C   UNL     1       1.157  -0.300  -0.402  1.00  0.00     0.278 C 
ENDBRANCH  18  23
ENDBRANCH  14  17
ENDBRANCH   7  13
ENDBRANCH   4   6
ENDBRANCH   3   4
ENDBRANCH   2   3
ENDBRANCH   1   2
BRANCH   1  25
ATOM     25  O   UNL     1      -1.028  -0.750   7.000  1.00  0.00    -0.374 OA
BRANCH  25  26
ATOM     26  C   UNL     1      -0.192  -1.218   5.955  1.00  0.00     0.202 C 
BRANCH  26  27
ATOM     27  C   UNL     1       0.793  -0.316   5.205  1.00  0.00     0.261 C 
BRANCH  27  28
ATOM     28  O   UNL     1       0.479   1.049   5.059  1.00  0.00    -0.460 OA
BRANCH  28  29
ATOM     29  C   UNL     1      -0.500   1.300   4.169  1.00  0.00     0.338 C 
ATOM     30  O   UNL     1      -1.227   0.528   3.573  1.00  0.00    -0.246 OA
BRANCH  29  31
ATOM     31  C   UNL     1      -0.604   2.748   4.188  1.00  0.00     0.060 A 
ATOM     32  C   UNL     1      -1.708   3.305   4.830  1.00  0.00     0.016 A 
ATOM     33  C   UNL     1       0.457   3.521   3.702  1.00  0.00     0.016 A 
ATOM     34  C   UNL     1      -1.766   4.678   4.974  1.00  0.00     0.010 A 
ATOM     35  C   UNL     1       0.400   4.896   3.856  1.00  0.00     0.010 A 
ATOM     36  C   UNL     1      -0.720   5.470   4.477  1.00  0.00    -0.014 A 
BRANCH  36  37
ATOM     37  C   UNL     1      -0.857   6.931   4.527  1.00  0.00     0.031 A 
ATOM     38  C   UNL     1      -1.258   7.647   3.278  1.00  0.00     0.074 A 
ATOM     39  C   UNL     1      -0.653   7.566   5.692  1.00  0.00     0.049 A 
ATOM     40  N   UNL     1      -1.449   8.924   3.085  1.00  0.00    -0.248 NA
ATOM     41  C   UNL     1      -1.468   6.815   2.081  1.00  0.00     0.031 C 
ATOM     42  C   UNL     1      -0.275   6.918   6.950  1.00  0.00     0.029 A 
ATOM     43  N   UNL     1      -0.741   8.893   6.009  1.00  0.00    -0.354 N 
ATOM     44  C   UNL     1      -1.798   9.047   1.748  1.00  0.00     0.074 A 
ATOM     45  C   UNL     1      -1.755   7.726   1.164  1.00  0.00     0.031 C 
ATOM     46  C   UNL     1      -0.172   7.854   7.908  1.00  0.00     0.029 A 
ATOM     47  C   UNL     1      -0.440   9.162   7.320  1.00  0.00     0.049 A 
ATOM     48  H   UNL     1      -0.996   9.588   5.359  1.00  0.00     0.167 HD
ATOM     49  C   UNL     1      -2.134  10.174   1.081  1.00  0.00     0.037 A 
ATOM     50  C   UNL     1      -0.377  10.345   7.956  1.00  0.00     0.037 A 
ATOM     51  C   UNL     1      -2.164  11.473   1.696  1.00  0.00     0.049 A 
ATOM     52  C   UNL     1      -0.708  11.587   7.171  1.00  0.00     0.074 A 
ATOM     53  C   UNL     1      -2.504  12.688   1.133  1.00  0.00     0.029 A 
ATOM     54  N   UNL     1      -1.831  11.720   3.023  1.00  0.00    -0.354 N 
ATOM     55  N   UNL     1      -1.076  11.700   5.915  1.00  0.00    -0.248 NA
ATOM     56  C   UNL     1      -0.622  12.864   7.888  1.00  0.00     0.031 C 
ATOM     57  C   UNL     1      -2.320  13.679   2.103  1.00  0.00     0.029 A 
ATOM     58  C   UNL     1      -1.931  13.074   3.290  1.00  0.00     0.049 A 
ATOM     59  H   UNL     1      -1.564  11.034   3.676  1.00  0.00     0.167 HD
ATOM     60  C   UNL     1      -1.294  13.053   5.700  1.00  0.00     0.074 A 
ATOM     61  C   UNL     1      -1.035  13.717   6.963  1.00  0.00     0.031 C 
ATOM     62  C   UNL     1      -1.673  13.694   4.566  1.00  0.00     0.037 A 
BRANCH  49  63
ATOM     63  C   UNL     1      -2.458  10.051  -0.379  1.00  0.00     0.064 A 
ATOM     64  C   UNL     1      -3.624   9.411  -0.828  1.00  0.00     0.173 A 
ATOM     65  C   UNL     1      -1.601  10.602  -1.343  1.00  0.00     0.173 A 
ATOM     66  F   UNL     1      -4.467   8.847   0.050  1.00  0.00    -0.203 F 
ATOM     67  C   UNL     1      -3.908   9.312  -2.188  1.00  0.00     0.198 A 
ATOM     68  C   UNL     1      -1.904  10.528  -2.699  1.00  0.00     0.198 A 
ATOM     69  F   UNL     1      -0.470  11.219  -0.968  1.00  0.00    -0.203 F 
ATOM     70  F   UNL     1      -5.003   8.655  -2.596  1.00  0.00    -0.200 F 
ATOM     71  C   UNL     1      -3.054   9.878  -3.122  1.00  0.00     0.200 A 
ATOM     72  F   UNL     1      -1.081  11.083  -3.599  1.00  0.00    -0.200 F 
ATOM     73  F   UNL     1      -3.333   9.790  -4.429  1.00  0.00    -0.200 F 
ENDBRANCH  49  63
BRANCH  50  74
ATOM     74  C   UNL     1       0.012  10.409   9.389  1.00  0.00     0.064 A 
ATOM     75  C   UNL     1      -0.894  10.838  10.369  1.00  0.00     0.173 A 
ATOM     76  C   UNL     1       1.304  10.056   9.809  1.00  0.00     0.173 A 
ATOM     77  F   UNL     1      -2.137  11.200  10.019  1.00  0.00    -0.203 F 
ATOM     78  C   UNL     1      -0.514  10.941  11.706  1.00  0.00     0.198 A 
ATOM     79  C   UNL     1       1.672  10.127  11.151  1.00  0.00     0.198 A 
ATOM     80  F   UNL     1       2.209   9.631   8.915  1.00  0.00    -0.203 F 
ATOM     81  F   UNL     1      -1.385  11.407  12.612  1.00  0.00    -0.200 F 
ATOM     82  C   UNL     1       0.766  10.581  12.097  1.00  0.00     0.200 A 
ATOM     83  F   UNL     1       2.905   9.760  11.525  1.00  0.00    -0.200 F 
ATOM     84  F   UNL     1       1.130  10.679  13.382  1.00  0.00    -0.200 F 
ENDBRANCH  50  74
BRANCH  62  85
ATOM     85  C   UNL     1      -1.868  15.178   4.659  1.00  0.00     0.064 A 
ATOM     86  C   UNL     1      -0.786  16.057   4.807  1.00  0.00     0.173 A 
ATOM     87  C   UNL     1      -3.155  15.727   4.555  1.00  0.00     0.173 A 
ATOM     88  F   UNL     1       0.462  15.579   4.925  1.00  0.00    -0.203 F 
ATOM     89  C   UNL     1      -0.989  17.432   4.881  1.00  0.00     0.198 A 
ATOM     90  C   UNL     1      -3.350  17.104   4.590  1.00  0.00     0.198 A 
ATOM     91  F   UNL     1      -4.222  14.928   4.401  1.00  0.00    -0.203 F 
ATOM     92  F   UNL     1       0.053  18.250   5.080  1.00  0.00    -0.200 F 
ATOM     93  C   UNL     1      -2.269  17.954   4.763  1.00  0.00     0.200 A 
ATOM     94  F   UNL     1      -4.585  17.607   4.457  1.00  0.00    -0.200 F 
ATOM     95  F   UNL     1      -2.461  19.279   4.824  1.00  0.00    -0.200 F 
ENDBRANCH  62  85
ENDBRANCH  36  37
ENDBRANCH  29  31
ENDBRANCH  28  29
ENDBRANCH  27  28
ENDBRANCH  26  27
ENDBRANCH  25  26
ENDBRANCH   1  25
TORSDOF 17
