REMARK SMILES Cn1ccc(C(=O)NCc2ccc(C(=O)OCCOCCOC(=O)c3ccc(-c4c5nc(c(-c6c(F)c(F)c(F)c(F)c6F)c6ccc([nH]6)c(-c6c(F)c(F)c(F)c(F)c6F)c6nc(c(-c7c(F)c(F)c(F)c(F)c7F)c7ccc4[nH]7)C=C6)C=C5)cc3)cc2)cc1=O
REMARK SMILES IDX 18 1 17 2 16 3 14 4 15 5 13 6 10 7 11 8 89 9 12 10 88 11
REMARK SMILES IDX 9 12 8 13 6 14 7 15 5 17 1 18 2 19 3 20 91 21 4 22 90 23
REMARK SMILES IDX 92 24 19 25 20 26 21 27 22 28 23 29 24 30 25 31 26 32 87 33
REMARK SMILES IDX 27 34 86 35 28 36 29 37 30 38 80 39 31 40 85 41 79 42 81 43
REMARK SMILES IDX 32 44 84 45 78 46 77 47 33 49 65 50 45 51 64 52 46 53 49 54
REMARK SMILES IDX 63 55 82 56 47 57 48 58 62 60 83 61 50 62 34 63 35 64 43 65
REMARK SMILES IDX 36 66 37 67 41 68 44 69 38 70 39 71 42 72 40 73 66 74 67 75
REMARK SMILES IDX 75 76 68 77 69 78 73 79 76 80 70 81 71 82 74 83 72 84 51 85
REMARK SMILES IDX 52 86 60 87 53 88 54 89 58 90 61 91 55 92 56 93 59 94 57 95
REMARK H PARENT 8 16 81 48 49 59
REMARK Flexibility Score: inf
ROOT
ATOM      1  C   UNL     1       2.231   9.101   6.234  1.00  0.00     0.202 C 
ENDROOT
BRANCH   1   2
ATOM      2  C   UNL     1       1.705   7.695   6.542  1.00  0.00     0.261 C 
BRANCH   2   3
ATOM      3  O   UNL     1       1.950   6.801   5.443  1.00  0.00    -0.460 OA
BRANCH   3   4
ATOM      4  C   UNL     1       0.843   6.364   4.795  1.00  0.00     0.338 C 
ATOM      5  O   UNL     1      -0.318   6.533   5.138  1.00  0.00    -0.246 OA
BRANCH   4   6
ATOM      6  C   UNL     1       1.216   5.762   3.492  1.00  0.00     0.060 A 
ATOM      7  C   UNL     1       1.802   4.649   0.969  1.00  0.00    -0.029 A 
ATOM      8  C   UNL     1       0.595   5.329   1.186  1.00  0.00     0.006 A 
ATOM      9  C   UNL     1       2.731   4.581   2.024  1.00  0.00     0.006 A 
ATOM     10  C   UNL     1       0.300   5.870   2.439  1.00  0.00     0.016 A 
ATOM     11  C   UNL     1       2.443   5.130   3.279  1.00  0.00     0.016 A 
BRANCH   7  12
ATOM     12  C   UNL     1       2.079   4.051  -0.394  1.00  0.00     0.152 C 
BRANCH  12  13
ATOM     13  N   UNL     1       3.050   2.979  -0.338  1.00  0.00    -0.348 N 
ATOM     14  C   UNL     1       2.975   1.645  -0.117  1.00  0.00     0.251 C 
ATOM     15  O   UNL     1       4.055   1.048  -0.043  1.00  0.00    -0.269 OA
ATOM     16  H   UNL     1       3.971   3.288  -0.496  1.00  0.00     0.164 HD
BRANCH  14  17
ATOM     17  C   UNL     1       1.696   0.860  -0.029  1.00  0.00     0.046 A 
ATOM     18  C   UNL     1      -1.675  -1.745   0.034  1.00  0.00     0.153 C 
ATOM     19  N   UNL     1      -0.532  -0.844   0.041  1.00  0.00    -0.319 N 
ATOM     20  C   UNL     1       0.719  -1.365  -0.216  1.00  0.00     0.089 A 
ATOM     21  C   UNL     1      -0.722   0.504   0.320  1.00  0.00     0.251 A 
ATOM     22  C   UNL     1       1.797  -0.577  -0.261  1.00  0.00     0.032 A 
ATOM     23  C   UNL     1       0.498   1.359   0.311  1.00  0.00     0.085 A 
ATOM     24  O   UNL     1      -1.807   1.028   0.559  1.00  0.00    -0.269 OA
ENDBRANCH  14  17
ENDBRANCH  12  13
ENDBRANCH   7  12
ENDBRANCH   4   6
ENDBRANCH   3   4
ENDBRANCH   2   3
ENDBRANCH   1   2
BRANCH   1  25
ATOM     25  O   UNL     1       1.576   9.786   5.167  1.00  0.00    -0.374 OA
BRANCH  25  26
ATOM     26  C   UNL     1       2.000   9.470   3.840  1.00  0.00     0.202 C 
BRANCH  26  27
ATOM     27  C   UNL     1       3.275  10.176   3.363  1.00  0.00     0.261 C 
BRANCH  27  28
ATOM     28  O   UNL     1       4.436   9.721   4.082  1.00  0.00    -0.460 OA
BRANCH  28  29
ATOM     29  C   UNL     1       4.981  10.634   4.919  1.00  0.00     0.338 C 
ATOM     30  O   UNL     1       4.660  11.806   5.053  1.00  0.00    -0.246 OA
BRANCH  29  31
ATOM     31  C   UNL     1       5.954   9.980   5.814  1.00  0.00     0.060 A 
ATOM     32  C   UNL     1       5.811  10.197   7.190  1.00  0.00     0.016 A 
ATOM     33  C   UNL     1       7.027   9.234   5.322  1.00  0.00     0.016 A 
ATOM     34  C   UNL     1       6.769   9.712   8.078  1.00  0.00     0.010 A 
ATOM     35  C   UNL     1       7.992   8.753   6.215  1.00  0.00     0.010 A 
ATOM     36  C   UNL     1       7.886   9.020   7.592  1.00  0.00    -0.014 A 
BRANCH  36  37
ATOM     37  C   UNL     1       9.004   8.700   8.512  1.00  0.00     0.031 A 
ATOM     38  C   UNL     1      10.220   9.585   8.524  1.00  0.00     0.074 A 
ATOM     39  C   UNL     1       8.928   7.646   9.345  1.00  0.00     0.049 A 
ATOM     40  N   UNL     1      11.320   9.478   9.225  1.00  0.00    -0.248 NA
ATOM     41  C   UNL     1      10.194  10.746   7.620  1.00  0.00     0.031 C 
ATOM     42  C   UNL     1       7.795   6.729   9.443  1.00  0.00     0.029 A 
ATOM     43  N   UNL     1       9.833   7.165  10.259  1.00  0.00    -0.354 N 
ATOM     44  C   UNL     1      12.119  10.547   8.840  1.00  0.00     0.074 A 
ATOM     45  C   UNL     1      11.389  11.278   7.827  1.00  0.00     0.031 C 
ATOM     46  C   UNL     1       8.078   5.784  10.355  1.00  0.00     0.029 A 
ATOM     47  C   UNL     1       9.422   6.014  10.884  1.00  0.00     0.049 A 
ATOM     48  H   UNL     1      10.694   7.604  10.448  1.00  0.00     0.167 HD
ATOM     49  C   UNL     1      13.346  10.890   9.297  1.00  0.00     0.037 A 
ATOM     50  C   UNL     1      10.068   5.225  11.764  1.00  0.00     0.037 A 
ATOM     51  C   UNL     1      14.063  10.171  10.317  1.00  0.00     0.049 A 
ATOM     52  C   UNL     1      11.451   5.608  12.226  1.00  0.00     0.074 A 
ATOM     53  C   UNL     1      15.291  10.470  10.881  1.00  0.00     0.029 A 
ATOM     54  N   UNL     1      13.620   9.004  10.920  1.00  0.00    -0.354 N 
ATOM     55  N   UNL     1      12.178   6.647  11.893  1.00  0.00    -0.248 NA
ATOM     56  C   UNL     1      12.100   4.711  13.193  1.00  0.00     0.031 C 
ATOM     57  C   UNL     1      15.615   9.455  11.787  1.00  0.00     0.029 A 
ATOM     58  C   UNL     1      14.565   8.553  11.828  1.00  0.00     0.049 A 
ATOM     59  H   UNL     1      12.761   8.561  10.731  1.00  0.00     0.167 HD
ATOM     60  C   UNL     1      13.353   6.544  12.626  1.00  0.00     0.074 A 
ATOM     61  C   UNL     1      13.237   5.348  13.434  1.00  0.00     0.031 C 
ATOM     62  C   UNL     1      14.432   7.365  12.630  1.00  0.00     0.037 A 
BRANCH  49  63
ATOM     63  C   UNL     1      14.011  12.085   8.681  1.00  0.00     0.064 A 
ATOM     64  C   UNL     1      13.582  13.392   8.955  1.00  0.00     0.173 A 
ATOM     65  C   UNL     1      15.129  11.921   7.849  1.00  0.00     0.173 A 
ATOM     66  F   UNL     1      12.511  13.602   9.735  1.00  0.00    -0.203 F 
ATOM     67  C   UNL     1      14.237  14.491   8.402  1.00  0.00     0.198 A 
ATOM     68  C   UNL     1      15.797  13.022   7.320  1.00  0.00     0.198 A 
ATOM     69  F   UNL     1      15.582  10.692   7.560  1.00  0.00    -0.203 F 
ATOM     70  F   UNL     1      13.788  15.729   8.648  1.00  0.00    -0.200 F 
ATOM     71  C   UNL     1      15.348  14.305   7.593  1.00  0.00     0.200 A 
ATOM     72  F   UNL     1      16.877  12.841   6.548  1.00  0.00    -0.200 F 
ATOM     73  F   UNL     1      15.984  15.363   7.072  1.00  0.00    -0.200 F 
ENDBRANCH  49  63
BRANCH  50  74
ATOM     74  C   UNL     1       9.425   3.978  12.255  1.00  0.00     0.064 A 
ATOM     75  C   UNL     1       9.026   3.843  13.592  1.00  0.00     0.173 A 
ATOM     76  C   UNL     1       9.224   2.884  11.400  1.00  0.00     0.173 A 
ATOM     77  F   UNL     1       9.222   4.851  14.454  1.00  0.00    -0.203 F 
ATOM     78  C   UNL     1       8.471   2.654  14.060  1.00  0.00     0.198 A 
ATOM     79  C   UNL     1       8.642   1.706  11.863  1.00  0.00     0.198 A 
ATOM     80  F   UNL     1       9.590   2.961  10.113  1.00  0.00    -0.203 F 
ATOM     81  F   UNL     1       8.147   2.533  15.355  1.00  0.00    -0.200 F 
ATOM     82  C   UNL     1       8.274   1.588  13.194  1.00  0.00     0.200 A 
ATOM     83  F   UNL     1       8.444   0.683  11.020  1.00  0.00    -0.200 F 
ATOM     84  F   UNL     1       7.742   0.445  13.646  1.00  0.00    -0.200 F 
ENDBRANCH  50  74
BRANCH  62  85
ATOM     85  C   UNL     1      15.560   7.019  13.560  1.00  0.00     0.064 A 
ATOM     86  C   UNL     1      16.409   5.931  13.314  1.00  0.00     0.173 A 
ATOM     87  C   UNL     1      15.818   7.814  14.688  1.00  0.00     0.173 A 
ATOM     88  F   UNL     1      16.195   5.133  12.257  1.00  0.00    -0.203 F 
ATOM     89  C   UNL     1      17.461   5.635  14.178  1.00  0.00     0.198 A 
ATOM     90  C   UNL     1      16.889   7.533  15.532  1.00  0.00     0.198 A 
ATOM     91  F   UNL     1      15.041   8.871  14.963  1.00  0.00    -0.203 F 
ATOM     92  F   UNL     1      18.231   4.562  13.950  1.00  0.00    -0.200 F 
ATOM     93  C   UNL     1      17.704   6.440  15.281  1.00  0.00     0.200 A 
ATOM     94  F   UNL     1      17.131   8.320  16.589  1.00  0.00    -0.200 F 
ATOM     95  F   UNL     1      18.721   6.157  16.107  1.00  0.00    -0.200 F 
ENDBRANCH  62  85
ENDBRANCH  36  37
ENDBRANCH  29  31
ENDBRANCH  28  29
ENDBRANCH  27  28
ENDBRANCH  26  27
ENDBRANCH  25  26
ENDBRANCH   1  25
TORSDOF 17
