REMARK SMILES CC/C(C)=N/[NH+]=C1/NC(=O)[C@H](CC(=O)OCCOCCOC(=O)c2ccc(-c3c4nc(c(-c5c(F)c(F)c(F)c(F)c5F)c5ccc([nH]5)c(-c5c(F)c(F)c(F)c(F)c5F)c5nc(c(-c6c(F)c(F)c(F)c(F)c6F)c6ccc3[nH]6)C=C5)C=C4)cc2)S1
REMARK SMILES IDX 17 1 16 2 15 3 13 4 14 5 12 6 11 7 6 8 7 9 8 11 87 12 9 13
REMARK SMILES IDX 10 15 5 16 3 17 4 18 2 19 1 20 18 21 19 22 20 23 21 24 22 25
REMARK SMILES IDX 23 26 24 27 25 28 86 29 26 30 85 31 27 32 28 33 29 34 79 35
REMARK SMILES IDX 30 36 84 37 78 38 80 39 31 40 83 41 77 42 76 43 32 45 64 46
REMARK SMILES IDX 44 47 63 48 45 49 48 50 62 51 81 52 46 53 47 54 61 56 82 57
REMARK SMILES IDX 49 58 33 59 34 60 42 61 35 62 36 63 40 64 43 65 37 66 38 67
REMARK SMILES IDX 41 68 39 69 65 70 66 71 74 72 67 73 68 74 72 75 75 76 69 77
REMARK SMILES IDX 70 78 73 79 71 80 50 81 51 82 59 83 52 84 53 85 57 86 60 87
REMARK SMILES IDX 54 88 55 89 58 90 56 91
REMARK H PARENT 6 10 8 14 80 44 48 55
REMARK Flexibility Score: inf
ROOT
ATOM      1  C   UNL     1       1.292 -10.917   4.780  1.00  0.00     0.202 C 
ENDROOT
BRANCH   1   2
ATOM      2  C   UNL     1       2.065 -11.117   3.475  1.00  0.00     0.261 C 
BRANCH   2   3
ATOM      3  O   UNL     1       2.287  -9.868   2.798  1.00  0.00    -0.463 OA
BRANCH   3   4
ATOM      4  C   UNL     1       1.524  -9.603   1.714  1.00  0.00     0.307 C 
ATOM      5  O   UNL     1       0.663 -10.340   1.255  1.00  0.00    -0.252 OA
BRANCH   4   6
ATOM      6  C   UNL     1       1.883  -8.272   1.108  1.00  0.00     0.150 C 
BRANCH   6   7
ATOM      7  C   UNL     1       1.526  -7.086   1.984  1.00  0.00     0.184 C 
ATOM      8  N   UNL     1       2.452  -3.339   2.207  1.00  0.00    -0.142 N 
ATOM      9  C   UNL     1       2.295  -4.619   2.161  1.00  0.00     0.337 C 
ATOM     10  H   UNL     1       2.823  -2.882   2.996  1.00  0.00     0.343 HD
ATOM     11  N   UNL     1       2.759  -5.403   3.157  1.00  0.00    -0.202 N 
ATOM     12  S   UNL     1       1.506  -5.577   0.945  1.00  0.00    -0.020 SA
ATOM     13  C   UNL     1       2.509  -6.743   3.100  1.00  0.00     0.322 C 
ATOM     14  H   UNL     1       3.266  -5.017   3.907  1.00  0.00     0.316 HD
ATOM     15  O   UNL     1       2.972  -7.523   3.919  1.00  0.00    -0.246 OA
BRANCH   8  16
ATOM     16  N   UNL     1       2.061  -2.648   1.063  1.00  0.00    -0.095 NA
ATOM     17  C   UNL     1       0.842  -2.196   1.046  1.00  0.00     0.058 C 
ATOM     18  C   UNL     1      -0.175  -2.417   2.139  1.00  0.00     0.066 C 
BRANCH  17  19
ATOM     19  C   UNL     1       0.410  -1.419  -0.179  1.00  0.00     0.052 C 
ATOM     20  C   UNL     1       0.843   0.028  -0.047  1.00  0.00     0.010 C 
ENDBRANCH  17  19
ENDBRANCH   8  16
ENDBRANCH   6   7
ENDBRANCH   4   6
ENDBRANCH   3   4
ENDBRANCH   2   3
ENDBRANCH   1   2
BRANCH   1  21
ATOM     21  O   UNL     1      -0.110 -10.692   4.627  1.00  0.00    -0.374 OA
BRANCH  21  22
ATOM     22  C   UNL     1      -0.508  -9.339   4.414  1.00  0.00     0.202 C 
BRANCH  22  23
ATOM     23  C   UNL     1      -0.684  -8.501   5.686  1.00  0.00     0.261 C 
BRANCH  23  24
ATOM     24  O   UNL     1       0.585  -8.218   6.305  1.00  0.00    -0.460 OA
BRANCH  24  25
ATOM     25  C   UNL     1       0.840  -8.926   7.428  1.00  0.00     0.338 C 
ATOM     26  O   UNL     1       0.066  -9.661   8.029  1.00  0.00    -0.246 OA
BRANCH  25  27
ATOM     27  C   UNL     1       2.271  -8.846   7.775  1.00  0.00     0.060 A 
ATOM     28  C   UNL     1       2.927 -10.049   8.069  1.00  0.00     0.016 A 
ATOM     29  C   UNL     1       2.949  -7.629   7.878  1.00  0.00     0.016 A 
ATOM     30  C   UNL     1       4.243 -10.038   8.523  1.00  0.00     0.010 A 
ATOM     31  C   UNL     1       4.271  -7.619   8.340  1.00  0.00     0.010 A 
ATOM     32  C   UNL     1       4.911  -8.819   8.701  1.00  0.00    -0.014 A 
BRANCH  32  33
ATOM     33  C   UNL     1       6.217  -8.802   9.405  1.00  0.00     0.031 A 
ATOM     34  C   UNL     1       6.258  -8.415  10.858  1.00  0.00     0.074 A 
ATOM     35  C   UNL     1       7.346  -9.169   8.775  1.00  0.00     0.049 A 
ATOM     36  N   UNL     1       7.284  -8.321  11.666  1.00  0.00    -0.248 NA
ATOM     37  C   UNL     1       4.967  -8.091  11.483  1.00  0.00     0.031 C 
ATOM     38  C   UNL     1       7.432  -9.607   7.384  1.00  0.00     0.029 A 
ATOM     39  N   UNL     1       8.640  -9.231   9.230  1.00  0.00    -0.354 N 
ATOM     40  C   UNL     1       6.763  -7.921  12.891  1.00  0.00     0.074 A 
ATOM     41  C   UNL     1       5.337  -7.756  12.710  1.00  0.00     0.031 C 
ATOM     42  C   UNL     1       8.713  -9.891   7.096  1.00  0.00     0.029 A 
ATOM     43  C   UNL     1       9.541  -9.623   8.272  1.00  0.00     0.049 A 
ATOM     44  H   UNL     1       8.898  -9.014  10.155  1.00  0.00     0.167 HD
ATOM     45  C   UNL     1       7.414  -7.721  14.062  1.00  0.00     0.037 A 
ATOM     46  C   UNL     1      10.882  -9.736   8.333  1.00  0.00     0.037 A 
ATOM     47  C   UNL     1       8.833  -7.886  14.241  1.00  0.00     0.049 A 
ATOM     48  C   UNL     1      11.594  -9.430   9.626  1.00  0.00     0.074 A 
ATOM     49  C   UNL     1       9.583  -7.726  15.393  1.00  0.00     0.029 A 
ATOM     50  N   UNL     1       9.719  -8.240  13.234  1.00  0.00    -0.354 N 
ATOM     51  N   UNL     1      11.093  -9.077  10.785  1.00  0.00    -0.248 NA
ATOM     52  C   UNL     1      13.059  -9.541   9.617  1.00  0.00     0.031 C 
ATOM     53  C   UNL     1      10.929  -7.927  15.070  1.00  0.00     0.029 A 
ATOM     54  C   UNL     1      11.013  -8.272  13.731  1.00  0.00     0.049 A 
ATOM     55  H   UNL     1       9.467  -8.438  12.303  1.00  0.00     0.167 HD
ATOM     56  C   UNL     1      12.175  -8.954  11.649  1.00  0.00     0.074 A 
ATOM     57  C   UNL     1      13.359  -9.281  10.882  1.00  0.00     0.031 C 
ATOM     58  C   UNL     1      12.184  -8.604  12.959  1.00  0.00     0.037 A 
BRANCH  45  59
ATOM     59  C   UNL     1       6.595  -7.269  15.237  1.00  0.00     0.064 A 
ATOM     60  C   UNL     1       5.676  -8.120  15.870  1.00  0.00     0.173 A 
ATOM     61  C   UNL     1       6.745  -5.971  15.748  1.00  0.00     0.173 A 
ATOM     62  F   UNL     1       5.484  -9.367  15.414  1.00  0.00    -0.203 F 
ATOM     63  C   UNL     1       4.913  -7.676  16.949  1.00  0.00     0.198 A 
ATOM     64  C   UNL     1       6.004  -5.542  16.846  1.00  0.00     0.198 A 
ATOM     65  F   UNL     1       7.613  -5.118  15.184  1.00  0.00    -0.203 F 
ATOM     66  F   UNL     1       4.001  -8.488  17.501  1.00  0.00    -0.200 F 
ATOM     67  C   UNL     1       5.082  -6.391  17.439  1.00  0.00     0.200 A 
ATOM     68  F   UNL     1       6.179  -4.303  17.327  1.00  0.00    -0.200 F 
ATOM     69  F   UNL     1       4.350  -5.966  18.478  1.00  0.00    -0.200 F 
ENDBRANCH  45  59
BRANCH  46  70
ATOM     70  C   UNL     1      11.644 -10.156   7.128  1.00  0.00     0.064 A 
ATOM     71  C   UNL     1      12.291 -11.398   7.079  1.00  0.00     0.173 A 
ATOM     72  C   UNL     1      11.748  -9.321   6.006  1.00  0.00     0.173 A 
ATOM     73  F   UNL     1      12.244 -12.220   8.138  1.00  0.00    -0.203 F 
ATOM     74  C   UNL     1      13.022 -11.785   5.958  1.00  0.00     0.198 A 
ATOM     75  C   UNL     1      12.455  -9.720   4.874  1.00  0.00     0.198 A 
ATOM     76  F   UNL     1      11.151  -8.120   6.004  1.00  0.00    -0.203 F 
ATOM     77  F   UNL     1      13.666 -12.960   5.953  1.00  0.00    -0.200 F 
ATOM     78  C   UNL     1      13.098 -10.949   4.854  1.00  0.00     0.200 A 
ATOM     79  F   UNL     1      12.516  -8.915   3.806  1.00  0.00    -0.200 F 
ATOM     80  F   UNL     1      13.795 -11.324   3.773  1.00  0.00    -0.200 F 
ENDBRANCH  46  70
BRANCH  58  81
ATOM     81  C   UNL     1      13.512  -8.593  13.663  1.00  0.00     0.064 A 
ATOM     82  C   UNL     1      14.481  -7.613  13.399  1.00  0.00     0.173 A 
ATOM     83  C   UNL     1      13.802  -9.552  14.646  1.00  0.00     0.173 A 
ATOM     84  F   UNL     1      14.260  -6.681  12.459  1.00  0.00    -0.203 F 
ATOM     85  C   UNL     1      15.700  -7.610  14.074  1.00  0.00     0.198 A 
ATOM     86  C   UNL     1      15.008  -9.527  15.341  1.00  0.00     0.198 A 
ATOM     87  F   UNL     1      12.908 -10.507  14.944  1.00  0.00    -0.203 F 
ATOM     88  F   UNL     1      16.629  -6.694  13.770  1.00  0.00    -0.200 F 
ATOM     89  C   UNL     1      15.959  -8.562  15.049  1.00  0.00     0.200 A 
ATOM     90  F   UNL     1      15.250 -10.438  16.294  1.00  0.00    -0.200 F 
ATOM     91  F   UNL     1      17.129  -8.552  15.703  1.00  0.00    -0.200 F 
ENDBRANCH  58  81
ENDBRANCH  32  33
ENDBRANCH  25  27
ENDBRANCH  24  25
ENDBRANCH  23  24
ENDBRANCH  22  23
ENDBRANCH  21  22
ENDBRANCH   1  21
TORSDOF 17
