REMARK SMILES O=C(OCCOCCOC(=O)c1cc2c(c(S(=O)(=O)Nc3cc(C(F)(F)F)ccc3-n3cccn3)c1)CCC2)c1ccc(-c2c3nc(c(-c4c(F)c(F)c(F)c(F)c4F)c4ccc([nH]4)c(-c4c(F)c(F)c(F)c(F)c4F)c4nc(c(-c5c(F)c(F)c(F)c(F)c5F)c5ccc2[nH]5)C=C4)C=C3)cc1
REMARK SMILES IDX 7 1 6 2 5 3 4 4 3 5 2 6 1 7 40 8 41 9 102 10 42 11 101 12
REMARK SMILES IDX 43 13 44 14 45 15 95 16 46 17 100 18 94 19 96 20 47 21 99 22
REMARK SMILES IDX 93 23 92 24 48 26 80 27 60 28 79 29 61 30 64 31 78 32 97 33
REMARK SMILES IDX 62 34 63 35 77 37 98 38 65 39 49 40 50 41 58 42 51 43 52 44
REMARK SMILES IDX 56 45 59 46 53 47 54 48 57 49 55 50 81 51 82 52 90 53 83 54
REMARK SMILES IDX 84 55 88 56 91 57 85 58 86 59 89 60 87 61 66 62 67 63 75 64
REMARK SMILES IDX 68 65 69 66 73 67 76 68 70 69 71 70 74 71 72 72 8 73 9 74
REMARK SMILES IDX 10 75 11 76 12 77 13 78 36 79 14 80 16 81 15 82 39 83 37 84
REMARK SMILES IDX 38 85 17 86 18 87 19 88 20 89 21 91 22 92 30 93 23 94 29 95
REMARK SMILES IDX 28 96 31 97 32 98 35 99 33 100 34 101 24 102 25 103 26 104
REMARK SMILES IDX 27 105
REMARK H PARENT 96 25 64 36 20 90
REMARK Flexibility Score: inf
ROOT
ATOM      1  C   UNL     1       3.249  -1.368  -1.529  1.00  0.00     0.202 C 
ENDROOT
BRANCH   1   2
ATOM      2  O   UNL     1       4.601  -0.948  -1.349  1.00  0.00    -0.374 OA
BRANCH   2   3
ATOM      3  C   UNL     1       5.036  -0.859   0.009  1.00  0.00     0.202 C 
BRANCH   3   4
ATOM      4  C   UNL     1       4.470   0.046   1.100  1.00  0.00     0.261 C 
BRANCH   4   5
ATOM      5  O   UNL     1       3.043   0.121   1.116  1.00  0.00    -0.460 OA
BRANCH   5   6
ATOM      6  C   UNL     1       2.270   0.686   0.160  1.00  0.00     0.338 C 
ATOM      7  O   UNL     1       1.071   0.389   0.160  1.00  0.00    -0.246 OA
BRANCH   6   8
ATOM      8  C   UNL     1       2.756   1.568  -0.970  1.00  0.00     0.060 A 
ATOM      9  C   UNL     1       3.976   1.905  -1.490  1.00  0.00     0.016 A 
ATOM     10  C   UNL     1       1.749   2.420  -1.399  1.00  0.00     0.016 A 
ATOM     11  C   UNL     1       4.141   3.389  -1.609  1.00  0.00     0.010 A 
ATOM     12  C   UNL     1       1.984   3.692  -1.911  1.00  0.00     0.010 A 
ATOM     13  C   UNL     1       2.939   4.427  -1.246  1.00  0.00    -0.014 A 
BRANCH  13  14
ATOM     14  C   UNL     1       2.359   6.220  -1.300  1.00  0.00     0.031 A 
ATOM     15  C   UNL     1       2.962   5.907  -3.105  1.00  0.00     0.074 A 
ATOM     16  C   UNL     1       1.606   7.467  -0.271  1.00  0.00     0.049 A 
ATOM     17  N   UNL     1       4.248   5.711  -3.480  1.00  0.00    -0.248 NA
ATOM     18  C   UNL     1       2.463   4.949  -4.567  1.00  0.00     0.031 C 
ATOM     19  C   UNL     1       0.613   7.960   1.207  1.00  0.00     0.029 A 
ATOM     20  N   UNL     1       1.565   9.113  -0.106  1.00  0.00    -0.354 N 
ATOM     21  C   UNL     1       4.243   6.032  -4.873  1.00  0.00     0.074 A 
ATOM     22  C   UNL     1       3.272   5.331  -5.587  1.00  0.00     0.031 C 
ATOM     23  C   UNL     1      -0.096   9.211   1.526  1.00  0.00     0.029 A 
ATOM     24  C   UNL     1       0.385  10.006   0.403  1.00  0.00     0.049 A 
ATOM     25  H   UNL     1       2.387   9.591  -0.359  1.00  0.00     0.167 HD
ATOM     26  C   UNL     1       4.354   7.330  -5.179  1.00  0.00     0.037 A 
ATOM     27  C   UNL     1      -0.150  11.228  -0.126  1.00  0.00     0.037 A 
ATOM     28  C   UNL     1       4.853   7.971  -4.023  1.00  0.00     0.049 A 
ATOM     29  C   UNL     1       0.808  11.301  -1.244  1.00  0.00     0.074 A 
ATOM     30  C   UNL     1       5.922   7.631  -3.219  1.00  0.00     0.029 A 
ATOM     31  N   UNL     1       3.893   8.486  -3.224  1.00  0.00    -0.354 N 
ATOM     32  N   UNL     1       2.099  11.478  -1.057  1.00  0.00    -0.248 NA
ATOM     33  C   UNL     1       0.362  10.405  -2.313  1.00  0.00     0.031 C 
ATOM     34  C   UNL     1       5.617   8.063  -1.922  1.00  0.00     0.029 A 
ATOM     35  C   UNL     1       4.397   8.707  -1.989  1.00  0.00     0.049 A 
ATOM     36  H   UNL     1       2.967   8.672  -3.499  1.00  0.00     0.167 HD
ATOM     37  C   UNL     1       2.690  10.383  -1.695  1.00  0.00     0.074 A 
ATOM     38  C   UNL     1       1.534   9.807  -2.558  1.00  0.00     0.031 C 
ATOM     39  C   UNL     1       3.743   9.625  -1.134  1.00  0.00     0.037 A 
BRANCH  26  40
ATOM     40  C   UNL     1       3.713   8.029  -6.305  1.00  0.00     0.064 A 
ATOM     41  C   UNL     1       4.549   9.042  -6.739  1.00  0.00     0.173 A 
ATOM     42  C   UNL     1       2.427   7.909  -6.888  1.00  0.00     0.173 A 
ATOM     43  F   UNL     1       5.805   9.108  -6.272  1.00  0.00    -0.203 F 
ATOM     44  C   UNL     1       4.118   9.973  -7.644  1.00  0.00     0.198 A 
ATOM     45  C   UNL     1       2.035   8.795  -7.886  1.00  0.00     0.198 A 
ATOM     46  F   UNL     1       1.539   6.967  -6.526  1.00  0.00    -0.203 F 
ATOM     47  F   UNL     1       4.899  11.027  -7.890  1.00  0.00    -0.200 F 
ATOM     48  C   UNL     1       2.887   9.825  -8.257  1.00  0.00     0.200 A 
ATOM     49  F   UNL     1       0.830   8.678  -8.465  1.00  0.00    -0.200 F 
ATOM     50  F   UNL     1       2.535  10.673  -9.228  1.00  0.00    -0.200 F 
ENDBRANCH  26  40
BRANCH  27  51
ATOM     51  C   UNL     1      -1.695  11.662  -0.267  1.00  0.00     0.064 A 
ATOM     52  C   UNL     1      -2.303  12.954  -0.414  1.00  0.00     0.173 A 
ATOM     53  C   UNL     1      -2.630  10.615  -0.446  1.00  0.00     0.173 A 
ATOM     54  F   UNL     1      -1.577  14.077  -0.304  1.00  0.00    -0.203 F 
ATOM     55  C   UNL     1      -3.699  13.136  -0.708  1.00  0.00     0.198 A 
ATOM     56  C   UNL     1      -3.985  10.792  -0.804  1.00  0.00     0.198 A 
ATOM     57  F   UNL     1      -2.212   9.351  -0.328  1.00  0.00    -0.203 F 
ATOM     58  F   UNL     1      -4.250  14.364  -0.743  1.00  0.00    -0.200 F 
ATOM     59  C   UNL     1      -4.516  12.051  -0.968  1.00  0.00     0.200 A 
ATOM     60  F   UNL     1      -4.760   9.716  -1.012  1.00  0.00    -0.200 F 
ATOM     61  F   UNL     1      -5.779  12.210  -1.401  1.00  0.00    -0.200 F 
ENDBRANCH  27  51
BRANCH  39  62
ATOM     62  C   UNL     1       4.456   9.834   0.245  1.00  0.00     0.064 A 
ATOM     63  C   UNL     1       4.159   9.363   1.567  1.00  0.00     0.173 A 
ATOM     64  C   UNL     1       5.652  10.526   0.152  1.00  0.00     0.173 A 
ATOM     65  F   UNL     1       3.241   8.425   1.821  1.00  0.00    -0.203 F 
ATOM     66  C   UNL     1       4.804   9.851   2.706  1.00  0.00     0.198 A 
ATOM     67  C   UNL     1       6.389  10.887   1.275  1.00  0.00     0.198 A 
ATOM     68  F   UNL     1       6.146  10.812  -1.059  1.00  0.00    -0.203 F 
ATOM     69  F   UNL     1       4.277   9.655   3.928  1.00  0.00    -0.200 F 
ATOM     70  C   UNL     1       5.947  10.592   2.554  1.00  0.00     0.200 A 
ATOM     71  F   UNL     1       7.518  11.581   1.103  1.00  0.00    -0.200 F 
ATOM     72  F   UNL     1       6.638  10.997   3.627  1.00  0.00    -0.200 F 
ENDBRANCH  39  62
ENDBRANCH  13  14
ENDBRANCH   6   8
ENDBRANCH   5   6
ENDBRANCH   4   5
ENDBRANCH   3   4
ENDBRANCH   2   3
ENDBRANCH   1   2
BRANCH   1  73
ATOM     73  C   UNL     1       2.738  -2.774  -1.345  1.00  0.00     0.261 C 
BRANCH  73  74
ATOM     74  O   UNL     1       3.192  -3.345  -0.116  1.00  0.00    -0.460 OA
BRANCH  74  75
ATOM     75  C   UNL     1       4.534  -3.612  -0.012  1.00  0.00     0.338 C 
ATOM     76  O   UNL     1       5.367  -3.625  -0.893  1.00  0.00    -0.246 OA
BRANCH  75  77
ATOM     77  C   UNL     1       4.812  -3.667   1.449  1.00  0.00     0.061 A 
ATOM     78  C   UNL     1       4.033  -4.698   1.905  1.00  0.00     0.019 A 
ATOM     79  C   UNL     1       5.739  -2.900   2.297  1.00  0.00     0.038 A 
ATOM     80  C   UNL     1       4.133  -4.988   3.198  1.00  0.00    -0.043 A 
ATOM     81  C   UNL     1       5.832  -3.192   3.668  1.00  0.00     0.092 A 
ATOM     82  C   UNL     1       4.953  -4.222   4.050  1.00  0.00    -0.024 A 
ATOM     83  C   UNL     1       3.694  -6.314   3.716  1.00  0.00     0.036 C 
ATOM     84  C   UNL     1       5.040  -5.077   5.220  1.00  0.00     0.037 C 
ATOM     85  C   UNL     1       4.760  -6.495   4.716  1.00  0.00     0.010 C 
BRANCH  81  86
ATOM     86  S   UNL     1       7.267  -2.512   4.706  1.00  0.00     0.262 S 
ATOM     87  O   UNL     1       8.457  -2.424   3.881  1.00  0.00    -0.201 OA
ATOM     88  O   UNL     1       6.785  -1.250   5.239  1.00  0.00    -0.201 OA
BRANCH  86  89
ATOM     89  N   UNL     1       7.749  -3.436   6.088  1.00  0.00    -0.277 N 
ATOM     90  H   UNL     1       8.198  -2.905   6.785  1.00  0.00     0.180 HD
BRANCH  89  91
ATOM     91  C   UNL     1       7.618  -4.850   6.419  1.00  0.00     0.075 A 
ATOM     92  C   UNL     1       6.875  -5.062   7.651  1.00  0.00     0.042 A 
ATOM     93  C   UNL     1       7.785  -5.965   5.495  1.00  0.00     0.089 A 
ATOM     94  C   UNL     1       6.282  -6.310   7.957  1.00  0.00     0.058 A 
ATOM     95  C   UNL     1       7.179  -7.204   5.851  1.00  0.00     0.031 A 
ATOM     96  C   UNL     1       6.385  -7.335   7.016  1.00  0.00     0.015 A 
BRANCH  93  97
ATOM     97  N   UNL     1       8.097  -5.721   4.077  1.00  0.00    -0.239 N 
ATOM     98  C   UNL     1       9.195  -5.036   3.640  1.00  0.00     0.115 A 
ATOM     99  N   UNL     1       7.242  -5.924   3.005  1.00  0.00    -0.177 NA
ATOM    100  C   UNL     1       9.018  -4.696   2.320  1.00  0.00     0.042 A 
ATOM    101  C   UNL     1       7.750  -5.185   2.000  1.00  0.00     0.135 A 
ENDBRANCH  93  97
BRANCH  94 102
ATOM    102  C   UNL     1       5.692  -6.666   9.305  1.00  0.00     0.416 C 
ATOM    103  F   UNL     1       6.678  -6.629  10.242  1.00  0.00    -0.166 F 
ATOM    104  F   UNL     1       4.692  -5.870   9.762  1.00  0.00    -0.166 F 
ATOM    105  F   UNL     1       5.199  -7.941   9.350  1.00  0.00    -0.166 F 
ENDBRANCH  94 102
ENDBRANCH  89  91
ENDBRANCH  86  89
ENDBRANCH  81  86
ENDBRANCH  75  77
ENDBRANCH  74  75
ENDBRANCH  73  74
ENDBRANCH   1  73
TORSDOF 19
