REMARK SMILES C[C@H]1[C@@H](C(=O)OCCOCCOC(=O)c2ccc(-c3c4nc(c(-c5c(F)c(F)c(F)c(F)c5F)c5ccc([nH]5)c(-c5c(F)c(F)c(F)c(F)c5F)c5nc(c(-c6c(F)c(F)c(F)c(F)c6F)c6ccc3[nH]6)C=C5)C=C4)cc2)CCN1S(=O)(=O)c1c[nH]c2ncccc12
REMARK SMILES IDX 9 1 8 2 7 3 6 4 4 5 5 6 3 7 1 8 2 9 80 10 78 11 79 12 81 13
REMARK SMILES IDX 82 14 83 15 84 16 85 17 92 18 86 19 87 20 91 21 88 23 90 24
REMARK SMILES IDX 89 25 10 26 11 27 12 28 13 29 14 30 15 31 16 32 77 33 17 34
REMARK SMILES IDX 76 35 18 36 19 37 20 38 70 39 21 40 75 41 69 42 71 43 22 44
REMARK SMILES IDX 74 45 68 46 67 47 23 49 55 50 35 51 54 52 36 53 39 54 53 55
REMARK SMILES IDX 72 56 37 57 38 58 52 60 73 61 40 62 24 63 25 64 33 65 26 66
REMARK SMILES IDX 27 67 31 68 34 69 28 70 29 71 32 72 30 73 56 74 57 75 65 76
REMARK SMILES IDX 58 77 59 78 63 79 66 80 60 81 61 82 64 83 62 84 41 85 42 86
REMARK SMILES IDX 50 87 43 88 44 89 48 90 51 91 45 92 46 93 49 94 47 95
REMARK H PARENT 86 22 71 48 39 59
REMARK Flexibility Score: inf
ROOT
ATOM      1  O   UNL     1       0.069   2.137  -3.971  1.00  0.00    -0.374 OA
ENDROOT
BRANCH   1   2
ATOM      2  C   UNL     1       1.418   2.449  -3.607  1.00  0.00     0.202 C 
BRANCH   2   3
ATOM      3  C   UNL     1       1.539   3.305  -2.344  1.00  0.00     0.261 C 
BRANCH   3   4
ATOM      4  O   UNL     1       1.345   2.472  -1.182  1.00  0.00    -0.463 OA
BRANCH   4   5
ATOM      5  C   UNL     1       0.247   2.705  -0.435  1.00  0.00     0.310 C 
ATOM      6  O   UNL     1      -0.488   3.676  -0.578  1.00  0.00    -0.252 OA
BRANCH   5   7
ATOM      7  C   UNL     1      -0.048   1.624   0.589  1.00  0.00     0.118 C 
ATOM      8  C   UNL     1       1.943   0.026  -0.194  1.00  0.00     0.027 C 
ATOM      9  C   UNL     1       0.835   0.376   0.793  1.00  0.00     0.084 C 
ATOM     10  N   UNL     1      -0.098  -0.801   0.820  1.00  0.00    -0.194 NA
ATOM     11  C   UNL     1      -1.474   1.095   0.393  1.00  0.00     0.034 C 
ATOM     12  C   UNL     1      -1.337  -0.388   0.125  1.00  0.00     0.104 C 
BRANCH  10  13
ATOM     13  S   UNL     1      -0.365  -1.558   2.326  1.00  0.00     0.245 S 
ATOM     14  O   UNL     1      -0.679  -0.520   3.283  1.00  0.00    -0.207 OA
ATOM     15  O   UNL     1      -1.257  -2.675   2.098  1.00  0.00    -0.207 OA
BRANCH  13  16
ATOM     16  C   UNL     1       1.110  -2.252   2.909  1.00  0.00     0.109 A 
ATOM     17  C   UNL     1       2.224  -1.535   3.321  1.00  0.00     0.106 A 
ATOM     18  C   UNL     1       1.383  -3.636   3.138  1.00  0.00     0.039 A 
ATOM     19  N   UNL     1       3.164  -2.428   3.758  1.00  0.00    -0.345 N 
ATOM     20  C   UNL     1       2.668  -3.696   3.674  1.00  0.00     0.138 A 
ATOM     21  C   UNL     1       0.711  -4.865   2.993  1.00  0.00     0.015 A 
ATOM     22  H   UNL     1       4.063  -2.191   4.083  1.00  0.00     0.168 HD
ATOM     23  N   UNL     1       3.347  -4.785   4.077  1.00  0.00    -0.239 NA
ATOM     24  C   UNL     1       1.365  -6.027   3.410  1.00  0.00     0.021 A 
ATOM     25  C   UNL     1       2.645  -5.929   3.933  1.00  0.00     0.113 A 
ENDBRANCH  13  16
ENDBRANCH  10  13
ENDBRANCH   5   7
ENDBRANCH   4   5
ENDBRANCH   3   4
ENDBRANCH   2   3
ENDBRANCH   1   2
BRANCH   1  26
ATOM     26  C   UNL     1      -0.520   1.024  -3.301  1.00  0.00     0.202 C 
BRANCH  26  27
ATOM     27  C   UNL     1      -0.327  -0.321  -4.006  1.00  0.00     0.261 C 
BRANCH  27  28
ATOM     28  O   UNL     1       1.062  -0.692  -4.012  1.00  0.00    -0.460 OA
BRANCH  28  29
ATOM     29  C   UNL     1       1.684  -0.482  -5.195  1.00  0.00     0.338 C 
ATOM     30  O   UNL     1       1.169  -0.153  -6.250  1.00  0.00    -0.246 OA
BRANCH  29  31
ATOM     31  C   UNL     1       3.149  -0.556  -5.025  1.00  0.00     0.060 A 
ATOM     32  C   UNL     1       3.912   0.355  -5.764  1.00  0.00     0.016 A 
ATOM     33  C   UNL     1       3.775  -1.522  -4.229  1.00  0.00     0.016 A 
ATOM     34  C   UNL     1       5.297   0.245  -5.789  1.00  0.00     0.010 A 
ATOM     35  C   UNL     1       5.171  -1.628  -4.250  1.00  0.00     0.010 A 
ATOM     36  C   UNL     1       5.930  -0.782  -5.077  1.00  0.00    -0.014 A 
BRANCH  36  37
ATOM     37  C   UNL     1       7.353  -1.066  -5.382  1.00  0.00     0.031 A 
ATOM     38  C   UNL     1       7.678  -2.171  -6.352  1.00  0.00     0.074 A 
ATOM     39  C   UNL     1       8.331  -0.284  -4.893  1.00  0.00     0.049 A 
ATOM     40  N   UNL     1       8.832  -2.519  -6.860  1.00  0.00    -0.248 NA
ATOM     41  C   UNL     1       6.546  -2.989  -6.817  1.00  0.00     0.031 C 
ATOM     42  C   UNL     1       8.136   0.832  -3.970  1.00  0.00     0.029 A 
ATOM     43  N   UNL     1       9.683  -0.300  -5.125  1.00  0.00    -0.354 N 
ATOM     44  C   UNL     1       8.564  -3.588  -7.706  1.00  0.00     0.074 A 
ATOM     45  C   UNL     1       7.147  -3.862  -7.610  1.00  0.00     0.031 C 
ATOM     46  C   UNL     1       9.327   1.403  -3.720  1.00  0.00     0.029 A 
ATOM     47  C   UNL     1      10.366   0.685  -4.457  1.00  0.00     0.049 A 
ATOM     48  H   UNL     1      10.121  -0.955  -5.714  1.00  0.00     0.167 HD
ATOM     49  C   UNL     1       9.418  -4.268  -8.507  1.00  0.00     0.037 A 
ATOM     50  C   UNL     1      11.682   0.974  -4.447  1.00  0.00     0.037 A 
ATOM     51  C   UNL     1      10.826  -3.993  -8.606  1.00  0.00     0.049 A 
ATOM     52  C   UNL     1      12.618   0.175  -5.316  1.00  0.00     0.074 A 
ATOM     53  C   UNL     1      11.776  -4.617  -9.396  1.00  0.00     0.029 A 
ATOM     54  N   UNL     1      11.488  -3.011  -7.884  1.00  0.00    -0.354 N 
ATOM     55  N   UNL     1      12.349  -0.808  -6.141  1.00  0.00    -0.248 NA
ATOM     56  C   UNL     1      14.041   0.537  -5.261  1.00  0.00     0.031 C 
ATOM     57  C   UNL     1      13.021  -4.041  -9.119  1.00  0.00     0.029 A 
ATOM     58  C   UNL     1      12.838  -3.025  -8.194  1.00  0.00     0.049 A 
ATOM     59  H   UNL     1      11.061  -2.395  -7.245  1.00  0.00     0.167 HD
ATOM     60  C   UNL     1      13.560  -1.161  -6.723  1.00  0.00     0.074 A 
ATOM     61  C   UNL     1      14.562  -0.276  -6.169  1.00  0.00     0.031 C 
ATOM     62  C   UNL     1      13.820  -2.131  -7.635  1.00  0.00     0.037 A 
BRANCH  49  63
ATOM     63  C   UNL     1       8.850  -5.389  -9.328  1.00  0.00     0.064 A 
ATOM     64  C   UNL     1       8.018  -5.146 -10.431  1.00  0.00     0.173 A 
ATOM     65  C   UNL     1       9.158  -6.722  -9.019  1.00  0.00     0.173 A 
ATOM     66  F   UNL     1       7.679  -3.889 -10.757  1.00  0.00    -0.203 F 
ATOM     67  C   UNL     1       7.495  -6.197 -11.180  1.00  0.00     0.198 A 
ATOM     68  C   UNL     1       8.656  -7.770  -9.787  1.00  0.00     0.198 A 
ATOM     69  F   UNL     1       9.950  -7.009  -7.975  1.00  0.00    -0.203 F 
ATOM     70  F   UNL     1       6.664  -5.944 -12.200  1.00  0.00    -0.200 F 
ATOM     71  C   UNL     1       7.819  -7.508 -10.861  1.00  0.00     0.200 A 
ATOM     72  F   UNL     1       8.978  -9.035  -9.483  1.00  0.00    -0.200 F 
ATOM     73  F   UNL     1       7.319  -8.518 -11.585  1.00  0.00    -0.200 F 
ENDBRANCH  49  63
BRANCH  50  74
ATOM     74  C   UNL     1      12.191   2.083  -3.599  1.00  0.00     0.064 A 
ATOM     75  C   UNL     1      12.697   3.260  -4.168  1.00  0.00     0.173 A 
ATOM     76  C   UNL     1      12.198   1.979  -2.201  1.00  0.00     0.173 A 
ATOM     77  F   UNL     1      12.734   3.397  -5.502  1.00  0.00    -0.203 F 
ATOM     78  C   UNL     1      13.208   4.282  -3.371  1.00  0.00     0.198 A 
ATOM     79  C   UNL     1      12.684   3.013  -1.404  1.00  0.00     0.198 A 
ATOM     80  F   UNL     1      11.724   0.874  -1.607  1.00  0.00    -0.203 F 
ATOM     81  F   UNL     1      13.728   5.378  -3.942  1.00  0.00    -0.200 F 
ATOM     82  C   UNL     1      13.196   4.161  -1.990  1.00  0.00     0.200 A 
ATOM     83  F   UNL     1      12.658   2.896  -0.069  1.00  0.00    -0.200 F 
ATOM     84  F   UNL     1      13.685   5.145  -1.223  1.00  0.00    -0.200 F 
ENDBRANCH  50  74
BRANCH  62  85
ATOM     85  C   UNL     1      15.237  -2.261  -8.113  1.00  0.00     0.064 A 
ATOM     86  C   UNL     1      16.249  -2.772  -7.287  1.00  0.00     0.173 A 
ATOM     87  C   UNL     1      15.580  -1.897  -9.424  1.00  0.00     0.173 A 
ATOM     88  F   UNL     1      15.974  -3.123  -6.022  1.00  0.00    -0.203 F 
ATOM     89  C   UNL     1      17.559  -2.881  -7.745  1.00  0.00     0.198 A 
ATOM     90  C   UNL     1      16.885  -2.035  -9.889  1.00  0.00     0.198 A 
ATOM     91  F   UNL     1      14.647  -1.412 -10.258  1.00  0.00    -0.203 F 
ATOM     92  F   UNL     1      18.520  -3.320  -6.921  1.00  0.00    -0.200 F 
ATOM     93  C   UNL     1      17.875  -2.518  -9.046  1.00  0.00     0.200 A 
ATOM     94  F   UNL     1      17.185  -1.697 -11.150  1.00  0.00    -0.200 F 
ATOM     95  F   UNL     1      19.136  -2.625  -9.486  1.00  0.00    -0.200 F 
ENDBRANCH  62  85
ENDBRANCH  36  37
ENDBRANCH  29  31
ENDBRANCH  28  29
ENDBRANCH  27  28
ENDBRANCH  26  27
ENDBRANCH   1  26
TORSDOF 16
