REMARK SMILES Cc1cc(Cl)c2c(c1)C=C(C(=O)OCCOCCOC(=O)c1ccc(-c3c4nc(c(-c5c(F)c(F)c(F)c(F)c5F)c5ccc([nH]5)c(-c5c(F)c(F)c(F)c(F)c5F)c5nc(c(-c6c(F)c(F)c(F)c(F)c6F)c6ccc3[nH]6)C=C5)C=C4)cc1)[C@@H](C(F)(F)F)O2
REMARK SMILES IDX 17 1 16 2 15 3 14 4 13 5 11 6 12 7 10 8 1 9 2 10 3 11 8 12
REMARK SMILES IDX 4 13 7 14 5 15 6 16 9 17 90 18 85 19 86 20 87 21 88 22 89 23
REMARK SMILES IDX 18 24 19 25 20 26 21 27 22 28 23 29 84 30 24 31 83 32 25 33
REMARK SMILES IDX 26 34 27 35 77 36 28 37 82 38 76 39 78 40 29 41 81 42 75 43
REMARK SMILES IDX 74 44 30 46 62 47 42 48 61 49 43 50 46 51 60 52 79 53 44 54
REMARK SMILES IDX 45 55 59 57 80 58 47 59 31 60 32 61 40 62 33 63 34 64 38 65
REMARK SMILES IDX 41 66 35 67 36 68 39 69 37 70 63 71 64 72 72 73 65 74 66 75
REMARK SMILES IDX 70 76 73 77 67 78 68 79 71 80 69 81 48 82 49 83 57 84 50 85
REMARK SMILES IDX 51 86 55 87 58 88 52 89 53 90 56 91 54 92
REMARK H PARENT 78 45 46 56
REMARK Flexibility Score: inf
ROOT
ATOM      1  C   UNL     1       3.150   7.142   2.699  1.00  0.00     0.202 C 
ENDROOT
BRANCH   1   2
ATOM      2  O   UNL     1       2.764   8.439   2.243  1.00  0.00    -0.374 OA
BRANCH   2   3
ATOM      3  C   UNL     1       1.885   9.201   3.066  1.00  0.00     0.202 C 
BRANCH   3   4
ATOM      4  C   UNL     1       0.400   8.836   3.007  1.00  0.00     0.261 C 
BRANCH   4   5
ATOM      5  O   UNL     1       0.179   7.461   3.359  1.00  0.00    -0.460 OA
BRANCH   5   6
ATOM      6  C   UNL     1      -0.275   6.687   2.346  1.00  0.00     0.338 C 
ATOM      7  O   UNL     1      -0.623   7.064   1.236  1.00  0.00    -0.246 OA
BRANCH   6   8
ATOM      8  C   UNL     1      -0.182   5.264   2.720  1.00  0.00     0.087 C 
ATOM      9  C   UNL     1       0.979  -0.187   0.114  1.00  0.00     0.044 C 
ATOM     10  C   UNL     1       0.577   0.750   1.215  1.00  0.00    -0.049 A 
ATOM     11  C   UNL     1       0.143   0.268   2.454  1.00  0.00     0.028 A 
ATOM     12  C   UNL     1       0.659   2.133   1.018  1.00  0.00     0.015 A 
ATOM     13  C   UNL     1      -0.208   1.157   3.476  1.00  0.00     0.084 A 
ATOM     14  C   UNL     1       0.280   3.024   2.031  1.00  0.00     0.019 A 
ATOM     15  Cl  UNL     1      -0.750   0.499   4.979  1.00  0.00    -0.080 Cl
ATOM     16  C   UNL     1      -0.141   2.542   3.272  1.00  0.00     0.146 A 
ATOM     17  C   UNL     1       0.272   4.448   1.762  1.00  0.00     0.027 C 
ATOM     18  O   UNL     1      -0.482   3.368   4.309  1.00  0.00    -0.474 OA
ATOM     19  C   UNL     1      -0.605   4.800   4.084  1.00  0.00     0.316 C 
BRANCH  19  20
ATOM     20  C   UNL     1      -2.038   5.227   4.436  1.00  0.00     0.430 C 
ATOM     21  F   UNL     1      -2.407   4.761   5.653  1.00  0.00    -0.167 F 
ATOM     22  F   UNL     1      -2.160   6.575   4.488  1.00  0.00    -0.167 F 
ATOM     23  F   UNL     1      -2.938   4.774   3.535  1.00  0.00    -0.167 F 
ENDBRANCH  19  20
ENDBRANCH   6   8
ENDBRANCH   5   6
ENDBRANCH   4   5
ENDBRANCH   3   4
ENDBRANCH   2   3
ENDBRANCH   1   2
BRANCH   1  24
ATOM     24  C   UNL     1       4.132   7.079   3.875  1.00  0.00     0.261 C 
BRANCH  24  25
ATOM     25  O   UNL     1       3.527   7.509   5.109  1.00  0.00    -0.460 OA
BRANCH  25  26
ATOM     26  C   UNL     1       4.068   8.622   5.657  1.00  0.00     0.338 C 
ATOM     27  O   UNL     1       5.036   9.256   5.255  1.00  0.00    -0.246 OA
BRANCH  26  28
ATOM     28  C   UNL     1       3.202   9.112   6.741  1.00  0.00     0.060 A 
ATOM     29  C   UNL     1       2.667  10.401   6.617  1.00  0.00     0.016 A 
ATOM     30  C   UNL     1       2.973   8.353   7.890  1.00  0.00     0.016 A 
ATOM     31  C   UNL     1       1.922  10.947   7.659  1.00  0.00     0.010 A 
ATOM     32  C   UNL     1       2.234   8.909   8.940  1.00  0.00     0.010 A 
ATOM     33  C   UNL     1       1.728  10.217   8.840  1.00  0.00    -0.014 A 
BRANCH  33  34
ATOM     34  C   UNL     1       1.093  10.879  10.004  1.00  0.00     0.031 A 
ATOM     35  C   UNL     1       1.962  11.447  11.090  1.00  0.00     0.074 A 
ATOM     36  C   UNL     1      -0.243  11.022  10.060  1.00  0.00     0.049 A 
ATOM     37  N   UNL     1       1.617  12.103  12.168  1.00  0.00    -0.248 NA
ATOM     38  C   UNL     1       3.413  11.254  10.941  1.00  0.00     0.031 C 
ATOM     39  C   UNL     1      -1.183  10.543   9.049  1.00  0.00     0.029 A 
ATOM     40  N   UNL     1      -1.040  11.620  11.005  1.00  0.00    -0.354 N 
ATOM     41  C   UNL     1       2.805  12.412  12.817  1.00  0.00     0.074 A 
ATOM     42  C   UNL     1       3.878  11.834  12.038  1.00  0.00     0.031 C 
ATOM     43  C   UNL     1      -2.430  10.875   9.422  1.00  0.00     0.029 A 
ATOM     44  C   UNL     1      -2.379  11.567  10.709  1.00  0.00     0.049 A 
ATOM     45  H   UNL     1      -0.684  12.046  11.818  1.00  0.00     0.167 HD
ATOM     46  C   UNL     1       2.983  13.130  13.950  1.00  0.00     0.037 A 
ATOM     47  C   UNL     1      -3.442  12.023  11.401  1.00  0.00     0.037 A 
ATOM     48  C   UNL     1       1.913  13.703  14.723  1.00  0.00     0.049 A 
ATOM     49  C   UNL     1      -3.221  12.745  12.705  1.00  0.00     0.074 A 
ATOM     50  C   UNL     1       1.996  14.459  15.878  1.00  0.00     0.029 A 
ATOM     51  N   UNL     1       0.566  13.576  14.421  1.00  0.00    -0.354 N 
ATOM     52  N   UNL     1      -2.093  13.063  13.292  1.00  0.00    -0.248 NA
ATOM     53  C   UNL     1      -4.420  13.172  13.444  1.00  0.00     0.031 C 
ATOM     54  C   UNL     1       0.697  14.749  16.304  1.00  0.00     0.029 A 
ATOM     55  C   UNL     1      -0.194  14.217  15.385  1.00  0.00     0.049 A 
ATOM     56  H   UNL     1       0.203  13.102  13.638  1.00  0.00     0.167 HD
ATOM     57  C   UNL     1      -2.442  13.748  14.448  1.00  0.00     0.074 A 
ATOM     58  C   UNL     1      -3.888  13.806  14.481  1.00  0.00     0.031 C 
ATOM     59  C   UNL     1      -1.633  14.282  15.396  1.00  0.00     0.037 A 
BRANCH  46  60
ATOM     60  C   UNL     1       4.387  13.344  14.431  1.00  0.00     0.064 A 
ATOM     61  C   UNL     1       5.259  14.222  13.770  1.00  0.00     0.173 A 
ATOM     62  C   UNL     1       4.842  12.724  15.604  1.00  0.00     0.173 A 
ATOM     63  F   UNL     1       4.874  14.832  12.639  1.00  0.00    -0.203 F 
ATOM     64  C   UNL     1       6.539  14.463  14.260  1.00  0.00     0.198 A 
ATOM     65  C   UNL     1       6.114  12.987  16.105  1.00  0.00     0.198 A 
ATOM     66  F   UNL     1       4.044  11.881  16.276  1.00  0.00    -0.203 F 
ATOM     67  F   UNL     1       7.366  15.283  13.597  1.00  0.00    -0.200 F 
ATOM     68  C   UNL     1       6.962  13.853  15.432  1.00  0.00     0.200 A 
ATOM     69  F   UNL     1       6.516  12.408  17.245  1.00  0.00    -0.200 F 
ATOM     70  F   UNL     1       8.189  14.099  15.912  1.00  0.00    -0.200 F 
ENDBRANCH  46  60
BRANCH  47  71
ATOM     71  C   UNL     1      -4.811  11.828  10.859  1.00  0.00     0.064 A 
ATOM     72  C   UNL     1      -5.562  12.915  10.390  1.00  0.00     0.173 A 
ATOM     73  C   UNL     1      -5.391  10.553  10.783  1.00  0.00     0.173 A 
ATOM     74  F   UNL     1      -5.060  14.156  10.463  1.00  0.00    -0.203 F 
ATOM     75  C   UNL     1      -6.843  12.735   9.871  1.00  0.00     0.198 A 
ATOM     76  C   UNL     1      -6.662  10.371  10.241  1.00  0.00     0.198 A 
ATOM     77  F   UNL     1      -4.715   9.481  11.221  1.00  0.00    -0.203 F 
ATOM     78  F   UNL     1      -7.551  13.794   9.459  1.00  0.00    -0.200 F 
ATOM     79  C   UNL     1      -7.388  11.462   9.789  1.00  0.00     0.200 A 
ATOM     80  F   UNL     1      -7.181   9.138  10.153  1.00  0.00    -0.200 F 
ATOM     81  F   UNL     1      -8.616  11.288   9.280  1.00  0.00    -0.200 F 
ENDBRANCH  47  71
BRANCH  59  82
ATOM     82  C   UNL     1      -2.272  15.002  16.547  1.00  0.00     0.064 A 
ATOM     83  C   UNL     1      -2.891  14.303  17.592  1.00  0.00     0.173 A 
ATOM     84  C   UNL     1      -2.149  16.395  16.666  1.00  0.00     0.173 A 
ATOM     85  F   UNL     1      -3.041  12.972  17.518  1.00  0.00    -0.203 F 
ATOM     86  C   UNL     1      -3.362  14.973  18.718  1.00  0.00     0.198 A 
ATOM     87  C   UNL     1      -2.598  17.058  17.805  1.00  0.00     0.198 A 
ATOM     88  F   UNL     1      -1.554  17.107  15.697  1.00  0.00    -0.203 F 
ATOM     89  F   UNL     1      -3.962  14.287  19.701  1.00  0.00    -0.200 F 
ATOM     90  C   UNL     1      -3.202  16.347  18.830  1.00  0.00     0.200 A 
ATOM     91  F   UNL     1      -2.426  18.382  17.919  1.00  0.00    -0.200 F 
ATOM     92  F   UNL     1      -3.627  16.985  19.929  1.00  0.00    -0.200 F 
ENDBRANCH  59  82
ENDBRANCH  33  34
ENDBRANCH  26  28
ENDBRANCH  25  26
ENDBRANCH  24  25
ENDBRANCH   1  24
TORSDOF 15
