REMARK SMILES C[C@]12CC[C@@H]3[C@@H](CCC4=C/C(=N\OCC(=O)N5CCC[C@@H]5C(=O)OCCOCCOC(=O)c5ccc(-c6c7nc(c(-c8c(F)c(F)c(F)c(F)c8F)c8ccc([nH]8)c(-c8c(F)c(F)c(F)c(F)c8F)c8nc(c(-c9c(F)c(F)c(F)c(F)c9F)c9ccc6[nH]9)C=C8)C=C7)cc5)CC[C@@]43C)[C@@H]1CC[C@@H]2O
REMARK SMILES IDX 25 1 24 2 22 3 23 4 21 5 17 6 18 7 19 8 20 9 15 10 16 11
REMARK SMILES IDX 14 12 13 13 12 14 1 15 2 16 3 17 100 18 103 19 4 20 6 21
REMARK SMILES IDX 101 22 102 23 5 24 7 25 98 26 8 27 9 28 97 29 99 30 10 31
REMARK SMILES IDX 96 32 11 33 104 34 26 36 27 37 28 38 29 39 30 40 31 41 32 42
REMARK SMILES IDX 33 43 34 44 95 45 35 46 94 47 36 48 37 49 38 50 88 51 39 52
REMARK SMILES IDX 93 53 87 54 89 55 40 56 92 57 86 58 85 59 41 61 73 62 53 63
REMARK SMILES IDX 72 64 54 65 57 66 71 67 90 68 55 69 56 70 70 72 91 73 58 74
REMARK SMILES IDX 42 75 43 76 51 77 44 78 45 79 49 80 52 81 46 82 47 83 50 84
REMARK SMILES IDX 48 85 74 86 75 87 83 88 76 89 77 90 81 91 84 92 78 93 79 94
REMARK SMILES IDX 82 95 80 96 59 97 60 98 68 99 61 100 62 101 66 102 69 103
REMARK SMILES IDX 63 104 64 105 67 106 65 107
REMARK H PARENT 104 35 89 60 57 71
REMARK Flexibility Score: inf
ROOT
ATOM      1  C   UNL     1       4.575  -8.711   1.121  1.00  0.00     0.261 C 
ENDROOT
BRANCH   1   2
ATOM      2  O   UNL     1       3.984  -9.990   1.060  1.00  0.00    -0.462 OA
BRANCH   2   3
ATOM      3  C   UNL     1       3.429 -10.335   2.256  1.00  0.00     0.328 C 
ATOM      4  O   UNL     1       3.779  -9.895   3.343  1.00  0.00    -0.250 OA
BRANCH   3   5
ATOM      5  C   UNL     1       2.268 -11.288   1.997  1.00  0.00     0.195 C 
ATOM      6  N   UNL     1       1.595 -11.597   3.245  1.00  0.00    -0.326 N 
ATOM      7  C   UNL     1       1.935 -12.971   3.609  1.00  0.00     0.120 C 
ATOM      8  C   UNL     1       3.103 -13.375   2.707  1.00  0.00     0.024 C 
ATOM      9  C   UNL     1       2.827 -12.599   1.441  1.00  0.00     0.039 C 
BRANCH   6  10
ATOM     10  C   UNL     1       0.911 -10.761   4.127  1.00  0.00     0.264 C 
ATOM     11  O   UNL     1       0.781 -11.168   5.296  1.00  0.00    -0.271 OA
BRANCH  10  12
ATOM     12  C   UNL     1       0.040  -9.448   3.735  1.00  0.00     0.363 C 
BRANCH  12  13
ATOM     13  O   UNL     1       0.192  -8.216   3.039  1.00  0.00    -0.385 OA
BRANCH  13  14
ATOM     14  N   UNL     1       0.700  -7.162   3.850  1.00  0.00    -0.091 NA
ATOM     15  C   UNL     1       1.480   1.257   0.792  1.00  0.00     0.014 C 
ATOM     16  C   UNL     1       0.868   0.034   1.550  1.00  0.00    -0.003 C 
ATOM     17  C   UNL     1       2.017  -0.572   2.333  1.00  0.00     0.010 C 
ATOM     18  C   UNL     1       0.099  -0.945   0.621  1.00  0.00     0.001 C 
ATOM     19  C   UNL     1      -0.383   0.368   2.384  1.00  0.00     0.120 C 
ATOM     20  C   UNL     1       2.889  -1.402   1.402  1.00  0.00     0.005 C 
ATOM     21  C   UNL     1       0.965  -1.875  -0.207  1.00  0.00    -0.003 C 
ATOM     22  C   UNL     1      -0.995  -0.013   0.054  1.00  0.00     0.007 C 
ATOM     23  C   UNL     1      -1.356   0.862   1.299  1.00  0.00     0.032 C 
ATOM     24  C   UNL     1       2.072  -2.491   0.695  1.00  0.00     0.002 C 
ATOM     25  C   UNL     1       0.204  -3.029  -0.871  1.00  0.00     0.008 C 
ATOM     26  C   UNL     1       1.714  -3.718   1.664  1.00  0.00    -0.008 C 
ATOM     27  C   UNL     1      -0.436  -4.002   0.129  1.00  0.00     0.032 C 
ATOM     28  C   UNL     1       0.416  -4.471   1.304  1.00  0.00    -0.062 C 
ATOM     29  C   UNL     1       1.540  -3.516   3.203  1.00  0.00     0.018 C 
ATOM     30  C   UNL     1       3.038  -4.517   1.573  1.00  0.00     0.016 C 
ATOM     31  C   UNL     1      -0.025  -5.529   2.038  1.00  0.00     0.027 C 
ATOM     32  C   UNL     1       1.407  -4.840   4.016  1.00  0.00     0.061 C 
ATOM     33  C   UNL     1       0.673  -5.975   3.291  1.00  0.00     0.080 C 
BRANCH  19  34
ATOM     34  O   UNL     1      -0.159   1.205   3.484  1.00  0.00    -0.393 OA
ATOM     35  H   UNL     1       0.220   2.045   3.179  1.00  0.00     0.210 HD
ENDBRANCH  19  34
ENDBRANCH  13  14
ENDBRANCH  12  13
ENDBRANCH  10  12
ENDBRANCH   6  10
ENDBRANCH   3   5
ENDBRANCH   2   3
ENDBRANCH   1   2
BRANCH   1  36
ATOM     36  C   UNL     1       3.527  -7.617   1.275  1.00  0.00     0.202 C 
BRANCH  36  37
ATOM     37  O   UNL     1       2.134  -7.887   1.343  1.00  0.00    -0.374 OA
BRANCH  37  38
ATOM     38  C   UNL     1       1.439  -8.723   0.436  1.00  0.00     0.202 C 
BRANCH  38  39
ATOM     39  C   UNL     1       0.209  -8.201  -0.319  1.00  0.00     0.261 C 
BRANCH  39  40
ATOM     40  O   UNL     1       0.598  -7.732  -1.604  1.00  0.00    -0.460 OA
BRANCH  40  41
ATOM     41  C   UNL     1       1.345  -6.648  -1.437  1.00  0.00     0.338 C 
ATOM     42  O   UNL     1       1.534  -6.038  -0.383  1.00  0.00    -0.246 OA
BRANCH  41  43
ATOM     43  C   UNL     1       2.086  -6.211  -2.568  1.00  0.00     0.060 A 
ATOM     44  C   UNL     1       3.308  -5.598  -2.255  1.00  0.00     0.016 A 
ATOM     45  C   UNL     1       1.522  -6.206  -3.832  1.00  0.00     0.016 A 
ATOM     46  C   UNL     1       3.943  -4.856  -3.198  1.00  0.00     0.010 A 
ATOM     47  C   UNL     1       2.225  -5.553  -4.816  1.00  0.00     0.010 A 
ATOM     48  C   UNL     1       3.421  -4.884  -4.485  1.00  0.00    -0.014 A 
BRANCH  48  49
ATOM     49  C   UNL     1       4.199  -4.269  -5.543  1.00  0.00     0.031 A 
ATOM     50  C   UNL     1       3.631  -3.096  -6.240  1.00  0.00     0.074 A 
ATOM     51  C   UNL     1       5.348  -4.883  -5.862  1.00  0.00     0.049 A 
ATOM     52  N   UNL     1       3.977  -2.595  -7.388  1.00  0.00    -0.248 NA
ATOM     53  C   UNL     1       2.496  -2.420  -5.586  1.00  0.00     0.031 C 
ATOM     54  C   UNL     1       5.937  -6.021  -5.140  1.00  0.00     0.029 A 
ATOM     55  N   UNL     1       6.204  -4.663  -6.895  1.00  0.00    -0.354 N 
ATOM     56  C   UNL     1       3.075  -1.573  -7.624  1.00  0.00     0.074 A 
ATOM     57  C   UNL     1       2.160  -1.527  -6.505  1.00  0.00     0.031 C 
ATOM     58  C   UNL     1       7.054  -6.407  -5.765  1.00  0.00     0.029 A 
ATOM     59  C   UNL     1       7.190  -5.612  -6.973  1.00  0.00     0.049 A 
ATOM     60  H   UNL     1       6.124  -3.906  -7.519  1.00  0.00     0.167 HD
ATOM     61  C   UNL     1       3.039  -0.770  -8.708  1.00  0.00     0.037 A 
ATOM     62  C   UNL     1       8.055  -5.851  -7.967  1.00  0.00     0.037 A 
ATOM     63  C   UNL     1       3.990  -0.888  -9.783  1.00  0.00     0.049 A 
ATOM     64  C   UNL     1       7.959  -4.970  -9.172  1.00  0.00     0.074 A 
ATOM     65  C   UNL     1       4.092  -0.138 -10.936  1.00  0.00     0.029 A 
ATOM     66  N   UNL     1       5.010  -1.837  -9.825  1.00  0.00    -0.354 N 
ATOM     67  N   UNL     1       7.104  -4.004  -9.421  1.00  0.00    -0.248 NA
ATOM     68  C   UNL     1       8.936  -5.208 -10.233  1.00  0.00     0.031 C 
ATOM     69  C   UNL     1       5.142  -0.662 -11.698  1.00  0.00     0.029 A 
ATOM     70  C   UNL     1       5.737  -1.701 -10.994  1.00  0.00     0.049 A 
ATOM     71  H   UNL     1       5.188  -2.505  -9.125  1.00  0.00     0.167 HD
ATOM     72  C   UNL     1       7.455  -3.496 -10.658  1.00  0.00     0.074 A 
ATOM     73  C   UNL     1       8.611  -4.258 -11.098  1.00  0.00     0.031 C 
ATOM     74  C   UNL     1       6.883  -2.494 -11.372  1.00  0.00     0.037 A 
BRANCH  61  75
ATOM     75  C   UNL     1       1.935   0.238  -8.791  1.00  0.00     0.064 A 
ATOM     76  C   UNL     1       1.862   1.334  -7.918  1.00  0.00     0.173 A 
ATOM     77  C   UNL     1       0.930   0.106  -9.761  1.00  0.00     0.173 A 
ATOM     78  F   UNL     1       2.780   1.492  -6.952  1.00  0.00    -0.203 F 
ATOM     79  C   UNL     1       0.814   2.249  -8.001  1.00  0.00     0.198 A 
ATOM     80  C   UNL     1      -0.099   1.039  -9.861  1.00  0.00     0.198 A 
ATOM     81  F   UNL     1       0.942  -0.932 -10.610  1.00  0.00    -0.203 F 
ATOM     82  F   UNL     1       0.737   3.258  -7.122  1.00  0.00    -0.200 F 
ATOM     83  C   UNL     1      -0.159   2.106  -8.977  1.00  0.00     0.200 A 
ATOM     84  F   UNL     1      -1.036   0.901 -10.808  1.00  0.00    -0.200 F 
ATOM     85  F   UNL     1      -1.163   2.990  -9.060  1.00  0.00    -0.200 F 
ENDBRANCH  61  75
BRANCH  62  86
ATOM     86  C   UNL     1       9.029  -6.959  -7.843  1.00  0.00     0.064 A 
ATOM     87  C   UNL     1      10.392  -6.687  -7.677  1.00  0.00     0.173 A 
ATOM     88  C   UNL     1       8.621  -8.302  -7.816  1.00  0.00     0.173 A 
ATOM     89  F   UNL     1      10.825  -5.418  -7.689  1.00  0.00    -0.203 F 
ATOM     90  C   UNL     1      11.314  -7.716  -7.512  1.00  0.00     0.198 A 
ATOM     91  C   UNL     1       9.540  -9.329  -7.620  1.00  0.00     0.198 A 
ATOM     92  F   UNL     1       7.322  -8.614  -7.939  1.00  0.00    -0.203 F 
ATOM     93  F   UNL     1      12.617  -7.429  -7.388  1.00  0.00    -0.200 F 
ATOM     94  C   UNL     1      10.887  -9.036  -7.477  1.00  0.00     0.200 A 
ATOM     95  F   UNL     1       9.119 -10.600  -7.554  1.00  0.00    -0.200 F 
ATOM     96  F   UNL     1      11.775 -10.024  -7.304  1.00  0.00    -0.200 F 
ENDBRANCH  62  86
BRANCH  74  97
ATOM     97  C   UNL     1       7.544  -2.156 -12.671  1.00  0.00     0.064 A 
ATOM     98  C   UNL     1       7.460  -3.005 -13.783  1.00  0.00     0.173 A 
ATOM     99  C   UNL     1       8.255  -0.955 -12.803  1.00  0.00     0.173 A 
ATOM    100  F   UNL     1       6.809  -4.175 -13.692  1.00  0.00    -0.203 F 
ATOM    101  C   UNL     1       8.094  -2.676 -14.976  1.00  0.00     0.198 A 
ATOM    102  C   UNL     1       8.856  -0.612 -14.008  1.00  0.00     0.198 A 
ATOM    103  F   UNL     1       8.358  -0.111 -11.765  1.00  0.00    -0.203 F 
ATOM    104  F   UNL     1       8.056  -3.530 -16.008  1.00  0.00    -0.200 F 
ATOM    105  C   UNL     1       8.783  -1.478 -15.090  1.00  0.00     0.200 A 
ATOM    106  F   UNL     1       9.508   0.552 -14.122  1.00  0.00    -0.200 F 
ATOM    107  F   UNL     1       9.388  -1.160 -16.242  1.00  0.00    -0.200 F 
ENDBRANCH  74  97
ENDBRANCH  48  49
ENDBRANCH  41  43
ENDBRANCH  40  41
ENDBRANCH  39  40
ENDBRANCH  38  39
ENDBRANCH  37  38
ENDBRANCH  36  37
ENDBRANCH   1  36
TORSDOF 19
