REMARK SMILES CCN1C(=O)/C(=C/c2ccccc2O[C@H](C)C(=O)OCCOCCOC(=O)c2ccc(-c3c4nc(c(-c5c(F)c(F)c(F)c(F)c5F)c5ccc([nH]5)c(-c5c(F)c(F)c(F)c(F)c5F)c5nc(c(-c6c(F)c(F)c(F)c(F)c6F)c6ccc3[nH]6)C=C5)C=C4)cc2)S/C1=[NH+]\c1ccc(C)cc1O
REMARK SMILES IDX 20 1 19 2 17 3 18 4 15 5 16 6 14 7 13 8 8 9 9 10 10 11 12 12
REMARK SMILES IDX 11 13 7 14 3 15 4 16 92 17 5 18 6 19 91 20 93 21 2 23 1 24
REMARK SMILES IDX 94 25 95 26 100 27 96 28 99 29 97 30 98 31 101 32 21 34
REMARK SMILES IDX 22 35 23 36 24 37 25 38 26 39 27 40 28 41 29 42 90 43 30 44
REMARK SMILES IDX 89 45 31 46 32 47 33 48 83 49 34 50 88 51 82 52 84 53 35 54
REMARK SMILES IDX 87 55 81 56 80 57 36 59 68 60 48 61 67 62 49 63 52 64 66 65
REMARK SMILES IDX 85 66 50 67 51 68 65 70 86 71 53 72 37 73 38 74 46 75 39 76
REMARK SMILES IDX 40 77 44 78 47 79 41 80 42 81 45 82 43 83 69 84 70 85 78 86
REMARK SMILES IDX 71 87 72 88 76 89 79 90 73 91 74 92 77 93 75 94 54 95 55 96
REMARK SMILES IDX 63 97 56 98 57 99 61 100 64 101 58 102 59 103 62 104 60 105
REMARK H PARENT 93 22 101 33 84 58 52 69
REMARK Flexibility Score: inf
ROOT
ATOM      1  C   UNL     1      -0.144  -5.034  -0.444  1.00  0.00     0.261 C 
ENDROOT
BRANCH   1   2
ATOM      2  O   UNL     1       0.655  -4.685  -1.588  1.00  0.00    -0.461 OA
BRANCH   2   3
ATOM      3  C   UNL     1       1.627  -3.745  -1.410  1.00  0.00     0.347 C 
ATOM      4  O   UNL     1       1.883  -3.187  -0.350  1.00  0.00    -0.248 OA
BRANCH   3   5
ATOM      5  C   UNL     1       2.417  -3.524  -2.697  1.00  0.00     0.279 C 
ATOM      6  C   UNL     1       3.381  -4.688  -2.915  1.00  0.00     0.066 C 
BRANCH   5   7
ATOM      7  O   UNL     1       1.455  -3.364  -3.747  1.00  0.00    -0.478 OA
BRANCH   7   8
ATOM      8  C   UNL     1       1.978  -2.864  -4.908  1.00  0.00     0.127 A 
ATOM      9  C   UNL     1       1.895  -1.500  -5.223  1.00  0.00     0.018 A 
ATOM     10  C   UNL     1       2.310  -1.079  -6.496  1.00  0.00     0.012 A 
ATOM     11  C   UNL     1       2.792  -1.998  -7.432  1.00  0.00     0.001 A 
ATOM     12  C   UNL     1       2.436  -3.784  -5.857  1.00  0.00     0.047 A 
ATOM     13  C   UNL     1       2.858  -3.351  -7.110  1.00  0.00     0.004 A 
BRANCH   9  14
ATOM     14  C   UNL     1       1.341  -0.490  -4.311  1.00  0.00     0.036 C 
ATOM     15  N   UNL     1       2.340   1.859  -1.753  1.00  0.00    -0.186 N 
ATOM     16  C   UNL     1       1.398   1.279  -2.582  1.00  0.00     0.348 C 
ATOM     17  C   UNL     1       3.621   1.369  -1.836  1.00  0.00     0.324 C 
ATOM     18  O   UNL     1       0.232   1.626  -2.706  1.00  0.00    -0.240 OA
ATOM     19  C   UNL     1       2.021   0.184  -3.374  1.00  0.00     0.110 C 
ATOM     20  S   UNL     1       3.674   0.018  -2.942  1.00  0.00     0.007 SA
ATOM     21  N   UNL     1       4.610   1.909  -1.203  1.00  0.00    -0.231 N 
ATOM     22  H   UNL     1       4.441   2.711  -0.657  1.00  0.00     0.313 HD
BRANCH  15  23
ATOM     23  C   UNL     1       1.971   2.988  -0.907  1.00  0.00     0.244 C 
ATOM     24  C   UNL     1       1.085   2.576   0.261  1.00  0.00     0.055 C 
ENDBRANCH  15  23
BRANCH  21  25
ATOM     25  C   UNL     1       5.922   1.396  -1.265  1.00  0.00     0.167 A 
ATOM     26  C   UNL     1       6.517   0.943  -0.085  1.00  0.00     0.056 A 
ATOM     27  C   UNL     1       6.707   1.416  -2.428  1.00  0.00     0.162 A 
ATOM     28  C   UNL     1       7.841   0.485  -0.076  1.00  0.00     0.008 A 
ATOM     29  C   UNL     1       8.012   0.928  -2.439  1.00  0.00     0.054 A 
ATOM     30  C   UNL     1       8.593   0.458  -1.257  1.00  0.00    -0.047 A 
ATOM     31  C   UNL     1      10.021   0.001  -1.235  1.00  0.00     0.044 C 
BRANCH  27  32
ATOM     32  O   UNL     1       6.236   1.950  -3.599  1.00  0.00    -0.504 OA
ATOM     33  H   UNL     1       5.364   2.291  -3.641  1.00  0.00     0.293 HD
ENDBRANCH  27  32
ENDBRANCH  21  25
ENDBRANCH   9  14
ENDBRANCH   7   8
ENDBRANCH   5   7
ENDBRANCH   3   5
ENDBRANCH   2   3
ENDBRANCH   1   2
BRANCH   1  34
ATOM     34  C   UNL     1      -0.050  -6.537  -0.170  1.00  0.00     0.202 C 
BRANCH  34  35
ATOM     35  O   UNL     1       1.129  -6.963   0.517  1.00  0.00    -0.374 OA
BRANCH  35  36
ATOM     36  C   UNL     1       2.339  -6.991  -0.236  1.00  0.00     0.202 C 
BRANCH  36  37
ATOM     37  C   UNL     1       2.572  -8.256  -1.070  1.00  0.00     0.261 C 
BRANCH  37  38
ATOM     38  O   UNL     1       1.581  -8.414  -2.102  1.00  0.00    -0.460 OA
BRANCH  38  39
ATOM     39  C   UNL     1       0.692  -9.408  -1.880  1.00  0.00     0.338 C 
ATOM     40  O   UNL     1       0.697 -10.220  -0.961  1.00  0.00    -0.246 OA
BRANCH  39  41
ATOM     41  C   UNL     1      -0.429  -9.318  -2.830  1.00  0.00     0.060 A 
ATOM     42  C   UNL     1      -1.725  -9.318  -2.297  1.00  0.00     0.016 A 
ATOM     43  C   UNL     1      -0.231  -9.328  -4.213  1.00  0.00     0.016 A 
ATOM     44  C   UNL     1      -2.828  -9.384  -3.143  1.00  0.00     0.010 A 
ATOM     45  C   UNL     1      -1.341  -9.403  -5.062  1.00  0.00     0.010 A 
ATOM     46  C   UNL     1      -2.642  -9.470  -4.529  1.00  0.00    -0.014 A 
BRANCH  46  47
ATOM     47  C   UNL     1      -3.800  -9.788  -5.399  1.00  0.00     0.031 A 
ATOM     48  C   UNL     1      -4.009 -11.210  -5.842  1.00  0.00     0.074 A 
ATOM     49  C   UNL     1      -4.676  -8.833  -5.758  1.00  0.00     0.049 A 
ATOM     50  N   UNL     1      -4.935 -11.711  -6.620  1.00  0.00    -0.248 NA
ATOM     51  C   UNL     1      -3.044 -12.200  -5.340  1.00  0.00     0.031 C 
ATOM     52  C   UNL     1      -4.604  -7.430  -5.358  1.00  0.00     0.029 A 
ATOM     53  N   UNL     1      -5.797  -8.904  -6.546  1.00  0.00    -0.354 N 
ATOM     54  C   UNL     1      -4.660 -13.070  -6.706  1.00  0.00     0.074 A 
ATOM     55  C   UNL     1      -3.467 -13.312  -5.924  1.00  0.00     0.031 C 
ATOM     56  C   UNL     1      -5.632  -6.767  -5.915  1.00  0.00     0.029 A 
ATOM     57  C   UNL     1      -6.415  -7.693  -6.732  1.00  0.00     0.049 A 
ATOM     58  H   UNL     1      -6.127  -9.744  -6.941  1.00  0.00     0.167 HD
ATOM     59  C   UNL     1      -5.346 -14.029  -7.371  1.00  0.00     0.037 A 
ATOM     60  C   UNL     1      -7.478  -7.367  -7.493  1.00  0.00     0.037 A 
ATOM     61  C   UNL     1      -6.537 -13.789  -8.141  1.00  0.00     0.049 A 
ATOM     62  C   UNL     1      -8.188  -8.443  -8.274  1.00  0.00     0.074 A 
ATOM     63  C   UNL     1      -7.318 -14.701  -8.830  1.00  0.00     0.029 A 
ATOM     64  N   UNL     1      -7.116 -12.543  -8.330  1.00  0.00    -0.354 N 
ATOM     65  N   UNL     1      -7.936  -9.729  -8.330  1.00  0.00    -0.248 NA
ATOM     66  C   UNL     1      -9.331  -8.021  -9.096  1.00  0.00     0.031 C 
ATOM     67  C   UNL     1      -8.342 -14.000  -9.475  1.00  0.00     0.029 A 
ATOM     68  C   UNL     1      -8.229 -12.659  -9.146  1.00  0.00     0.049 A 
ATOM     69  H   UNL     1      -6.785 -11.701  -7.941  1.00  0.00     0.167 HD
ATOM     70  C   UNL     1      -8.902 -10.272  -9.167  1.00  0.00     0.074 A 
ATOM     71  C   UNL     1      -9.752  -9.178  -9.589  1.00  0.00     0.031 C 
ATOM     72  C   UNL     1      -9.070 -11.561  -9.551  1.00  0.00     0.037 A 
BRANCH  59  73
ATOM     73  C   UNL     1      -4.809 -15.429  -7.317  1.00  0.00     0.064 A 
ATOM     74  C   UNL     1      -4.897 -16.209  -6.154  1.00  0.00     0.173 A 
ATOM     75  C   UNL     1      -4.234 -16.011  -8.457  1.00  0.00     0.173 A 
ATOM     76  F   UNL     1      -5.426 -15.694  -5.034  1.00  0.00    -0.203 F 
ATOM     77  C   UNL     1      -4.408 -17.513  -6.128  1.00  0.00     0.198 A 
ATOM     78  C   UNL     1      -3.771 -17.323  -8.435  1.00  0.00     0.198 A 
ATOM     79  F   UNL     1      -4.129 -15.309  -9.595  1.00  0.00    -0.203 F 
ATOM     80  F   UNL     1      -4.465 -18.226  -4.995  1.00  0.00    -0.200 F 
ATOM     81  C   UNL     1      -3.853 -18.071  -7.270  1.00  0.00     0.200 A 
ATOM     82  F   UNL     1      -3.244 -17.865  -9.542  1.00  0.00    -0.200 F 
ATOM     83  F   UNL     1      -3.390 -19.328  -7.246  1.00  0.00    -0.200 F 
ENDBRANCH  59  73
BRANCH  60  84
ATOM     84  C   UNL     1      -7.928  -5.953  -7.567  1.00  0.00     0.064 A 
ATOM     85  C   UNL     1      -9.147  -5.550  -7.006  1.00  0.00     0.173 A 
ATOM     86  C   UNL     1      -7.154  -4.980  -8.215  1.00  0.00     0.173 A 
ATOM     87  F   UNL     1      -9.936  -6.450  -6.400  1.00  0.00    -0.203 F 
ATOM     88  C   UNL     1      -9.581  -4.229  -7.102  1.00  0.00     0.198 A 
ATOM     89  C   UNL     1      -7.575  -3.654  -8.287  1.00  0.00     0.198 A 
ATOM     90  F   UNL     1      -5.981  -5.316  -8.773  1.00  0.00    -0.203 F 
ATOM     91  F   UNL     1     -10.771  -3.878  -6.595  1.00  0.00    -0.200 F 
ATOM     92  C   UNL     1      -8.792  -3.281  -7.737  1.00  0.00     0.200 A 
ATOM     93  F   UNL     1      -6.805  -2.741  -8.893  1.00  0.00    -0.200 F 
ATOM     94  F   UNL     1      -9.208  -2.011  -7.827  1.00  0.00    -0.200 F 
ENDBRANCH  60  84
BRANCH  72  95
ATOM     95  C   UNL     1     -10.235 -11.871 -10.446  1.00  0.00     0.064 A 
ATOM     96  C   UNL     1     -10.241 -11.506 -11.799  1.00  0.00     0.173 A 
ATOM     97  C   UNL     1     -11.335 -12.591  -9.954  1.00  0.00     0.173 A 
ATOM     98  F   UNL     1      -9.219 -10.806 -12.314  1.00  0.00    -0.203 F 
ATOM     99  C   UNL     1     -11.315 -11.833 -12.623  1.00  0.00     0.198 A 
ATOM    100  C   UNL     1     -12.394 -12.940 -10.787  1.00  0.00     0.198 A 
ATOM    101  F   UNL     1     -11.375 -12.970  -8.667  1.00  0.00    -0.203 F 
ATOM    102  F   UNL     1     -11.318 -11.440 -13.905  1.00  0.00    -0.200 F 
ATOM    103  C   UNL     1     -12.386 -12.556 -12.119  1.00  0.00     0.200 A 
ATOM    104  F   UNL     1     -13.422 -13.650 -10.301  1.00  0.00    -0.200 F 
ATOM    105  F   UNL     1     -13.414 -12.878 -12.916  1.00  0.00    -0.200 F 
ENDBRANCH  72  95
ENDBRANCH  46  47
ENDBRANCH  39  41
ENDBRANCH  38  39
ENDBRANCH  37  38
ENDBRANCH  36  37
ENDBRANCH  35  36
ENDBRANCH  34  35
ENDBRANCH   1  34
TORSDOF 20
