REMARK SMILES CCCOc1ccccc1O[C@@H]1CC[C@@]([NH3+])(C(=O)OCCOCCOC(=O)c2ccc(-c3c4nc(c(-c5c(F)c(F)c(F)c(F)c5F)c5ccc([nH]5)c(-c5c(F)c(F)c(F)c(F)c5F)c5nc(c(-c6c(F)c(F)c(F)c(F)c6F)c6ccc3[nH]6)C=C5)C=C4)cc2)C1
REMARK SMILES IDX 20 1 19 2 17 3 18 4 15 5 12 6 13 7 91 8 14 9 11 10 10 11
REMARK SMILES IDX 5 12 6 13 7 14 9 15 8 16 4 17 3 18 2 19 1 20 16 21 21 25
REMARK SMILES IDX 22 26 23 27 24 28 25 29 26 30 27 31 28 32 29 33 90 34 30 35
REMARK SMILES IDX 89 36 31 37 32 38 33 39 83 40 34 41 88 42 82 43 84 44 35 45
REMARK SMILES IDX 87 46 81 47 80 48 36 50 68 51 48 52 67 53 49 54 52 55 66 56
REMARK SMILES IDX 85 57 50 58 51 59 65 61 86 62 53 63 37 64 38 65 46 66 39 67
REMARK SMILES IDX 40 68 44 69 47 70 41 71 42 72 45 73 43 74 69 75 70 76 78 77
REMARK SMILES IDX 71 78 72 79 76 80 79 81 73 82 74 83 77 84 75 85 54 86 55 87
REMARK SMILES IDX 63 88 56 89 57 90 61 91 64 92 58 93 59 94 62 95 60 96
REMARK H PARENT 16 22 16 23 16 24 84 49 52 60
REMARK Flexibility Score: inf
ROOT
ATOM      1  C   UNL     1       2.182   5.537  -2.109  1.00  0.00     0.261 C 
ENDROOT
BRANCH   1   2
ATOM      2  O   UNL     1       1.783   4.227  -2.580  1.00  0.00    -0.459 OA
BRANCH   2   3
ATOM      3  C   UNL     1       2.598   3.152  -2.314  1.00  0.00     0.368 C 
ATOM      4  O   UNL     1       3.707   3.212  -1.801  1.00  0.00    -0.245 OA
BRANCH   3   5
ATOM      5  C   UNL     1       1.886   1.747  -2.806  1.00  0.00     0.196 C 
ATOM      6  C   UNL     1       0.291  -0.382  -0.839  1.00  0.00     0.180 C 
ATOM      7  C   UNL     1      -1.072   0.620  -1.936  1.00  0.00     0.052 C 
ATOM      8  C   UNL     1       2.146   0.234  -1.470  1.00  0.00     0.126 C 
ATOM      9  C   UNL     1      -0.096   2.018  -2.983  1.00  0.00     0.085 C 
BRANCH   6  10
ATOM     10  O   UNL     1       0.074  -1.681  -0.339  1.00  0.00    -0.486 OA
BRANCH  10  11
ATOM     11  C   UNL     1       0.576  -2.633  -1.138  1.00  0.00     0.161 A 
ATOM     12  C   UNL     1       0.612  -2.426  -2.498  1.00  0.00     0.161 A 
ATOM     13  C   UNL     1       1.022  -3.457  -3.327  1.00  0.00     0.050 A 
ATOM     14  C   UNL     1       1.413  -4.680  -2.756  1.00  0.00     0.004 A 
ATOM     15  C   UNL     1       0.928  -3.841  -0.555  1.00  0.00     0.050 A 
ATOM     16  C   UNL     1       1.358  -4.875  -1.371  1.00  0.00     0.004 A 
BRANCH  12  17
ATOM     17  O   UNL     1      -0.018  -1.306  -2.955  1.00  0.00    -0.490 OA
BRANCH  17  18
ATOM     18  C   UNL     1       0.672   0.049  -2.780  1.00  0.00     0.229 C 
BRANCH  18  19
ATOM     19  C   UNL     1       0.648   1.492  -1.148  1.00  0.00     0.038 C 
ATOM     20  C   UNL     1       1.390   1.540   0.447  1.00  0.00     0.007 C 
ENDBRANCH  18  19
ENDBRANCH  17  18
ENDBRANCH  12  17
ENDBRANCH  10  11
ENDBRANCH   6  10
BRANCH   5  21
ATOM     21  N   UNL     1       2.521   1.599  -4.151  1.00  0.00    -0.343 N 
ATOM     22  H   UNL     1       2.313   2.422  -4.717  1.00  0.00     0.345 HD
ATOM     23  H   UNL     1       2.152   0.767  -4.612  1.00  0.00     0.345 HD
ATOM     24  H   UNL     1       3.531   1.508  -4.042  1.00  0.00     0.345 HD
ENDBRANCH   5  21
ENDBRANCH   3   5
ENDBRANCH   2   3
ENDBRANCH   1   2
BRANCH   1  25
ATOM     25  C   UNL     1       1.038   6.281  -1.375  1.00  0.00     0.202 C 
BRANCH  25  26
ATOM     26  O   UNL     1       0.664   5.845  -0.061  1.00  0.00    -0.374 OA
BRANCH  26  27
ATOM     27  C   UNL     1      -0.039   4.613  -0.011  1.00  0.00     0.202 C 
BRANCH  27  28
ATOM     28  C   UNL     1      -1.566   4.605  -0.124  1.00  0.00     0.261 C 
BRANCH  28  29
ATOM     29  O   UNL     1      -1.997   5.224  -1.341  1.00  0.00    -0.460 OA
BRANCH  29  30
ATOM     30  C   UNL     1      -2.375   6.511  -1.175  1.00  0.00     0.338 C 
ATOM     31  O   UNL     1      -2.518   7.117  -0.128  1.00  0.00    -0.246 OA
BRANCH  30  32
ATOM     32  C   UNL     1      -2.399   7.173  -2.484  1.00  0.00     0.060 A 
ATOM     33  C   UNL     1      -1.601   8.314  -2.625  1.00  0.00     0.016 A 
ATOM     34  C   UNL     1      -3.205   6.719  -3.529  1.00  0.00     0.016 A 
ATOM     35  C   UNL     1      -1.639   9.042  -3.805  1.00  0.00     0.010 A 
ATOM     36  C   UNL     1      -3.255   7.461  -4.709  1.00  0.00     0.010 A 
ATOM     37  C   UNL     1      -2.497   8.639  -4.835  1.00  0.00    -0.014 A 
BRANCH  37  38
ATOM     38  C   UNL     1      -2.699   9.530  -5.995  1.00  0.00     0.031 A 
ATOM     39  C   UNL     1      -3.939  10.372  -6.051  1.00  0.00     0.074 A 
ATOM     40  C   UNL     1      -1.774   9.593  -6.966  1.00  0.00     0.049 A 
ATOM     41  N   UNL     1      -4.365  11.158  -7.004  1.00  0.00    -0.248 NA
ATOM     42  C   UNL     1      -4.820  10.317  -4.873  1.00  0.00     0.031 C 
ATOM     43  C   UNL     1      -0.510   8.859  -6.972  1.00  0.00     0.029 A 
ATOM     44  N   UNL     1      -1.763  10.299  -8.140  1.00  0.00    -0.354 N 
ATOM     45  C   UNL     1      -5.568  11.681  -6.548  1.00  0.00     0.074 A 
ATOM     46  C   UNL     1      -5.820  11.101  -5.247  1.00  0.00     0.031 C 
ATOM     47  C   UNL     1       0.150   9.141  -8.107  1.00  0.00     0.029 A 
ATOM     48  C   UNL     1      -0.669  10.033  -8.924  1.00  0.00     0.049 A 
ATOM     49  H   UNL     1      -2.470  10.934  -8.395  1.00  0.00     0.167 HD
ATOM     50  C   UNL     1      -6.381  12.571  -7.164  1.00  0.00     0.037 A 
ATOM     51  C   UNL     1      -0.387  10.436 -10.177  1.00  0.00     0.037 A 
ATOM     52  C   UNL     1      -6.113  13.130  -8.463  1.00  0.00     0.049 A 
ATOM     53  C   UNL     1      -1.362  11.342 -10.885  1.00  0.00     0.074 A 
ATOM     54  C   UNL     1      -6.857  14.053  -9.175  1.00  0.00     0.029 A 
ATOM     55  N   UNL     1      -5.018  12.804  -9.251  1.00  0.00    -0.354 N 
ATOM     56  N   UNL     1      -2.484  11.858 -10.443  1.00  0.00    -0.248 NA
ATOM     57  C   UNL     1      -1.035  11.716 -12.267  1.00  0.00     0.031 C 
ATOM     58  C   UNL     1      -6.253  14.227 -10.424  1.00  0.00     0.029 A 
ATOM     59  C   UNL     1      -5.091  13.471 -10.463  1.00  0.00     0.049 A 
ATOM     60  H   UNL     1      -4.295  12.189  -8.988  1.00  0.00     0.167 HD
ATOM     61  C   UNL     1      -2.984  12.635 -11.479  1.00  0.00     0.074 A 
ATOM     62  C   UNL     1      -2.031  12.538 -12.566  1.00  0.00     0.031 C 
ATOM     63  C   UNL     1      -4.128  13.360 -11.531  1.00  0.00     0.037 A 
BRANCH  50  64
ATOM     64  C   UNL     1      -7.652  12.957  -6.463  1.00  0.00     0.064 A 
ATOM     65  C   UNL     1      -7.651  13.717  -5.284  1.00  0.00     0.173 A 
ATOM     66  C   UNL     1      -8.896  12.583  -6.997  1.00  0.00     0.173 A 
ATOM     67  F   UNL     1      -6.491  14.092  -4.723  1.00  0.00    -0.203 F 
ATOM     68  C   UNL     1      -8.842  14.059  -4.648  1.00  0.00     0.198 A 
ATOM     69  C   UNL     1     -10.086  12.958  -6.380  1.00  0.00     0.198 A 
ATOM     70  F   UNL     1      -8.958  11.860  -8.125  1.00  0.00    -0.203 F 
ATOM     71  F   UNL     1      -8.813  14.736  -3.492  1.00  0.00    -0.200 F 
ATOM     72  C   UNL     1     -10.058  13.686  -5.201  1.00  0.00     0.200 A 
ATOM     73  F   UNL     1     -11.260  12.611  -6.925  1.00  0.00    -0.200 F 
ATOM     74  F   UNL     1     -11.204  14.023  -4.593  1.00  0.00    -0.200 F 
ENDBRANCH  50  64
BRANCH  51  75
ATOM     75  C   UNL     1       0.852   9.963 -10.848  1.00  0.00     0.064 A 
ATOM     76  C   UNL     1       1.876  10.857 -11.187  1.00  0.00     0.173 A 
ATOM     77  C   UNL     1       1.035   8.610 -11.173  1.00  0.00     0.173 A 
ATOM     78  F   UNL     1       1.740  12.164 -10.918  1.00  0.00    -0.203 F 
ATOM     79  C   UNL     1       3.026  10.420 -11.842  1.00  0.00     0.198 A 
ATOM     80  C   UNL     1       2.200   8.169 -11.796  1.00  0.00     0.198 A 
ATOM     81  F   UNL     1       0.086   7.711 -10.871  1.00  0.00    -0.203 F 
ATOM     82  F   UNL     1       3.966  11.305 -12.200  1.00  0.00    -0.200 F 
ATOM     83  C   UNL     1       3.190   9.076 -12.139  1.00  0.00     0.200 A 
ATOM     84  F   UNL     1       2.361   6.866 -12.065  1.00  0.00    -0.200 F 
ATOM     85  F   UNL     1       4.298   8.656 -12.764  1.00  0.00    -0.200 F 
ENDBRANCH  51  75
BRANCH  63  86
ATOM     86  C   UNL     1      -4.408  14.124 -12.793  1.00  0.00     0.064 A 
ATOM     87  C   UNL     1      -4.764  13.473 -13.983  1.00  0.00     0.173 A 
ATOM     88  C   UNL     1      -4.389  15.528 -12.793  1.00  0.00     0.173 A 
ATOM     89  F   UNL     1      -4.783  12.133 -14.040  1.00  0.00    -0.203 F 
ATOM     90  C   UNL     1      -5.073  14.198 -15.131  1.00  0.00     0.198 A 
ATOM     91  C   UNL     1      -4.734  16.250 -13.932  1.00  0.00     0.198 A 
ATOM     92  F   UNL     1      -4.062  16.201 -11.679  1.00  0.00    -0.203 F 
ATOM     93  F   UNL     1      -5.368  13.554 -16.268  1.00  0.00    -0.200 F 
ATOM     94  C   UNL     1      -5.070  15.585 -15.101  1.00  0.00     0.200 A 
ATOM     95  F   UNL     1      -4.750  17.590 -13.895  1.00  0.00    -0.200 F 
ATOM     96  F   UNL     1      -5.388  16.281 -16.201  1.00  0.00    -0.200 F 
ENDBRANCH  63  86
ENDBRANCH  37  38
ENDBRANCH  30  32
ENDBRANCH  29  30
ENDBRANCH  28  29
ENDBRANCH  27  28
ENDBRANCH  26  27
ENDBRANCH  25  26
ENDBRANCH   1  25
TORSDOF 20
