REMARK SMILES O=C(OCCOCCOC(=O)[C@H]1CC[C@@H]([NH+]2CCCC2)CC1)c1ccc(-c2c3nc(c(-c4c(F)c(F)c(F)c(F)c4F)c4ccc([nH]4)c(-c4c(F)c(F)c(F)c(F)c4F)c4nc(c(-c5c(F)c(F)c(F)c(F)c5F)c5ccc2[nH]5)C=C4)C=C3)cc1
REMARK SMILES IDX 5 1 4 2 3 3 2 4 1 5 23 6 24 7 85 8 25 9 84 10 26 11 27 12
REMARK SMILES IDX 28 13 78 14 29 15 83 16 77 17 79 18 30 19 82 20 76 21 75 22
REMARK SMILES IDX 31 24 63 25 43 26 62 27 44 28 47 29 61 30 80 31 45 32 46 33
REMARK SMILES IDX 60 35 81 36 48 37 32 38 33 39 41 40 34 41 35 42 39 43 42 44
REMARK SMILES IDX 36 45 37 46 40 47 38 48 64 49 65 50 73 51 66 52 67 53 71 54
REMARK SMILES IDX 74 55 68 56 69 57 72 58 70 59 49 60 50 61 58 62 51 63 52 64
REMARK SMILES IDX 56 65 59 66 53 67 54 68 57 69 55 70 6 71 7 72 8 73 9 74
REMARK SMILES IDX 10 75 11 76 12 77 13 78 22 79 14 80 21 81 15 82 16 83 17 84
REMARK SMILES IDX 20 85 18 87 19 88
REMARK H PARENT 79 23 47 34 16 86
REMARK Flexibility Score: inf
ROOT
ATOM      1  C   UNL     1       4.460  -0.339   1.047  1.00  0.00     0.202 C 
ENDROOT
BRANCH   1   2
ATOM      2  C   UNL     1       4.080   1.036   0.503  1.00  0.00     0.261 C 
BRANCH   2   3
ATOM      3  O   UNL     1       2.650   1.120   0.337  1.00  0.00    -0.460 OA
BRANCH   3   4
ATOM      4  C   UNL     1       1.961   1.036  -0.827  1.00  0.00     0.338 C 
ATOM      5  O   UNL     1       0.740   1.145  -0.835  1.00  0.00    -0.246 OA
BRANCH   4   6
ATOM      6  C   UNL     1       2.671   0.848  -2.115  1.00  0.00     0.060 A 
ATOM      7  C   UNL     1       3.788   0.030  -2.231  1.00  0.00     0.016 A 
ATOM      8  C   UNL     1       2.180   1.469  -3.266  1.00  0.00     0.016 A 
ATOM      9  C   UNL     1       4.499  -0.082  -3.391  1.00  0.00     0.010 A 
ATOM     10  C   UNL     1       2.836   1.285  -4.487  1.00  0.00     0.010 A 
ATOM     11  C   UNL     1       4.004   0.512  -4.535  1.00  0.00    -0.014 A 
BRANCH  11  12
ATOM     12  C   UNL     1       4.849   0.354  -5.716  1.00  0.00     0.031 A 
ATOM     13  C   UNL     1       5.671   1.522  -6.136  1.00  0.00     0.074 A 
ATOM     14  C   UNL     1       5.037  -0.885  -6.205  1.00  0.00     0.049 A 
ATOM     15  N   UNL     1       6.450   1.650  -7.169  1.00  0.00    -0.248 NA
ATOM     16  C   UNL     1       5.626   2.707  -5.257  1.00  0.00     0.031 C 
ATOM     17  C   UNL     1       4.425  -2.109  -5.667  1.00  0.00     0.029 A 
ATOM     18  N   UNL     1       5.838  -1.335  -7.213  1.00  0.00    -0.354 N 
ATOM     19  C   UNL     1       6.942   2.944  -7.100  1.00  0.00     0.074 A 
ATOM     20  C   UNL     1       6.395   3.560  -5.915  1.00  0.00     0.031 C 
ATOM     21  C   UNL     1       4.901  -3.171  -6.333  1.00  0.00     0.029 A 
ATOM     22  C   UNL     1       5.753  -2.692  -7.410  1.00  0.00     0.049 A 
ATOM     23  H   UNL     1       6.420  -0.747  -7.745  1.00  0.00     0.167 HD
ATOM     24  C   UNL     1       7.763   3.550  -7.985  1.00  0.00     0.037 A 
ATOM     25  C   UNL     1       6.264  -3.438  -8.403  1.00  0.00     0.037 A 
ATOM     26  C   UNL     1       8.278   2.871  -9.142  1.00  0.00     0.049 A 
ATOM     27  C   UNL     1       7.060  -2.709  -9.450  1.00  0.00     0.074 A 
ATOM     28  C   UNL     1       9.034   3.372 -10.181  1.00  0.00     0.029 A 
ATOM     29  N   UNL     1       8.081   1.516  -9.398  1.00  0.00    -0.354 N 
ATOM     30  N   UNL     1       7.418  -1.445  -9.482  1.00  0.00    -0.248 NA
ATOM     31  C   UNL     1       7.497  -3.490 -10.609  1.00  0.00     0.031 C 
ATOM     32  C   UNL     1       9.250   2.331 -11.092  1.00  0.00     0.029 A 
ATOM     33  C   UNL     1       8.684   1.166 -10.590  1.00  0.00     0.049 A 
ATOM     34  H   UNL     1       7.584   0.898  -8.814  1.00  0.00     0.167 HD
ATOM     35  C   UNL     1       8.137  -1.279 -10.653  1.00  0.00     0.074 A 
ATOM     36  C   UNL     1       8.181  -2.582 -11.292  1.00  0.00     0.031 C 
ATOM     37  C   UNL     1       8.704  -0.158 -11.165  1.00  0.00     0.037 A 
BRANCH  24  38
ATOM     38  C   UNL     1       8.029   5.009  -7.777  1.00  0.00     0.064 A 
ATOM     39  C   UNL     1       8.816   5.488  -6.720  1.00  0.00     0.173 A 
ATOM     40  C   UNL     1       7.421   5.953  -8.620  1.00  0.00     0.173 A 
ATOM     41  F   UNL     1       9.385   4.630  -5.859  1.00  0.00    -0.203 F 
ATOM     42  C   UNL     1       8.960   6.856  -6.496  1.00  0.00     0.198 A 
ATOM     43  C   UNL     1       7.590   7.318  -8.412  1.00  0.00     0.198 A 
ATOM     44  F   UNL     1       6.640   5.550  -9.634  1.00  0.00    -0.203 F 
ATOM     45  F   UNL     1       9.658   7.291  -5.438  1.00  0.00    -0.200 F 
ATOM     46  C   UNL     1       8.351   7.769  -7.344  1.00  0.00     0.200 A 
ATOM     47  F   UNL     1       6.998   8.198  -9.231  1.00  0.00    -0.200 F 
ATOM     48  F   UNL     1       8.480   9.085  -7.121  1.00  0.00    -0.200 F 
ENDBRANCH  24  38
BRANCH  25  49
ATOM     49  C   UNL     1       5.962  -4.891  -8.499  1.00  0.00     0.064 A 
ATOM     50  C   UNL     1       6.979  -5.852  -8.448  1.00  0.00     0.173 A 
ATOM     51  C   UNL     1       4.644  -5.353  -8.661  1.00  0.00     0.173 A 
ATOM     52  F   UNL     1       8.257  -5.468  -8.312  1.00  0.00    -0.203 F 
ATOM     53  C   UNL     1       6.695  -7.212  -8.578  1.00  0.00     0.198 A 
ATOM     54  C   UNL     1       4.357  -6.713  -8.755  1.00  0.00     0.198 A 
ATOM     55  F   UNL     1       3.626  -4.481  -8.720  1.00  0.00    -0.203 F 
ATOM     56  F   UNL     1       7.694  -8.105  -8.579  1.00  0.00    -0.200 F 
ATOM     57  C   UNL     1       5.384  -7.641  -8.725  1.00  0.00     0.200 A 
ATOM     58  F   UNL     1       3.087  -7.121  -8.881  1.00  0.00    -0.200 F 
ATOM     59  F   UNL     1       5.113  -8.948  -8.851  1.00  0.00    -0.200 F 
ENDBRANCH  25  49
BRANCH  37  60
ATOM     60  C   UNL     1       9.456  -0.321 -12.449  1.00  0.00     0.064 A 
ATOM     61  C   UNL     1       8.796  -0.528 -13.668  1.00  0.00     0.173 A 
ATOM     62  C   UNL     1      10.855  -0.214 -12.458  1.00  0.00     0.173 A 
ATOM     63  F   UNL     1       7.461  -0.655 -13.700  1.00  0.00    -0.203 F 
ATOM     64  C   UNL     1       9.515  -0.647 -14.851  1.00  0.00     0.198 A 
ATOM     65  C   UNL     1      11.566  -0.296 -13.648  1.00  0.00     0.198 A 
ATOM     66  F   UNL     1      11.525  -0.009 -11.314  1.00  0.00    -0.203 F 
ATOM     67  F   UNL     1       8.872  -0.895 -16.000  1.00  0.00    -0.200 F 
ATOM     68  C   UNL     1      10.897  -0.520 -14.842  1.00  0.00     0.200 A 
ATOM     69  F   UNL     1      12.898  -0.155 -13.640  1.00  0.00    -0.200 F 
ATOM     70  F   UNL     1      11.586  -0.619 -15.987  1.00  0.00    -0.200 F 
ENDBRANCH  37  60
ENDBRANCH  11  12
ENDBRANCH   4   6
ENDBRANCH   3   4
ENDBRANCH   2   3
ENDBRANCH   1   2
BRANCH   1  71
ATOM     71  O   UNL     1       4.076  -1.487   0.294  1.00  0.00    -0.374 OA
BRANCH  71  72
ATOM     72  C   UNL     1       2.736  -1.961   0.455  1.00  0.00     0.202 C 
BRANCH  72  73
ATOM     73  C   UNL     1       2.785  -3.434   0.855  1.00  0.00     0.261 C 
BRANCH  73  74
ATOM     74  O   UNL     1       3.420  -3.519   2.139  1.00  0.00    -0.463 OA
BRANCH  74  75
ATOM     75  C   UNL     1       4.782  -3.564   2.154  1.00  0.00     0.309 C 
ATOM     76  O   UNL     1       5.498  -3.847   1.199  1.00  0.00    -0.252 OA
BRANCH  75  77
ATOM     77  C   UNL     1       5.307  -3.207   3.539  1.00  0.00     0.099 C 
ATOM     78  C   UNL     1       4.876  -1.789   3.946  1.00  0.00     0.021 C 
ATOM     79  C   UNL     1       4.883  -4.323   4.489  1.00  0.00     0.021 C 
ATOM     80  C   UNL     1       4.685  -1.493   5.426  1.00  0.00     0.066 C 
ATOM     81  C   UNL     1       4.873  -3.906   5.945  1.00  0.00     0.066 C 
ATOM     82  C   UNL     1       4.046  -2.638   6.223  1.00  0.00     0.184 C 
BRANCH  82  83
ATOM     83  N   UNL     1       2.578  -2.721   6.170  1.00  0.00    -0.333 N 
ATOM     84  C   UNL     1       1.984  -3.803   6.955  1.00  0.00     0.262 C 
ATOM     85  C   UNL     1       1.815  -2.653   4.931  1.00  0.00     0.262 C 
ATOM     86  H   UNL     1       2.480  -1.791   6.576  1.00  0.00     0.348 HD
ATOM     87  C   UNL     1       1.548  -4.833   5.930  1.00  0.00     0.067 C 
ATOM     88  C   UNL     1       1.133  -4.002   4.732  1.00  0.00     0.067 C 
ENDBRANCH  82  83
ENDBRANCH  75  77
ENDBRANCH  74  75
ENDBRANCH  73  74
ENDBRANCH  72  73
ENDBRANCH  71  72
ENDBRANCH   1  71
TORSDOF 15
