REMARK SMILES O=C(OCCOCCOC(=O)c1ccc(-c2c3nc(c(-c4c(F)c(F)c(F)c(F)c4F)c4ccc([nH]4)c(-c4c(F)c(F)c(F)c(F)c4F)c4nc(c(-c5c(F)c(F)c(F)c(F)c5F)c5ccc2[nH]5)C=C4)C=C3)cc1)C1=Cc2cc(Cl)cc(-c3ccc(O)cc3)c2O[C@@H]1C(F)(F)F
REMARK SMILES IDX 6 1 5 2 4 3 3 4 2 5 1 6 75 7 76 8 92 9 77 10 91 11 78 12
REMARK SMILES IDX 90 13 79 14 82 15 80 16 81 17 93 18 94 19 95 20 96 21 83 22
REMARK SMILES IDX 84 23 89 24 85 25 88 26 86 27 87 28 7 30 8 31 9 32 10 33
REMARK SMILES IDX 11 34 12 35 13 36 74 37 14 38 73 39 15 40 16 41 17 42 67 43
REMARK SMILES IDX 18 44 72 45 66 46 68 47 19 48 71 49 65 50 64 51 20 53 52 54
REMARK SMILES IDX 32 55 51 56 33 57 36 58 50 59 69 60 34 61 35 62 49 64 70 65
REMARK SMILES IDX 37 66 21 67 22 68 30 69 23 70 24 71 28 72 31 73 25 74 26 75
REMARK SMILES IDX 29 76 27 77 53 78 54 79 62 80 55 81 56 82 60 83 63 84 57 85
REMARK SMILES IDX 58 86 61 87 59 88 38 89 39 90 47 91 40 92 41 93 45 94 48 95
REMARK SMILES IDX 42 96 43 97 46 98 44 99
REMARK H PARENT 87 29 68 52 36 63
REMARK Flexibility Score: inf
ROOT
ATOM      1  O   UNL     1       3.731  -2.454   1.064  1.00  0.00    -0.374 OA
ENDROOT
BRANCH   1   2
ATOM      2  C   UNL     1       4.436  -1.345  -0.094  1.00  0.00     0.202 C 
BRANCH   2   3
ATOM      3  C   UNL     1       3.609   0.623  -0.552  1.00  0.00     0.261 C 
BRANCH   3   4
ATOM      4  O   UNL     1       2.390   0.932  -1.315  1.00  0.00    -0.460 OA
BRANCH   4   5
ATOM      5  C   UNL     1       2.342   0.165  -2.406  1.00  0.00     0.338 C 
ATOM      6  O   UNL     1       1.377   0.038  -3.126  1.00  0.00    -0.246 OA
BRANCH   5   7
ATOM      7  C   UNL     1       3.433  -0.810  -2.129  1.00  0.00     0.087 C 
ATOM      8  C   UNL     1       4.810  -0.351  -2.208  1.00  0.00     0.027 C 
ATOM      9  C   UNL     1       2.547  -1.173  -0.499  1.00  0.00     0.316 C 
ATOM     10  C   UNL     1       5.791   0.238  -0.825  1.00  0.00     0.019 A 
ATOM     11  O   UNL     1       3.443  -0.332   1.033  1.00  0.00    -0.475 OA
ATOM     12  C   UNL     1       7.056   0.713  -1.059  1.00  0.00     0.032 A 
ATOM     13  C   UNL     1       5.144   0.375   0.759  1.00  0.00     0.135 A 
ATOM     14  C   UNL     1       7.684   1.314   0.043  1.00  0.00     0.042 A 
ATOM     15  C   UNL     1       5.866   0.893   1.779  1.00  0.00     0.026 A 
ATOM     16  Cl  UNL     1       9.263   1.986  -0.210  1.00  0.00    -0.084 Cl
ATOM     17  C   UNL     1       7.121   1.415   1.372  1.00  0.00     0.033 A 
BRANCH   9  18
ATOM     18  C   UNL     1       2.443  -2.828  -1.002  1.00  0.00     0.430 C 
ATOM     19  F   UNL     1       1.778  -3.695  -0.226  1.00  0.00    -0.167 F 
ATOM     20  F   UNL     1       1.738  -2.833  -2.178  1.00  0.00    -0.167 F 
ATOM     21  F   UNL     1       3.620  -3.421  -1.345  1.00  0.00    -0.167 F 
ENDBRANCH   9  18
BRANCH  15  22
ATOM     22  C   UNL     1       5.410   0.888   3.123  1.00  0.00    -0.014 A 
ATOM     23  C   UNL     1       4.232   2.372   3.761  1.00  0.00     0.012 A 
ATOM     24  C   UNL     1       5.956  -0.514   4.522  1.00  0.00     0.012 A 
ATOM     25  C   UNL     1       3.288   2.663   5.505  1.00  0.00     0.047 A 
ATOM     26  C   UNL     1       5.146  -0.107   6.313  1.00  0.00     0.047 A 
ATOM     27  C   UNL     1       3.832   1.282   6.893  1.00  0.00     0.115 A 
BRANCH  27  28
ATOM     28  O   UNL     1       3.361   1.368   8.162  1.00  0.00    -0.508 OA
ATOM     29  H   UNL     1       2.745   2.037   8.389  1.00  0.00     0.293 HD
ENDBRANCH  27  28
ENDBRANCH  15  22
ENDBRANCH   5   7
ENDBRANCH   4   5
ENDBRANCH   3   4
ENDBRANCH   2   3
ENDBRANCH   1   2
BRANCH   1  30
ATOM     30  C   UNL     1       2.391  -2.463   1.764  1.00  0.00     0.202 C 
BRANCH  30  31
ATOM     31  C   UNL     1       2.069  -2.133   3.237  1.00  0.00     0.261 C 
BRANCH  31  32
ATOM     32  O   UNL     1       2.509  -0.858   3.652  1.00  0.00    -0.460 OA
BRANCH  32  33
ATOM     33  C   UNL     1       3.843  -0.968   3.832  1.00  0.00     0.338 C 
ATOM     34  O   UNL     1       4.461  -1.998   3.583  1.00  0.00    -0.246 OA
BRANCH  33  35
ATOM     35  C   UNL     1       4.474   0.386   4.516  1.00  0.00     0.060 A 
ATOM     36  C   UNL     1       6.274   1.277   4.741  1.00  0.00     0.016 A 
ATOM     37  C   UNL     1       3.831   1.036   5.142  1.00  0.00     0.016 A 
ATOM     38  C   UNL     1       7.186   2.219   5.198  1.00  0.00     0.010 A 
ATOM     39  C   UNL     1       5.107   2.349   5.917  1.00  0.00     0.010 A 
ATOM     40  C   UNL     1       6.423   2.867   5.984  1.00  0.00    -0.014 A 
BRANCH  40  41
ATOM     41  C   UNL     1       6.923   3.815   6.910  1.00  0.00     0.031 A 
ATOM     42  C   UNL     1       7.266   3.306   8.248  1.00  0.00     0.074 A 
ATOM     43  C   UNL     1       7.094   5.037   6.418  1.00  0.00     0.049 A 
ATOM     44  N   UNL     1       7.840   3.930   9.224  1.00  0.00    -0.248 NA
ATOM     45  C   UNL     1       6.914   1.907   8.544  1.00  0.00     0.031 C 
ATOM     46  C   UNL     1       6.741   5.468   5.060  1.00  0.00     0.029 A 
ATOM     47  N   UNL     1       7.642   6.122   7.001  1.00  0.00    -0.354 N 
ATOM     48  C   UNL     1       7.913   2.996  10.239  1.00  0.00     0.074 A 
ATOM     49  C   UNL     1       7.245   1.797   9.814  1.00  0.00     0.031 C 
ATOM     50  C   UNL     1       7.122   6.742   4.906  1.00  0.00     0.029 A 
ATOM     51  C   UNL     1       7.710   7.191   6.159  1.00  0.00     0.049 A 
ATOM     52  H   UNL     1       7.958   6.139   7.933  1.00  0.00     0.167 HD
ATOM     53  C   UNL     1       8.547   3.155  11.411  1.00  0.00     0.037 A 
ATOM     54  C   UNL     1       8.219   8.396   6.429  1.00  0.00     0.037 A 
ATOM     55  C   UNL     1       9.173   4.395  11.749  1.00  0.00     0.049 A 
ATOM     56  C   UNL     1       8.833   8.565   7.787  1.00  0.00     0.074 A 
ATOM     57  C   UNL     1       9.842   4.735  12.900  1.00  0.00     0.029 A 
ATOM     58  N   UNL     1       9.171   5.515  10.920  1.00  0.00    -0.354 N 
ATOM     59  N   UNL     1       8.954   7.689   8.761  1.00  0.00    -0.248 NA
ATOM     60  C   UNL     1       9.399   9.878   8.078  1.00  0.00     0.031 C 
ATOM     61  C   UNL     1      10.145   6.095  12.816  1.00  0.00     0.029 A 
ATOM     62  C   UNL     1       9.789   6.568  11.557  1.00  0.00     0.049 A 
ATOM     63  H   UNL     1       8.786   5.548  10.014  1.00  0.00     0.167 HD
ATOM     64  C   UNL     1       9.650   8.330   9.770  1.00  0.00     0.074 A 
ATOM     65  C   UNL     1       9.935   9.665   9.269  1.00  0.00     0.031 C 
ATOM     66  C   UNL     1      10.032   7.873  10.992  1.00  0.00     0.037 A 
BRANCH  53  67
ATOM     67  C   UNL     1       8.498   2.018  12.373  1.00  0.00     0.064 A 
ATOM     68  C   UNL     1       9.086   0.772  12.102  1.00  0.00     0.173 A 
ATOM     69  C   UNL     1       7.793   2.168  13.574  1.00  0.00     0.173 A 
ATOM     70  F   UNL     1       9.730   0.562  10.943  1.00  0.00    -0.203 F 
ATOM     71  C   UNL     1       8.942  -0.291  12.987  1.00  0.00     0.198 A 
ATOM     72  C   UNL     1       7.697   1.119  14.479  1.00  0.00     0.198 A 
ATOM     73  F   UNL     1       7.180   3.326  13.859  1.00  0.00    -0.203 F 
ATOM     74  F   UNL     1       9.433  -1.497  12.668  1.00  0.00    -0.200 F 
ATOM     75  C   UNL     1       8.260  -0.112  14.181  1.00  0.00     0.200 A 
ATOM     76  F   UNL     1       7.040   1.297  15.633  1.00  0.00    -0.200 F 
ATOM     77  F   UNL     1       8.130  -1.133  15.038  1.00  0.00    -0.200 F 
ENDBRANCH  53  67
BRANCH  54  78
ATOM     78  C   UNL     1       8.183   9.457   5.407  1.00  0.00     0.064 A 
ATOM     79  C   UNL     1       9.363   9.988   4.877  1.00  0.00     0.173 A 
ATOM     80  C   UNL     1       6.962   9.964   4.937  1.00  0.00     0.173 A 
ATOM     81  F   UNL     1      10.552   9.512   5.277  1.00  0.00    -0.203 F 
ATOM     82  C   UNL     1       9.326  11.039   3.967  1.00  0.00     0.198 A 
ATOM     83  C   UNL     1       6.926  10.982   3.992  1.00  0.00     0.198 A 
ATOM     84  F   UNL     1       5.803   9.458   5.385  1.00  0.00    -0.203 F 
ATOM     85  F   UNL     1      10.471  11.586   3.538  1.00  0.00    -0.200 F 
ATOM     86  C   UNL     1       8.108  11.535   3.526  1.00  0.00     0.200 A 
ATOM     87  F   UNL     1       5.747  11.432   3.542  1.00  0.00    -0.200 F 
ATOM     88  F   UNL     1       8.074  12.554   2.658  1.00  0.00    -0.200 F 
ENDBRANCH  54  78
BRANCH  66  89
ATOM     89  C   UNL     1      10.863   8.806  11.816  1.00  0.00     0.064 A 
ATOM     90  C   UNL     1      10.363  10.020  12.304  1.00  0.00     0.173 A 
ATOM     91  C   UNL     1      12.187   8.458  12.129  1.00  0.00     0.173 A 
ATOM     92  F   UNL     1       9.101  10.390  12.036  1.00  0.00    -0.203 F 
ATOM     93  C   UNL     1      11.186  10.892  13.003  1.00  0.00     0.198 A 
ATOM     94  C   UNL     1      12.981   9.299  12.893  1.00  0.00     0.198 A 
ATOM     95  F   UNL     1      12.703   7.293  11.708  1.00  0.00    -0.203 F 
ATOM     96  F   UNL     1      10.726  12.100  13.356  1.00  0.00    -0.200 F 
ATOM     97  C   UNL     1      12.490  10.528  13.305  1.00  0.00     0.200 A 
ATOM     98  F   UNL     1      14.224   8.923  13.222  1.00  0.00    -0.200 F 
ATOM     99  F   UNL     1      13.281  11.369  13.983  1.00  0.00    -0.200 F 
ENDBRANCH  66  89
ENDBRANCH  40  41
ENDBRANCH  33  35
ENDBRANCH  32  33
ENDBRANCH  31  32
ENDBRANCH  30  31
ENDBRANCH   1  30
TORSDOF 17
