REMARK SMILES CC1(C)Oc2ccc(NC(=O)[C@H]3CC=CC[C@@H]3C(=O)OCCOCCOC(=O)c3ccc(-c4c5nc(c(-c6c(F)c(F)c(F)c(F)c6F)c6ccc([nH]6)c(-c6c(F)c(F)c(F)c(F)c6F)c6nc(c(-c7c(F)c(F)c(F)c(F)c7F)c7ccc4[nH]7)C=C6)C=C5)cc3)cc2NC1=O
REMARK SMILES IDX 23 1 22 2 21 3 20 4 18 5 19 6 17 7 12 8 13 9 14 10 16 11
REMARK SMILES IDX 15 12 10 13 9 14 11 16 8 17 1 18 2 19 3 20 4 21 95 22 5 23
REMARK SMILES IDX 94 24 96 25 6 26 93 27 7 29 92 30 24 31 25 32 26 33 27 34
REMARK SMILES IDX 28 35 29 36 30 37 91 38 31 39 90 40 32 41 33 42 34 43 84 44
REMARK SMILES IDX 35 45 89 46 83 47 85 48 36 49 88 50 82 51 81 52 37 54 69 55
REMARK SMILES IDX 49 56 68 57 50 58 53 59 67 60 86 61 51 62 52 63 66 65 87 66
REMARK SMILES IDX 54 67 38 68 39 69 47 70 40 71 41 72 45 73 48 74 42 75 43 76
REMARK SMILES IDX 46 77 44 78 70 79 71 80 79 81 72 82 73 83 77 84 80 85 74 86
REMARK SMILES IDX 75 87 78 88 76 89 55 90 56 91 64 92 57 93 58 94 62 95 65 96
REMARK SMILES IDX 59 97 60 98 63 99 61 100
REMARK H PARENT 9 15 94 28 85 53 53 64
REMARK Flexibility Score: inf
ROOT
ATOM      1  O   UNL     1       5.814  -8.770   1.393  1.00  0.00    -0.374 OA
ENDROOT
BRANCH   1   2
ATOM      2  C   UNL     1       6.188  -7.815   0.407  1.00  0.00     0.202 C 
BRANCH   2   3
ATOM      3  C   UNL     1       5.719  -8.009  -1.040  1.00  0.00     0.261 C 
BRANCH   3   4
ATOM      4  O   UNL     1       4.291  -8.134  -1.195  1.00  0.00    -0.463 OA
BRANCH   4   5
ATOM      5  C   UNL     1       3.873  -9.410  -1.449  1.00  0.00     0.310 C 
ATOM      6  O   UNL     1       4.630 -10.370  -1.490  1.00  0.00    -0.252 OA
BRANCH   5   7
ATOM      7  C   UNL     1       2.373  -9.477  -1.741  1.00  0.00     0.116 C 
ATOM      8  C   UNL     1       1.458  -9.167  -0.532  1.00  0.00     0.097 C 
ATOM      9  C   UNL     1       1.358 -10.316   0.500  1.00  0.00     0.041 C 
ATOM     10  C   UNL     1       1.704 -11.680  -0.007  1.00  0.00    -0.030 C 
ATOM     11  C   UNL     1       2.072 -10.868  -2.336  1.00  0.00     0.043 C 
ATOM     12  C   UNL     1       2.002 -11.938  -1.286  1.00  0.00    -0.030 C 
BRANCH   8  13
ATOM     13  C   UNL     1       0.057  -8.841  -1.047  1.00  0.00     0.228 C 
ATOM     14  N   UNL     1      -0.459  -7.585  -1.128  1.00  0.00    -0.326 N 
ATOM     15  H   UNL     1      -1.397  -7.590  -1.426  1.00  0.00     0.169 HD
ATOM     16  O   UNL     1      -0.705  -9.747  -1.405  1.00  0.00    -0.274 OA
BRANCH  14  17
ATOM     17  C   UNL     1       0.011  -6.284  -0.894  1.00  0.00     0.043 A 
ATOM     18  C   UNL     1       0.708  -0.035   0.045  1.00  0.00     0.067 C 
ATOM     19  C   UNL     1       0.338  -1.332  -0.680  1.00  0.00     0.182 C 
ATOM     20  C   UNL     1       0.676  -1.185  -2.173  1.00  0.00     0.067 C 
ATOM     21  O   UNL     1       1.186  -2.354  -0.137  1.00  0.00    -0.476 OA
ATOM     22  C   UNL     1      -1.180  -1.598  -0.530  1.00  0.00     0.268 C 
ATOM     23  C   UNL     1       0.751  -3.621  -0.413  1.00  0.00     0.144 A 
ATOM     24  N   UNL     1      -1.544  -2.921  -0.619  1.00  0.00    -0.319 N 
ATOM     25  O   UNL     1      -2.031  -0.717  -0.437  1.00  0.00    -0.270 OA
ATOM     26  C   UNL     1       1.712  -4.617  -0.464  1.00  0.00     0.051 A 
ATOM     27  C   UNL     1      -0.586  -3.937  -0.636  1.00  0.00     0.086 A 
ATOM     28  H   UNL     1      -2.498  -3.156  -0.671  1.00  0.00     0.170 HD
ATOM     29  C   UNL     1       1.348  -5.937  -0.726  1.00  0.00     0.030 A 
ATOM     30  C   UNL     1      -0.958  -5.263  -0.867  1.00  0.00     0.056 A 
ENDBRANCH  14  17
ENDBRANCH   8  13
ENDBRANCH   5   7
ENDBRANCH   4   5
ENDBRANCH   3   4
ENDBRANCH   2   3
ENDBRANCH   1   2
BRANCH   1  31
ATOM     31  C   UNL     1       4.452  -8.799   1.801  1.00  0.00     0.202 C 
BRANCH  31  32
ATOM     32  C   UNL     1       3.942  -7.693   2.733  1.00  0.00     0.261 C 
BRANCH  32  33
ATOM     33  O   UNL     1       4.131  -6.375   2.197  1.00  0.00    -0.460 OA
BRANCH  33  34
ATOM     34  C   UNL     1       5.136  -5.670   2.778  1.00  0.00     0.338 C 
ATOM     35  O   UNL     1       5.827  -6.002   3.727  1.00  0.00    -0.246 OA
BRANCH  34  36
ATOM     36  C   UNL     1       5.428  -4.487   1.948  1.00  0.00     0.060 A 
ATOM     37  C   UNL     1       4.431  -3.576   1.609  1.00  0.00     0.016 A 
ATOM     38  C   UNL     1       6.743  -4.302   1.502  1.00  0.00     0.016 A 
ATOM     39  C   UNL     1       4.750  -2.477   0.808  1.00  0.00     0.010 A 
ATOM     40  C   UNL     1       7.066  -3.191   0.724  1.00  0.00     0.010 A 
ATOM     41  C   UNL     1       6.074  -2.261   0.383  1.00  0.00    -0.014 A 
BRANCH  41  42
ATOM     42  C   UNL     1       6.447  -0.982  -0.270  1.00  0.00     0.031 A 
ATOM     43  C   UNL     1       6.886  -0.916  -1.702  1.00  0.00     0.074 A 
ATOM     44  C   UNL     1       6.435   0.134   0.484  1.00  0.00     0.049 A 
ATOM     45  N   UNL     1       7.228   0.133  -2.409  1.00  0.00    -0.248 NA
ATOM     46  C   UNL     1       6.967  -2.187  -2.433  1.00  0.00     0.031 C 
ATOM     47  C   UNL     1       6.082   0.176   1.903  1.00  0.00     0.029 A 
ATOM     48  N   UNL     1       6.726   1.437   0.172  1.00  0.00    -0.354 N 
ATOM     49  C   UNL     1       7.562  -0.348  -3.667  1.00  0.00     0.074 A 
ATOM     50  C   UNL     1       7.422  -1.789  -3.615  1.00  0.00     0.031 C 
ATOM     51  C   UNL     1       6.145   1.444   2.333  1.00  0.00     0.029 A 
ATOM     52  C   UNL     1       6.586   2.296   1.234  1.00  0.00     0.049 A 
ATOM     53  H   UNL     1       7.008   1.728  -0.725  1.00  0.00     0.167 HD
ATOM     54  C   UNL     1       7.939   0.356  -4.763  1.00  0.00     0.037 A 
ATOM     55  C   UNL     1       6.798   3.622   1.321  1.00  0.00     0.037 A 
ATOM     56  C   UNL     1       8.081   1.791  -4.797  1.00  0.00     0.049 A 
ATOM     57  C   UNL     1       7.231   4.376   0.098  1.00  0.00     0.074 A 
ATOM     58  C   UNL     1       8.389   2.601  -5.877  1.00  0.00     0.029 A 
ATOM     59  N   UNL     1       7.947   2.631  -3.699  1.00  0.00    -0.354 N 
ATOM     60  N   UNL     1       7.453   3.924  -1.112  1.00  0.00    -0.248 NA
ATOM     61  C   UNL     1       7.438   5.822   0.249  1.00  0.00     0.031 C 
ATOM     62  C   UNL     1       8.510   3.917  -5.420  1.00  0.00     0.029 A 
ATOM     63  C   UNL     1       8.210   3.942  -4.068  1.00  0.00     0.049 A 
ATOM     64  H   UNL     1       7.702   2.338  -2.791  1.00  0.00     0.167 HD
ATOM     65  C   UNL     1       7.818   5.027  -1.870  1.00  0.00     0.074 A 
ATOM     66  C   UNL     1       7.762   6.175  -0.988  1.00  0.00     0.031 C 
ATOM     67  C   UNL     1       8.170   5.079  -3.179  1.00  0.00     0.037 A 
BRANCH  54  68
ATOM     68  C   UNL     1       8.233  -0.409  -6.023  1.00  0.00     0.064 A 
ATOM     69  C   UNL     1       7.220  -1.055  -6.748  1.00  0.00     0.173 A 
ATOM     70  C   UNL     1       9.534  -0.440  -6.552  1.00  0.00     0.173 A 
ATOM     71  F   UNL     1       5.959  -1.061  -6.288  1.00  0.00    -0.203 F 
ATOM     72  C   UNL     1       7.501  -1.724  -7.937  1.00  0.00     0.198 A 
ATOM     73  C   UNL     1       9.806  -1.082  -7.758  1.00  0.00     0.198 A 
ATOM     74  F   UNL     1      10.540   0.169  -5.908  1.00  0.00    -0.203 F 
ATOM     75  F   UNL     1       6.523  -2.370  -8.588  1.00  0.00    -0.200 F 
ATOM     76  C   UNL     1       8.791  -1.730  -8.446  1.00  0.00     0.200 A 
ATOM     77  F   UNL     1      11.050  -1.071  -8.256  1.00  0.00    -0.200 F 
ATOM     78  F   UNL     1       9.057  -2.363  -9.596  1.00  0.00    -0.200 F 
ENDBRANCH  54  68
BRANCH  55  79
ATOM     79  C   UNL     1       6.564   4.302   2.620  1.00  0.00     0.064 A 
ATOM     80  C   UNL     1       5.460   5.145   2.802  1.00  0.00     0.173 A 
ATOM     81  C   UNL     1       7.392   4.059   3.727  1.00  0.00     0.173 A 
ATOM     82  F   UNL     1       4.649   5.418   1.769  1.00  0.00    -0.203 F 
ATOM     83  C   UNL     1       5.189   5.715   4.044  1.00  0.00     0.198 A 
ATOM     84  C   UNL     1       7.103   4.605   4.975  1.00  0.00     0.198 A 
ATOM     85  F   UNL     1       8.455   3.250   3.605  1.00  0.00    -0.203 F 
ATOM     86  F   UNL     1       4.136   6.530   4.188  1.00  0.00    -0.200 F 
ATOM     87  C   UNL     1       6.002   5.434   5.132  1.00  0.00     0.200 A 
ATOM     88  F   UNL     1       7.878   4.313   6.028  1.00  0.00    -0.200 F 
ATOM     89  F   UNL     1       5.723   5.959   6.332  1.00  0.00    -0.200 F 
ENDBRANCH  55  79
BRANCH  67  90
ATOM     90  C   UNL     1       8.531   6.422  -3.747  1.00  0.00     0.064 A 
ATOM     91  C   UNL     1       9.722   7.072  -3.390  1.00  0.00     0.173 A 
ATOM     92  C   UNL     1       7.713   7.035  -4.708  1.00  0.00     0.173 A 
ATOM     93  F   UNL     1      10.533   6.537  -2.465  1.00  0.00    -0.203 F 
ATOM     94  C   UNL     1      10.072   8.293  -3.963  1.00  0.00     0.198 A 
ATOM     95  C   UNL     1       8.082   8.238  -5.304  1.00  0.00     0.198 A 
ATOM     96  F   UNL     1       6.566   6.454  -5.090  1.00  0.00    -0.203 F 
ATOM     97  F   UNL     1      11.195   8.914  -3.578  1.00  0.00    -0.200 F 
ATOM     98  C   UNL     1       9.258   8.868  -4.928  1.00  0.00     0.200 A 
ATOM     99  F   UNL     1       7.303   8.784  -6.249  1.00  0.00    -0.200 F 
ATOM    100  F   UNL     1       9.607  10.033  -5.492  1.00  0.00    -0.200 F 
ENDBRANCH  67  90
ENDBRANCH  41  42
ENDBRANCH  34  36
ENDBRANCH  33  34
ENDBRANCH  32  33
ENDBRANCH  31  32
ENDBRANCH   1  31
TORSDOF 16
