REMARK SMILES CCC[C@H]1CCc2c(sc(NC(=O)[C@H]3[C@@H](C(=O)OCCOCCOC(=O)c4ccc(-c5c6nc(c(-c7c(F)c(F)c(F)c(F)c7F)c7ccc([nH]7)c(-c7c(F)c(F)c(F)c(F)c7F)c7nc(c(-c8c(F)c(F)c(F)c(F)c8F)c8ccc5[nH]8)C=C7)C=C6)cc4)[C@H]4CC[C@@H]3O4)c2C(N)=O)C1
REMARK SMILES IDX 20 1 19 2 18 3 16 4 17 5 15 6 14 7 93 8 90 9 92 10 94 11
REMARK SMILES IDX 91 12 12 13 11 14 13 16 10 17 4 18 5 19 99 20 6 21 8 22 7 23
REMARK SMILES IDX 9 24 95 25 3 26 2 27 1 28 96 29 97 30 98 31 21 34 22 35
REMARK SMILES IDX 23 36 24 37 25 38 26 39 27 40 28 41 89 42 29 43 88 44 30 45
REMARK SMILES IDX 31 46 32 47 82 48 33 49 87 50 81 51 83 52 34 53 86 54 80 55
REMARK SMILES IDX 79 56 35 58 67 59 47 60 66 61 48 62 51 63 65 64 84 65 49 66
REMARK SMILES IDX 50 67 64 69 85 70 52 71 36 72 37 73 45 74 38 75 39 76 43 77
REMARK SMILES IDX 46 78 40 79 41 80 44 81 42 82 68 83 69 84 77 85 70 86 71 87
REMARK SMILES IDX 75 88 78 89 72 90 73 91 76 92 74 93 53 94 54 95 62 96 55 97
REMARK SMILES IDX 56 98 60 99 63 100 57 101 58 102 61 103 59 104
REMARK H PARENT 11 15 97 32 97 33 83 57 51 68
REMARK Flexibility Score: inf
ROOT
ATOM      1  C   UNL     1       3.154  -1.661   1.032  1.00  0.00     0.202 C 
ENDROOT
BRANCH   1   2
ATOM      2  C   UNL     1       2.435  -1.281  -0.479  1.00  0.00     0.261 C 
BRANCH   2   3
ATOM      3  O   UNL     1       3.032  -1.706  -1.788  1.00  0.00    -0.463 OA
BRANCH   3   4
ATOM      4  C   UNL     1       2.777  -1.030  -2.975  1.00  0.00     0.312 C 
ATOM      5  O   UNL     1       1.761  -0.369  -3.142  1.00  0.00    -0.252 OA
BRANCH   4   6
ATOM      6  C   UNL     1       3.957  -1.085  -4.023  1.00  0.00     0.143 C 
ATOM      7  C   UNL     1       4.464   0.300  -4.500  1.00  0.00     0.124 C 
ATOM      8  C   UNL     1       3.986   0.360  -5.938  1.00  0.00     0.132 C 
ATOM      9  C   UNL     1       3.836  -1.762  -5.410  1.00  0.00     0.133 C 
ATOM     10  C   UNL     1       2.526  -0.009  -6.232  1.00  0.00     0.035 C 
ATOM     11  O   UNL     1       4.630  -0.896  -6.310  1.00  0.00    -0.373 OA
ATOM     12  C   UNL     1       2.511  -1.536  -6.080  1.00  0.00     0.036 C 
BRANCH   7  13
ATOM     13  C   UNL     1       4.319   1.505  -3.615  1.00  0.00     0.231 C 
ATOM     14  N   UNL     1       5.136   1.524  -2.494  1.00  0.00    -0.317 N 
ATOM     15  H   UNL     1       5.284   2.368  -2.009  1.00  0.00     0.170 HD
ATOM     16  O   UNL     1       3.567   2.442  -3.861  1.00  0.00    -0.274 OA
BRANCH  14  17
ATOM     17  C   UNL     1       5.743   0.364  -2.054  1.00  0.00     0.108 A 
ATOM     18  C   UNL     1       6.289  -4.851   0.362  1.00  0.00    -0.006 C 
ATOM     19  C   UNL     1       7.710  -4.661  -0.936  1.00  0.00     0.009 C 
ATOM     20  C   UNL     1       4.829  -3.522   0.173  1.00  0.00     0.050 C 
ATOM     21  C   UNL     1       7.788  -3.166  -2.092  1.00  0.00     0.038 C 
ATOM     22  C   UNL     1       5.271  -1.904  -0.936  1.00  0.00     0.011 A 
ATOM     23  C   UNL     1       6.556  -1.799  -1.935  1.00  0.00    -0.019 A 
ATOM     24  S   UNL     1       5.135  -0.095  -0.579  1.00  0.00    -0.122 S 
ATOM     25  C   UNL     1       6.806  -0.432  -2.425  1.00  0.00     0.077 A 
BRANCH  18  26
ATOM     26  C   UNL     1       6.234  -6.387   0.759  1.00  0.00     0.004 C 
BRANCH  26  27
ATOM     27  C   UNL     1       4.928  -7.167   0.911  1.00  0.00    -0.003 C 
ATOM     28  C   UNL     1       4.672  -8.206  -0.193  1.00  0.00     0.004 C 
ENDBRANCH  26  27
ENDBRANCH  18  26
BRANCH  25  29
ATOM     29  C   UNL     1       8.018   0.005  -3.119  1.00  0.00     0.251 C 
ATOM     30  N   UNL     1       7.956   1.192  -3.797  1.00  0.00    -0.365 N 
ATOM     31  O   UNL     1       9.068  -0.604  -3.071  1.00  0.00    -0.269 OA
ATOM     32  H   UNL     1       7.108   1.690  -3.840  1.00  0.00     0.159 HD
ATOM     33  H   UNL     1       8.760   1.547  -4.240  1.00  0.00     0.159 HD
ENDBRANCH  25  29
ENDBRANCH  14  17
ENDBRANCH   7  13
ENDBRANCH   4   6
ENDBRANCH   3   4
ENDBRANCH   2   3
ENDBRANCH   1   2
BRANCH   1  34
ATOM     34  O   UNL     1       4.518  -1.292   1.565  1.00  0.00    -0.374 OA
BRANCH  34  35
ATOM     35  C   UNL     1       5.909  -1.960   1.561  1.00  0.00     0.202 C 
BRANCH  35  36
ATOM     36  C   UNL     1       6.862  -2.755   0.193  1.00  0.00     0.261 C 
BRANCH  36  37
ATOM     37  O   UNL     1       5.978  -3.692  -1.310  1.00  0.00    -0.460 OA
BRANCH  37  38
ATOM     38  C   UNL     1       5.238  -4.766  -1.938  1.00  0.00     0.338 C 
ATOM     39  O   UNL     1       5.268  -5.916  -1.507  1.00  0.00    -0.246 OA
BRANCH  38  40
ATOM     40  C   UNL     1       4.093  -4.787  -2.934  1.00  0.00     0.060 A 
ATOM     41  C   UNL     1       2.770  -4.716  -2.429  1.00  0.00     0.016 A 
ATOM     42  C   UNL     1       4.266  -5.755  -3.951  1.00  0.00     0.016 A 
ATOM     43  C   UNL     1       1.741  -5.620  -2.818  1.00  0.00     0.010 A 
ATOM     44  C   UNL     1       3.227  -6.649  -4.358  1.00  0.00     0.010 A 
ATOM     45  C   UNL     1       1.951  -6.621  -3.777  1.00  0.00    -0.014 A 
BRANCH  45  46
ATOM     46  C   UNL     1       0.846  -7.569  -4.195  1.00  0.00     0.031 A 
ATOM     47  C   UNL     1       0.905  -9.077  -3.991  1.00  0.00     0.074 A 
ATOM     48  C   UNL     1      -0.264  -7.077  -4.788  1.00  0.00     0.049 A 
ATOM     49  N   UNL     1       0.103 -10.016  -4.452  1.00  0.00    -0.248 NA
ATOM     50  C   UNL     1       1.984  -9.595  -3.141  1.00  0.00     0.031 C 
ATOM     51  C   UNL     1      -0.544  -5.658  -4.990  1.00  0.00     0.029 A 
ATOM     52  N   UNL     1      -1.358  -7.710  -5.341  1.00  0.00    -0.354 N 
ATOM     53  C   UNL     1       0.597 -11.232  -3.981  1.00  0.00     0.074 A 
ATOM     54  C   UNL     1       1.763 -10.907  -3.181  1.00  0.00     0.031 C 
ATOM     55  C   UNL     1      -1.722  -5.524  -5.615  1.00  0.00     0.029 A 
ATOM     56  C   UNL     1      -2.245  -6.848  -5.942  1.00  0.00     0.049 A 
ATOM     57  H   UNL     1      -1.491  -8.685  -5.308  1.00  0.00     0.167 HD
ATOM     58  C   UNL     1       0.135 -12.495  -4.200  1.00  0.00     0.037 A 
ATOM     59  C   UNL     1      -3.325  -7.070  -6.719  1.00  0.00     0.037 A 
ATOM     60  C   UNL     1      -1.042 -12.834  -4.971  1.00  0.00     0.049 A 
ATOM     61  C   UNL     1      -3.748  -8.474  -7.049  1.00  0.00     0.074 A 
ATOM     62  C   UNL     1      -1.583 -14.089  -5.221  1.00  0.00     0.029 A 
ATOM     63  N   UNL     1      -1.861 -11.925  -5.622  1.00  0.00    -0.354 N 
ATOM     64  N   UNL     1      -3.245  -9.608  -6.632  1.00  0.00    -0.248 NA
ATOM     65  C   UNL     1      -4.883  -8.627  -7.973  1.00  0.00     0.031 C 
ATOM     66  C   UNL     1      -2.684 -13.943  -6.072  1.00  0.00     0.029 A 
ATOM     67  C   UNL     1      -2.872 -12.592  -6.304  1.00  0.00     0.049 A 
ATOM     68  H   UNL     1      -1.742 -10.947  -5.605  1.00  0.00     0.167 HD
ATOM     69  C   UNL     1      -4.016 -10.605  -7.216  1.00  0.00     0.074 A 
ATOM     70  C   UNL     1      -5.027  -9.944  -8.011  1.00  0.00     0.031 C 
ATOM     71  C   UNL     1      -3.890 -11.948  -7.095  1.00  0.00     0.037 A 
BRANCH  58  72
ATOM     72  C   UNL     1       0.927 -13.653  -3.644  1.00  0.00     0.064 A 
ATOM     73  C   UNL     1       0.927 -13.977  -2.280  1.00  0.00     0.173 A 
ATOM     74  C   UNL     1       1.616 -14.517  -4.516  1.00  0.00     0.173 A 
ATOM     75  F   UNL     1       0.275 -13.201  -1.403  1.00  0.00    -0.203 F 
ATOM     76  C   UNL     1       1.607 -15.101  -1.807  1.00  0.00     0.198 A 
ATOM     77  C   UNL     1       2.270 -15.653  -4.044  1.00  0.00     0.198 A 
ATOM     78  F   UNL     1       1.625 -14.277  -5.836  1.00  0.00    -0.203 F 
ATOM     79  F   UNL     1       1.618 -15.373  -0.494  1.00  0.00    -0.200 F 
ATOM     80  C   UNL     1       2.272 -15.940  -2.689  1.00  0.00     0.200 A 
ATOM     81  F   UNL     1       2.889 -16.475  -4.903  1.00  0.00    -0.200 F 
ATOM     82  F   UNL     1       2.914 -17.025  -2.233  1.00  0.00    -0.200 F 
ENDBRANCH  58  72
BRANCH  59  83
ATOM     83  C   UNL     1      -4.063  -5.910  -7.291  1.00  0.00     0.064 A 
ATOM     84  C   UNL     1      -5.370  -5.614  -6.885  1.00  0.00     0.173 A 
ATOM     85  C   UNL     1      -3.470  -5.073  -8.249  1.00  0.00     0.173 A 
ATOM     86  F   UNL     1      -5.992  -6.405  -5.998  1.00  0.00    -0.203 F 
ATOM     87  C   UNL     1      -6.057  -4.524  -7.417  1.00  0.00     0.198 A 
ATOM     88  C   UNL     1      -4.144  -3.964  -8.753  1.00  0.00     0.198 A 
ATOM     89  F   UNL     1      -2.223  -5.319  -8.677  1.00  0.00    -0.203 F 
ATOM     90  F   UNL     1      -7.321  -4.285  -7.042  1.00  0.00    -0.200 F 
ATOM     91  C   UNL     1      -5.440  -3.694  -8.341  1.00  0.00     0.200 A 
ATOM     92  F   UNL     1      -3.537  -3.157  -9.633  1.00  0.00    -0.200 F 
ATOM     93  F   UNL     1      -6.096  -2.638  -8.839  1.00  0.00    -0.200 F 
ENDBRANCH  59  83
BRANCH  71  94
ATOM     94  C   UNL     1      -4.899 -12.808  -7.803  1.00  0.00     0.064 A 
ATOM     95  C   UNL     1      -4.899 -12.954  -9.198  1.00  0.00     0.173 A 
ATOM     96  C   UNL     1      -5.867 -13.516  -7.073  1.00  0.00     0.173 A 
ATOM     97  F   UNL     1      -4.009 -12.284  -9.946  1.00  0.00    -0.203 F 
ATOM     98  C   UNL     1      -5.841 -13.758  -9.837  1.00  0.00     0.198 A 
ATOM     99  C   UNL     1      -6.791 -14.340  -7.712  1.00  0.00     0.198 A 
ATOM    100  F   UNL     1      -5.914 -13.414  -5.736  1.00  0.00    -0.203 F 
ATOM    101  F   UNL     1      -5.849 -13.845 -11.174  1.00  0.00    -0.200 F 
ATOM    102  C   UNL     1      -6.781 -14.456  -9.093  1.00  0.00     0.200 A 
ATOM    103  F   UNL     1      -7.692 -15.021  -6.991  1.00  0.00    -0.200 F 
ATOM    104  F   UNL     1      -7.684 -15.232  -9.709  1.00  0.00    -0.200 F 
ENDBRANCH  71  94
ENDBRANCH  45  46
ENDBRANCH  38  40
ENDBRANCH  37  38
ENDBRANCH  36  37
ENDBRANCH  35  36
ENDBRANCH  34  35
ENDBRANCH   1  34
TORSDOF 19
