REMARK SMILES O=C(OCCOCCOC(=O)[C@H](F)SCC1CCCC1)c1ccc(-c2c3nc(c(-c4c(F)c(F)c(F)c(F)c4F)c4ccc([nH]4)c(-c4c(F)c(F)c(F)c(F)c4F)c4nc(c(-c5c(F)c(F)c(F)c(F)c5F)c5ccc2[nH]5)C=C4)C=C3)cc1
REMARK SMILES IDX 7 1 6 2 5 3 4 4 3 5 2 6 1 7 21 8 22 9 83 10 23 11 82 12
REMARK SMILES IDX 24 13 25 14 26 15 76 16 27 17 81 18 75 19 77 20 28 21 80 22
REMARK SMILES IDX 74 23 73 24 29 26 61 27 41 28 60 29 42 30 45 31 59 32 78 33
REMARK SMILES IDX 43 34 44 35 58 37 79 38 46 39 30 40 31 41 39 42 32 43 33 44
REMARK SMILES IDX 37 45 40 46 34 47 35 48 38 49 36 50 62 51 63 52 71 53 64 54
REMARK SMILES IDX 65 55 69 56 72 57 66 58 67 59 70 60 68 61 47 62 48 63 56 64
REMARK SMILES IDX 49 65 50 66 54 67 57 68 51 69 52 70 55 71 53 72 8 73 9 74
REMARK SMILES IDX 10 75 11 76 12 77 13 78 14 79 15 80 16 81 17 82 20 83 18 84
REMARK SMILES IDX 19 85
REMARK H PARENT 77 25 45 36
REMARK Flexibility Score: inf
ROOT
ATOM      1  C   UNL     1       5.287   4.665  -2.734  1.00  0.00     0.202 C 
ENDROOT
BRANCH   1   2
ATOM      2  O   UNL     1       5.458   3.328  -2.280  1.00  0.00    -0.374 OA
BRANCH   2   3
ATOM      3  C   UNL     1       6.655   3.070  -1.547  1.00  0.00     0.202 C 
BRANCH   3   4
ATOM      4  C   UNL     1       7.898   2.799  -2.414  1.00  0.00     0.261 C 
BRANCH   4   5
ATOM      5  O   UNL     1       8.134   3.827  -3.395  1.00  0.00    -0.460 OA
BRANCH   5   6
ATOM      6  C   UNL     1       7.687   3.925  -4.672  1.00  0.00     0.338 C 
ATOM      7  O   UNL     1       8.021   4.910  -5.330  1.00  0.00    -0.246 OA
BRANCH   6   8
ATOM      8  C   UNL     1       6.779   2.930  -5.329  1.00  0.00     0.060 A 
ATOM      9  C   UNL     1       6.079   1.927  -4.664  1.00  0.00     0.016 A 
ATOM     10  C   UNL     1       6.578   3.050  -6.719  1.00  0.00     0.016 A 
ATOM     11  C   UNL     1       5.238   1.058  -5.323  1.00  0.00     0.010 A 
ATOM     12  C   UNL     1       5.741   2.163  -7.407  1.00  0.00     0.010 A 
ATOM     13  C   UNL     1       5.091   1.151  -6.699  1.00  0.00    -0.014 A 
BRANCH  13  14
ATOM     14  C   UNL     1       4.434  -0.003  -7.321  1.00  0.00     0.031 A 
ATOM     15  C   UNL     1       5.320  -1.109  -7.805  1.00  0.00     0.074 A 
ATOM     16  C   UNL     1       3.108  -0.160  -7.161  1.00  0.00     0.049 A 
ATOM     17  N   UNL     1       5.001  -2.264  -8.316  1.00  0.00    -0.248 NA
ATOM     18  C   UNL     1       6.773  -0.900  -7.647  1.00  0.00     0.031 C 
ATOM     19  C   UNL     1       2.222   0.798  -6.491  1.00  0.00     0.029 A 
ATOM     20  N   UNL     1       2.288  -1.201  -7.490  1.00  0.00    -0.354 N 
ATOM     21  C   UNL     1       6.207  -2.911  -8.550  1.00  0.00     0.074 A 
ATOM     22  C   UNL     1       7.267  -2.028  -8.130  1.00  0.00     0.031 C 
ATOM     23  C   UNL     1       0.979   0.292  -6.457  1.00  0.00     0.029 A 
ATOM     24  C   UNL     1       0.973  -0.984  -7.161  1.00  0.00     0.049 A 
ATOM     25  H   UNL     1       2.608  -2.026  -7.921  1.00  0.00     0.167 HD
ATOM     26  C   UNL     1       6.395  -4.139  -9.080  1.00  0.00     0.037 A 
ATOM     27  C   UNL     1      -0.109  -1.728  -7.452  1.00  0.00     0.037 A 
ATOM     28  C   UNL     1       5.307  -4.977  -9.500  1.00  0.00     0.049 A 
ATOM     29  C   UNL     1       0.125  -3.018  -8.197  1.00  0.00     0.074 A 
ATOM     30  C   UNL     1       5.345  -6.184 -10.169  1.00  0.00     0.029 A 
ATOM     31  N   UNL     1       3.967  -4.675  -9.281  1.00  0.00    -0.354 N 
ATOM     32  N   UNL     1       1.260  -3.587  -8.533  1.00  0.00    -0.248 NA
ATOM     33  C   UNL     1      -1.066  -3.763  -8.616  1.00  0.00     0.031 C 
ATOM     34  C   UNL     1       4.025  -6.587 -10.400  1.00  0.00     0.029 A 
ATOM     35  C   UNL     1       3.166  -5.664  -9.819  1.00  0.00     0.049 A 
ATOM     36  H   UNL     1       3.638  -3.875  -8.812  1.00  0.00     0.167 HD
ATOM     37  C   UNL     1       0.923  -4.762  -9.186  1.00  0.00     0.074 A 
ATOM     38  C   UNL     1      -0.525  -4.839  -9.167  1.00  0.00     0.031 C 
ATOM     39  C   UNL     1       1.726  -5.692  -9.763  1.00  0.00     0.037 A 
BRANCH  26  40
ATOM     40  C   UNL     1       7.809  -4.577  -9.311  1.00  0.00     0.064 A 
ATOM     41  C   UNL     1       8.661  -4.936  -8.256  1.00  0.00     0.173 A 
ATOM     42  C   UNL     1       8.333  -4.598 -10.612  1.00  0.00     0.173 A 
ATOM     43  F   UNL     1       8.222  -4.894  -6.988  1.00  0.00    -0.203 F 
ATOM     44  C   UNL     1       9.990  -5.282  -8.494  1.00  0.00     0.198 A 
ATOM     45  C   UNL     1       9.654  -4.968 -10.850  1.00  0.00     0.198 A 
ATOM     46  F   UNL     1       7.566  -4.244 -11.654  1.00  0.00    -0.203 F 
ATOM     47  F   UNL     1      10.802  -5.568  -7.467  1.00  0.00    -0.200 F 
ATOM     48  C   UNL     1      10.483  -5.303  -9.791  1.00  0.00     0.200 A 
ATOM     49  F   UNL     1      10.128  -4.985 -12.103  1.00  0.00    -0.200 F 
ATOM     50  F   UNL     1      11.763  -5.631 -10.018  1.00  0.00    -0.200 F 
ENDBRANCH  26  40
BRANCH  27  51
ATOM     51  C   UNL     1      -1.481  -1.240  -7.142  1.00  0.00     0.064 A 
ATOM     52  C   UNL     1      -2.357  -1.966  -6.324  1.00  0.00     0.173 A 
ATOM     53  C   UNL     1      -1.972  -0.058  -7.723  1.00  0.00     0.173 A 
ATOM     54  F   UNL     1      -1.950  -3.112  -5.758  1.00  0.00    -0.203 F 
ATOM     55  C   UNL     1      -3.676  -1.554  -6.132  1.00  0.00     0.198 A 
ATOM     56  C   UNL     1      -3.278   0.374  -7.500  1.00  0.00     0.198 A 
ATOM     57  F   UNL     1      -1.186   0.680  -8.521  1.00  0.00    -0.203 F 
ATOM     58  F   UNL     1      -4.512  -2.309  -5.407  1.00  0.00    -0.200 F 
ATOM     59  C   UNL     1      -4.135  -0.383  -6.718  1.00  0.00     0.200 A 
ATOM     60  F   UNL     1      -3.709   1.513  -8.058  1.00  0.00    -0.200 F 
ATOM     61  F   UNL     1      -5.406   0.004  -6.545  1.00  0.00    -0.200 F 
ENDBRANCH  27  51
BRANCH  39  62
ATOM     62  C   UNL     1       1.042  -6.874 -10.381  1.00  0.00     0.064 A 
ATOM     63  C   UNL     1       0.290  -6.757 -11.558  1.00  0.00     0.173 A 
ATOM     64  C   UNL     1       1.171  -8.145  -9.800  1.00  0.00     0.173 A 
ATOM     65  F   UNL     1       0.129  -5.559 -12.140  1.00  0.00    -0.203 F 
ATOM     66  C   UNL     1      -0.341  -7.865 -12.112  1.00  0.00     0.198 A 
ATOM     67  C   UNL     1       0.571  -9.256 -10.379  1.00  0.00     0.198 A 
ATOM     68  F   UNL     1       1.890  -8.307  -8.679  1.00  0.00    -0.203 F 
ATOM     69  F   UNL     1      -1.109  -7.720 -13.201  1.00  0.00    -0.200 F 
ATOM     70  C   UNL     1      -0.194  -9.114 -11.527  1.00  0.00     0.200 A 
ATOM     71  F   UNL     1       0.730 -10.466  -9.824  1.00  0.00    -0.200 F 
ATOM     72  F   UNL     1      -0.798 -10.181 -12.066  1.00  0.00    -0.200 F 
ENDBRANCH  39  62
ENDBRANCH  13  14
ENDBRANCH   6   8
ENDBRANCH   5   6
ENDBRANCH   4   5
ENDBRANCH   3   4
ENDBRANCH   2   3
ENDBRANCH   1   2
BRANCH   1  73
ATOM     73  C   UNL     1       4.499   5.536  -1.779  1.00  0.00     0.261 C 
BRANCH  73  74
ATOM     74  O   UNL     1       4.877   5.386  -0.409  1.00  0.00    -0.460 OA
BRANCH  74  75
ATOM     75  C   UNL     1       4.248   4.364   0.256  1.00  0.00     0.351 C 
ATOM     76  O   UNL     1       3.604   3.470  -0.269  1.00  0.00    -0.248 OA
BRANCH  75  77
ATOM     77  C   UNL     1       4.417   4.533   1.750  1.00  0.00     0.333 C 
ATOM     78  F   UNL     1       4.022   3.431   2.452  1.00  0.00    -0.223 F 
BRANCH  77  79
ATOM     79  S   UNL     1       3.453   5.979   2.315  1.00  0.00    -0.113 SA
BRANCH  79  80
ATOM     80  C   UNL     1       1.751   5.335   2.116  1.00  0.00     0.076 C 
BRANCH  80  81
ATOM     81  C   UNL     1       0.957   5.596   0.817  1.00  0.00    -0.001 C 
ATOM     82  C   UNL     1       1.474   6.618  -0.195  1.00  0.00     0.004 C 
ATOM     83  C   UNL     1       0.637   4.326   0.006  1.00  0.00     0.004 C 
ATOM     84  C   UNL     1       0.813   6.213  -1.508  1.00  0.00     0.000 C 
ATOM     85  C   UNL     1       0.762   4.694  -1.469  1.00  0.00     0.000 C 
ENDBRANCH  80  81
ENDBRANCH  79  80
ENDBRANCH  77  79
ENDBRANCH  75  77
ENDBRANCH  74  75
ENDBRANCH  73  74
ENDBRANCH   1  73
TORSDOF 17
