REMARK SMILES O=C(OCCOCCOC(=O)c1cc(S(=O)(=O)NNC(=O)[C@H]2C=C(c3ccccc3)N=N2)ccc1F)c1ccc(-c2c3nc(c(-c4c(F)c(F)c(F)c(F)c4F)c4ccc([nH]4)c(-c4c(F)c(F)c(F)c(F)c4F)c4nc(c(-c5c(F)c(F)c(F)c(F)c5F)c5ccc2[nH]5)C=C4)C=C3)cc1
REMARK SMILES IDX 7 1 6 2 5 3 4 4 3 5 2 6 1 7 37 8 38 9 99 10 39 11 98 12
REMARK SMILES IDX 40 13 41 14 42 15 92 16 43 17 97 18 91 19 93 20 44 21 96 22
REMARK SMILES IDX 90 23 89 24 45 26 77 27 57 28 76 29 58 30 61 31 75 32 94 33
REMARK SMILES IDX 59 34 60 35 74 37 95 38 62 39 46 40 47 41 55 42 48 43 49 44
REMARK SMILES IDX 53 45 56 46 50 47 51 48 54 49 52 50 78 51 79 52 87 53 80 54
REMARK SMILES IDX 81 55 85 56 88 57 82 58 83 59 86 60 84 61 63 62 64 63 72 64
REMARK SMILES IDX 65 65 66 66 70 67 73 68 67 69 68 70 71 71 69 72 8 73 9 74
REMARK SMILES IDX 10 75 11 76 12 77 13 78 35 79 14 80 34 81 36 82 33 83 15 84
REMARK SMILES IDX 16 85 17 86 18 87 19 89 20 90 21 92 22 93 23 94 32 95 24 96
REMARK SMILES IDX 31 97 25 98 26 99 30 100 27 101 29 102 28 103
REMARK H PARENT 93 25 61 36 18 88 19 91
REMARK Flexibility Score: inf
ROOT
ATOM      1  C   UNL     1      10.203  -0.005   8.799  1.00  0.00     0.202 C 
ENDROOT
BRANCH   1   2
ATOM      2  O   UNL     1      10.515   0.244   7.421  1.00  0.00    -0.374 OA
BRANCH   2   3
ATOM      3  C   UNL     1      10.974  -0.854   6.642  1.00  0.00     0.202 C 
BRANCH   3   4
ATOM      4  C   UNL     1      12.477  -0.992   6.407  1.00  0.00     0.261 C 
BRANCH   4   5
ATOM      5  O   UNL     1      13.220  -1.268   7.606  1.00  0.00    -0.460 OA
BRANCH   5   6
ATOM      6  C   UNL     1      13.320  -0.455   8.680  1.00  0.00     0.338 C 
ATOM      7  O   UNL     1      13.285  -0.927   9.814  1.00  0.00    -0.246 OA
BRANCH   6   8
ATOM      8  C   UNL     1      13.752   0.953   8.501  1.00  0.00     0.060 A 
ATOM      9  C   UNL     1      13.656   1.681   7.317  1.00  0.00     0.016 A 
ATOM     10  C   UNL     1      14.433   1.511   9.595  1.00  0.00     0.016 A 
ATOM     11  C   UNL     1      14.483   2.766   7.116  1.00  0.00     0.010 A 
ATOM     12  C   UNL     1      15.203   2.643   9.428  1.00  0.00     0.010 A 
ATOM     13  C   UNL     1      15.304   3.193   8.157  1.00  0.00    -0.014 A 
BRANCH  13  14
ATOM     14  C   UNL     1      16.116   4.372   7.928  1.00  0.00     0.031 A 
ATOM     15  C   UNL     1      15.284   5.568   7.648  1.00  0.00     0.074 A 
ATOM     16  C   UNL     1      17.457   4.351   8.061  1.00  0.00     0.049 A 
ATOM     17  N   UNL     1      15.250   6.267   6.563  1.00  0.00    -0.248 NA
ATOM     18  C   UNL     1      14.211   5.901   8.606  1.00  0.00     0.031 C 
ATOM     19  C   UNL     1      18.290   3.248   8.544  1.00  0.00     0.029 A 
ATOM     20  N   UNL     1      18.361   5.356   7.888  1.00  0.00    -0.354 N 
ATOM     21  C   UNL     1      14.318   7.272   6.800  1.00  0.00     0.074 A 
ATOM     22  C   UNL     1      13.572   6.878   7.963  1.00  0.00     0.031 C 
ATOM     23  C   UNL     1      19.520   3.715   8.855  1.00  0.00     0.029 A 
ATOM     24  C   UNL     1      19.603   5.111   8.473  1.00  0.00     0.049 A 
ATOM     25  H   UNL     1      18.155   6.181   7.393  1.00  0.00     0.167 HD
ATOM     26  C   UNL     1      14.477   8.490   6.218  1.00  0.00     0.037 A 
ATOM     27  C   UNL     1      20.575   6.036   8.694  1.00  0.00     0.037 A 
ATOM     28  C   UNL     1      15.280   8.383   5.025  1.00  0.00     0.049 A 
ATOM     29  C   UNL     1      20.294   7.181   7.791  1.00  0.00     0.074 A 
ATOM     30  C   UNL     1      15.166   7.691   3.835  1.00  0.00     0.029 A 
ATOM     31  N   UNL     1      16.597   8.752   5.122  1.00  0.00    -0.354 N 
ATOM     32  N   UNL     1      20.392   7.121   6.493  1.00  0.00    -0.248 NA
ATOM     33  C   UNL     1      19.455   8.251   8.309  1.00  0.00     0.031 C 
ATOM     34  C   UNL     1      16.496   7.290   3.508  1.00  0.00     0.029 A 
ATOM     35  C   UNL     1      17.359   7.825   4.465  1.00  0.00     0.049 A 
ATOM     36  H   UNL     1      16.937   9.551   5.586  1.00  0.00     0.167 HD
ATOM     37  C   UNL     1      19.296   7.833   6.030  1.00  0.00     0.074 A 
ATOM     38  C   UNL     1      18.805   8.575   7.189  1.00  0.00     0.031 C 
ATOM     39  C   UNL     1      18.719   7.514   4.834  1.00  0.00     0.037 A 
BRANCH  26  40
ATOM     40  C   UNL     1      14.329   9.786   6.987  1.00  0.00     0.064 A 
ATOM     41  C   UNL     1      14.364   9.885   8.398  1.00  0.00     0.173 A 
ATOM     42  C   UNL     1      14.484  11.005   6.297  1.00  0.00     0.173 A 
ATOM     43  F   UNL     1      14.331   8.815   9.200  1.00  0.00    -0.203 F 
ATOM     44  C   UNL     1      14.559  11.093   9.062  1.00  0.00     0.198 A 
ATOM     45  C   UNL     1      14.733  12.207   6.966  1.00  0.00     0.198 A 
ATOM     46  F   UNL     1      14.502  11.031   4.956  1.00  0.00    -0.203 F 
ATOM     47  F   UNL     1      14.623  11.104  10.401  1.00  0.00    -0.200 F 
ATOM     48  C   UNL     1      14.775  12.249   8.347  1.00  0.00     0.200 A 
ATOM     49  F   UNL     1      15.010  13.312   6.262  1.00  0.00    -0.200 F 
ATOM     50  F   UNL     1      15.075  13.386   8.988  1.00  0.00    -0.200 F 
ENDBRANCH  26  40
BRANCH  27  51
ATOM     51  C   UNL     1      21.471   6.178   9.873  1.00  0.00     0.064 A 
ATOM     52  C   UNL     1      21.138   5.635  11.130  1.00  0.00     0.173 A 
ATOM     53  C   UNL     1      22.520   7.116   9.864  1.00  0.00     0.173 A 
ATOM     54  F   UNL     1      20.114   4.782  11.265  1.00  0.00    -0.203 F 
ATOM     55  C   UNL     1      21.783   6.034  12.303  1.00  0.00     0.198 A 
ATOM     56  C   UNL     1      23.160   7.521  11.041  1.00  0.00     0.198 A 
ATOM     57  F   UNL     1      22.881   7.714   8.718  1.00  0.00    -0.203 F 
ATOM     58  F   UNL     1      21.383   5.537  13.481  1.00  0.00    -0.200 F 
ATOM     59  C   UNL     1      22.780   6.990  12.261  1.00  0.00     0.200 A 
ATOM     60  F   UNL     1      24.100   8.476  10.998  1.00  0.00    -0.200 F 
ATOM     61  F   UNL     1      23.340   7.429  13.397  1.00  0.00    -0.200 F 
ENDBRANCH  27  51
BRANCH  39  62
ATOM     62  C   UNL     1      19.477   6.602   3.909  1.00  0.00     0.064 A 
ATOM     63  C   UNL     1      19.752   7.069   2.617  1.00  0.00     0.173 A 
ATOM     64  C   UNL     1      19.803   5.264   4.196  1.00  0.00     0.173 A 
ATOM     65  F   UNL     1      19.418   8.323   2.272  1.00  0.00    -0.203 F 
ATOM     66  C   UNL     1      20.317   6.241   1.652  1.00  0.00     0.198 A 
ATOM     67  C   UNL     1      20.407   4.448   3.239  1.00  0.00     0.198 A 
ATOM     68  F   UNL     1      19.490   4.714   5.377  1.00  0.00    -0.203 F 
ATOM     69  F   UNL     1      20.505   6.703   0.408  1.00  0.00    -0.200 F 
ATOM     70  C   UNL     1      20.652   4.935   1.965  1.00  0.00     0.200 A 
ATOM     71  F   UNL     1      20.716   3.177   3.536  1.00  0.00    -0.200 F 
ATOM     72  F   UNL     1      21.187   4.137   1.030  1.00  0.00    -0.200 F 
ENDBRANCH  39  62
ENDBRANCH  13  14
ENDBRANCH   6   8
ENDBRANCH   5   6
ENDBRANCH   4   5
ENDBRANCH   3   4
ENDBRANCH   2   3
ENDBRANCH   1   2
BRANCH   1  73
ATOM     73  C   UNL     1       9.050  -0.951   9.178  1.00  0.00     0.261 C 
BRANCH  73  74
ATOM     74  O   UNL     1       9.283  -2.320   8.801  1.00  0.00    -0.460 OA
BRANCH  74  75
ATOM     75  C   UNL     1       8.572  -2.761   7.734  1.00  0.00     0.341 C 
ATOM     76  O   UNL     1       7.763  -2.134   7.074  1.00  0.00    -0.246 OA
BRANCH  75  77
ATOM     77  C   UNL     1       9.140  -4.040   7.284  1.00  0.00     0.097 A 
ATOM     78  C   UNL     1       9.663  -4.111   5.988  1.00  0.00     0.040 A 
ATOM     79  C   UNL     1       9.184  -5.152   8.115  1.00  0.00     0.137 A 
ATOM     80  C   UNL     1      10.270  -5.293   5.557  1.00  0.00     0.085 A 
ATOM     81  C   UNL     1       9.755  -6.344   7.664  1.00  0.00     0.041 A 
ATOM     82  F   UNL     1       8.663  -5.108   9.348  1.00  0.00    -0.206 F 
ATOM     83  C   UNL     1      10.312  -6.417   6.384  1.00  0.00     0.025 A 
BRANCH  80  84
ATOM     84  S   UNL     1      10.952  -5.310   3.928  1.00  0.00     0.257 S 
ATOM     85  O   UNL     1      10.036  -4.617   3.058  1.00  0.00    -0.205 OA
ATOM     86  O   UNL     1      12.339  -4.905   4.057  1.00  0.00    -0.205 OA
BRANCH  84  87
ATOM     87  N   UNL     1      10.936  -6.944   3.472  1.00  0.00    -0.123 NA
ATOM     88  H   UNL     1      11.298  -7.481   4.261  1.00  0.00     0.167 HD
BRANCH  87  89
ATOM     89  N   UNL     1       9.680  -7.533   3.096  1.00  0.00    -0.275 N 
ATOM     90  C   UNL     1       9.433  -8.311   1.996  1.00  0.00     0.265 C 
ATOM     91  H   UNL     1       8.916  -7.359   3.692  1.00  0.00     0.186 HD
ATOM     92  O   UNL     1       8.345  -8.898   1.951  1.00  0.00    -0.271 OA
BRANCH  90  93
ATOM     93  C   UNL     1      10.431  -8.425   0.832  1.00  0.00     0.244 C 
ATOM     94  C   UNL     1      11.418  -7.339   0.603  1.00  0.00     0.042 C 
ATOM     95  N   UNL     1      11.300  -9.607   1.075  1.00  0.00    -0.171 NA
ATOM     96  C   UNL     1      12.611  -7.933   0.678  1.00  0.00     0.091 C 
ATOM     97  N   UNL     1      12.513  -9.277   0.940  1.00  0.00    -0.155 NA
BRANCH  96  98
ATOM     98  C   UNL     1      13.908  -7.261   0.614  1.00  0.00     0.002 A 
ATOM     99  C   UNL     1      14.798  -7.511  -0.435  1.00  0.00     0.010 A 
ATOM    100  C   UNL     1      14.305  -6.395   1.641  1.00  0.00     0.010 A 
ATOM    101  C   UNL     1      16.057  -6.902  -0.452  1.00  0.00     0.001 A 
ATOM    102  C   UNL     1      15.562  -5.792   1.629  1.00  0.00     0.001 A 
ATOM    103  C   UNL     1      16.439  -6.046   0.581  1.00  0.00     0.000 A 
ENDBRANCH  96  98
ENDBRANCH  90  93
ENDBRANCH  87  89
ENDBRANCH  84  87
ENDBRANCH  80  84
ENDBRANCH  75  77
ENDBRANCH  74  75
ENDBRANCH  73  74
ENDBRANCH   1  73
TORSDOF 19
