REMARK SMILES COc1ccc(NC(=O)[C@@H]2[C@@H](C(=O)OCCOCCOC(=O)c3ccc(-c4c5nc(c(-c6c(F)c(F)c(F)c(F)c6F)c6ccc([nH]6)c(-c6c(F)c(F)c(F)c(F)c6F)c6nc(c(-c7c(F)c(F)c(F)c(F)c7F)c7ccc4[nH]7)C=C6)C=C5)cc3)[C@H]3C=C[C@@H]2C3)cc1O
REMARK SMILES IDX 16 1 15 2 14 3 12 4 13 5 11 6 10 7 89 8 86 9 88 10 90 11
REMARK SMILES IDX 87 12 8 13 7 14 9 16 6 17 3 18 4 19 92 20 5 21 91 22 2 23
REMARK SMILES IDX 1 24 93 25 17 27 18 28 19 29 20 30 21 31 22 32 23 33 24 34
REMARK SMILES IDX 85 35 25 36 84 37 26 38 27 39 28 40 78 41 29 42 83 43 77 44
REMARK SMILES IDX 79 45 30 46 82 47 76 48 75 49 31 51 63 52 43 53 62 54 44 55
REMARK SMILES IDX 47 56 61 57 80 58 45 59 46 60 60 62 81 63 48 64 32 65 33 66
REMARK SMILES IDX 41 67 34 68 35 69 39 70 42 71 36 72 37 73 40 74 38 75 64 76
REMARK SMILES IDX 65 77 73 78 66 79 67 80 71 81 74 82 68 83 69 84 72 85 70 86
REMARK SMILES IDX 49 87 50 88 58 89 51 90 52 91 56 92 59 93 53 94 54 95 57 96
REMARK SMILES IDX 55 97
REMARK H PARENT 7 15 93 26 79 50 47 61
REMARK Flexibility Score: inf
ROOT
ATOM      1  C   UNL     1       1.485   5.416  -2.207  1.00  0.00     0.202 C 
ENDROOT
BRANCH   1   2
ATOM      2  C   UNL     1       0.419   5.331  -1.107  1.00  0.00     0.261 C 
BRANCH   2   3
ATOM      3  O   UNL     1      -0.848   5.006  -1.705  1.00  0.00    -0.463 OA
BRANCH   3   4
ATOM      4  C   UNL     1      -1.897   4.851  -0.862  1.00  0.00     0.310 C 
ATOM      5  O   UNL     1      -1.802   4.873   0.359  1.00  0.00    -0.252 OA
BRANCH   4   6
ATOM      6  C   UNL     1      -3.222   4.701  -1.599  1.00  0.00     0.119 C 
ATOM      7  C   UNL     1      -3.211   4.617  -3.171  1.00  0.00     0.100 C 
ATOM      8  C   UNL     1      -4.071   5.877  -3.550  1.00  0.00     0.025 C 
ATOM      9  C   UNL     1      -4.059   5.983  -1.322  1.00  0.00     0.027 C 
ATOM     10  C   UNL     1      -3.319   7.129  -3.175  1.00  0.00    -0.027 C 
ATOM     11  C   UNL     1      -5.114   5.889  -2.420  1.00  0.00     0.017 C 
ATOM     12  C   UNL     1      -3.317   7.201  -1.837  1.00  0.00    -0.027 C 
BRANCH   7  13
ATOM     13  C   UNL     1      -3.895   3.391  -3.792  1.00  0.00     0.228 C 
ATOM     14  N   UNL     1      -3.567   2.096  -3.561  1.00  0.00    -0.326 N 
ATOM     15  H   UNL     1      -4.155   1.474  -4.045  1.00  0.00     0.169 HD
ATOM     16  O   UNL     1      -4.833   3.540  -4.588  1.00  0.00    -0.274 OA
BRANCH  14  17
ATOM     17  C   UNL     1      -2.602   1.423  -2.807  1.00  0.00     0.045 A 
ATOM     18  C   UNL     1      -0.920  -0.002  -1.054  1.00  0.00     0.160 A 
ATOM     19  C   UNL     1      -0.599   1.297  -1.436  1.00  0.00     0.052 A 
ATOM     20  C   UNL     1      -2.045  -0.602  -1.621  1.00  0.00     0.159 A 
ATOM     21  C   UNL     1      -1.423   1.987  -2.341  1.00  0.00     0.030 A 
ATOM     22  C   UNL     1      -2.870   0.086  -2.501  1.00  0.00     0.076 A 
BRANCH  18  23
ATOM     23  O   UNL     1      -0.258  -0.762  -0.129  1.00  0.00    -0.493 OA
ATOM     24  C   UNL     1       1.121  -0.470   0.053  1.00  0.00     0.278 C 
ENDBRANCH  18  23
BRANCH  20  25
ATOM     25  O   UNL     1      -2.373  -1.892  -1.306  1.00  0.00    -0.504 OA
ATOM     26  H   UNL     1      -1.835  -2.381  -0.715  1.00  0.00     0.293 HD
ENDBRANCH  20  25
ENDBRANCH  14  17
ENDBRANCH   7  13
ENDBRANCH   4   6
ENDBRANCH   3   4
ENDBRANCH   2   3
ENDBRANCH   1   2
BRANCH   1  27
ATOM     27  O   UNL     1       1.428   6.586  -3.027  1.00  0.00    -0.374 OA
BRANCH  27  28
ATOM     28  C   UNL     1       0.275   6.745  -3.849  1.00  0.00     0.202 C 
BRANCH  28  29
ATOM     29  C   UNL     1       0.289   6.003  -5.191  1.00  0.00     0.261 C 
BRANCH  29  30
ATOM     30  O   UNL     1       0.527   4.587  -5.080  1.00  0.00    -0.460 OA
BRANCH  30  31
ATOM     31  C   UNL     1       1.764   4.208  -5.478  1.00  0.00     0.338 C 
ATOM     32  O   UNL     1       2.671   4.932  -5.871  1.00  0.00    -0.246 OA
BRANCH  31  33
ATOM     33  C   UNL     1       1.966   2.757  -5.330  1.00  0.00     0.060 A 
ATOM     34  C   UNL     1       3.083   2.333  -4.601  1.00  0.00     0.016 A 
ATOM     35  C   UNL     1       1.205   1.837  -6.055  1.00  0.00     0.016 A 
ATOM     36  C   UNL     1       3.482   0.997  -4.647  1.00  0.00     0.010 A 
ATOM     37  C   UNL     1       1.609   0.495  -6.103  1.00  0.00     0.010 A 
ATOM     38  C   UNL     1       2.775   0.078  -5.437  1.00  0.00    -0.014 A 
BRANCH  38  39
ATOM     39  C   UNL     1       3.343  -1.277  -5.662  1.00  0.00     0.031 A 
ATOM     40  C   UNL     1       4.120  -1.560  -6.920  1.00  0.00     0.074 A 
ATOM     41  C   UNL     1       3.216  -2.238  -4.730  1.00  0.00     0.049 A 
ATOM     42  N   UNL     1       4.692  -2.671  -7.311  1.00  0.00    -0.248 NA
ATOM     43  C   UNL     1       4.274  -0.441  -7.863  1.00  0.00     0.031 C 
ATOM     44  C   UNL     1       2.511  -2.086  -3.461  1.00  0.00     0.029 A 
ATOM     45  N   UNL     1       3.674  -3.533  -4.708  1.00  0.00    -0.354 N 
ATOM     46  C   UNL     1       5.274  -2.387  -8.539  1.00  0.00     0.074 A 
ATOM     47  C   UNL     1       4.964  -1.006  -8.844  1.00  0.00     0.031 C 
ATOM     48  C   UNL     1       2.579  -3.243  -2.782  1.00  0.00     0.029 A 
ATOM     49  C   UNL     1       3.305  -4.227  -3.583  1.00  0.00     0.049 A 
ATOM     50  H   UNL     1       4.216  -3.925  -5.431  1.00  0.00     0.167 HD
ATOM     51  C   UNL     1       6.011  -3.199  -9.335  1.00  0.00     0.037 A 
ATOM     52  C   UNL     1       3.509  -5.516  -3.249  1.00  0.00     0.037 A 
ATOM     53  C   UNL     1       6.320  -4.574  -9.040  1.00  0.00     0.049 A 
ATOM     54  C   UNL     1       4.282  -6.414  -4.180  1.00  0.00     0.074 A 
ATOM     55  C   UNL     1       7.053  -5.475  -9.795  1.00  0.00     0.029 A 
ATOM     56  N   UNL     1       5.913  -5.248  -7.900  1.00  0.00    -0.354 N 
ATOM     57  N   UNL     1       4.838  -6.130  -5.332  1.00  0.00    -0.248 NA
ATOM     58  C   UNL     1       4.455  -7.814  -3.762  1.00  0.00     0.031 C 
ATOM     59  C   UNL     1       7.061  -6.704  -9.126  1.00  0.00     0.029 A 
ATOM     60  C   UNL     1       6.368  -6.556  -7.936  1.00  0.00     0.049 A 
ATOM     61  H   UNL     1       5.379  -4.855  -7.172  1.00  0.00     0.167 HD
ATOM     62  C   UNL     1       5.442  -7.304  -5.764  1.00  0.00     0.074 A 
ATOM     63  C   UNL     1       5.201  -8.301  -4.744  1.00  0.00     0.031 C 
ATOM     64  C   UNL     1       6.132  -7.535  -6.907  1.00  0.00     0.037 A 
BRANCH  51  65
ATOM     65  C   UNL     1       6.533  -2.624 -10.617  1.00  0.00     0.064 A 
ATOM     66  C   UNL     1       7.617  -1.734 -10.628  1.00  0.00     0.173 A 
ATOM     67  C   UNL     1       5.986  -3.013 -11.848  1.00  0.00     0.173 A 
ATOM     68  F   UNL     1       8.167  -1.325  -9.475  1.00  0.00    -0.203 F 
ATOM     69  C   UNL     1       8.126  -1.244 -11.828  1.00  0.00     0.198 A 
ATOM     70  C   UNL     1       6.512  -2.538 -13.046  1.00  0.00     0.198 A 
ATOM     71  F   UNL     1       4.952  -3.867 -11.889  1.00  0.00    -0.203 F 
ATOM     72  F   UNL     1       9.145  -0.373 -11.815  1.00  0.00    -0.200 F 
ATOM     73  C   UNL     1       7.579  -1.651 -13.035  1.00  0.00     0.200 A 
ATOM     74  F   UNL     1       5.990  -2.941 -14.213  1.00  0.00    -0.200 F 
ATOM     75  F   UNL     1       8.078  -1.188 -14.189  1.00  0.00    -0.200 F 
ENDBRANCH  51  65
BRANCH  52  76
ATOM     76  C   UNL     1       2.952  -6.052  -1.980  1.00  0.00     0.064 A 
ATOM     77  C   UNL     1       3.789  -6.432  -0.922  1.00  0.00     0.173 A 
ATOM     78  C   UNL     1       1.570  -6.223  -1.813  1.00  0.00     0.173 A 
ATOM     79  F   UNL     1       5.119  -6.310  -1.045  1.00  0.00    -0.203 F 
ATOM     80  C   UNL     1       3.267  -6.982   0.246  1.00  0.00     0.198 A 
ATOM     81  C   UNL     1       1.047  -6.747  -0.634  1.00  0.00     0.198 A 
ATOM     82  F   UNL     1       0.727  -5.876  -2.797  1.00  0.00    -0.203 F 
ATOM     83  F   UNL     1       4.092  -7.382   1.223  1.00  0.00    -0.200 F 
ATOM     84  C   UNL     1       1.896  -7.135   0.391  1.00  0.00     0.200 A 
ATOM     85  F   UNL     1      -0.279  -6.881  -0.493  1.00  0.00    -0.200 F 
ATOM     86  F   UNL     1       1.394  -7.664   1.515  1.00  0.00    -0.200 F 
ENDBRANCH  52  76
BRANCH  64  87
ATOM     87  C   UNL     1       6.705  -8.908  -7.102  1.00  0.00     0.064 A 
ATOM     88  C   UNL     1       5.891 -10.003  -7.428  1.00  0.00     0.173 A 
ATOM     89  C   UNL     1       8.087  -9.122  -7.000  1.00  0.00     0.173 A 
ATOM     90  F   UNL     1       4.562  -9.851  -7.522  1.00  0.00    -0.203 F 
ATOM     91  C   UNL     1       6.440 -11.268  -7.624  1.00  0.00     0.198 A 
ATOM     92  C   UNL     1       8.635 -10.383  -7.220  1.00  0.00     0.198 A 
ATOM     93  F   UNL     1       8.908  -8.106  -6.696  1.00  0.00    -0.203 F 
ATOM     94  F   UNL     1       5.640 -12.308  -7.894  1.00  0.00    -0.200 F 
ATOM     95  C   UNL     1       7.811 -11.456  -7.526  1.00  0.00     0.200 A 
ATOM     96  F   UNL     1       9.960 -10.561  -7.135  1.00  0.00    -0.200 F 
ATOM     97  F   UNL     1       8.337 -12.673  -7.718  1.00  0.00    -0.200 F 
ENDBRANCH  64  87
ENDBRANCH  38  39
ENDBRANCH  31  33
ENDBRANCH  30  31
ENDBRANCH  29  30
ENDBRANCH  28  29
ENDBRANCH  27  28
ENDBRANCH   1  27
TORSDOF 18
