REMARK SMILES O=C(C[C@@H](C(=O)OCCOCCOC(=O)c1ccc(-c2c3nc(c(-c4c(F)c(F)c(F)c(F)c4F)c4ccc([nH]4)c(-c4c(F)c(F)c(F)c(F)c4F)c4nc(c(-c5c(F)c(F)c(F)c(F)c5F)c5ccc2[nH]5)C=C4)C=C3)cc1)c1ccccc1)Nc1cc(C(F)(F)F)ccc1-n1cncn1
REMARK SMILES IDX 9 1 8 2 7 3 5 4 6 5 4 6 3 7 2 8 1 9 85 10 86 12 87 13 95 14
REMARK SMILES IDX 88 15 94 16 93 17 96 18 97 19 100 20 98 21 99 22 89 23 90 24
REMARK SMILES IDX 91 25 92 26 79 27 80 28 84 29 81 30 83 31 82 32 10 33 11 34
REMARK SMILES IDX 12 35 13 36 14 37 15 38 16 39 17 40 78 41 18 42 77 43 19 44
REMARK SMILES IDX 20 45 21 46 71 47 22 48 76 49 70 50 72 51 23 52 75 53 69 54
REMARK SMILES IDX 68 55 24 57 56 58 36 59 55 60 37 61 40 62 54 63 73 64 38 65
REMARK SMILES IDX 39 66 53 68 74 69 41 70 25 71 26 72 34 73 27 74 28 75 32 76
REMARK SMILES IDX 35 77 29 78 30 79 33 80 31 81 57 82 58 83 66 84 59 85 60 86
REMARK SMILES IDX 64 87 67 88 61 89 62 90 65 91 63 92 42 93 43 94 51 95 44 96
REMARK SMILES IDX 45 97 49 98 52 99 46 100 47 101 50 102 48 103
REMARK H PARENT 85 11 72 56 40 67
REMARK Flexibility Score: inf
ROOT
ATOM      1  C   UNL     1       6.406  -1.613   1.294  1.00  0.00     0.202 C 
ENDROOT
BRANCH   1   2
ATOM      2  C   UNL     1       5.940  -0.513   2.257  1.00  0.00     0.261 C 
BRANCH   2   3
ATOM      3  O   UNL     1       4.878   0.250   1.632  1.00  0.00    -0.463 OA
BRANCH   3   4
ATOM      4  C   UNL     1       4.840   1.574   1.939  1.00  0.00     0.314 C 
ATOM      5  O   UNL     1       5.542   2.074   2.810  1.00  0.00    -0.252 OA
BRANCH   4   6
ATOM      6  C   UNL     1       3.859   2.385   1.068  1.00  0.00     0.138 C 
BRANCH   6   7
ATOM      7  C   UNL     1       3.192   1.728  -0.151  1.00  0.00     0.120 C 
BRANCH   7   8
ATOM      8  C   UNL     1       2.199   0.664   0.220  1.00  0.00     0.225 C 
ATOM      9  O   UNL     1       1.043   0.920   0.532  1.00  0.00    -0.275 OA
ATOM     10  N   UNL     1       2.770  -0.593   0.213  1.00  0.00    -0.324 N 
ATOM     11  H   UNL     1       3.682  -0.701  -0.141  1.00  0.00     0.170 HD
BRANCH  10  12
ATOM     12  C   UNL     1       2.094  -1.719   0.693  1.00  0.00     0.067 A 
ATOM     13  C   UNL     1       2.693  -2.284   1.812  1.00  0.00     0.041 A 
ATOM     14  C   UNL     1       0.860  -2.186   0.240  1.00  0.00     0.090 A 
ATOM     15  C   UNL     1       2.054  -3.243   2.584  1.00  0.00     0.058 A 
ATOM     16  C   UNL     1       0.213  -3.192   0.975  1.00  0.00     0.031 A 
ATOM     17  C   UNL     1       0.809  -3.714   2.143  1.00  0.00     0.015 A 
BRANCH  14  18
ATOM     18  N   UNL     1       0.297  -1.698  -0.963  1.00  0.00    -0.219 N 
ATOM     19  C   UNL     1       0.954  -1.194  -2.065  1.00  0.00     0.226 A 
ATOM     20  N   UNL     1      -1.035  -1.677  -1.203  1.00  0.00    -0.155 NA
ATOM     21  N   UNL     1       0.102  -0.657  -2.905  1.00  0.00    -0.223 NA
ATOM     22  C   UNL     1      -1.093  -0.922  -2.305  1.00  0.00     0.246 A 
ENDBRANCH  14  18
BRANCH  15  23
ATOM     23  C   UNL     1       2.783  -3.657   3.843  1.00  0.00     0.416 C 
ATOM     24  F   UNL     1       3.438  -2.615   4.433  1.00  0.00    -0.166 F 
ATOM     25  F   UNL     1       1.985  -4.190   4.802  1.00  0.00    -0.166 F 
ATOM     26  F   UNL     1       3.767  -4.569   3.594  1.00  0.00    -0.166 F 
ENDBRANCH  15  23
ENDBRANCH  10  12
ENDBRANCH   7   8
ENDBRANCH   6   7
BRANCH   6  27
ATOM     27  C   UNL     1       4.567   3.619   0.516  1.00  0.00    -0.033 A 
ATOM     28  C   UNL     1       5.817   3.518  -0.119  1.00  0.00     0.004 A 
ATOM     29  C   UNL     1       3.929   4.864   0.569  1.00  0.00     0.004 A 
ATOM     30  C   UNL     1       6.425   4.643  -0.669  1.00  0.00     0.000 A 
ATOM     31  C   UNL     1       4.540   5.987   0.017  1.00  0.00     0.000 A 
ATOM     32  C   UNL     1       5.787   5.878  -0.598  1.00  0.00     0.000 A 
ENDBRANCH   6  27
ENDBRANCH   4   6
ENDBRANCH   3   4
ENDBRANCH   2   3
ENDBRANCH   1   2
BRANCH   1  33
ATOM     33  O   UNL     1       7.152  -1.142   0.170  1.00  0.00    -0.374 OA
BRANCH  33  34
ATOM     34  C   UNL     1       6.441  -0.439  -0.842  1.00  0.00     0.202 C 
BRANCH  34  35
ATOM     35  C   UNL     1       5.749  -1.294  -1.911  1.00  0.00     0.261 C 
BRANCH  35  36
ATOM     36  O   UNL     1       4.867  -2.292  -1.364  1.00  0.00    -0.460 OA
BRANCH  36  37
ATOM     37  C   UNL     1       5.409  -3.535  -1.296  1.00  0.00     0.338 C 
ATOM     38  O   UNL     1       6.537  -3.861  -1.648  1.00  0.00    -0.246 OA
BRANCH  37  39
ATOM     39  C   UNL     1       4.502  -4.472  -0.603  1.00  0.00     0.060 A 
ATOM     40  C   UNL     1       5.032  -5.253   0.431  1.00  0.00     0.016 A 
ATOM     41  C   UNL     1       3.180  -4.661  -1.011  1.00  0.00     0.016 A 
ATOM     42  C   UNL     1       4.256  -6.249   1.035  1.00  0.00     0.010 A 
ATOM     43  C   UNL     1       2.401  -5.654  -0.395  1.00  0.00     0.010 A 
ATOM     44  C   UNL     1       2.941  -6.482   0.611  1.00  0.00    -0.014 A 
BRANCH  44  45
ATOM     45  C   UNL     1       2.215  -7.716   1.052  1.00  0.00     0.031 A 
ATOM     46  C   UNL     1       2.095  -8.844   0.079  1.00  0.00     0.074 A 
ATOM     47  C   UNL     1       1.693  -7.873   2.285  1.00  0.00     0.049 A 
ATOM     48  N   UNL     1       1.457  -9.975   0.210  1.00  0.00    -0.248 NA
ATOM     49  C   UNL     1       2.771  -8.671  -1.216  1.00  0.00     0.031 C 
ATOM     50  C   UNL     1       1.772  -6.867   3.316  1.00  0.00     0.029 A 
ATOM     51  N   UNL     1       0.993  -8.886   2.896  1.00  0.00    -0.354 N 
ATOM     52  C   UNL     1       1.652 -10.647  -0.983  1.00  0.00     0.074 A 
ATOM     53  C   UNL     1       2.410  -9.774  -1.852  1.00  0.00     0.031 C 
ATOM     54  C   UNL     1       1.133  -7.261   4.423  1.00  0.00     0.029 A 
ATOM     55  C   UNL     1       0.577  -8.580   4.178  1.00  0.00     0.049 A 
ATOM     56  H   UNL     1       0.806  -9.749   2.461  1.00  0.00     0.167 HD
ATOM     57  C   UNL     1       1.257 -11.898  -1.307  1.00  0.00     0.037 A 
ATOM     58  C   UNL     1      -0.179  -9.268   5.056  1.00  0.00     0.037 A 
ATOM     59  C   UNL     1       0.510 -12.759  -0.431  1.00  0.00     0.049 A 
ATOM     60  C   UNL     1      -0.655 -10.630   4.646  1.00  0.00     0.074 A 
ATOM     61  C   UNL     1       0.067 -14.047  -0.667  1.00  0.00     0.029 A 
ATOM     62  N   UNL     1       0.094 -12.421   0.851  1.00  0.00    -0.354 N 
ATOM     63  N   UNL     1      -0.461 -11.254   3.511  1.00  0.00    -0.248 NA
ATOM     64  C   UNL     1      -1.442 -11.388   5.626  1.00  0.00     0.031 C 
ATOM     65  C   UNL     1      -0.652 -14.474   0.453  1.00  0.00     0.029 A 
ATOM     66  C   UNL     1      -0.606 -13.477   1.414  1.00  0.00     0.049 A 
ATOM     67  H   UNL     1       0.270 -11.559   1.293  1.00  0.00     0.167 HD
ATOM     68  C   UNL     1      -1.071 -12.489   3.647  1.00  0.00     0.074 A 
ATOM     69  C   UNL     1      -1.633 -12.530   4.983  1.00  0.00     0.031 C 
ATOM     70  C   UNL     1      -1.154 -13.497   2.746  1.00  0.00     0.037 A 
BRANCH  57  71
ATOM     71  C   UNL     1       1.628 -12.391  -2.670  1.00  0.00     0.064 A 
ATOM     72  C   UNL     1       2.961 -12.673  -3.011  1.00  0.00     0.173 A 
ATOM     73  C   UNL     1       0.642 -12.589  -3.646  1.00  0.00     0.173 A 
ATOM     74  F   UNL     1       3.944 -12.468  -2.122  1.00  0.00    -0.203 F 
ATOM     75  C   UNL     1       3.293 -13.116  -4.287  1.00  0.00     0.198 A 
ATOM     76  C   UNL     1       0.974 -13.065  -4.910  1.00  0.00     0.198 A 
ATOM     77  F   UNL     1      -0.644 -12.321  -3.372  1.00  0.00    -0.203 F 
ATOM     78  F   UNL     1       4.577 -13.325  -4.609  1.00  0.00    -0.200 F 
ATOM     79  C   UNL     1       2.299 -13.322  -5.232  1.00  0.00     0.200 A 
ATOM     80  F   UNL     1       0.012 -13.269  -5.820  1.00  0.00    -0.200 F 
ATOM     81  F   UNL     1       2.618 -13.759  -6.457  1.00  0.00    -0.200 F 
ENDBRANCH  57  71
BRANCH  58  82
ATOM     82  C   UNL     1      -0.545  -8.686   6.380  1.00  0.00     0.064 A 
ATOM     83  C   UNL     1      -0.087  -9.243   7.583  1.00  0.00     0.173 A 
ATOM     84  C   UNL     1      -1.388  -7.566   6.469  1.00  0.00     0.173 A 
ATOM     85  F   UNL     1       0.703 -10.326   7.562  1.00  0.00    -0.203 F 
ATOM     86  C   UNL     1      -0.478  -8.722   8.819  1.00  0.00     0.198 A 
ATOM     87  C   UNL     1      -1.750  -7.026   7.702  1.00  0.00     0.198 A 
ATOM     88  F   UNL     1      -1.856  -6.988   5.353  1.00  0.00    -0.203 F 
ATOM     89  F   UNL     1      -0.070  -9.311   9.951  1.00  0.00    -0.200 F 
ATOM     90  C   UNL     1      -1.304  -7.610   8.877  1.00  0.00     0.200 A 
ATOM     91  F   UNL     1      -2.538  -5.942   7.751  1.00  0.00    -0.200 F 
ATOM     92  F   UNL     1      -1.678  -7.110  10.062  1.00  0.00    -0.200 F 
ENDBRANCH  58  82
BRANCH  70  93
ATOM     93  C   UNL     1      -1.827 -14.753   3.209  1.00  0.00     0.064 A 
ATOM     94  C   UNL     1      -3.210 -14.817   3.428  1.00  0.00     0.173 A 
ATOM     95  C   UNL     1      -1.067 -15.910   3.436  1.00  0.00     0.173 A 
ATOM     96  F   UNL     1      -3.974 -13.729   3.246  1.00  0.00    -0.203 F 
ATOM     97  C   UNL     1      -3.803 -15.985   3.895  1.00  0.00     0.198 A 
ATOM     98  C   UNL     1      -1.669 -17.087   3.867  1.00  0.00     0.198 A 
ATOM     99  F   UNL     1       0.260 -15.899   3.237  1.00  0.00    -0.203 F 
ATOM    100  F   UNL     1      -5.116 -16.006   4.164  1.00  0.00    -0.200 F 
ATOM    101  C   UNL     1      -3.034 -17.120   4.108  1.00  0.00     0.200 A 
ATOM    102  F   UNL     1      -0.926 -18.185   4.059  1.00  0.00    -0.200 F 
ATOM    103  F   UNL     1      -3.607 -18.244   4.558  1.00  0.00    -0.200 F 
ENDBRANCH  70  93
ENDBRANCH  44  45
ENDBRANCH  37  39
ENDBRANCH  36  37
ENDBRANCH  35  36
ENDBRANCH  34  35
ENDBRANCH  33  34
ENDBRANCH   1  33
TORSDOF 20
