REMARK SMILES Cn1ccnc1NCCOCC(=O)OCCOCCOC(=O)c1ccc(-c2c3nc(c(-c4c(F)c(F)c(F)c(F)c4F)c4ccc([nH]4)c(-c4c(F)c(F)c(F)c(F)c4F)c4nc(c(-c5c(F)c(F)c(F)c(F)c5F)c5ccc2[nH]5)C=C4)C=C3)cc1
REMARK SMILES IDX 15 1 14 2 12 3 13 4 11 5 10 6 9 7 8 8 7 9 6 11 1 12 2 13
REMARK SMILES IDX 3 14 4 15 5 16 16 17 17 18 18 19 19 20 20 21 21 22 22 23
REMARK SMILES IDX 23 24 24 25 85 26 25 27 84 28 26 29 27 30 28 31 78 32 29 33
REMARK SMILES IDX 83 34 77 35 79 36 30 37 82 38 76 39 75 40 31 42 63 43 43 44
REMARK SMILES IDX 62 45 44 46 47 47 61 48 80 49 45 50 46 51 60 53 81 54 48 55
REMARK SMILES IDX 32 56 33 57 41 58 34 59 35 60 39 61 42 62 36 63 37 64 40 65
REMARK SMILES IDX 38 66 64 67 65 68 73 69 66 70 67 71 71 72 74 73 68 74 69 75
REMARK SMILES IDX 72 76 70 77 49 78 50 79 58 80 51 81 52 82 56 83 59 84 53 85
REMARK SMILES IDX 54 86 57 87 55 88
REMARK H PARENT 7 10 79 41 47 52
REMARK Flexibility Score: inf
ROOT
ATOM      1  C   UNL     1       2.187   2.361   4.364  1.00  0.00     0.261 C 
ENDROOT
BRANCH   1   2
ATOM      2  O   UNL     1       2.003   3.381   3.357  1.00  0.00    -0.462 OA
BRANCH   2   3
ATOM      3  C   UNL     1       2.598   3.141   2.157  1.00  0.00     0.332 C 
ATOM      4  O   UNL     1       3.220   2.122   1.872  1.00  0.00    -0.250 OA
BRANCH   3   5
ATOM      5  C   UNL     1       2.519   4.347   1.204  1.00  0.00     0.282 C 
BRANCH   5   6
ATOM      6  O   UNL     1       1.409   5.199   1.033  1.00  0.00    -0.368 OA
BRANCH   6   7
ATOM      7  C   UNL     1       0.124   4.587   0.932  1.00  0.00     0.182 C 
BRANCH   7   8
ATOM      8  C   UNL     1      -0.145   3.734  -0.322  1.00  0.00     0.144 C 
BRANCH   8   9
ATOM      9  N   UNL     1       0.622   2.495  -0.332  1.00  0.00    -0.353 N 
ATOM     10  H   UNL     1       1.602   2.538  -0.412  1.00  0.00     0.163 HD
BRANCH   9  11
ATOM     11  C   UNL     1       0.020   1.293  -0.235  1.00  0.00     0.202 A 
ATOM     12  C   UNL     1       2.164  -0.070  -0.214  1.00  0.00     0.153 C 
ATOM     13  N   UNL     1       0.734   0.115  -0.224  1.00  0.00    -0.321 N 
ATOM     14  C   UNL     1      -0.162  -0.921  -0.164  1.00  0.00     0.109 A 
ATOM     15  C   UNL     1      -1.395  -0.320  -0.120  1.00  0.00     0.133 A 
ATOM     16  N   UNL     1      -1.268   1.046  -0.131  1.00  0.00    -0.222 NA
ENDBRANCH   9  11
ENDBRANCH   8   9
ENDBRANCH   7   8
ENDBRANCH   6   7
ENDBRANCH   5   6
ENDBRANCH   3   5
ENDBRANCH   2   3
ENDBRANCH   1   2
BRANCH   1  17
ATOM     17  C   UNL     1       0.875   2.030   5.077  1.00  0.00     0.202 C 
BRANCH  17  18
ATOM     18  O   UNL     1       0.002   1.129   4.393  1.00  0.00    -0.374 OA
BRANCH  18  19
ATOM     19  C   UNL     1      -0.632   1.627   3.216  1.00  0.00     0.202 C 
BRANCH  19  20
ATOM     20  C   UNL     1      -1.897   2.465   3.448  1.00  0.00     0.261 C 
BRANCH  20  21
ATOM     21  O   UNL     1      -1.669   3.547   4.370  1.00  0.00    -0.460 OA
BRANCH  21  22
ATOM     22  C   UNL     1      -2.297   3.399   5.563  1.00  0.00     0.338 C 
ATOM     23  O   UNL     1      -3.152   2.581   5.856  1.00  0.00    -0.246 OA
BRANCH  22  24
ATOM     24  C   UNL     1      -1.681   4.267   6.585  1.00  0.00     0.060 A 
ATOM     25  C   UNL     1      -1.218   3.636   7.746  1.00  0.00     0.016 A 
ATOM     26  C   UNL     1      -1.641   5.658   6.470  1.00  0.00     0.016 A 
ATOM     27  C   UNL     1      -0.784   4.396   8.828  1.00  0.00     0.010 A 
ATOM     28  C   UNL     1      -1.207   6.423   7.563  1.00  0.00     0.010 A 
ATOM     29  C   UNL     1      -0.825   5.795   8.763  1.00  0.00    -0.014 A 
BRANCH  29  30
ATOM     30  C   UNL     1      -0.645   6.562  10.022  1.00  0.00     0.031 A 
ATOM     31  C   UNL     1      -1.865   7.021  10.775  1.00  0.00     0.074 A 
ATOM     32  C   UNL     1       0.579   6.757  10.545  1.00  0.00     0.049 A 
ATOM     33  N   UNL     1      -1.952   7.621  11.935  1.00  0.00    -0.248 NA
ATOM     34  C   UNL     1      -3.165   6.761  10.136  1.00  0.00     0.031 C 
ATOM     35  C   UNL     1       1.835   6.327   9.934  1.00  0.00     0.029 A 
ATOM     36  N   UNL     1       0.962   7.354  11.720  1.00  0.00    -0.354 N 
ATOM     37  C   UNL     1      -3.310   7.803  12.166  1.00  0.00     0.074 A 
ATOM     38  C   UNL     1      -4.010   7.287  11.010  1.00  0.00     0.031 C 
ATOM     39  C   UNL     1       2.852   6.669  10.744  1.00  0.00     0.029 A 
ATOM     40  C   UNL     1       2.320   7.357  11.920  1.00  0.00     0.049 A 
ATOM     41  H   UNL     1       0.322   7.744  12.360  1.00  0.00     0.167 HD
ATOM     42  C   UNL     1      -3.921   8.336  13.251  1.00  0.00     0.037 A 
ATOM     43  C   UNL     1       3.049   7.861  12.935  1.00  0.00     0.037 A 
ATOM     44  C   UNL     1      -3.228   8.846  14.405  1.00  0.00     0.049 A 
ATOM     45  C   UNL     1       2.347   8.507  14.102  1.00  0.00     0.074 A 
ATOM     46  C   UNL     1      -3.760   9.390  15.561  1.00  0.00     0.029 A 
ATOM     47  N   UNL     1      -1.849   8.881  14.545  1.00  0.00    -0.354 N 
ATOM     48  N   UNL     1       1.063   8.644  14.325  1.00  0.00    -0.248 NA
ATOM     49  C   UNL     1       3.201   9.061  15.164  1.00  0.00     0.031 C 
ATOM     50  C   UNL     1      -2.702   9.798  16.380  1.00  0.00     0.029 A 
ATOM     51  C   UNL     1      -1.511   9.463  15.756  1.00  0.00     0.049 A 
ATOM     52  H   UNL     1      -1.206   8.542  13.881  1.00  0.00     0.167 HD
ATOM     53  C   UNL     1       0.953   9.278  15.557  1.00  0.00     0.074 A 
ATOM     54  C   UNL     1       2.302   9.480  16.043  1.00  0.00     0.031 C 
ATOM     55  C   UNL     1      -0.163   9.659  16.225  1.00  0.00     0.037 A 
BRANCH  42  56
ATOM     56  C   UNL     1      -5.419   8.415  13.231  1.00  0.00     0.064 A 
ATOM     57  C   UNL     1      -6.218   7.270  13.367  1.00  0.00     0.173 A 
ATOM     58  C   UNL     1      -6.063   9.654  13.103  1.00  0.00     0.173 A 
ATOM     59  F   UNL     1      -5.651   6.059  13.478  1.00  0.00    -0.203 F 
ATOM     60  C   UNL     1      -7.608   7.361  13.352  1.00  0.00     0.198 A 
ATOM     61  C   UNL     1      -7.452   9.745  13.116  1.00  0.00     0.198 A 
ATOM     62  F   UNL     1      -5.344  10.780  12.974  1.00  0.00    -0.203 F 
ATOM     63  F   UNL     1      -8.352   6.250  13.440  1.00  0.00    -0.200 F 
ATOM     64  C   UNL     1      -8.223   8.598  13.233  1.00  0.00     0.200 A 
ATOM     65  F   UNL     1      -8.045  10.942  13.012  1.00  0.00    -0.200 F 
ATOM     66  F   UNL     1      -9.561   8.685  13.225  1.00  0.00    -0.200 F 
ENDBRANCH  42  56
BRANCH  43  67
ATOM     67  C   UNL     1       4.532   7.780  12.895  1.00  0.00     0.064 A 
ATOM     68  C   UNL     1       5.241   6.967  13.791  1.00  0.00     0.173 A 
ATOM     69  C   UNL     1       5.272   8.533  11.971  1.00  0.00     0.173 A 
ATOM     70  F   UNL     1       4.580   6.250  14.711  1.00  0.00    -0.203 F 
ATOM     71  C   UNL     1       6.634   6.924  13.775  1.00  0.00     0.198 A 
ATOM     72  C   UNL     1       6.663   8.467  11.938  1.00  0.00     0.198 A 
ATOM     73  F   UNL     1       4.642   9.329  11.096  1.00  0.00    -0.203 F 
ATOM     74  F   UNL     1       7.289   6.175  14.672  1.00  0.00    -0.200 F 
ATOM     75  C   UNL     1       7.344   7.669  12.845  1.00  0.00     0.200 A 
ATOM     76  F   UNL     1       7.344   9.181  11.032  1.00  0.00    -0.200 F 
ATOM     77  F   UNL     1       8.683   7.625  12.829  1.00  0.00    -0.200 F 
ENDBRANCH  43  67
BRANCH  55  78
ATOM     78  C   UNL     1       0.025  10.316  17.562  1.00  0.00     0.064 A 
ATOM     79  C   UNL     1       0.529  11.620  17.675  1.00  0.00     0.173 A 
ATOM     80  C   UNL     1      -0.332   9.645  18.742  1.00  0.00     0.173 A 
ATOM     81  F   UNL     1       0.898  12.299  16.578  1.00  0.00    -0.203 F 
ATOM     82  C   UNL     1       0.695  12.218  18.922  1.00  0.00     0.198 A 
ATOM     83  C   UNL     1      -0.192  10.257  19.985  1.00  0.00     0.198 A 
ATOM     84  F   UNL     1      -0.826   8.399  18.689  1.00  0.00    -0.203 F 
ATOM     85  F   UNL     1       1.225  13.446  19.008  1.00  0.00    -0.200 F 
ATOM     86  C   UNL     1       0.329  11.539  20.074  1.00  0.00     0.200 A 
ATOM     87  F   UNL     1      -0.558   9.605  21.097  1.00  0.00    -0.200 F 
ATOM     88  F   UNL     1       0.487  12.117  21.273  1.00  0.00    -0.200 F 
ENDBRANCH  55  78
ENDBRANCH  29  30
ENDBRANCH  22  24
ENDBRANCH  21  22
ENDBRANCH  20  21
ENDBRANCH  19  20
ENDBRANCH  18  19
ENDBRANCH  17  18
ENDBRANCH   1  17
TORSDOF 19
