REMARK SMILES C[C@@](NC(=O)c1cc(Br)c[nH]1)(C(=O)OCCOCCOC(=O)c1ccc(-c2c3nc(c(-c4c(F)c(F)c(F)c(F)c4F)c4ccc([nH]4)c(-c4c(F)c(F)c(F)c(F)c4F)c4nc(c(-c5c(F)c(F)c(F)c(F)c5F)c5ccc2[nH]5)C=C4)C=C3)cc1)C(F)(F)F
REMARK SMILES IDX 17 1 16 2 15 3 14 4 12 5 13 6 2 7 1 8 3 9 4 10 5 12 6 13
REMARK SMILES IDX 7 14 11 15 8 16 10 17 9 19 86 20 87 21 88 22 89 23 18 24
REMARK SMILES IDX 19 25 20 26 21 27 22 28 23 29 24 30 85 31 25 32 84 33 26 34
REMARK SMILES IDX 27 35 28 36 78 37 29 38 83 39 77 40 79 41 30 42 82 43 76 44
REMARK SMILES IDX 75 45 31 47 63 48 43 49 62 50 44 51 47 52 61 53 80 54 45 55
REMARK SMILES IDX 46 56 60 58 81 59 48 60 32 61 33 62 41 63 34 64 35 65 39 66
REMARK SMILES IDX 42 67 36 68 37 69 40 70 38 71 64 72 65 73 73 74 66 75 67 76
REMARK SMILES IDX 71 77 74 78 68 79 69 80 72 81 70 82 49 83 50 84 58 85 51 86
REMARK SMILES IDX 52 87 56 88 59 89 53 90 54 91 57 92 55 93
REMARK H PARENT 3 11 11 18 79 46 47 57
REMARK Flexibility Score: inf
ROOT
ATOM      1  O   UNL     1      -2.985   2.058  -1.028  1.00  0.00    -0.374 OA
ENDROOT
BRANCH   1   2
ATOM      2  C   UNL     1      -3.781   0.928  -0.709  1.00  0.00     0.202 C 
BRANCH   2   3
ATOM      3  C   UNL     1      -3.175  -0.458  -0.952  1.00  0.00     0.261 C 
BRANCH   3   4
ATOM      4  O   UNL     1      -1.748  -0.537  -0.858  1.00  0.00    -0.461 OA
BRANCH   4   5
ATOM      5  C   UNL     1      -1.065  -0.369  -2.031  1.00  0.00     0.341 C 
ATOM      6  O   UNL     1      -1.588  -0.059  -3.095  1.00  0.00    -0.249 OA
BRANCH   5   7
ATOM      7  C   UNL     1       0.402  -0.778  -1.891  1.00  0.00     0.231 C 
ATOM      8  C   UNL     1       0.848  -0.942  -0.426  1.00  0.00     0.058 C 
BRANCH   7   9
ATOM      9  N   UNL     1       0.732  -2.034  -2.651  1.00  0.00    -0.328 N 
ATOM     10  C   UNL     1       0.132  -3.252  -2.448  1.00  0.00     0.268 C 
ATOM     11  H   UNL     1       1.429  -1.979  -3.345  1.00  0.00     0.165 HD
ATOM     12  O   UNL     1       0.834  -4.201  -2.114  1.00  0.00    -0.268 OA
BRANCH  10  13
ATOM     13  C   UNL     1      -1.283  -3.357  -2.708  1.00  0.00     0.105 A 
ATOM     14  C   UNL     1      -2.219  -4.173  -2.088  1.00  0.00     0.049 A 
ATOM     15  N   UNL     1      -1.948  -2.704  -3.729  1.00  0.00    -0.356 N 
ATOM     16  C   UNL     1      -3.464  -3.927  -2.697  1.00  0.00     0.036 A 
ATOM     17  C   UNL     1      -3.283  -3.021  -3.707  1.00  0.00     0.098 A 
ATOM     18  H   UNL     1      -1.525  -2.099  -4.379  1.00  0.00     0.166 HD
ATOM     19  Br  UNL     1      -5.079  -4.708  -2.168  1.00  0.00    -0.049 Br
ENDBRANCH  10  13
ENDBRANCH   7   9
BRANCH   7  20
ATOM     20  C   UNL     1       1.153   0.431  -2.483  1.00  0.00     0.422 C 
ATOM     21  F   UNL     1       0.871   1.583  -1.835  1.00  0.00    -0.168 F 
ATOM     22  F   UNL     1       2.495   0.239  -2.373  1.00  0.00    -0.168 F 
ATOM     23  F   UNL     1       0.906   0.616  -3.798  1.00  0.00    -0.168 F 
ENDBRANCH   7  20
ENDBRANCH   5   7
ENDBRANCH   4   5
ENDBRANCH   3   4
ENDBRANCH   2   3
ENDBRANCH   1   2
BRANCH   1  24
ATOM     24  C   UNL     1      -1.873   2.366  -0.186  1.00  0.00     0.202 C 
BRANCH  24  25
ATOM     25  C   UNL     1      -2.145   2.502   1.313  1.00  0.00     0.261 C 
BRANCH  25  26
ATOM     26  O   UNL     1      -2.388   1.215   1.920  1.00  0.00    -0.460 OA
BRANCH  26  27
ATOM     27  C   UNL     1      -3.466   1.187   2.737  1.00  0.00     0.338 C 
ATOM     28  O   UNL     1      -4.188   2.127   3.037  1.00  0.00    -0.246 OA
BRANCH  27  29
ATOM     29  C   UNL     1      -3.788  -0.184   3.161  1.00  0.00     0.060 A 
ATOM     30  C   UNL     1      -5.091  -0.637   2.920  1.00  0.00     0.016 A 
ATOM     31  C   UNL     1      -2.918  -0.914   3.974  1.00  0.00     0.016 A 
ATOM     32  C   UNL     1      -5.566  -1.767   3.581  1.00  0.00     0.010 A 
ATOM     33  C   UNL     1      -3.398  -2.047   4.642  1.00  0.00     0.010 A 
ATOM     34  C   UNL     1      -4.744  -2.432   4.502  1.00  0.00    -0.014 A 
BRANCH  34  35
ATOM     35  C   UNL     1      -5.384  -3.344   5.484  1.00  0.00     0.031 A 
ATOM     36  C   UNL     1      -5.801  -2.783   6.820  1.00  0.00     0.074 A 
ATOM     37  C   UNL     1      -5.672  -4.618   5.170  1.00  0.00     0.049 A 
ATOM     38  N   UNL     1      -6.449  -3.358   7.801  1.00  0.00    -0.248 NA
ATOM     39  C   UNL     1      -5.442  -1.379   7.082  1.00  0.00     0.031 C 
ATOM     40  C   UNL     1      -5.355  -5.269   3.903  1.00  0.00     0.029 A 
ATOM     41  N   UNL     1      -6.313  -5.588   5.901  1.00  0.00    -0.354 N 
ATOM     42  C   UNL     1      -6.577  -2.390   8.789  1.00  0.00     0.074 A 
ATOM     43  C   UNL     1      -5.911  -1.200   8.308  1.00  0.00     0.031 C 
ATOM     44  C   UNL     1      -5.807  -6.535   3.941  1.00  0.00     0.029 A 
ATOM     45  C   UNL     1      -6.436  -6.782   5.238  1.00  0.00     0.049 A 
ATOM     46  H   UNL     1      -6.652  -5.440   6.813  1.00  0.00     0.167 HD
ATOM     47  C   UNL     1      -7.205  -2.477   9.986  1.00  0.00     0.037 A 
ATOM     48  C   UNL     1      -6.997  -7.941   5.636  1.00  0.00     0.037 A 
ATOM     49  C   UNL     1      -7.876  -3.653  10.469  1.00  0.00     0.049 A 
ATOM     50  C   UNL     1      -7.656  -8.024   6.988  1.00  0.00     0.074 A 
ATOM     51  C   UNL     1      -8.549  -3.836  11.664  1.00  0.00     0.029 A 
ATOM     52  N   UNL     1      -7.956  -4.851   9.776  1.00  0.00    -0.354 N 
ATOM     53  N   UNL     1      -7.802  -7.093   7.899  1.00  0.00    -0.248 NA
ATOM     54  C   UNL     1      -8.244  -9.320   7.359  1.00  0.00     0.031 C 
ATOM     55  C   UNL     1      -9.010  -5.156  11.709  1.00  0.00     0.029 A 
ATOM     56  C   UNL     1      -8.655  -5.783  10.524  1.00  0.00     0.049 A 
ATOM     57  H   UNL     1      -7.573  -5.014   8.884  1.00  0.00     0.167 HD
ATOM     58  C   UNL     1      -8.524  -7.677   8.931  1.00  0.00     0.074 A 
ATOM     59  C   UNL     1      -8.792  -9.043   8.533  1.00  0.00     0.031 C 
ATOM     60  C   UNL     1      -8.931  -7.131  10.104  1.00  0.00     0.037 A 
BRANCH  47  61
ATOM     61  C   UNL     1      -7.178  -1.263  10.865  1.00  0.00     0.064 A 
ATOM     62  C   UNL     1      -7.969  -0.139  10.588  1.00  0.00     0.173 A 
ATOM     63  C   UNL     1      -6.367  -1.233  12.009  1.00  0.00     0.173 A 
ATOM     64  F   UNL     1      -8.747  -0.114   9.495  1.00  0.00    -0.203 F 
ATOM     65  C   UNL     1      -7.932   0.983  11.413  1.00  0.00     0.198 A 
ATOM     66  C   UNL     1      -6.350  -0.119  12.845  1.00  0.00     0.198 A 
ATOM     67  F   UNL     1      -5.594  -2.284  12.318  1.00  0.00    -0.203 F 
ATOM     68  F   UNL     1      -8.664   2.062  11.107  1.00  0.00    -0.200 F 
ATOM     69  C   UNL     1      -7.127   0.989  12.543  1.00  0.00     0.200 A 
ATOM     70  F   UNL     1      -5.577  -0.116  13.939  1.00  0.00    -0.200 F 
ATOM     71  F   UNL     1      -7.094   2.068  13.337  1.00  0.00    -0.200 F 
ENDBRANCH  47  61
BRANCH  48  72
ATOM     72  C   UNL     1      -6.981  -9.118   4.732  1.00  0.00     0.064 A 
ATOM     73  C   UNL     1      -8.156  -9.577   4.122  1.00  0.00     0.173 A 
ATOM     74  C   UNL     1      -5.794  -9.820   4.478  1.00  0.00     0.173 A 
ATOM     75  F   UNL     1      -9.320  -8.953   4.357  1.00  0.00    -0.203 F 
ATOM     76  C   UNL     1      -8.148 -10.705   3.305  1.00  0.00     0.198 A 
ATOM     77  C   UNL     1      -5.783 -10.935   3.643  1.00  0.00     0.198 A 
ATOM     78  F   UNL     1      -4.645  -9.422   5.043  1.00  0.00    -0.203 F 
ATOM     79  F   UNL     1      -9.293 -11.149   2.768  1.00  0.00    -0.200 F 
ATOM     80  C   UNL     1      -6.961 -11.380   3.062  1.00  0.00     0.200 A 
ATOM     81  F   UNL     1      -4.634 -11.582   3.407  1.00  0.00    -0.200 F 
ATOM     82  F   UNL     1      -6.955 -12.467   2.278  1.00  0.00    -0.200 F 
ENDBRANCH  48  72
BRANCH  60  83
ATOM     83  C   UNL     1      -9.749  -7.993  11.019  1.00  0.00     0.064 A 
ATOM     84  C   UNL     1      -9.170  -9.029  11.765  1.00  0.00     0.173 A 
ATOM     85  C   UNL     1     -11.122  -7.752  11.179  1.00  0.00     0.173 A 
ATOM     86  F   UNL     1      -7.864  -9.306  11.636  1.00  0.00    -0.203 F 
ATOM     87  C   UNL     1      -9.943  -9.809  12.621  1.00  0.00     0.198 A 
ATOM     88  C   UNL     1     -11.886  -8.518  12.054  1.00  0.00     0.198 A 
ATOM     89  F   UNL     1     -11.720  -6.766  10.493  1.00  0.00    -0.203 F 
ATOM     90  F   UNL     1      -9.378 -10.822  13.294  1.00  0.00    -0.200 F 
ATOM     91  C   UNL     1     -11.297  -9.550  12.770  1.00  0.00     0.200 A 
ATOM     92  F   UNL     1     -13.192  -8.260  12.204  1.00  0.00    -0.200 F 
ATOM     93  F   UNL     1     -12.038 -10.300  13.597  1.00  0.00    -0.200 F 
ENDBRANCH  60  83
ENDBRANCH  34  35
ENDBRANCH  27  29
ENDBRANCH  26  27
ENDBRANCH  25  26
ENDBRANCH  24  25
ENDBRANCH   1  24
TORSDOF 17
