REMARK SMILES C[C@H]1OCC[C@H]1C(=O)Nc1ccsc1C(=O)OCCOCCOC(=O)c1ccc(-c2c3nc(c(-c4c(F)c(F)c(F)c(F)c4F)c4ccc([nH]4)c(-c4c(F)c(F)c(F)c(F)c4F)c4nc(c(-c5c(F)c(F)c(F)c(F)c5F)c5ccc2[nH]5)C=C4)C=C3)cc1
REMARK SMILES IDX 20 1 19 2 18 3 17 4 15 5 16 6 14 7 10 8 11 9 12 10 13 11
REMARK SMILES IDX 9 12 7 13 8 14 6 16 1 17 2 18 3 19 4 20 5 21 21 22 22 23
REMARK SMILES IDX 23 24 24 25 25 26 26 27 27 28 88 29 28 30 87 31 29 32 30 33
REMARK SMILES IDX 31 34 81 35 32 36 86 37 80 38 82 39 33 40 85 41 79 42 78 43
REMARK SMILES IDX 34 45 66 46 46 47 65 48 47 49 50 50 64 51 83 52 48 53 49 54
REMARK SMILES IDX 63 56 84 57 51 58 35 59 36 60 44 61 37 62 38 63 42 64 45 65
REMARK SMILES IDX 39 66 40 67 43 68 41 69 67 70 68 71 76 72 69 73 70 74 74 75
REMARK SMILES IDX 77 76 71 77 72 78 75 79 73 80 52 81 53 82 61 83 54 84 55 85
REMARK SMILES IDX 59 86 62 87 56 88 57 89 60 90 58 91
REMARK H PARENT 9 15 82 44 50 55
REMARK Flexibility Score: inf
ROOT
ATOM      1  O   UNL     1      -3.611   0.054  -5.619  1.00  0.00    -0.374 OA
ENDROOT
BRANCH   1   2
ATOM      2  C   UNL     1      -2.867  -1.072  -6.085  1.00  0.00     0.202 C 
BRANCH   2   3
ATOM      3  C   UNL     1      -1.429  -0.742  -6.489  1.00  0.00     0.261 C 
BRANCH   3   4
ATOM      4  O   UNL     1      -0.701  -0.246  -5.351  1.00  0.00    -0.459 OA
BRANCH   4   5
ATOM      5  C   UNL     1      -0.445   1.097  -5.372  1.00  0.00     0.350 C 
ATOM      6  O   UNL     1      -0.582   1.799  -6.369  1.00  0.00    -0.245 OA
BRANCH   5   7
ATOM      7  C   UNL     1      -0.047   1.564  -4.051  1.00  0.00     0.136 A 
ATOM      8  C   UNL     1       0.245   0.894  -2.857  1.00  0.00     0.066 A 
ATOM      9  C   UNL     1       0.653   1.832  -1.869  1.00  0.00     0.039 A 
ATOM     10  C   UNL     1       0.540   3.146  -2.257  1.00  0.00     0.068 A 
ATOM     11  S   UNL     1       0.023   3.277  -3.861  1.00  0.00    -0.135 S 
BRANCH   8  12
ATOM     12  N   UNL     1       0.229  -0.494  -2.770  1.00  0.00    -0.324 N 
ATOM     13  C   UNL     1       0.266  -1.441  -1.801  1.00  0.00     0.230 C 
ATOM     14  O   UNL     1       0.505  -2.588  -2.221  1.00  0.00    -0.274 OA
ATOM     15  H   UNL     1       0.176  -0.904  -3.664  1.00  0.00     0.169 HD
BRANCH  13  16
ATOM     16  C   UNL     1      -0.099  -1.321  -0.321  1.00  0.00     0.110 C 
ATOM     17  C   UNL     1       2.220  -0.411   0.374  1.00  0.00     0.039 C 
ATOM     18  C   UNL     1       0.739  -0.554   0.677  1.00  0.00     0.127 C 
ATOM     19  O   UNL     1       0.087   0.706   0.886  1.00  0.00    -0.378 OA
ATOM     20  C   UNL     1      -1.289   0.586   0.496  1.00  0.00     0.161 C 
ATOM     21  C   UNL     1      -1.498  -0.802  -0.069  1.00  0.00     0.044 C 
ENDBRANCH  13  16
ENDBRANCH   8  12
ENDBRANCH   5   7
ENDBRANCH   4   5
ENDBRANCH   3   4
ENDBRANCH   2   3
ENDBRANCH   1   2
BRANCH   1  22
ATOM     22  C   UNL     1      -3.572   0.290  -4.207  1.00  0.00     0.202 C 
BRANCH  22  23
ATOM     23  C   UNL     1      -4.571  -0.543  -3.397  1.00  0.00     0.261 C 
BRANCH  23  24
ATOM     24  O   UNL     1      -4.122  -1.908  -3.296  1.00  0.00    -0.460 OA
BRANCH  24  25
ATOM     25  C   UNL     1      -4.850  -2.807  -4.001  1.00  0.00     0.338 C 
ATOM     26  O   UNL     1      -5.901  -2.610  -4.585  1.00  0.00    -0.246 OA
BRANCH  25  27
ATOM     27  C   UNL     1      -4.090  -4.067  -4.136  1.00  0.00     0.060 A 
ATOM     28  C   UNL     1      -4.042  -4.654  -5.407  1.00  0.00     0.016 A 
ATOM     29  C   UNL     1      -3.466  -4.684  -3.049  1.00  0.00     0.016 A 
ATOM     30  C   UNL     1      -3.416  -5.886  -5.586  1.00  0.00     0.010 A 
ATOM     31  C   UNL     1      -2.846  -5.926  -3.228  1.00  0.00     0.010 A 
ATOM     32  C   UNL     1      -2.849  -6.547  -4.489  1.00  0.00    -0.014 A 
BRANCH  32  33
ATOM     33  C   UNL     1      -2.395  -7.951  -4.639  1.00  0.00     0.031 A 
ATOM     34  C   UNL     1      -3.320  -9.061  -4.228  1.00  0.00     0.074 A 
ATOM     35  C   UNL     1      -1.188  -8.235  -5.159  1.00  0.00     0.049 A 
ATOM     36  N   UNL     1      -3.129 -10.356  -4.250  1.00  0.00    -0.248 NA
ATOM     37  C   UNL     1      -4.642  -8.657  -3.722  1.00  0.00     0.031 C 
ATOM     38  C   UNL     1      -0.216  -7.248  -5.623  1.00  0.00     0.029 A 
ATOM     39  N   UNL     1      -0.576  -9.443  -5.378  1.00  0.00    -0.354 N 
ATOM     40  C   UNL     1      -4.299 -10.918  -3.760  1.00  0.00     0.074 A 
ATOM     41  C   UNL     1      -5.187  -9.826  -3.422  1.00  0.00     0.031 C 
ATOM     42  C   UNL     1       0.879  -7.891  -6.063  1.00  0.00     0.029 A 
ATOM     43  C   UNL     1       0.695  -9.330  -5.885  1.00  0.00     0.049 A 
ATOM     44  H   UNL     1      -1.006 -10.308  -5.189  1.00  0.00     0.167 HD
ATOM     45  C   UNL     1      -4.609 -12.228  -3.612  1.00  0.00     0.037 A 
ATOM     46  C   UNL     1       1.609 -10.282  -6.155  1.00  0.00     0.037 A 
ATOM     47  C   UNL     1      -3.728 -13.314  -3.950  1.00  0.00     0.049 A 
ATOM     48  C   UNL     1       1.262 -11.730  -5.926  1.00  0.00     0.074 A 
ATOM     49  C   UNL     1      -3.960 -14.675  -3.857  1.00  0.00     0.029 A 
ATOM     50  N   UNL     1      -2.439 -13.160  -4.438  1.00  0.00    -0.354 N 
ATOM     51  N   UNL     1       0.143 -12.255  -5.491  1.00  0.00    -0.248 NA
ATOM     52  C   UNL     1       2.308 -12.718  -6.229  1.00  0.00     0.031 C 
ATOM     53  C   UNL     1      -2.795 -15.345  -4.247  1.00  0.00     0.029 A 
ATOM     54  C   UNL     1      -1.855 -14.402  -4.629  1.00  0.00     0.049 A 
ATOM     55  H   UNL     1      -2.004 -12.296  -4.623  1.00  0.00     0.167 HD
ATOM     56  C   UNL     1       0.338 -13.630  -5.494  1.00  0.00     0.074 A 
ATOM     57  C   UNL     1       1.681 -13.861  -5.983  1.00  0.00     0.031 C 
ATOM     58  C   UNL     1      -0.519 -14.614  -5.126  1.00  0.00     0.037 A 
BRANCH  45  59
ATOM     59  C   UNL     1      -5.955 -12.559  -3.038  1.00  0.00     0.064 A 
ATOM     60  C   UNL     1      -7.133 -12.390  -3.780  1.00  0.00     0.173 A 
ATOM     61  C   UNL     1      -6.063 -13.081  -1.741  1.00  0.00     0.173 A 
ATOM     62  F   UNL     1      -7.083 -11.880  -5.020  1.00  0.00    -0.203 F 
ATOM     63  C   UNL     1      -8.374 -12.710  -3.234  1.00  0.00     0.198 A 
ATOM     64  C   UNL     1      -7.303 -13.424  -1.208  1.00  0.00     0.198 A 
ATOM     65  F   UNL     1      -4.965 -13.264  -0.991  1.00  0.00    -0.203 F 
ATOM     66  F   UNL     1      -9.491 -12.500  -3.945  1.00  0.00    -0.200 F 
ATOM     67  C   UNL     1      -8.457 -13.232  -1.952  1.00  0.00     0.200 A 
ATOM     68  F   UNL     1      -7.380 -13.937   0.028  1.00  0.00    -0.200 F 
ATOM     69  F   UNL     1      -9.651 -13.544  -1.430  1.00  0.00    -0.200 F 
ENDBRANCH  45  59
BRANCH  46  70
ATOM     70  C   UNL     1       2.949  -9.896  -6.668  1.00  0.00     0.064 A 
ATOM     71  C   UNL     1       3.331 -10.185  -7.984  1.00  0.00     0.173 A 
ATOM     72  C   UNL     1       3.878  -9.242  -5.846  1.00  0.00     0.173 A 
ATOM     73  F   UNL     1       2.486 -10.833  -8.800  1.00  0.00    -0.203 F 
ATOM     74  C   UNL     1       4.598  -9.846  -8.456  1.00  0.00     0.198 A 
ATOM     75  C   UNL     1       5.135  -8.881  -6.326  1.00  0.00     0.198 A 
ATOM     76  F   UNL     1       3.562  -8.948  -4.576  1.00  0.00    -0.203 F 
ATOM     77  F   UNL     1       4.954 -10.171  -9.706  1.00  0.00    -0.200 F 
ATOM     78  C   UNL     1       5.496  -9.189  -7.628  1.00  0.00     0.200 A 
ATOM     79  F   UNL     1       5.997  -8.239  -5.526  1.00  0.00    -0.200 F 
ATOM     80  F   UNL     1       6.713  -8.862  -8.084  1.00  0.00    -0.200 F 
ENDBRANCH  46  70
BRANCH  58  81
ATOM     81  C   UNL     1      -0.049 -16.032  -5.272  1.00  0.00     0.064 A 
ATOM     82  C   UNL     1       0.897 -16.587  -4.399  1.00  0.00     0.173 A 
ATOM     83  C   UNL     1      -0.589 -16.858  -6.269  1.00  0.00     0.173 A 
ATOM     84  F   UNL     1       1.453 -15.833  -3.438  1.00  0.00    -0.203 F 
ATOM     85  C   UNL     1       1.302 -17.913  -4.531  1.00  0.00     0.198 A 
ATOM     86  C   UNL     1      -0.202 -18.191  -6.382  1.00  0.00     0.198 A 
ATOM     87  F   UNL     1      -1.502 -16.377  -7.125  1.00  0.00    -0.203 F 
ATOM     88  F   UNL     1       2.237 -18.411  -3.711  1.00  0.00    -0.200 F 
ATOM     89  C   UNL     1       0.747 -18.715  -5.517  1.00  0.00     0.200 A 
ATOM     90  F   UNL     1      -0.749 -18.968  -7.327  1.00  0.00    -0.200 F 
ATOM     91  F   UNL     1       1.131 -19.993  -5.638  1.00  0.00    -0.200 F 
ENDBRANCH  58  81
ENDBRANCH  32  33
ENDBRANCH  25  27
ENDBRANCH  24  25
ENDBRANCH  23  24
ENDBRANCH  22  23
ENDBRANCH   1  22
TORSDOF 16
