REMARK SMILES O=C(C[C@H]1C[C@H]2CC[C@@H](C1)N2C(=O)NCCC1CC1)OCCOCCOC(=O)c1ccc(-c2c3nc(c(-c4c(F)c(F)c(F)c(F)c4F)c4ccc([nH]4)c(-c4c(F)c(F)c(F)c(F)c4F)c4nc(c(-c5c(F)c(F)c(F)c(F)c5F)c5ccc2[nH]5)C=C4)C=C3)cc1
REMARK SMILES IDX 21 1 20 2 2 3 1 4 3 5 4 6 5 7 10 8 6 9 9 10 7 11 11 12 8 13
REMARK SMILES IDX 12 14 13 15 14 16 15 18 16 19 17 20 18 21 19 22 22 23 23 24
REMARK SMILES IDX 24 25 25 26 26 27 27 28 28 29 29 30 30 31 91 32 31 33 90 34
REMARK SMILES IDX 32 35 33 36 34 37 84 38 35 39 89 40 83 41 85 42 36 43 88 44
REMARK SMILES IDX 82 45 81 46 37 48 69 49 49 50 68 51 50 52 53 53 67 54 86 55
REMARK SMILES IDX 51 56 52 57 66 59 87 60 54 61 38 62 39 63 47 64 40 65 41 66
REMARK SMILES IDX 45 67 48 68 42 69 43 70 46 71 44 72 70 73 71 74 79 75 72 76
REMARK SMILES IDX 73 77 77 78 80 79 74 80 75 81 78 82 76 83 55 84 56 85 64 86
REMARK SMILES IDX 57 87 58 88 62 89 65 90 59 91 60 92 63 93 61 94
REMARK H PARENT 14 17 85 47 53 58
REMARK Flexibility Score: inf
ROOT
ATOM      1  C   UNL     1       3.019   1.444   1.905  1.00  0.00     0.261 C 
ENDROOT
BRANCH   1   2
ATOM      2  O   UNL     1       3.313   1.813   0.547  1.00  0.00    -0.463 OA
BRANCH   2   3
ATOM      3  C   UNL     1       2.337   1.463  -0.330  1.00  0.00     0.306 C 
ATOM      4  O   UNL     1       1.139   1.457  -0.058  1.00  0.00    -0.252 OA
BRANCH   3   5
ATOM      5  C   UNL     1       2.874   0.900  -1.634  1.00  0.00     0.126 C 
BRANCH   5   6
ATOM      6  C   UNL     1       4.368   1.095  -1.976  1.00  0.00     0.004 C 
ATOM      7  C   UNL     1       5.386   0.474  -0.989  1.00  0.00     0.029 C 
ATOM      8  C   UNL     1       4.671   0.631  -3.428  1.00  0.00     0.029 C 
ATOM      9  C   UNL     1       5.881  -0.931  -1.340  1.00  0.00     0.087 C 
ATOM     10  C   UNL     1       5.297  -0.779  -3.561  1.00  0.00     0.087 C 
ATOM     11  C   UNL     1       4.782  -1.978  -1.526  1.00  0.00     0.027 C 
ATOM     12  N   UNL     1       6.447  -0.885  -2.673  1.00  0.00    -0.319 N 
ATOM     13  C   UNL     1       4.378  -1.871  -3.003  1.00  0.00     0.027 C 
BRANCH  12  14
ATOM     14  C   UNL     1       7.758  -1.192  -2.817  1.00  0.00     0.317 C 
ATOM     15  O   UNL     1       8.538  -1.175  -1.859  1.00  0.00    -0.249 OA
ATOM     16  N   UNL     1       8.298  -1.574  -3.981  1.00  0.00    -0.338 N 
ATOM     17  H   UNL     1       9.248  -1.820  -3.892  1.00  0.00     0.165 HD
BRANCH  16  18
ATOM     18  C   UNL     1       7.818  -1.712  -5.335  1.00  0.00     0.118 C 
BRANCH  18  19
ATOM     19  C   UNL     1       7.985  -0.399  -6.102  1.00  0.00     0.025 C 
BRANCH  19  20
ATOM     20  C   UNL     1       9.438  -0.156  -6.415  1.00  0.00    -0.009 C 
ATOM     21  C   UNL     1      10.109  -0.999  -7.470  1.00  0.00     0.004 C 
ATOM     22  C   UNL     1       9.866   0.464  -7.718  1.00  0.00     0.004 C 
ENDBRANCH  19  20
ENDBRANCH  18  19
ENDBRANCH  16  18
ENDBRANCH  12  14
ENDBRANCH   5   6
ENDBRANCH   3   5
ENDBRANCH   2   3
ENDBRANCH   1   2
BRANCH   1  23
ATOM     23  C   UNL     1       3.283  -0.056   2.122  1.00  0.00     0.202 C 
BRANCH  23  24
ATOM     24  O   UNL     1       2.879  -0.834   0.996  1.00  0.00    -0.374 OA
BRANCH  24  25
ATOM     25  C   UNL     1       1.747  -1.683   1.174  1.00  0.00     0.202 C 
BRANCH  25  26
ATOM     26  C   UNL     1       2.196  -3.134   1.359  1.00  0.00     0.261 C 
BRANCH  26  27
ATOM     27  O   UNL     1       2.942  -3.227   2.581  1.00  0.00    -0.460 OA
BRANCH  27  28
ATOM     28  C   UNL     1       4.290  -3.215   2.454  1.00  0.00     0.338 C 
ATOM     29  O   UNL     1       4.941  -3.426   1.446  1.00  0.00    -0.246 OA
BRANCH  28  30
ATOM     30  C   UNL     1       4.872  -2.720   3.726  1.00  0.00     0.060 A 
ATOM     31  C   UNL     1       6.146  -2.136   3.697  1.00  0.00     0.016 A 
ATOM     32  C   UNL     1       4.145  -2.759   4.922  1.00  0.00     0.016 A 
ATOM     33  C   UNL     1       6.702  -1.615   4.865  1.00  0.00     0.010 A 
ATOM     34  C   UNL     1       4.693  -2.226   6.084  1.00  0.00     0.010 A 
ATOM     35  C   UNL     1       5.985  -1.678   6.066  1.00  0.00    -0.014 A 
BRANCH  35  36
ATOM     36  C   UNL     1       6.620  -1.328   7.354  1.00  0.00     0.031 A 
ATOM     37  C   UNL     1       7.125  -2.445   8.220  1.00  0.00     0.074 A 
ATOM     38  C   UNL     1       6.690  -0.051   7.764  1.00  0.00     0.049 A 
ATOM     39  N   UNL     1       7.620  -2.403   9.428  1.00  0.00    -0.248 NA
ATOM     40  C   UNL     1       7.040  -3.800   7.648  1.00  0.00     0.031 C 
ATOM     41  C   UNL     1       6.230   1.109   7.003  1.00  0.00     0.029 A 
ATOM     42  N   UNL     1       7.158   0.479   8.939  1.00  0.00    -0.354 N 
ATOM     43  C   UNL     1       7.899  -3.721   9.763  1.00  0.00     0.074 A 
ATOM     44  C   UNL     1       7.481  -4.544   8.650  1.00  0.00     0.031 C 
ATOM     45  C   UNL     1       6.428   2.218   7.739  1.00  0.00     0.029 A 
ATOM     46  C   UNL     1       7.003   1.839   9.028  1.00  0.00     0.049 A 
ATOM     47  H   UNL     1       7.566  -0.065   9.651  1.00  0.00     0.167 HD
ATOM     48  C   UNL     1       8.466  -4.199  10.895  1.00  0.00     0.037 A 
ATOM     49  C   UNL     1       7.282   2.675  10.047  1.00  0.00     0.037 A 
ATOM     50  C   UNL     1       8.878  -3.374  11.997  1.00  0.00     0.049 A 
ATOM     51  C   UNL     1       7.878   2.113  11.312  1.00  0.00     0.074 A 
ATOM     52  C   UNL     1       9.484  -3.751  13.181  1.00  0.00     0.029 A 
ATOM     53  N   UNL     1       8.718  -1.996  12.047  1.00  0.00    -0.354 N 
ATOM     54  N   UNL     1       8.179   0.871  11.607  1.00  0.00    -0.248 NA
ATOM     55  C   UNL     1       8.179   3.072  12.384  1.00  0.00     0.031 C 
ATOM     56  C   UNL     1       9.655  -2.605  13.966  1.00  0.00     0.029 A 
ATOM     57  C   UNL     1       9.199  -1.509  13.250  1.00  0.00     0.049 A 
ATOM     58  H   UNL     1       8.322  -1.447  11.332  1.00  0.00     0.167 HD
ATOM     59  C   UNL     1       8.732   0.903  12.880  1.00  0.00     0.074 A 
ATOM     60  C   UNL     1       8.734   2.289  13.299  1.00  0.00     0.031 C 
ATOM     61  C   UNL     1       9.199  -0.121  13.637  1.00  0.00     0.037 A 
BRANCH  48  62
ATOM     62  C   UNL     1       8.654  -5.684  10.994  1.00  0.00     0.064 A 
ATOM     63  C   UNL     1       9.610  -6.356  10.217  1.00  0.00     0.173 A 
ATOM     64  C   UNL     1       7.876  -6.442  11.880  1.00  0.00     0.173 A 
ATOM     65  F   UNL     1      10.365  -5.678   9.340  1.00  0.00    -0.203 F 
ATOM     66  C   UNL     1       9.760  -7.738  10.305  1.00  0.00     0.198 A 
ATOM     67  C   UNL     1       8.048  -7.820  11.986  1.00  0.00     0.198 A 
ATOM     68  F   UNL     1       6.947  -5.848  12.644  1.00  0.00    -0.203 F 
ATOM     69  F   UNL     1      10.643  -8.365   9.515  1.00  0.00    -0.200 F 
ATOM     70  C   UNL     1       8.984  -8.467  11.192  1.00  0.00     0.200 A 
ATOM     71  F   UNL     1       7.303  -8.523  12.849  1.00  0.00    -0.200 F 
ATOM     72  F   UNL     1       9.130  -9.796  11.277  1.00  0.00    -0.200 F 
ENDBRANCH  48  62
BRANCH  49  73
ATOM     73  C   UNL     1       7.013   4.130   9.913  1.00  0.00     0.064 A 
ATOM     74  C   UNL     1       8.066   5.051   9.824  1.00  0.00     0.173 A 
ATOM     75  C   UNL     1       5.704   4.631   9.886  1.00  0.00     0.173 A 
ATOM     76  F   UNL     1       9.336   4.621   9.870  1.00  0.00    -0.203 F 
ATOM     77  C   UNL     1       7.820   6.419   9.733  1.00  0.00     0.198 A 
ATOM     78  C   UNL     1       5.459   5.998   9.770  1.00  0.00     0.198 A 
ATOM     79  F   UNL     1       4.661   3.792   9.968  1.00  0.00    -0.203 F 
ATOM     80  F   UNL     1       8.846   7.281   9.696  1.00  0.00    -0.200 F 
ATOM     81  C   UNL     1       6.517   6.892   9.701  1.00  0.00     0.200 A 
ATOM     82  F   UNL     1       4.198   6.450   9.730  1.00  0.00    -0.200 F 
ATOM     83  F   UNL     1       6.281   8.208   9.614  1.00  0.00    -0.200 F 
ENDBRANCH  49  73
BRANCH  61  84
ATOM     84  C   UNL     1       9.788   0.224  14.973  1.00  0.00     0.064 A 
ATOM     85  C   UNL     1       8.983   0.610  16.054  1.00  0.00     0.173 A 
ATOM     86  C   UNL     1      11.171   0.121  15.184  1.00  0.00     0.173 A 
ATOM     87  F   UNL     1       7.657   0.736  15.897  1.00  0.00    -0.203 F 
ATOM     88  C   UNL     1       9.545   0.904  17.293  1.00  0.00     0.198 A 
ATOM     89  C   UNL     1      11.726   0.388  16.432  1.00  0.00     0.198 A 
ATOM     90  F   UNL     1      11.982  -0.253  14.183  1.00  0.00    -0.203 F 
ATOM     91  F   UNL     1       8.763   1.314  18.301  1.00  0.00    -0.200 F 
ATOM     92  C   UNL     1      10.914   0.786  17.483  1.00  0.00     0.200 A 
ATOM     93  F   UNL     1      13.048   0.261  16.617  1.00  0.00    -0.200 F 
ATOM     94  F   UNL     1      11.452   1.062  18.679  1.00  0.00    -0.200 F 
ENDBRANCH  61  84
ENDBRANCH  35  36
ENDBRANCH  28  30
ENDBRANCH  27  28
ENDBRANCH  26  27
ENDBRANCH  25  26
ENDBRANCH  24  25
ENDBRANCH  23  24
ENDBRANCH   1  23
TORSDOF 19
