REMARK SMILES CC(C)Cc1ccc([C@H](CF)C(=O)OCCOCCOC(=O)c2ccc(-c3c4nc(c(-c5c(F)c(F)c(F)c(F)c5F)c5ccc([nH]5)c(-c5c(F)c(F)c(F)c(F)c5F)c5nc(c(-c6c(F)c(F)c(F)c(F)c6F)c6ccc3[nH]6)C=C5)C=C4)cc2)cc1
REMARK SMILES IDX 16 1 15 2 14 3 12 4 13 5 9 6 8 7 5 8 6 9 87 10 7 11 86 12
REMARK SMILES IDX 4 13 2 14 1 15 3 16 10 17 11 18 17 19 18 20 19 21 20 22
REMARK SMILES IDX 21 23 22 24 23 25 24 26 85 27 25 28 84 29 26 30 27 31 28 32
REMARK SMILES IDX 78 33 29 34 83 35 77 36 79 37 30 38 82 39 76 40 75 41 31 43
REMARK SMILES IDX 63 44 43 45 62 46 44 47 47 48 61 49 80 50 45 51 46 52 60 54
REMARK SMILES IDX 81 55 48 56 32 57 33 58 41 59 34 60 35 61 39 62 42 63 36 64
REMARK SMILES IDX 37 65 40 66 38 67 64 68 65 69 73 70 66 71 67 72 71 73 74 74
REMARK SMILES IDX 68 75 69 76 72 77 70 78 49 79 50 80 58 81 51 82 52 83 56 84
REMARK SMILES IDX 59 85 53 86 54 87 57 88 55 89
REMARK H PARENT 79 42 47 53
REMARK Flexibility Score: inf
ROOT
ATOM      1  C   UNL     1      -6.587  -2.500   4.606  1.00  0.00     0.202 C 
ENDROOT
BRANCH   1   2
ATOM      2  C   UNL     1      -5.452  -2.931   5.536  1.00  0.00     0.261 C 
BRANCH   2   3
ATOM      3  O   UNL     1      -4.166  -2.540   5.018  1.00  0.00    -0.463 OA
BRANCH   3   4
ATOM      4  C   UNL     1      -3.278  -3.552   4.799  1.00  0.00     0.316 C 
ATOM      5  O   UNL     1      -3.504  -4.735   5.024  1.00  0.00    -0.251 OA
BRANCH   4   6
ATOM      6  C   UNL     1      -1.941  -3.048   4.285  1.00  0.00     0.160 C 
BRANCH   6   7
ATOM      7  C   UNL     1      -0.922  -2.884   5.396  1.00  0.00    -0.031 A 
ATOM      8  C   UNL     1       0.961  -2.913   7.479  1.00  0.00    -0.048 A 
ATOM      9  C   UNL     1      -0.353  -2.503   7.723  1.00  0.00     0.004 A 
ATOM     10  C   UNL     1       1.354  -3.202   6.168  1.00  0.00     0.004 A 
ATOM     11  C   UNL     1      -1.285  -2.474   6.687  1.00  0.00     0.005 A 
ATOM     12  C   UNL     1       0.419  -3.195   5.137  1.00  0.00     0.005 A 
BRANCH   8  13
ATOM     13  C   UNL     1       1.904  -3.167   8.628  1.00  0.00     0.038 C 
BRANCH  13  14
ATOM     14  C   UNL     1       1.732  -4.591   9.204  1.00  0.00    -0.013 C 
ATOM     15  C   UNL     1       2.136  -5.683   8.207  1.00  0.00     0.008 C 
ATOM     16  C   UNL     1       2.551  -4.740  10.485  1.00  0.00     0.008 C 
ENDBRANCH  13  14
ENDBRANCH   8  13
ENDBRANCH   6   7
BRANCH   6  17
ATOM     17  C   UNL     1      -2.057  -1.806   3.416  1.00  0.00     0.234 C 
ATOM     18  F   UNL     1      -0.912  -1.655   2.691  1.00  0.00    -0.250 F 
ENDBRANCH   6  17
ENDBRANCH   4   6
ENDBRANCH   3   4
ENDBRANCH   2   3
ENDBRANCH   1   2
BRANCH   1  19
ATOM     19  O   UNL     1      -6.696  -3.202   3.370  1.00  0.00    -0.374 OA
BRANCH  19  20
ATOM     20  C   UNL     1      -5.690  -2.986   2.385  1.00  0.00     0.202 C 
BRANCH  20  21
ATOM     21  C   UNL     1      -5.744  -1.653   1.627  1.00  0.00     0.261 C 
BRANCH  21  22
ATOM     22  O   UNL     1      -5.592  -0.507   2.487  1.00  0.00    -0.460 OA
BRANCH  22  23
ATOM     23  C   UNL     1      -6.686   0.290   2.545  1.00  0.00     0.338 C 
ATOM     24  O   UNL     1      -7.729   0.162   1.918  1.00  0.00    -0.246 OA
BRANCH  23  25
ATOM     25  C   UNL     1      -6.553   1.313   3.598  1.00  0.00     0.060 A 
ATOM     26  C   UNL     1      -7.572   1.376   4.557  1.00  0.00     0.016 A 
ATOM     27  C   UNL     1      -5.550   2.285   3.566  1.00  0.00     0.016 A 
ATOM     28  C   UNL     1      -7.630   2.448   5.444  1.00  0.00     0.010 A 
ATOM     29  C   UNL     1      -5.614   3.366   4.457  1.00  0.00     0.010 A 
ATOM     30  C   UNL     1      -6.679   3.476   5.369  1.00  0.00    -0.014 A 
BRANCH  30  31
ATOM     31  C   UNL     1      -6.914   4.721   6.143  1.00  0.00     0.031 A 
ATOM     32  C   UNL     1      -7.560   5.900   5.463  1.00  0.00     0.074 A 
ATOM     33  C   UNL     1      -6.638   4.774   7.458  1.00  0.00     0.049 A 
ATOM     34  N   UNL     1      -7.920   7.055   5.964  1.00  0.00    -0.248 NA
ATOM     35  C   UNL     1      -7.846   5.754   4.027  1.00  0.00     0.031 C 
ATOM     36  C   UNL     1      -6.045   3.691   8.240  1.00  0.00     0.029 A 
ATOM     37  N   UNL     1      -6.835   5.781   8.371  1.00  0.00    -0.354 N 
ATOM     38  C   UNL     1      -8.483   7.766   4.912  1.00  0.00     0.074 A 
ATOM     39  C   UNL     1      -8.384   6.930   3.735  1.00  0.00     0.031 C 
ATOM     40  C   UNL     1      -5.927   4.091   9.518  1.00  0.00     0.029 A 
ATOM     41  C   UNL     1      -6.422   5.461   9.640  1.00  0.00     0.049 A 
ATOM     42  H   UNL     1      -7.234   6.650   8.137  1.00  0.00     0.167 HD
ATOM     43  C   UNL     1      -9.047   8.998   4.928  1.00  0.00     0.037 A 
ATOM     44  C   UNL     1      -6.439   6.194  10.771  1.00  0.00     0.037 A 
ATOM     45  C   UNL     1      -9.145   9.837   6.093  1.00  0.00     0.049 A 
ATOM     46  C   UNL     1      -7.026   7.582  10.746  1.00  0.00     0.074 A 
ATOM     47  C   UNL     1      -9.685  11.107   6.202  1.00  0.00     0.029 A 
ATOM     48  N   UNL     1      -8.692   9.486   7.355  1.00  0.00    -0.354 N 
ATOM     49  N   UNL     1      -7.573   8.235   9.750  1.00  0.00    -0.248 NA
ATOM     50  C   UNL     1      -7.009   8.329  12.013  1.00  0.00     0.031 C 
ATOM     51  C   UNL     1      -9.530  11.538   7.524  1.00  0.00     0.029 A 
ATOM     52  C   UNL     1      -8.932  10.520   8.247  1.00  0.00     0.049 A 
ATOM     53  H   UNL     1      -8.263   8.630   7.584  1.00  0.00     0.167 HD
ATOM     54  C   UNL     1      -7.992   9.451  10.274  1.00  0.00     0.074 A 
ATOM     55  C   UNL     1      -7.651   9.440  11.681  1.00  0.00     0.031 C 
ATOM     56  C   UNL     1      -8.602  10.487   9.647  1.00  0.00     0.037 A 
BRANCH  43  57
ATOM     57  C   UNL     1      -9.604   9.521   3.637  1.00  0.00     0.064 A 
ATOM     58  C   UNL     1     -10.808   9.030   3.109  1.00  0.00     0.173 A 
ATOM     59  C   UNL     1      -8.958  10.559   2.949  1.00  0.00     0.173 A 
ATOM     60  F   UNL     1     -11.456   8.029   3.724  1.00  0.00    -0.203 F 
ATOM     61  C   UNL     1     -11.338   9.552   1.932  1.00  0.00     0.198 A 
ATOM     62  C   UNL     1      -9.503  11.093   1.784  1.00  0.00     0.198 A 
ATOM     63  F   UNL     1      -7.806  11.064   3.415  1.00  0.00    -0.203 F 
ATOM     64  F   UNL     1     -12.473   9.048   1.429  1.00  0.00    -0.200 F 
ATOM     65  C   UNL     1     -10.690  10.587   1.275  1.00  0.00     0.200 A 
ATOM     66  F   UNL     1      -8.881  12.101   1.156  1.00  0.00    -0.200 F 
ATOM     67  F   UNL     1     -11.207  11.096   0.148  1.00  0.00    -0.200 F 
ENDBRANCH  43  57
BRANCH  44  68
ATOM     68  C   UNL     1      -5.888   5.636  12.032  1.00  0.00     0.064 A 
ATOM     69  C   UNL     1      -6.721   5.332  13.117  1.00  0.00     0.173 A 
ATOM     70  C   UNL     1      -4.509   5.438  12.193  1.00  0.00     0.173 A 
ATOM     71  F   UNL     1      -8.044   5.530  13.021  1.00  0.00    -0.203 F 
ATOM     72  C   UNL     1      -6.194   4.878  14.325  1.00  0.00     0.198 A 
ATOM     73  C   UNL     1      -3.985   4.957  13.391  1.00  0.00     0.198 A 
ATOM     74  F   UNL     1      -3.668   5.715  11.185  1.00  0.00    -0.203 F 
ATOM     75  F   UNL     1      -7.008   4.650  15.364  1.00  0.00    -0.200 F 
ATOM     76  C   UNL     1      -4.827   4.688  14.459  1.00  0.00     0.200 A 
ATOM     77  F   UNL     1      -2.665   4.766  13.514  1.00  0.00    -0.200 F 
ATOM     78  F   UNL     1      -4.320   4.257  15.622  1.00  0.00    -0.200 F 
ENDBRANCH  44  68
BRANCH  56  79
ATOM     79  C   UNL     1      -8.978  11.672  10.488  1.00  0.00     0.064 A 
ATOM     80  C   UNL     1      -8.012  12.560  10.983  1.00  0.00     0.173 A 
ATOM     81  C   UNL     1     -10.324  11.930  10.788  1.00  0.00     0.173 A 
ATOM     82  F   UNL     1      -6.711  12.348  10.735  1.00  0.00    -0.203 F 
ATOM     83  C   UNL     1      -8.377  13.644  11.778  1.00  0.00     0.198 A 
ATOM     84  C   UNL     1     -10.688  13.030  11.559  1.00  0.00     0.198 A 
ATOM     85  F   UNL     1     -11.287  11.115  10.332  1.00  0.00    -0.203 F 
ATOM     86  F   UNL     1      -7.433  14.448  12.286  1.00  0.00    -0.200 F 
ATOM     87  C   UNL     1      -9.714  13.880  12.062  1.00  0.00     0.200 A 
ATOM     88  F   UNL     1     -11.981  13.263  11.824  1.00  0.00    -0.200 F 
ATOM     89  F   UNL     1     -10.063  14.922  12.829  1.00  0.00    -0.200 F 
ENDBRANCH  56  79
ENDBRANCH  30  31
ENDBRANCH  23  25
ENDBRANCH  22  23
ENDBRANCH  21  22
ENDBRANCH  20  21
ENDBRANCH  19  20
ENDBRANCH   1  19
TORSDOF 18
