REMARK SMILES C[C@@](CC(=O)Nc1ccc(NC(=O)c2ccco2)cc1)(C(=O)OCCOCCOC(=O)c1ccc(-c2c3nc(c(-c4c(F)c(F)c(F)c(F)c4F)c4ccc([nH]4)c(-c4c(F)c(F)c(F)c(F)c4F)c4nc(c(-c5c(F)c(F)c(F)c(F)c5F)c5ccc2[nH]5)C=C4)C=C3)cc1)c1ccccc1
REMARK SMILES IDX 24 1 23 2 21 3 22 4 2 5 1 6 3 7 4 8 5 9 6 10 7 12 8 13 20 14
REMARK SMILES IDX 9 15 19 16 10 17 11 18 12 19 13 21 14 22 15 23 18 24 16 25
REMARK SMILES IDX 17 26 95 27 96 28 100 29 97 30 99 31 98 32 25 33 26 34 27 35
REMARK SMILES IDX 28 36 29 37 30 38 31 39 32 40 33 41 94 42 34 43 93 44 35 45
REMARK SMILES IDX 36 46 37 47 87 48 38 49 92 50 86 51 88 52 39 53 91 54 85 55
REMARK SMILES IDX 84 56 40 58 72 59 52 60 71 61 53 62 56 63 70 64 89 65 54 66
REMARK SMILES IDX 55 67 69 69 90 70 57 71 41 72 42 73 50 74 43 75 44 76 48 77
REMARK SMILES IDX 51 78 45 79 46 80 49 81 47 82 73 83 74 84 82 85 75 86 76 87
REMARK SMILES IDX 80 88 83 89 77 90 78 91 81 92 79 93 58 94 59 95 67 96 60 97
REMARK SMILES IDX 61 98 65 99 68 100 62 101 63 102 66 103 64 104
REMARK H PARENT 6 11 11 20 88 57 56 68
REMARK Flexibility Score: inf
ROOT
ATOM      1  C   UNL     1      -3.007  -1.163  -1.634  1.00  0.00     0.261 C 
ENDROOT
BRANCH   1   2
ATOM      2  O   UNL     1      -1.615  -0.924  -1.369  1.00  0.00    -0.463 OA
BRANCH   2   3
ATOM      3  C   UNL     1      -0.814  -0.810  -2.464  1.00  0.00     0.316 C 
ATOM      4  O   UNL     1      -1.177  -1.044  -3.610  1.00  0.00    -0.251 OA
BRANCH   3   5
ATOM      5  C   UNL     1       0.610  -0.353  -2.077  1.00  0.00     0.099 C 
ATOM      6  C   UNL     1       0.668   0.623  -0.879  1.00  0.00     0.029 C 
BRANCH   5   7
ATOM      7  C   UNL     1       1.404  -1.633  -1.671  1.00  0.00     0.123 C 
BRANCH   7   8
ATOM      8  C   UNL     1       0.707  -2.704  -0.799  1.00  0.00     0.225 C 
ATOM      9  O   UNL     1      -0.094  -3.492  -1.308  1.00  0.00    -0.275 OA
ATOM     10  N   UNL     1       1.120  -2.951   0.491  1.00  0.00    -0.326 N 
ATOM     11  H   UNL     1       1.031  -3.884   0.792  1.00  0.00     0.169 HD
BRANCH  10  12
ATOM     12  C   UNL     1       1.648  -2.065   1.434  1.00  0.00     0.041 A 
ATOM     13  C   UNL     1       2.752  -2.412   2.192  1.00  0.00     0.028 A 
ATOM     14  C   UNL     1       1.024  -0.862   1.712  1.00  0.00     0.028 A 
ATOM     15  C   UNL     1       3.388  -1.434   2.973  1.00  0.00     0.028 A 
ATOM     16  C   UNL     1       1.688   0.138   2.426  1.00  0.00     0.028 A 
ATOM     17  C   UNL     1       2.942  -0.113   2.977  1.00  0.00     0.041 A 
BRANCH  17  18
ATOM     18  N   UNL     1       3.668   1.013   3.410  1.00  0.00    -0.319 N 
ATOM     19  C   UNL     1       4.945   1.194   3.900  1.00  0.00     0.291 C 
ATOM     20  H   UNL     1       3.154   1.851   3.350  1.00  0.00     0.170 HD
ATOM     21  O   UNL     1       5.360   2.352   3.975  1.00  0.00    -0.265 OA
BRANCH  19  22
ATOM     22  C   UNL     1       5.722   0.065   4.328  1.00  0.00     0.191 A 
ATOM     23  C   UNL     1       6.572  -0.797   3.658  1.00  0.00     0.056 A 
ATOM     24  O   UNL     1       5.638  -0.301   5.642  1.00  0.00    -0.459 OA
ATOM     25  C   UNL     1       6.968  -1.779   4.603  1.00  0.00     0.043 A 
ATOM     26  C   UNL     1       6.398  -1.412   5.799  1.00  0.00     0.196 A 
ENDBRANCH  19  22
ENDBRANCH  17  18
ENDBRANCH  10  12
ENDBRANCH   7   8
ENDBRANCH   5   7
BRANCH   5  27
ATOM     27  C   UNL     1       1.195   0.515  -3.227  1.00  0.00    -0.030 A 
ATOM     28  C   UNL     1       2.378   0.222  -3.909  1.00  0.00     0.005 A 
ATOM     29  C   UNL     1       0.544   1.737  -3.545  1.00  0.00     0.005 A 
ATOM     30  C   UNL     1       2.929   1.153  -4.801  1.00  0.00     0.000 A 
ATOM     31  C   UNL     1       1.117   2.681  -4.393  1.00  0.00     0.000 A 
ATOM     32  C   UNL     1       2.320   2.391  -5.015  1.00  0.00     0.000 A 
ENDBRANCH   5  27
ENDBRANCH   3   5
ENDBRANCH   2   3
ENDBRANCH   1   2
BRANCH   1  33
ATOM     33  C   UNL     1      -3.853  -0.301  -0.696  1.00  0.00     0.202 C 
BRANCH  33  34
ATOM     34  O   UNL     1      -3.865   1.108  -0.952  1.00  0.00    -0.374 OA
BRANCH  34  35
ATOM     35  C   UNL     1      -2.652   1.829  -0.758  1.00  0.00     0.202 C 
BRANCH  35  36
ATOM     36  C   UNL     1      -2.279   2.202   0.685  1.00  0.00     0.261 C 
BRANCH  36  37
ATOM     37  O   UNL     1      -2.403   1.108   1.607  1.00  0.00    -0.460 OA
BRANCH  37  38
ATOM     38  C   UNL     1      -3.536   1.160   2.344  1.00  0.00     0.338 C 
ATOM     39  O   UNL     1      -4.347   2.080   2.393  1.00  0.00    -0.246 OA
BRANCH  38  40
ATOM     40  C   UNL     1      -3.800  -0.124   3.010  1.00  0.00     0.060 A 
ATOM     41  C   UNL     1      -5.066  -0.685   2.803  1.00  0.00     0.016 A 
ATOM     42  C   UNL     1      -2.906  -0.695   3.918  1.00  0.00     0.016 A 
ATOM     43  C   UNL     1      -5.484  -1.760   3.577  1.00  0.00     0.010 A 
ATOM     44  C   UNL     1      -3.330  -1.778   4.700  1.00  0.00     0.010 A 
ATOM     45  C   UNL     1      -4.644  -2.267   4.576  1.00  0.00    -0.014 A 
BRANCH  45  46
ATOM     46  C   UNL     1      -5.251  -3.135   5.616  1.00  0.00     0.031 A 
ATOM     47  C   UNL     1      -5.673  -2.508   6.920  1.00  0.00     0.074 A 
ATOM     48  C   UNL     1      -5.536  -4.423   5.361  1.00  0.00     0.049 A 
ATOM     49  N   UNL     1      -6.314  -3.038   7.931  1.00  0.00    -0.248 NA
ATOM     50  C   UNL     1      -5.329  -1.089   7.107  1.00  0.00     0.031 C 
ATOM     51  C   UNL     1      -5.223  -5.126   4.120  1.00  0.00     0.029 A 
ATOM     52  N   UNL     1      -6.177  -5.362   6.130  1.00  0.00    -0.354 N 
ATOM     53  C   UNL     1      -6.447  -2.021   8.869  1.00  0.00     0.074 A 
ATOM     54  C   UNL     1      -5.788  -0.854   8.327  1.00  0.00     0.031 C 
ATOM     55  C   UNL     1      -5.684  -6.386   4.205  1.00  0.00     0.029 A 
ATOM     56  C   UNL     1      -6.307  -6.581   5.513  1.00  0.00     0.049 A 
ATOM     57  H   UNL     1      -6.511  -5.178   7.038  1.00  0.00     0.167 HD
ATOM     58  C   UNL     1      -7.076  -2.052  10.068  1.00  0.00     0.037 A 
ATOM     59  C   UNL     1      -6.869  -7.722   5.958  1.00  0.00     0.037 A 
ATOM     60  C   UNL     1      -7.745  -3.209  10.600  1.00  0.00     0.049 A 
ATOM     61  C   UNL     1      -7.521  -7.743   7.317  1.00  0.00     0.074 A 
ATOM     62  C   UNL     1      -8.424  -3.340  11.799  1.00  0.00     0.029 A 
ATOM     63  N   UNL     1      -7.817  -4.439   9.963  1.00  0.00    -0.354 N 
ATOM     64  N   UNL     1      -7.664  -6.770   8.184  1.00  0.00    -0.248 NA
ATOM     65  C   UNL     1      -8.102  -9.021   7.750  1.00  0.00     0.031 C 
ATOM     66  C   UNL     1      -8.864  -4.663  11.910  1.00  0.00     0.029 A 
ATOM     67  C   UNL     1      -8.510  -5.341  10.754  1.00  0.00     0.049 A 
ATOM     68  H   UNL     1      -7.432  -4.641   9.080  1.00  0.00     0.167 HD
ATOM     69  C   UNL     1      -8.382  -7.306   9.246  1.00  0.00     0.074 A 
ATOM     70  C   UNL     1      -8.654  -8.688   8.908  1.00  0.00     0.031 C 
ATOM     71  C   UNL     1      -8.784  -6.709  10.395  1.00  0.00     0.037 A 
BRANCH  58  72
ATOM     72  C   UNL     1      -7.043  -0.802  10.899  1.00  0.00     0.064 A 
ATOM     73  C   UNL     1      -7.777   0.342  10.548  1.00  0.00     0.173 A 
ATOM     74  C   UNL     1      -6.283  -0.756  12.077  1.00  0.00     0.173 A 
ATOM     75  F   UNL     1      -8.508   0.356   9.422  1.00  0.00    -0.203 F 
ATOM     76  C   UNL     1      -7.729   1.493  11.331  1.00  0.00     0.198 A 
ATOM     77  C   UNL     1      -6.261   0.386  12.873  1.00  0.00     0.198 A 
ATOM     78  F   UNL     1      -5.564  -1.822  12.460  1.00  0.00    -0.203 F 
ATOM     79  F   UNL     1      -8.398   2.590  10.950  1.00  0.00    -0.200 F 
ATOM     80  C   UNL     1      -6.977   1.512  12.496  1.00  0.00     0.200 A 
ATOM     81  F   UNL     1      -5.542   0.398  14.005  1.00  0.00    -0.200 F 
ATOM     82  F   UNL     1      -6.935   2.618  13.251  1.00  0.00    -0.200 F 
ENDBRANCH  58  72
BRANCH  59  83
ATOM     83  C   UNL     1      -6.855  -8.939   5.104  1.00  0.00     0.064 A 
ATOM     84  C   UNL     1      -8.038  -9.462   4.565  1.00  0.00     0.173 A 
ATOM     85  C   UNL     1      -5.658  -9.617   4.830  1.00  0.00     0.173 A 
ATOM     86  F   UNL     1      -9.211  -8.864   4.819  1.00  0.00    -0.203 F 
ATOM     87  C   UNL     1      -8.027 -10.629   3.803  1.00  0.00     0.198 A 
ATOM     88  C   UNL     1      -5.645 -10.767   4.044  1.00  0.00     0.198 A 
ATOM     89  F   UNL     1      -4.498  -9.159   5.324  1.00  0.00    -0.203 F 
ATOM     90  F   UNL     1      -9.179 -11.136   3.342  1.00  0.00    -0.200 F 
ATOM     91  C   UNL     1      -6.830 -11.277   3.539  1.00  0.00     0.200 A 
ATOM     92  F   UNL     1      -4.484 -11.384   3.783  1.00  0.00    -0.200 F 
ATOM     93  F   UNL     1      -6.821 -12.399   2.806  1.00  0.00    -0.200 F 
ENDBRANCH  59  83
BRANCH  71  94
ATOM     94  C   UNL     1      -9.606  -7.530  11.348  1.00  0.00     0.064 A 
ATOM     95  C   UNL     1      -9.051  -8.585  12.087  1.00  0.00     0.173 A 
ATOM     96  C   UNL     1     -10.965  -7.236  11.542  1.00  0.00     0.173 A 
ATOM     97  F   UNL     1      -7.760  -8.913  11.929  1.00  0.00    -0.203 F 
ATOM     98  C   UNL     1      -9.834  -9.338  12.958  1.00  0.00     0.198 A 
ATOM     99  C   UNL     1     -11.737  -7.970  12.438  1.00  0.00     0.198 A 
ATOM    100  F   UNL     1     -11.543  -6.231  10.868  1.00  0.00    -0.203 F 
ATOM    101  F   UNL     1      -9.295 -10.377  13.610  1.00  0.00    -0.200 F 
ATOM    102  C   UNL     1     -11.173  -9.027  13.137  1.00  0.00     0.200 A 
ATOM    103  F   UNL     1     -13.027  -7.658  12.622  1.00  0.00    -0.200 F 
ATOM    104  F   UNL     1     -11.924  -9.752  13.978  1.00  0.00    -0.200 F 
ENDBRANCH  71  94
ENDBRANCH  45  46
ENDBRANCH  38  40
ENDBRANCH  37  38
ENDBRANCH  36  37
ENDBRANCH  35  36
ENDBRANCH  34  35
ENDBRANCH  33  34
ENDBRANCH   1  33
TORSDOF 20
