REMARK SMILES CC(=O)NNC(=O)C[NH2+][C@@](C)(C(=O)OCCOCCOC(=O)c1ccc(-c2c3nc(c(-c4c(F)c(F)c(F)c(F)c4F)c4ccc([nH]4)c(-c4c(F)c(F)c(F)c(F)c4F)c4nc(c(-c5c(F)c(F)c(F)c(F)c5F)c5ccc2[nH]5)C=C4)C=C3)cc1)C(F)(F)F
REMARK SMILES IDX 16 1 15 2 14 3 12 4 13 5 10 6 11 7 9 8 8 11 6 12 5 13 7 15
REMARK SMILES IDX 4 16 1 17 2 18 3 19 86 21 87 22 88 23 89 24 17 25 18 26
REMARK SMILES IDX 19 27 20 28 21 29 22 30 23 31 24 32 85 33 25 34 84 35 26 36
REMARK SMILES IDX 27 37 28 38 78 39 29 40 83 41 77 42 79 43 30 44 82 45 76 46
REMARK SMILES IDX 75 47 31 49 63 50 43 51 62 52 44 53 47 54 61 55 80 56 45 57
REMARK SMILES IDX 46 58 60 60 81 61 48 62 32 63 33 64 41 65 34 66 35 67 39 68
REMARK SMILES IDX 42 69 36 70 37 71 40 72 38 73 64 74 65 75 73 76 66 77 67 78
REMARK SMILES IDX 71 79 74 80 68 81 69 82 72 83 70 84 49 85 50 86 58 87 51 88
REMARK SMILES IDX 52 89 56 90 59 91 53 92 54 93 57 94 55 95
REMARK H PARENT 9 9 9 10 5 14 4 20 79 48 47 59
REMARK Flexibility Score: inf
ROOT
ATOM      1  C   UNL     1       3.132   6.395  -4.379  1.00  0.00     0.202 C 
ENDROOT
BRANCH   1   2
ATOM      2  C   UNL     1       3.308   7.487  -3.321  1.00  0.00     0.261 C 
BRANCH   2   3
ATOM      3  O   UNL     1       2.939   7.047  -2.002  1.00  0.00    -0.458 OA
BRANCH   3   4
ATOM      4  C   UNL     1       1.822   7.644  -1.483  1.00  0.00     0.377 C 
ATOM      5  O   UNL     1       1.255   8.587  -2.022  1.00  0.00    -0.244 OA
BRANCH   4   6
ATOM      6  C   UNL     1       1.424   7.080  -0.106  1.00  0.00     0.287 C 
ATOM      7  C   UNL     1       1.950   8.091   0.926  1.00  0.00     0.103 C 
BRANCH   6   8
ATOM      8  N   UNL     1       2.055   5.710   0.127  1.00  0.00    -0.317 N 
ATOM      9  H   UNL     1       1.793   5.099  -0.646  1.00  0.00     0.347 HD
ATOM     10  H   UNL     1       3.063   5.851   0.185  1.00  0.00     0.347 HD
BRANCH   8  11
ATOM     11  C   UNL     1       1.633   5.073   1.391  1.00  0.00     0.364 C 
BRANCH  11  12
ATOM     12  C   UNL     1       2.422   3.781   1.627  1.00  0.00     0.293 C 
ATOM     13  N   UNL     1       1.979   2.614   1.054  1.00  0.00    -0.263 N 
ATOM     14  H   UNL     1       2.402   1.770   1.335  1.00  0.00     0.191 HD
ATOM     15  O   UNL     1       3.448   3.774   2.310  1.00  0.00    -0.267 OA
BRANCH  13  16
ATOM     16  N   UNL     1       0.968   2.553   0.100  1.00  0.00    -0.268 N 
ATOM     17  C   UNL     1       1.051   0.086   0.055  1.00  0.00     0.116 C 
ATOM     18  C   UNL     1       0.513   1.390  -0.469  1.00  0.00     0.235 C 
ATOM     19  O   UNL     1      -0.301   1.434  -1.390  1.00  0.00    -0.274 OA
ATOM     20  H   UNL     1       0.551   3.399  -0.184  1.00  0.00     0.191 HD
ENDBRANCH  13  16
ENDBRANCH  11  12
ENDBRANCH   8  11
ENDBRANCH   6   8
BRANCH   6  21
ATOM     21  C   UNL     1      -0.126   7.090  -0.135  1.00  0.00     0.455 C 
ATOM     22  F   UNL     1      -0.606   6.213  -1.050  1.00  0.00    -0.164 F 
ATOM     23  F   UNL     1      -0.623   6.700   1.070  1.00  0.00    -0.164 F 
ATOM     24  F   UNL     1      -0.667   8.299  -0.380  1.00  0.00    -0.164 F 
ENDBRANCH   6  21
ENDBRANCH   4   6
ENDBRANCH   3   4
ENDBRANCH   2   3
ENDBRANCH   1   2
BRANCH   1  25
ATOM     25  O   UNL     1       1.841   5.804  -4.484  1.00  0.00    -0.374 OA
BRANCH  25  26
ATOM     26  C   UNL     1       1.464   4.843  -3.496  1.00  0.00     0.202 C 
BRANCH  26  27
ATOM     27  C   UNL     1       2.168   3.482  -3.544  1.00  0.00     0.261 C 
BRANCH  27  28
ATOM     28  O   UNL     1       3.574   3.580  -3.244  1.00  0.00    -0.460 OA
BRANCH  28  29
ATOM     29  C   UNL     1       4.392   3.172  -4.242  1.00  0.00     0.338 C 
ATOM     30  O   UNL     1       4.072   2.656  -5.304  1.00  0.00    -0.246 OA
BRANCH  29  31
ATOM     31  C   UNL     1       5.779   3.591  -3.974  1.00  0.00     0.060 A 
ATOM     32  C   UNL     1       6.428   4.341  -4.965  1.00  0.00     0.016 A 
ATOM     33  C   UNL     1       6.467   3.177  -2.832  1.00  0.00     0.016 A 
ATOM     34  C   UNL     1       7.785   4.630  -4.845  1.00  0.00     0.010 A 
ATOM     35  C   UNL     1       7.833   3.459  -2.718  1.00  0.00     0.010 A 
ATOM     36  C   UNL     1       8.505   4.152  -3.742  1.00  0.00    -0.014 A 
BRANCH  36  37
ATOM     37  C   UNL     1       9.985   4.245  -3.747  1.00  0.00     0.031 A 
ATOM     38  C   UNL     1      10.788   3.053  -4.190  1.00  0.00     0.074 A 
ATOM     39  C   UNL     1      10.604   5.387  -3.402  1.00  0.00     0.049 A 
ATOM     40  N   UNL     1      12.087   2.904  -4.261  1.00  0.00    -0.248 NA
ATOM     41  C   UNL     1      10.023   1.869  -4.612  1.00  0.00     0.031 C 
ATOM     42  C   UNL     1       9.934   6.619  -2.995  1.00  0.00     0.029 A 
ATOM     43  N   UNL     1      11.941   5.690  -3.338  1.00  0.00    -0.354 N 
ATOM     44  C   UNL     1      12.293   1.615  -4.733  1.00  0.00     0.074 A 
ATOM     45  C   UNL     1      10.990   1.011  -4.903  1.00  0.00     0.031 C 
ATOM     46  C   UNL     1      10.865   7.545  -2.709  1.00  0.00     0.029 A 
ATOM     47  C   UNL     1      12.194   6.962  -2.889  1.00  0.00     0.049 A 
ATOM     48  H   UNL     1      12.651   5.056  -3.589  1.00  0.00     0.167 HD
ATOM     49  C   UNL     1      13.465   0.995  -5.011  1.00  0.00     0.037 A 
ATOM     50  C   UNL     1      13.366   7.576  -2.635  1.00  0.00     0.037 A 
ATOM     51  C   UNL     1      14.761   1.595  -4.840  1.00  0.00     0.049 A 
ATOM     52  C   UNL     1      14.656   6.842  -2.888  1.00  0.00     0.074 A 
ATOM     53  C   UNL     1      16.007   1.052  -5.104  1.00  0.00     0.029 A 
ATOM     54  N   UNL     1      14.978   2.876  -4.355  1.00  0.00    -0.354 N 
ATOM     55  N   UNL     1      14.843   5.631  -3.355  1.00  0.00    -0.248 NA
ATOM     56  C   UNL     1      15.901   7.563  -2.582  1.00  0.00     0.031 C 
ATOM     57  C   UNL     1      16.979   1.989  -4.737  1.00  0.00     0.029 A 
ATOM     58  C   UNL     1      16.338   3.133  -4.290  1.00  0.00     0.049 A 
ATOM     59  H   UNL     1      14.270   3.509  -4.096  1.00  0.00     0.167 HD
ATOM     60  C   UNL     1      16.219   5.454  -3.423  1.00  0.00     0.074 A 
ATOM     61  C   UNL     1      16.821   6.687  -2.961  1.00  0.00     0.031 C 
ATOM     62  C   UNL     1      16.920   4.369  -3.832  1.00  0.00     0.037 A 
BRANCH  49  63
ATOM     63  C   UNL     1      13.397  -0.418  -5.510  1.00  0.00     0.064 A 
ATOM     64  C   UNL     1      12.958  -0.719  -6.808  1.00  0.00     0.173 A 
ATOM     65  C   UNL     1      13.805  -1.482  -4.691  1.00  0.00     0.173 A 
ATOM     66  F   UNL     1      12.544   0.262  -7.625  1.00  0.00    -0.203 F 
ATOM     67  C   UNL     1      12.909  -2.035  -7.260  1.00  0.00     0.198 A 
ATOM     68  C   UNL     1      13.778  -2.794  -5.155  1.00  0.00     0.198 A 
ATOM     69  F   UNL     1      14.235  -1.247  -3.442  1.00  0.00    -0.203 F 
ATOM     70  F   UNL     1      12.447  -2.304  -8.489  1.00  0.00    -0.200 F 
ATOM     71  C   UNL     1      13.325  -3.070  -6.436  1.00  0.00     0.200 A 
ATOM     72  F   UNL     1      14.190  -3.792  -4.361  1.00  0.00    -0.200 F 
ATOM     73  F   UNL     1      13.282  -4.336  -6.874  1.00  0.00    -0.200 F 
ENDBRANCH  49  63
BRANCH  50  74
ATOM     74  C   UNL     1      13.373   8.961  -2.098  1.00  0.00     0.064 A 
ATOM     75  C   UNL     1      13.825  10.037  -2.873  1.00  0.00     0.173 A 
ATOM     76  C   UNL     1      12.942   9.233  -0.791  1.00  0.00     0.173 A 
ATOM     77  F   UNL     1      14.271   9.823  -4.119  1.00  0.00    -0.203 F 
ATOM     78  C   UNL     1      13.858  11.331  -2.357  1.00  0.00     0.198 A 
ATOM     79  C   UNL     1      12.951  10.530  -0.284  1.00  0.00     0.198 A 
ATOM     80  F   UNL     1      12.503   8.236  -0.008  1.00  0.00    -0.203 F 
ATOM     81  F   UNL     1      14.334  12.336  -3.104  1.00  0.00    -0.200 F 
ATOM     82  C   UNL     1      13.416  11.578  -1.065  1.00  0.00     0.200 A 
ATOM     83  F   UNL     1      12.512  10.765   0.960  1.00  0.00    -0.200 F 
ATOM     84  F   UNL     1      13.445  12.822  -0.571  1.00  0.00    -0.200 F 
ENDBRANCH  50  74
BRANCH  62  85
ATOM     85  C   UNL     1      18.417   4.474  -3.828  1.00  0.00     0.064 A 
ATOM     86  C   UNL     1      19.152   4.455  -2.634  1.00  0.00     0.173 A 
ATOM     87  C   UNL     1      19.127   4.549  -5.037  1.00  0.00     0.173 A 
ATOM     88  F   UNL     1      18.519   4.399  -1.453  1.00  0.00    -0.203 F 
ATOM     89  C   UNL     1      20.543   4.531  -2.649  1.00  0.00     0.198 A 
ATOM     90  C   UNL     1      20.518   4.598  -5.049  1.00  0.00     0.198 A 
ATOM     91  F   UNL     1      18.470   4.563  -6.207  1.00  0.00    -0.203 F 
ATOM     92  F   UNL     1      21.223   4.554  -1.495  1.00  0.00    -0.200 F 
ATOM     93  C   UNL     1      21.224   4.595  -3.856  1.00  0.00     0.200 A 
ATOM     94  F   UNL     1      21.175   4.647  -6.216  1.00  0.00    -0.200 F 
ATOM     95  F   UNL     1      22.563   4.660  -3.868  1.00  0.00    -0.200 F 
ENDBRANCH  62  85
ENDBRANCH  36  37
ENDBRANCH  29  31
ENDBRANCH  28  29
ENDBRANCH  27  28
ENDBRANCH  26  27
ENDBRANCH  25  26
ENDBRANCH   1  25
TORSDOF 19
