REMARK SMILES O=C(OCCOCCOC(=O)[C@H]1C[C@H]2CCCC[C@@H]2[N@@H+]1C1CCS(=O)(=O)CC1)c1ccc(-c2c3nc(c(-c4c(F)c(F)c(F)c(F)c4F)c4ccc([nH]4)c(-c4c(F)c(F)c(F)c(F)c4F)c4nc(c(-c5c(F)c(F)c(F)c(F)c5F)c5ccc2[nH]5)C=C4)C=C3)cc1
REMARK SMILES IDX 5 1 4 2 3 3 2 4 1 5 29 6 30 7 91 8 31 9 90 10 32 11 33 12
REMARK SMILES IDX 34 13 84 14 35 15 89 16 83 17 85 18 36 19 88 20 82 21 81 22
REMARK SMILES IDX 37 24 69 25 49 26 68 27 50 28 53 29 67 30 86 31 51 32 52 33
REMARK SMILES IDX 66 35 87 36 54 37 38 38 39 39 47 40 40 41 41 42 45 43 48 44
REMARK SMILES IDX 42 45 43 46 46 47 44 48 70 49 71 50 79 51 72 52 73 53 77 54
REMARK SMILES IDX 80 55 74 56 75 57 78 58 76 59 55 60 56 61 64 62 57 63 58 64
REMARK SMILES IDX 62 65 65 66 59 67 60 68 63 69 61 70 6 71 7 72 8 73 9 74
REMARK SMILES IDX 10 75 11 76 12 77 13 78 20 79 14 80 19 81 15 83 18 84 16 85
REMARK SMILES IDX 17 86 21 87 22 88 28 89 23 90 27 91 24 92 25 93 26 94
REMARK H PARENT 85 23 53 34 20 82
REMARK Flexibility Score: inf
ROOT
ATOM      1  C   UNL     1       6.012   2.151  -1.152  1.00  0.00     0.202 C 
ENDROOT
BRANCH   1   2
ATOM      2  C   UNL     1       7.211   1.263  -1.512  1.00  0.00     0.261 C 
BRANCH   2   3
ATOM      3  O   UNL     1       8.078   1.899  -2.461  1.00  0.00    -0.460 OA
BRANCH   3   4
ATOM      4  C   UNL     1       8.051   1.747  -3.808  1.00  0.00     0.338 C 
ATOM      5  O   UNL     1       8.856   2.364  -4.501  1.00  0.00    -0.246 OA
BRANCH   4   6
ATOM      6  C   UNL     1       7.056   0.867  -4.487  1.00  0.00     0.060 A 
ATOM      7  C   UNL     1       5.808   0.558  -3.955  1.00  0.00     0.016 A 
ATOM      8  C   UNL     1       7.362   0.377  -5.763  1.00  0.00     0.016 A 
ATOM      9  C   UNL     1       4.922  -0.273  -4.583  1.00  0.00     0.010 A 
ATOM     10  C   UNL     1       6.440  -0.418  -6.453  1.00  0.00     0.010 A 
ATOM     11  C   UNL     1       5.222  -0.744  -5.847  1.00  0.00    -0.014 A 
BRANCH  11  12
ATOM     12  C   UNL     1       4.235  -1.679  -6.385  1.00  0.00     0.031 A 
ATOM     13  C   UNL     1       4.550  -3.134  -6.299  1.00  0.00     0.074 A 
ATOM     14  C   UNL     1       3.001  -1.213  -6.650  1.00  0.00     0.049 A 
ATOM     15  N   UNL     1       3.830  -4.154  -6.670  1.00  0.00    -0.248 NA
ATOM     16  C   UNL     1       5.841  -3.494  -5.682  1.00  0.00     0.031 C 
ATOM     17  C   UNL     1       2.584   0.192  -6.532  1.00  0.00     0.029 A 
ATOM     18  N   UNL     1       1.854  -1.868  -6.997  1.00  0.00    -0.354 N 
ATOM     19  C   UNL     1       4.590  -5.271  -6.362  1.00  0.00     0.074 A 
ATOM     20  C   UNL     1       5.826  -4.814  -5.774  1.00  0.00     0.031 C 
ATOM     21  C   UNL     1       1.270   0.284  -6.782  1.00  0.00     0.029 A 
ATOM     22  C   UNL     1       0.779  -1.030  -7.167  1.00  0.00     0.049 A 
ATOM     23  H   UNL     1       1.803  -2.844  -7.114  1.00  0.00     0.167 HD
ATOM     24  C   UNL     1       4.263  -6.564  -6.571  1.00  0.00     0.037 A 
ATOM     25  C   UNL     1      -0.447  -1.308  -7.642  1.00  0.00     0.037 A 
ATOM     26  C   UNL     1       3.014  -6.961  -7.160  1.00  0.00     0.049 A 
ATOM     27  C   UNL     1      -0.724  -2.742  -8.004  1.00  0.00     0.074 A 
ATOM     28  C   UNL     1       2.592  -8.219  -7.537  1.00  0.00     0.029 A 
ATOM     29  N   UNL     1       1.977  -6.080  -7.451  1.00  0.00    -0.354 N 
ATOM     30  N   UNL     1       0.038  -3.799  -7.838  1.00  0.00    -0.248 NA
ATOM     31  C   UNL     1      -2.016  -3.023  -8.634  1.00  0.00     0.031 C 
ATOM     32  C   UNL     1       1.319  -8.092  -8.102  1.00  0.00     0.029 A 
ATOM     33  C   UNL     1       0.920  -6.765  -8.020  1.00  0.00     0.049 A 
ATOM     34  H   UNL     1       1.994  -5.111  -7.277  1.00  0.00     0.167 HD
ATOM     35  C   UNL     1      -0.686  -4.873  -8.329  1.00  0.00     0.074 A 
ATOM     36  C   UNL     1      -1.964  -4.340  -8.763  1.00  0.00     0.031 C 
ATOM     37  C   UNL     1      -0.333  -6.180  -8.428  1.00  0.00     0.037 A 
BRANCH  24  38
ATOM     38  C   UNL     1       5.301  -7.593  -6.247  1.00  0.00     0.064 A 
ATOM     39  C   UNL     1       5.646  -7.916  -4.926  1.00  0.00     0.173 A 
ATOM     40  C   UNL     1       5.988  -8.244  -7.282  1.00  0.00     0.173 A 
ATOM     41  F   UNL     1       5.049  -7.291  -3.900  1.00  0.00    -0.203 F 
ATOM     42  C   UNL     1       6.653  -8.840  -4.655  1.00  0.00     0.198 A 
ATOM     43  C   UNL     1       6.974  -9.187  -7.008  1.00  0.00     0.198 A 
ATOM     44  F   UNL     1       5.712  -7.954  -8.563  1.00  0.00    -0.203 F 
ATOM     45  F   UNL     1       7.006  -9.093  -3.387  1.00  0.00    -0.200 F 
ATOM     46  C   UNL     1       7.311  -9.480  -5.696  1.00  0.00     0.200 A 
ATOM     47  F   UNL     1       7.610  -9.800  -8.016  1.00  0.00    -0.200 F 
ATOM     48  F   UNL     1       8.280 -10.367  -5.434  1.00  0.00    -0.200 F 
ENDBRANCH  24  38
BRANCH  25  49
ATOM     49  C   UNL     1      -1.433  -0.223  -7.899  1.00  0.00     0.064 A 
ATOM     50  C   UNL     1      -2.692  -0.212  -7.284  1.00  0.00     0.173 A 
ATOM     51  C   UNL     1      -1.156   0.802  -8.820  1.00  0.00     0.173 A 
ATOM     52  F   UNL     1      -3.019  -1.174  -6.409  1.00  0.00    -0.203 F 
ATOM     53  C   UNL     1      -3.646   0.753  -7.611  1.00  0.00     0.198 A 
ATOM     54  C   UNL     1      -2.094   1.788  -9.115  1.00  0.00     0.198 A 
ATOM     55  F   UNL     1       0.031   0.846  -9.444  1.00  0.00    -0.203 F 
ATOM     56  F   UNL     1      -4.868   0.693  -7.064  1.00  0.00    -0.200 F 
ATOM     57  C   UNL     1      -3.346   1.753  -8.523  1.00  0.00     0.200 A 
ATOM     58  F   UNL     1      -1.790   2.760  -9.985  1.00  0.00    -0.200 F 
ATOM     59  F   UNL     1      -4.268   2.670  -8.845  1.00  0.00    -0.200 F 
ENDBRANCH  25  49
BRANCH  37  60
ATOM     60  C   UNL     1      -1.366  -7.105  -8.996  1.00  0.00     0.064 A 
ATOM     61  C   UNL     1      -1.724  -7.063 -10.351  1.00  0.00     0.173 A 
ATOM     62  C   UNL     1      -1.986  -8.057  -8.174  1.00  0.00     0.173 A 
ATOM     63  F   UNL     1      -1.169  -6.157 -11.170  1.00  0.00    -0.203 F 
ATOM     64  C   UNL     1      -2.699  -7.918 -10.854  1.00  0.00     0.198 A 
ATOM     65  C   UNL     1      -2.929  -8.937  -8.691  1.00  0.00     0.198 A 
ATOM     66  F   UNL     1      -1.667  -8.140  -6.874  1.00  0.00    -0.203 F 
ATOM     67  F   UNL     1      -3.077  -7.816 -12.136  1.00  0.00    -0.200 F 
ATOM     68  C   UNL     1      -3.293  -8.858 -10.027  1.00  0.00     0.200 A 
ATOM     69  F   UNL     1      -3.488  -9.859  -7.895  1.00  0.00    -0.200 F 
ATOM     70  F   UNL     1      -4.228  -9.685 -10.515  1.00  0.00    -0.200 F 
ENDBRANCH  37  60
ENDBRANCH  11  12
ENDBRANCH   4   6
ENDBRANCH   3   4
ENDBRANCH   2   3
ENDBRANCH   1   2
BRANCH   1  71
ATOM     71  O   UNL     1       5.277   2.824  -2.184  1.00  0.00    -0.374 OA
BRANCH  71  72
ATOM     72  C   UNL     1       5.943   3.870  -2.907  1.00  0.00     0.202 C 
BRANCH  72  73
ATOM     73  C   UNL     1       5.081   5.135  -2.962  1.00  0.00     0.261 C 
BRANCH  73  74
ATOM     74  O   UNL     1       4.979   5.626  -1.624  1.00  0.00    -0.459 OA
BRANCH  74  75
ATOM     75  C   UNL     1       4.049   4.945  -0.907  1.00  0.00     0.365 C 
ATOM     76  O   UNL     1       2.966   4.573  -1.350  1.00  0.00    -0.245 OA
BRANCH  75  77
ATOM     77  C   UNL     1       4.532   4.636   0.517  1.00  0.00     0.296 C 
ATOM     78  C   UNL     1       6.031   4.832   0.839  1.00  0.00     0.087 C 
ATOM     79  N   UNL     1       3.805   5.532   1.416  1.00  0.00    -0.318 N 
ATOM     80  C   UNL     1       6.039   5.776   2.014  1.00  0.00     0.054 C 
ATOM     81  C   UNL     1       4.772   6.575   1.762  1.00  0.00     0.188 C 
ATOM     82  H   UNL     1       3.000   5.993   0.992  1.00  0.00     0.349 HD
ATOM     83  C   UNL     1       7.298   6.616   2.139  1.00  0.00     0.010 C 
ATOM     84  C   UNL     1       4.551   7.622   2.837  1.00  0.00     0.065 C 
ATOM     85  C   UNL     1       7.083   7.710   3.180  1.00  0.00     0.001 C 
ATOM     86  C   UNL     1       5.806   8.514   2.909  1.00  0.00     0.006 C 
BRANCH  79  87
ATOM     87  C   UNL     1       2.813   4.986   2.336  1.00  0.00     0.186 C 
ATOM     88  C   UNL     1       1.714   4.118   1.650  1.00  0.00     0.081 C 
ATOM     89  C   UNL     1       3.332   4.265   3.590  1.00  0.00     0.081 C 
ATOM     90  C   UNL     1       2.043   2.673   1.283  1.00  0.00     0.143 C 
ATOM     91  C   UNL     1       3.958   2.907   3.344  1.00  0.00     0.143 C 
ATOM     92  S   UNL     1       2.834   1.757   2.585  1.00  0.00     0.150 S 
ATOM     93  O   UNL     1       3.641   0.723   1.970  1.00  0.00    -0.229 OA
ATOM     94  O   UNL     1       1.820   1.424   3.572  1.00  0.00    -0.229 OA
ENDBRANCH  79  87
ENDBRANCH  75  77
ENDBRANCH  74  75
ENDBRANCH  73  74
ENDBRANCH  72  73
ENDBRANCH  71  72
ENDBRANCH   1  71
TORSDOF 15
