REMARK SMILES CCCCCCNC(=O)Oc1cccc(-c2ccc(CC(=O)OCCOCCOC(=O)c3ccc(-c4c5nc(c(-c6c(F)c(F)c(F)c(F)c6F)c6ccc([nH]6)c(-c6c(F)c(F)c(F)c(F)c6F)c6nc(c(-c7c(F)c(F)c(F)c(F)c7F)c7ccc4[nH]7)C=C6)C=C5)cc3)cc2F)c1
REMARK SMILES IDX 21 1 22 2 20 3 19 4 16 5 17 6 96 7 18 8 95 9 97 10 15 11
REMARK SMILES IDX 11 12 12 13 98 14 13 15 14 16 10 17 8 18 7 19 9 21 6 22 5 23
REMARK SMILES IDX 4 24 3 25 2 26 1 27 23 28 24 29 25 30 26 31 27 32 28 33
REMARK SMILES IDX 29 34 30 35 31 36 32 37 33 38 94 39 34 40 93 41 35 42 36 43
REMARK SMILES IDX 37 44 87 45 38 46 92 47 86 48 88 49 39 50 91 51 85 52 84 53
REMARK SMILES IDX 40 55 72 56 52 57 71 58 53 59 56 60 70 61 89 62 54 63 55 64
REMARK SMILES IDX 69 66 90 67 57 68 41 69 42 70 50 71 43 72 44 73 48 74 51 75
REMARK SMILES IDX 45 76 46 77 49 78 47 79 73 80 74 81 82 82 75 83 76 84 80 85
REMARK SMILES IDX 83 86 77 87 78 88 81 89 79 90 58 91 59 92 67 93 60 94 61 95
REMARK SMILES IDX 65 96 68 97 62 98 63 99 66 100 64 101
REMARK H PARENT 7 20 88 54 56 65
REMARK Flexibility Score: inf
ROOT
ATOM      1  C   UNL     1      -5.421 -12.050   7.959  1.00  0.00     0.310 C 
ATOM      2  O   UNL     1      -5.166 -12.830   8.873  1.00  0.00    -0.252 OA
ENDROOT
BRANCH   1   3
ATOM      3  C   UNL     1      -4.328 -11.270   7.269  1.00  0.00     0.158 C 
BRANCH   3   4
ATOM      4  C   UNL     1      -4.623 -10.622   5.935  1.00  0.00    -0.034 A 
ATOM      5  C   UNL     1      -4.978  -9.330   3.429  1.00  0.00     0.018 A 
ATOM      6  C   UNL     1      -4.632 -10.687   3.495  1.00  0.00     0.012 A 
ATOM      7  C   UNL     1      -5.164  -8.647   4.638  1.00  0.00     0.131 A 
ATOM      8  C   UNL     1      -4.446 -11.322   4.731  1.00  0.00     0.005 A 
ATOM      9  C   UNL     1      -5.001  -9.277   5.873  1.00  0.00     0.044 A 
ATOM     10  F   UNL     1      -5.489  -7.345   4.632  1.00  0.00    -0.206 F 
BRANCH   5  11
ATOM     11  C   UNL     1      -5.103  -8.638   2.141  1.00  0.00    -0.012 A 
ATOM     12  C   UNL     1      -4.292  -7.004   0.540  1.00  0.00     0.133 A 
ATOM     13  C   UNL     1      -5.381  -7.242  -0.293  1.00  0.00     0.047 A 
ATOM     14  C   UNL     1      -4.153  -7.679   1.754  1.00  0.00     0.056 A 
ATOM     15  C   UNL     1      -6.325  -8.198   0.075  1.00  0.00     0.004 A 
ATOM     16  C   UNL     1      -6.184  -8.896   1.280  1.00  0.00     0.009 A 
BRANCH  12  17
ATOM     17  O   UNL     1      -3.411  -5.972   0.178  1.00  0.00    -0.410 OA
BRANCH  17  18
ATOM     18  C   UNL     1      -2.067  -6.299   0.064  1.00  0.00     0.412 C 
ATOM     19  N   UNL     1      -1.271  -5.222  -0.218  1.00  0.00    -0.321 N 
ATOM     20  H   UNL     1      -0.308  -5.403  -0.318  1.00  0.00     0.167 HD
ATOM     21  O   UNL     1      -1.585  -7.419   0.183  1.00  0.00    -0.224 OA
BRANCH  19  22
ATOM     22  C   UNL     1      -1.688  -3.844  -0.385  1.00  0.00     0.119 C 
BRANCH  22  23
ATOM     23  C   UNL     1      -1.077  -2.925   0.675  1.00  0.00     0.021 C 
BRANCH  23  24
ATOM     24  C   UNL     1       0.453  -2.819   0.637  1.00  0.00     0.002 C 
BRANCH  24  25
ATOM     25  C   UNL     1       1.052  -2.317  -0.682  1.00  0.00    -0.000 C 
BRANCH  25  26
ATOM     26  C   UNL     1       0.581  -0.935  -1.137  1.00  0.00    -0.003 C 
ATOM     27  C   UNL     1       0.962   0.181  -0.176  1.00  0.00     0.004 C 
ENDBRANCH  25  26
ENDBRANCH  24  25
ENDBRANCH  23  24
ENDBRANCH  22  23
ENDBRANCH  19  22
ENDBRANCH  17  18
ENDBRANCH  12  17
ENDBRANCH   5  11
ENDBRANCH   3   4
ENDBRANCH   1   3
BRANCH   1  28
ATOM     28  O   UNL     1      -6.674 -11.779   7.509  1.00  0.00    -0.463 OA
BRANCH  28  29
ATOM     29  C   UNL     1      -7.734 -12.554   8.102  1.00  0.00     0.261 C 
BRANCH  29  30
ATOM     30  C   UNL     1      -8.523 -13.343   7.053  1.00  0.00     0.202 C 
BRANCH  30  31
ATOM     31  O   UNL     1      -7.806 -14.376   6.377  1.00  0.00    -0.374 OA
BRANCH  31  32
ATOM     32  C   UNL     1      -6.900 -13.966   5.353  1.00  0.00     0.202 C 
BRANCH  32  33
ATOM     33  C   UNL     1      -7.529 -13.612   4.000  1.00  0.00     0.261 C 
BRANCH  33  34
ATOM     34  O   UNL     1      -8.389 -12.461   4.088  1.00  0.00    -0.460 OA
BRANCH  34  35
ATOM     35  C   UNL     1      -9.700 -12.720   3.866  1.00  0.00     0.338 C 
ATOM     36  O   UNL     1     -10.194 -13.771   3.494  1.00  0.00    -0.246 OA
BRANCH  35  37
ATOM     37  C   UNL     1     -10.532 -11.577   4.294  1.00  0.00     0.060 A 
ATOM     38  C   UNL     1     -11.639 -11.863   5.104  1.00  0.00     0.016 A 
ATOM     39  C   UNL     1     -10.296 -10.273   3.854  1.00  0.00     0.016 A 
ATOM     40  C   UNL     1     -12.549 -10.859   5.425  1.00  0.00     0.010 A 
ATOM     41  C   UNL     1     -11.217  -9.265   4.170  1.00  0.00     0.010 A 
ATOM     42  C   UNL     1     -12.368  -9.564   4.923  1.00  0.00    -0.014 A 
BRANCH  42  43
ATOM     43  C   UNL     1     -13.464  -8.575   5.066  1.00  0.00     0.031 A 
ATOM     44  C   UNL     1     -14.417  -8.370   3.920  1.00  0.00     0.074 A 
ATOM     45  C   UNL     1     -13.641  -7.905   6.219  1.00  0.00     0.049 A 
ATOM     46  N   UNL     1     -15.449  -7.570   3.828  1.00  0.00    -0.248 NA
ATOM     47  C   UNL     1     -14.176  -9.180   2.715  1.00  0.00     0.031 C 
ATOM     48  C   UNL     1     -12.807  -8.042   7.410  1.00  0.00     0.029 A 
ATOM     49  N   UNL     1     -14.585  -6.973   6.572  1.00  0.00    -0.354 N 
ATOM     50  C   UNL     1     -15.976  -7.777   2.560  1.00  0.00     0.074 A 
ATOM     51  C   UNL     1     -15.137  -8.758   1.906  1.00  0.00     0.031 C 
ATOM     52  C   UNL     1     -13.271  -7.215   8.364  1.00  0.00     0.029 A 
ATOM     53  C   UNL     1     -14.418  -6.475   7.841  1.00  0.00     0.049 A 
ATOM     54  H   UNL     1     -15.313  -6.688   5.973  1.00  0.00     0.167 HD
ATOM     55  C   UNL     1     -17.068  -7.208   1.996  1.00  0.00     0.037 A 
ATOM     56  C   UNL     1     -15.105  -5.519   8.496  1.00  0.00     0.037 A 
ATOM     57  C   UNL     1     -17.907  -6.239   2.649  1.00  0.00     0.049 A 
ATOM     58  C   UNL     1     -16.283  -4.862   7.824  1.00  0.00     0.074 A 
ATOM     59  C   UNL     1     -19.049  -5.622   2.168  1.00  0.00     0.029 A 
ATOM     60  N   UNL     1     -17.691  -5.741   3.925  1.00  0.00    -0.354 N 
ATOM     61  N   UNL     1     -16.794  -5.090   6.639  1.00  0.00    -0.248 NA
ATOM     62  C   UNL     1     -16.984  -3.818   8.586  1.00  0.00     0.031 C 
ATOM     63  C   UNL     1     -19.499  -4.718   3.136  1.00  0.00     0.029 A 
ATOM     64  C   UNL     1     -18.664  -4.807   4.238  1.00  0.00     0.049 A 
ATOM     65  H   UNL     1     -16.954  -6.012   4.520  1.00  0.00     0.167 HD
ATOM     66  C   UNL     1     -17.889  -4.243   6.524  1.00  0.00     0.074 A 
ATOM     67  C   UNL     1     -17.977  -3.503   7.766  1.00  0.00     0.031 C 
ATOM     68  C   UNL     1     -18.744  -4.090   5.484  1.00  0.00     0.037 A 
BRANCH  55  69
ATOM     69  C   UNL     1     -17.413  -7.606   0.592  1.00  0.00     0.064 A 
ATOM     70  C   UNL     1     -17.969  -8.860   0.298  1.00  0.00     0.173 A 
ATOM     71  C   UNL     1     -17.234  -6.701  -0.466  1.00  0.00     0.173 A 
ATOM     72  F   UNL     1     -18.148  -9.764   1.273  1.00  0.00    -0.203 F 
ATOM     73  C   UNL     1     -18.319  -9.199  -1.006  1.00  0.00     0.198 A 
ATOM     74  C   UNL     1     -17.608  -7.035  -1.764  1.00  0.00     0.198 A 
ATOM     75  F   UNL     1     -16.710  -5.488  -0.236  1.00  0.00    -0.203 F 
ATOM     76  F   UNL     1     -18.818 -10.415  -1.270  1.00  0.00    -0.200 F 
ATOM     77  C   UNL     1     -18.146  -8.284  -2.035  1.00  0.00     0.200 A 
ATOM     78  F   UNL     1     -17.450  -6.146  -2.755  1.00  0.00    -0.200 F 
ATOM     79  F   UNL     1     -18.493  -8.608  -3.288  1.00  0.00    -0.200 F 
ENDBRANCH  55  69
BRANCH  56  80
ATOM     80  C   UNL     1     -14.693  -5.112   9.865  1.00  0.00     0.064 A 
ATOM     81  C   UNL     1     -15.499  -5.387  10.978  1.00  0.00     0.173 A 
ATOM     82  C   UNL     1     -13.497  -4.412  10.083  1.00  0.00     0.173 A 
ATOM     83  F   UNL     1     -16.665  -6.031  10.818  1.00  0.00    -0.203 F 
ATOM     84  C   UNL     1     -15.135  -4.959  12.254  1.00  0.00     0.198 A 
ATOM     85  C   UNL     1     -13.121  -4.008  11.362  1.00  0.00     0.198 A 
ATOM     86  F   UNL     1     -12.692  -4.120   9.051  1.00  0.00    -0.203 F 
ATOM     87  F   UNL     1     -15.949  -5.191  13.293  1.00  0.00    -0.200 F 
ATOM     88  C   UNL     1     -13.945  -4.274  12.445  1.00  0.00     0.200 A 
ATOM     89  F   UNL     1     -11.965  -3.356  11.544  1.00  0.00    -0.200 F 
ATOM     90  F   UNL     1     -13.597  -3.861  13.671  1.00  0.00    -0.200 F 
ENDBRANCH  56  80
BRANCH  68  91
ATOM     91  C   UNL     1     -19.872  -3.114   5.655  1.00  0.00     0.064 A 
ATOM     92  C   UNL     1     -19.655  -1.729   5.635  1.00  0.00     0.173 A 
ATOM     93  C   UNL     1     -21.191  -3.572   5.793  1.00  0.00     0.173 A 
ATOM     94  F   UNL     1     -18.410  -1.243   5.519  1.00  0.00    -0.203 F 
ATOM     95  C   UNL     1     -20.716  -0.838   5.771  1.00  0.00     0.198 A 
ATOM     96  C   UNL     1     -22.252  -2.678   5.901  1.00  0.00     0.198 A 
ATOM     97  F   UNL     1     -21.452  -4.888   5.810  1.00  0.00    -0.203 F 
ATOM     98  F   UNL     1     -20.481   0.482   5.792  1.00  0.00    -0.200 F 
ATOM     99  C   UNL     1     -22.013  -1.312   5.896  1.00  0.00     0.200 A 
ATOM    100  F   UNL     1     -23.506  -3.138   6.009  1.00  0.00    -0.200 F 
ATOM    101  F   UNL     1     -23.034  -0.452   6.019  1.00  0.00    -0.200 F 
ENDBRANCH  68  91
ENDBRANCH  42  43
ENDBRANCH  35  37
ENDBRANCH  34  35
ENDBRANCH  33  34
ENDBRANCH  32  33
ENDBRANCH  31  32
ENDBRANCH  30  31
ENDBRANCH  29  30
ENDBRANCH  28  29
ENDBRANCH   1  28
TORSDOF 23
