REMARK SMILES O=C(/C=C/c1ccc(Cl)cc1)NC(=S)Nc1cc(C(=O)OCCOCCOC(=O)c2ccc(-c3c4nc(c(-c5c(F)c(F)c(F)c(F)c5F)c5ccc([nH]5)c(-c5c(F)c(F)c(F)c(F)c5F)c5nc(c(-c6c(F)c(F)c(F)c(F)c6F)c6ccc3[nH]6)C=C5)C=C4)cc2)ccc1Cl
REMARK SMILES IDX 22 1 21 2 19 3 20 4 18 5 16 6 17 7 95 8 94 9 96 10 93 11
REMARK SMILES IDX 15 12 13 14 14 15 12 16 1 17 2 18 3 20 4 21 5 22 6 23 11 24
REMARK SMILES IDX 7 25 10 26 8 27 9 28 23 29 24 30 25 31 26 32 27 33 28 34
REMARK SMILES IDX 29 35 30 36 31 37 92 38 32 39 91 40 33 41 34 42 35 43 85 44
REMARK SMILES IDX 36 45 90 46 84 47 86 48 37 49 89 50 83 51 82 52 38 54 70 55
REMARK SMILES IDX 50 56 69 57 51 58 54 59 68 60 87 61 52 62 53 63 67 65 88 66
REMARK SMILES IDX 55 67 39 68 40 69 48 70 41 71 42 72 46 73 49 74 43 75 44 76
REMARK SMILES IDX 47 77 45 78 71 79 72 80 80 81 73 82 74 83 78 84 81 85 75 86
REMARK SMILES IDX 76 87 79 88 77 89 56 90 57 91 65 92 58 93 59 94 63 95 66 96
REMARK SMILES IDX 60 97 61 98 64 99 62 100
REMARK H PARENT 15 13 12 19 86 53 54 64
REMARK Flexibility Score: inf
ROOT
ATOM      1  C   UNL     1      -4.013  -0.646  -3.627  1.00  0.00     0.261 C 
ENDROOT
BRANCH   1   2
ATOM      2  O   UNL     1      -3.050  -0.905  -2.593  1.00  0.00    -0.460 OA
BRANCH   2   3
ATOM      3  C   UNL     1      -2.011  -0.040  -2.560  1.00  0.00     0.338 C 
ATOM      4  O   UNL     1      -1.730   0.794  -3.409  1.00  0.00    -0.246 OA
BRANCH   3   5
ATOM      5  C   UNL     1      -1.345  -0.103  -1.239  1.00  0.00     0.062 A 
ATOM      6  C   UNL     1       0.057   1.044   0.364  1.00  0.00     0.060 A 
ATOM      7  C   UNL     1      -0.735   1.072  -0.783  1.00  0.00     0.043 A 
ATOM      8  C   UNL     1       0.106  -0.128   1.143  1.00  0.00     0.064 A 
ATOM      9  C   UNL     1      -0.585  -1.274   0.734  1.00  0.00     0.023 A 
ATOM     10  Cl  UNL     1       0.957  -0.207   2.646  1.00  0.00    -0.082 Cl
ATOM     11  C   UNL     1      -1.292  -1.272  -0.471  1.00  0.00     0.017 A 
BRANCH   6  12
ATOM     12  N   UNL     1       0.872   2.177   0.584  1.00  0.00    -0.331 N 
ATOM     13  H   UNL     1       0.428   3.056   0.569  1.00  0.00     0.169 HD
BRANCH  12  14
ATOM     14  C   UNL     1       2.218   2.166   0.816  1.00  0.00     0.177 C 
ATOM     15  S   UNL     1       2.943   3.453   1.593  1.00  0.00    -0.040 S 
BRANCH  14  16
ATOM     16  N   UNL     1       2.986   1.118   0.376  1.00  0.00    -0.299 N 
ATOM     17  O   UNL     1       2.035   0.585  -1.676  1.00  0.00    -0.270 OA
ATOM     18  C   UNL     1       2.723   0.300  -0.702  1.00  0.00     0.250 C 
ATOM     19  H   UNL     1       3.809   0.930   0.882  1.00  0.00     0.172 HD
BRANCH  18  20
ATOM     20  C   UNL     1       3.357  -1.030  -0.675  1.00  0.00     0.072 C 
ATOM     21  C   UNL     1       4.675  -1.224  -0.546  1.00  0.00     0.014 C 
BRANCH  21  22
ATOM     22  C   UNL     1       5.269  -2.549  -0.756  1.00  0.00    -0.025 A 
ATOM     23  C   UNL     1       4.856  -3.371  -1.818  1.00  0.00     0.009 A 
ATOM     24  C   UNL     1       6.322  -2.974   0.060  1.00  0.00     0.009 A 
ATOM     25  C   UNL     1       5.470  -4.604  -2.047  1.00  0.00     0.021 A 
ATOM     26  C   UNL     1       6.939  -4.208  -0.170  1.00  0.00     0.021 A 
ATOM     27  C   UNL     1       6.511  -5.016  -1.223  1.00  0.00     0.041 A 
ATOM     28  Cl  UNL     1       7.284  -6.524  -1.516  1.00  0.00    -0.084 Cl
ENDBRANCH  21  22
ENDBRANCH  18  20
ENDBRANCH  14  16
ENDBRANCH  12  14
ENDBRANCH   6  12
ENDBRANCH   3   5
ENDBRANCH   2   3
ENDBRANCH   1   2
BRANCH   1  29
ATOM     29  C   UNL     1      -5.352  -0.228  -3.015  1.00  0.00     0.202 C 
BRANCH  29  30
ATOM     30  O   UNL     1      -5.384   1.043  -2.364  1.00  0.00    -0.374 OA
BRANCH  30  31
ATOM     31  C   UNL     1      -4.831   1.130  -1.052  1.00  0.00     0.202 C 
BRANCH  31  32
ATOM     32  C   UNL     1      -5.707   0.628   0.101  1.00  0.00     0.261 C 
BRANCH  32  33
ATOM     33  O   UNL     1      -5.965  -0.783   0.010  1.00  0.00    -0.460 OA
BRANCH  33  34
ATOM     34  C   UNL     1      -7.233  -1.099  -0.343  1.00  0.00     0.338 C 
ATOM     35  O   UNL     1      -8.173  -0.335  -0.501  1.00  0.00    -0.246 OA
BRANCH  34  36
ATOM     36  C   UNL     1      -7.317  -2.528  -0.695  1.00  0.00     0.060 A 
ATOM     37  C   UNL     1      -7.895  -2.854  -1.928  1.00  0.00     0.016 A 
ATOM     38  C   UNL     1      -6.913  -3.531   0.189  1.00  0.00     0.016 A 
ATOM     39  C   UNL     1      -8.123  -4.187  -2.261  1.00  0.00     0.010 A 
ATOM     40  C   UNL     1      -7.151  -4.869  -0.142  1.00  0.00     0.010 A 
ATOM     41  C   UNL     1      -7.791  -5.199  -1.351  1.00  0.00    -0.014 A 
BRANCH  41  42
ATOM     42  C   UNL     1      -8.258  -6.584  -1.599  1.00  0.00     0.031 A 
ATOM     43  C   UNL     1      -9.502  -7.065  -0.908  1.00  0.00     0.074 A 
ATOM     44  C   UNL     1      -7.601  -7.389  -2.451  1.00  0.00     0.049 A 
ATOM     45  N   UNL     1     -10.075  -8.242  -0.949  1.00  0.00    -0.248 NA
ATOM     46  C   UNL     1     -10.195  -6.088  -0.053  1.00  0.00     0.031 C 
ATOM     47  C   UNL     1      -6.410  -7.022  -3.212  1.00  0.00     0.029 A 
ATOM     48  N   UNL     1      -7.847  -8.690  -2.814  1.00  0.00    -0.354 N 
ATOM     49  C   UNL     1     -11.188  -8.147  -0.124  1.00  0.00     0.074 A 
ATOM     50  C   UNL     1     -11.195  -6.810   0.429  1.00  0.00     0.031 C 
ATOM     51  C   UNL     1      -6.019  -8.078  -3.946  1.00  0.00     0.029 A 
ATOM     52  C   UNL     1      -6.916  -9.203  -3.682  1.00  0.00     0.049 A 
ATOM     53  H   UNL     1      -8.618  -9.206  -2.483  1.00  0.00     0.167 HD
ATOM     54  C   UNL     1     -12.125  -9.089   0.141  1.00  0.00     0.037 A 
ATOM     55  C   UNL     1      -6.793 -10.445  -4.188  1.00  0.00     0.037 A 
ATOM     56  C   UNL     1     -12.118 -10.417  -0.413  1.00  0.00     0.049 A 
ATOM     57  C   UNL     1      -7.810 -11.496  -3.823  1.00  0.00     0.074 A 
ATOM     58  C   UNL     1     -13.033 -11.437  -0.222  1.00  0.00     0.029 A 
ATOM     59  N   UNL     1     -11.140 -10.911  -1.264  1.00  0.00    -0.354 N 
ATOM     60  N   UNL     1      -8.872 -11.393  -3.061  1.00  0.00    -0.248 NA
ATOM     61  C   UNL     1      -7.610 -12.837  -4.392  1.00  0.00     0.031 C 
ATOM     62  C   UNL     1     -12.583 -12.564  -0.918  1.00  0.00     0.029 A 
ATOM     63  C   UNL     1     -11.415 -12.230  -1.585  1.00  0.00     0.049 A 
ATOM     64  H   UNL     1     -10.365 -10.399  -1.591  1.00  0.00     0.167 HD
ATOM     65  C   UNL     1      -9.480 -12.642  -3.082  1.00  0.00     0.074 A 
ATOM     66  C   UNL     1      -8.675 -13.484  -3.941  1.00  0.00     0.031 C 
ATOM     67  C   UNL     1     -10.606 -13.053  -2.448  1.00  0.00     0.037 A 
BRANCH  54  68
ATOM     68  C   UNL     1     -13.225  -8.721   1.093  1.00  0.00     0.064 A 
ATOM     69  C   UNL     1     -14.242  -7.823   0.734  1.00  0.00     0.173 A 
ATOM     70  C   UNL     1     -13.277  -9.296   2.372  1.00  0.00     0.173 A 
ATOM     71  F   UNL     1     -14.228  -7.235  -0.471  1.00  0.00    -0.203 F 
ATOM     72  C   UNL     1     -15.256  -7.495   1.630  1.00  0.00     0.198 A 
ATOM     73  C   UNL     1     -14.308  -8.987   3.255  1.00  0.00     0.198 A 
ATOM     74  F   UNL     1     -12.331 -10.162   2.763  1.00  0.00    -0.203 F 
ATOM     75  F   UNL     1     -16.191  -6.600   1.283  1.00  0.00    -0.200 F 
ATOM     76  C   UNL     1     -15.292  -8.082   2.887  1.00  0.00     0.200 A 
ATOM     77  F   UNL     1     -14.347  -9.563   4.464  1.00  0.00    -0.200 F 
ATOM     78  F   UNL     1     -16.271  -7.769   3.746  1.00  0.00    -0.200 F 
ENDBRANCH  54  68
BRANCH  55  79
ATOM     79  C   UNL     1      -5.658 -10.769  -5.089  1.00  0.00     0.064 A 
ATOM     80  C   UNL     1      -5.867 -11.043  -6.448  1.00  0.00     0.173 A 
ATOM     81  C   UNL     1      -4.342 -10.826  -4.607  1.00  0.00     0.173 A 
ATOM     82  F   UNL     1      -7.110 -11.026  -6.950  1.00  0.00    -0.203 F 
ATOM     83  C   UNL     1      -4.805 -11.377  -7.286  1.00  0.00     0.198 A 
ATOM     84  C   UNL     1      -3.278 -11.134  -5.451  1.00  0.00     0.198 A 
ATOM     85  F   UNL     1      -4.089 -10.574  -3.314  1.00  0.00    -0.203 F 
ATOM     86  F   UNL     1      -5.038 -11.678  -8.570  1.00  0.00    -0.200 F 
ATOM     87  C   UNL     1      -3.511 -11.417  -6.788  1.00  0.00     0.200 A 
ATOM     88  F   UNL     1      -2.028 -11.160  -4.969  1.00  0.00    -0.200 F 
ATOM     89  F   UNL     1      -2.490 -11.736  -7.596  1.00  0.00    -0.200 F 
ENDBRANCH  55  79
BRANCH  67  90
ATOM     90  C   UNL     1     -11.056 -14.466  -2.686  1.00  0.00     0.064 A 
ATOM     91  C   UNL     1     -10.373 -15.559  -2.134  1.00  0.00     0.173 A 
ATOM     92  C   UNL     1     -12.210 -14.725  -3.441  1.00  0.00     0.173 A 
ATOM     93  F   UNL     1      -9.256 -15.365  -1.416  1.00  0.00    -0.203 F 
ATOM     94  C   UNL     1     -10.817 -16.862  -2.348  1.00  0.00     0.198 A 
ATOM     95  C   UNL     1     -12.667 -16.026  -3.629  1.00  0.00     0.198 A 
ATOM     96  F   UNL     1     -12.904 -13.713  -3.985  1.00  0.00    -0.203 F 
ATOM     97  F   UNL     1     -10.123 -17.894  -1.848  1.00  0.00    -0.200 F 
ATOM     98  C   UNL     1     -11.967 -17.094  -3.088  1.00  0.00     0.200 A 
ATOM     99  F   UNL     1     -13.786 -16.247  -4.333  1.00  0.00    -0.200 F 
ATOM    100  F   UNL     1     -12.396 -18.348  -3.287  1.00  0.00    -0.200 F 
ENDBRANCH  67  90
ENDBRANCH  41  42
ENDBRANCH  34  36
ENDBRANCH  33  34
ENDBRANCH  32  33
ENDBRANCH  31  32
ENDBRANCH  30  31
ENDBRANCH  29  30
ENDBRANCH   1  29
TORSDOF 19
