REMARK SMILES C[C@H](COc1ccccc1C(=O)OCCOCCOC(=O)c1ccc(-c2c3nc(c(-c4c(F)c(F)c(F)c(F)c4F)c4ccc([nH]4)c(-c4c(F)c(F)c(F)c(F)c4F)c4nc(c(-c5c(F)c(F)c(F)c(F)c5F)c5ccc2[nH]5)C=C4)C=C3)cc1)C(N)=O
REMARK SMILES IDX 15 1 14 2 13 3 11 4 12 5 10 6 5 7 6 8 7 9 9 10 8 11 4 12
REMARK SMILES IDX 3 13 2 14 1 15 85 16 86 17 87 18 16 21 17 22 18 23 19 24
REMARK SMILES IDX 20 25 21 26 22 27 23 28 84 29 24 30 83 31 25 32 26 33 27 34
REMARK SMILES IDX 77 35 28 36 82 37 76 38 78 39 29 40 81 41 75 42 74 43 30 45
REMARK SMILES IDX 62 46 42 47 61 48 43 49 46 50 60 51 79 52 44 53 45 54 59 56
REMARK SMILES IDX 80 57 47 58 31 59 32 60 40 61 33 62 34 63 38 64 41 65 35 66
REMARK SMILES IDX 36 67 39 68 37 69 63 70 64 71 72 72 65 73 66 74 70 75 73 76
REMARK SMILES IDX 67 77 68 78 71 79 69 80 48 81 49 82 57 83 50 84 51 85 55 86
REMARK SMILES IDX 58 87 52 88 53 89 56 90 54 91
REMARK H PARENT 86 19 86 20 78 44 46 55
REMARK Flexibility Score: inf
ROOT
ATOM      1  C   UNL     1      -2.979  -2.222  -0.110  1.00  0.00     0.202 C 
ENDROOT
BRANCH   1   2
ATOM      2  C   UNL     1      -2.687  -1.209   1.007  1.00  0.00     0.261 C 
BRANCH   2   3
ATOM      3  O   UNL     1      -1.328  -1.308   1.460  1.00  0.00    -0.460 OA
BRANCH   3   4
ATOM      4  C   UNL     1      -1.091  -0.848   2.709  1.00  0.00     0.342 C 
ATOM      5  O   UNL     1      -1.902  -0.365   3.481  1.00  0.00    -0.246 OA
BRANCH   4   6
ATOM      6  C   UNL     1       0.304  -1.144   3.088  1.00  0.00     0.102 A 
ATOM      7  C   UNL     1       1.403  -0.530   2.468  1.00  0.00     0.133 A 
ATOM      8  C   UNL     1       2.686  -0.788   2.965  1.00  0.00     0.047 A 
ATOM      9  C   UNL     1       2.877  -1.719   3.989  1.00  0.00     0.004 A 
ATOM     10  C   UNL     1       0.496  -2.062   4.130  1.00  0.00     0.019 A 
ATOM     11  C   UNL     1       1.786  -2.367   4.561  1.00  0.00     0.001 A 
BRANCH   7  12
ATOM     12  O   UNL     1       1.166   0.311   1.417  1.00  0.00    -0.492 OA
BRANCH  12  13
ATOM     13  C   UNL     1       2.122   0.338   0.349  1.00  0.00     0.242 C 
BRANCH  13  14
ATOM     14  C   UNL     1       2.115  -0.890  -0.572  1.00  0.00     0.113 C 
ATOM     15  C   UNL     1       2.718  -2.159   0.043  1.00  0.00     0.022 C 
BRANCH  14  16
ATOM     16  C   UNL     1       0.710  -1.180  -1.027  1.00  0.00     0.223 C 
ATOM     17  N   UNL     1       0.102  -0.265  -1.825  1.00  0.00    -0.369 N 
ATOM     18  O   UNL     1       0.133  -2.215  -0.735  1.00  0.00    -0.275 OA
ATOM     19  H   UNL     1       0.567   0.570  -2.061  1.00  0.00     0.159 HD
ATOM     20  H   UNL     1      -0.805  -0.437  -2.168  1.00  0.00     0.159 HD
ENDBRANCH  14  16
ENDBRANCH  13  14
ENDBRANCH  12  13
ENDBRANCH   7  12
ENDBRANCH   4   6
ENDBRANCH   3   4
ENDBRANCH   2   3
ENDBRANCH   1   2
BRANCH   1  21
ATOM     21  O   UNL     1      -3.083  -3.569   0.359  1.00  0.00    -0.374 OA
BRANCH  21  22
ATOM     22  C   UNL     1      -1.848  -4.294   0.405  1.00  0.00     0.202 C 
BRANCH  22  23
ATOM     23  C   UNL     1      -1.522  -5.034  -0.908  1.00  0.00     0.261 C 
BRANCH  23  24
ATOM     24  O   UNL     1      -0.950  -4.169  -1.912  1.00  0.00    -0.460 OA
BRANCH  24  25
ATOM     25  C   UNL     1      -1.558  -4.100  -3.111  1.00  0.00     0.338 C 
ATOM     26  O   UNL     1      -2.500  -4.771  -3.497  1.00  0.00    -0.246 OA
BRANCH  25  27
ATOM     27  C   UNL     1      -1.002  -2.981  -3.921  1.00  0.00     0.060 A 
ATOM     28  C   UNL     1      -1.919  -2.120  -4.536  1.00  0.00     0.016 A 
ATOM     29  C   UNL     1       0.367  -2.804  -4.153  1.00  0.00     0.016 A 
ATOM     30  C   UNL     1      -1.480  -1.116  -5.408  1.00  0.00     0.010 A 
ATOM     31  C   UNL     1       0.808  -1.793  -5.033  1.00  0.00     0.010 A 
ATOM     32  C   UNL     1      -0.116  -0.961  -5.694  1.00  0.00    -0.014 A 
BRANCH  32  33
ATOM     33  C   UNL     1       0.290  -0.039  -6.797  1.00  0.00     0.031 A 
ATOM     34  C   UNL     1       0.519  -0.600  -8.178  1.00  0.00     0.074 A 
ATOM     35  C   UNL     1       0.373   1.294  -6.620  1.00  0.00     0.049 A 
ATOM     36  N   UNL     1       0.756   0.028  -9.305  1.00  0.00    -0.248 NA
ATOM     37  C   UNL     1       0.466  -2.064  -8.307  1.00  0.00     0.031 C 
ATOM     38  C   UNL     1       0.152   1.995  -5.359  1.00  0.00     0.029 A 
ATOM     39  N   UNL     1       0.656   2.301  -7.516  1.00  0.00    -0.354 N 
ATOM     40  C   UNL     1       0.855  -0.960 -10.276  1.00  0.00     0.074 A 
ATOM     41  C   UNL     1       0.704  -2.231  -9.600  1.00  0.00     0.031 C 
ATOM     42  C   UNL     1       0.307   3.317  -5.559  1.00  0.00     0.029 A 
ATOM     43  C   UNL     1       0.644   3.559  -6.963  1.00  0.00     0.049 A 
ATOM     44  H   UNL     1       0.850   2.134  -8.467  1.00  0.00     0.167 HD
ATOM     45  C   UNL     1       1.034  -0.828 -11.613  1.00  0.00     0.037 A 
ATOM     46  C   UNL     1       0.872   4.767  -7.520  1.00  0.00     0.037 A 
ATOM     47  C   UNL     1       1.198   0.422 -12.307  1.00  0.00     0.049 A 
ATOM     48  C   UNL     1       1.157   4.882  -8.999  1.00  0.00     0.074 A 
ATOM     49  C   UNL     1       1.359   0.640 -13.665  1.00  0.00     0.029 A 
ATOM     50  N   UNL     1       1.236   1.666 -11.698  1.00  0.00    -0.354 N 
ATOM     51  N   UNL     1       1.178   3.945  -9.914  1.00  0.00    -0.248 NA
ATOM     52  C   UNL     1       1.441   6.229  -9.521  1.00  0.00     0.031 C 
ATOM     53  C   UNL     1       1.550   2.010 -13.872  1.00  0.00     0.029 A 
ATOM     54  C   UNL     1       1.456   2.651 -12.649  1.00  0.00     0.049 A 
ATOM     55  H   UNL     1       1.125   1.826 -10.733  1.00  0.00     0.167 HD
ATOM     56  C   UNL     1       1.442   4.591 -11.118  1.00  0.00     0.074 A 
ATOM     57  C   UNL     1       1.566   6.000 -10.822  1.00  0.00     0.031 C 
ATOM     58  C   UNL     1       1.566   4.057 -12.358  1.00  0.00     0.037 A 
BRANCH  45  59
ATOM     59  C   UNL     1       1.075  -2.088 -12.427  1.00  0.00     0.064 A 
ATOM     60  C   UNL     1      -0.086  -2.834 -12.678  1.00  0.00     0.173 A 
ATOM     61  C   UNL     1       2.279  -2.530 -12.994  1.00  0.00     0.173 A 
ATOM     62  F   UNL     1      -1.259  -2.454 -12.152  1.00  0.00    -0.203 F 
ATOM     63  C   UNL     1      -0.037  -3.995 -13.446  1.00  0.00     0.198 A 
ATOM     64  C   UNL     1       2.320  -3.677 -13.782  1.00  0.00     0.198 A 
ATOM     65  F   UNL     1       3.415  -1.845 -12.790  1.00  0.00    -0.203 F 
ATOM     66  F   UNL     1      -1.149  -4.716 -13.638  1.00  0.00    -0.200 F 
ATOM     67  C   UNL     1       1.164  -4.412 -14.001  1.00  0.00     0.200 A 
ATOM     68  F   UNL     1       3.478  -4.072 -14.329  1.00  0.00    -0.200 F 
ATOM     69  F   UNL     1       1.209  -5.527 -14.743  1.00  0.00    -0.200 F 
ENDBRANCH  45  59
BRANCH  46  70
ATOM     70  C   UNL     1       0.844   5.995  -6.678  1.00  0.00     0.064 A 
ATOM     71  C   UNL     1      -0.157   6.964  -6.838  1.00  0.00     0.173 A 
ATOM     72  C   UNL     1       1.851   6.248  -5.736  1.00  0.00     0.173 A 
ATOM     73  F   UNL     1      -1.124   6.783  -7.750  1.00  0.00    -0.203 F 
ATOM     74  C   UNL     1      -0.137   8.148  -6.103  1.00  0.00     0.198 A 
ATOM     75  C   UNL     1       1.855   7.420  -4.983  1.00  0.00     0.198 A 
ATOM     76  F   UNL     1       2.836   5.356  -5.550  1.00  0.00    -0.203 F 
ATOM     77  F   UNL     1      -1.075   9.081  -6.314  1.00  0.00    -0.200 F 
ATOM     78  C   UNL     1       0.867   8.373  -5.173  1.00  0.00     0.200 A 
ATOM     79  F   UNL     1       2.824   7.630  -4.081  1.00  0.00    -0.200 F 
ATOM     80  F   UNL     1       0.889   9.514  -4.471  1.00  0.00    -0.200 F 
ENDBRANCH  46  70
BRANCH  58  81
ATOM     81  C   UNL     1       1.821   4.992 -13.507  1.00  0.00     0.064 A 
ATOM     82  C   UNL     1       3.066   5.612 -13.691  1.00  0.00     0.173 A 
ATOM     83  C   UNL     1       0.828   5.217 -14.474  1.00  0.00     0.173 A 
ATOM     84  F   UNL     1       4.044   5.441 -12.789  1.00  0.00    -0.203 F 
ATOM     85  C   UNL     1       3.303   6.432 -14.791  1.00  0.00     0.198 A 
ATOM     86  C   UNL     1       1.077   6.017 -15.587  1.00  0.00     0.198 A 
ATOM     87  F   UNL     1      -0.378   4.644 -14.350  1.00  0.00    -0.203 F 
ATOM     88  F   UNL     1       4.489   7.040 -14.928  1.00  0.00    -0.200 F 
ATOM     89  C   UNL     1       2.312   6.627 -15.743  1.00  0.00     0.200 A 
ATOM     90  F   UNL     1       0.123   6.192 -16.512  1.00  0.00    -0.200 F 
ATOM     91  F   UNL     1       2.547   7.405 -16.808  1.00  0.00    -0.200 F 
ENDBRANCH  58  81
ENDBRANCH  32  33
ENDBRANCH  25  27
ENDBRANCH  24  25
ENDBRANCH  23  24
ENDBRANCH  22  23
ENDBRANCH  21  22
ENDBRANCH   1  21
TORSDOF 18
