REMARK SMILES Cc1cc(-c2ccc(/C=C/C(=O)OCCOCCOC(=O)c3ccc(-c4c5nc(c(-c6c(F)c(F)c(F)c(F)c6F)c6ccc([nH]6)c(-c6c(F)c(F)c(F)c(F)c6F)c6nc(c(-c7c(F)c(F)c(F)c(F)c7F)c7ccc4[nH]7)C=C6)C=C5)cc3)o2)c(C)cc1Br
REMARK SMILES IDX 16 1 15 2 14 3 13 4 11 5 12 6 10 7 9 8 8 9 5 10 6 11 85 12
REMARK SMILES IDX 7 13 4 14 1 15 2 16 3 17 89 18 88 19 90 20 86 21 87 22 17 23
REMARK SMILES IDX 18 24 19 25 20 26 21 27 22 28 23 29 84 30 24 31 83 32 25 33
REMARK SMILES IDX 26 34 27 35 77 36 28 37 82 38 76 39 78 40 29 41 81 42 75 43
REMARK SMILES IDX 74 44 30 46 62 47 42 48 61 49 43 50 46 51 60 52 79 53 44 54
REMARK SMILES IDX 45 55 59 57 80 58 47 59 31 60 32 61 40 62 33 63 34 64 38 65
REMARK SMILES IDX 41 66 35 67 36 68 39 69 37 70 63 71 64 72 72 73 65 74 66 75
REMARK SMILES IDX 70 76 73 77 67 78 68 79 71 80 69 81 48 82 49 83 57 84 50 85
REMARK SMILES IDX 51 86 55 87 58 88 52 89 53 90 56 91 54 92
REMARK H PARENT 78 45 46 56
REMARK Flexibility Score: inf
ROOT
ATOM      1  O   UNL     1      -8.377   7.554  -2.346  1.00  0.00    -0.374 OA
ENDROOT
BRANCH   1   2
ATOM      2  C   UNL     1      -9.477   6.827  -1.806  1.00  0.00     0.202 C 
BRANCH   2   3
ATOM      3  C   UNL     1      -9.372   5.300  -1.782  1.00  0.00     0.261 C 
BRANCH   3   4
ATOM      4  O   UNL     1      -8.256   4.834  -1.006  1.00  0.00    -0.460 OA
BRANCH   4   5
ATOM      5  C   UNL     1      -7.236   4.313  -1.732  1.00  0.00     0.330 C 
ATOM      6  O   UNL     1      -7.213   4.160  -2.944  1.00  0.00    -0.247 OA
BRANCH   5   7
ATOM      7  C   UNL     1      -6.058   4.004  -0.901  1.00  0.00     0.097 C 
ATOM      8  C   UNL     1      -6.058   3.903   0.435  1.00  0.00     0.054 C 
BRANCH   8   9
ATOM      9  C   UNL     1      -4.864   3.531   1.117  1.00  0.00     0.127 A 
ATOM     10  C   UNL     1      -2.714   3.054   1.442  1.00  0.00     0.135 A 
ATOM     11  C   UNL     1      -3.353   2.757   2.623  1.00  0.00     0.051 A 
ATOM     12  O   UNL     1      -3.611   3.528   0.536  1.00  0.00    -0.457 OA
ATOM     13  C   UNL     1      -4.715   3.086   2.425  1.00  0.00     0.051 A 
BRANCH  10  14
ATOM     14  C   UNL     1      -1.342   2.916   0.981  1.00  0.00     0.020 A 
ATOM     15  C   UNL     1       0.956  -0.019   0.185  1.00  0.00     0.045 C 
ATOM     16  C   UNL     1       0.504   1.399   0.399  1.00  0.00    -0.036 A 
ATOM     17  C   UNL     1      -0.823   1.620   0.810  1.00  0.00     0.016 A 
ATOM     18  C   UNL     1       1.310   2.513   0.141  1.00  0.00     0.021 A 
ATOM     19  C   UNL     1       0.807   3.809   0.310  1.00  0.00     0.020 A 
ATOM     20  Br  UNL     1       3.108   2.353  -0.452  1.00  0.00    -0.051 Br
ATOM     21  C   UNL     1      -0.517   4.026   0.729  1.00  0.00    -0.039 A 
ATOM     22  C   UNL     1      -1.016   5.437   0.883  1.00  0.00     0.045 C 
ENDBRANCH  10  14
ENDBRANCH   8   9
ENDBRANCH   5   7
ENDBRANCH   4   5
ENDBRANCH   3   4
ENDBRANCH   2   3
ENDBRANCH   1   2
BRANCH   1  23
ATOM     23  C   UNL     1      -7.212   7.704  -1.536  1.00  0.00     0.202 C 
BRANCH  23  24
ATOM     24  C   UNL     1      -7.283   8.709  -0.378  1.00  0.00     0.261 C 
BRANCH  24  25
ATOM     25  O   UNL     1      -8.232   8.327   0.634  1.00  0.00    -0.460 OA
BRANCH  25  26
ATOM     26  C   UNL     1      -9.357   9.082   0.685  1.00  0.00     0.338 C 
ATOM     27  O   UNL     1      -9.628  10.061   0.008  1.00  0.00    -0.246 OA
BRANCH  26  28
ATOM     28  C   UNL     1     -10.337   8.427   1.573  1.00  0.00     0.060 A 
ATOM     29  C   UNL     1     -10.001   8.065   2.878  1.00  0.00     0.016 A 
ATOM     30  C   UNL     1     -11.628   8.193   1.081  1.00  0.00     0.016 A 
ATOM     31  C   UNL     1     -10.971   7.479   3.696  1.00  0.00     0.010 A 
ATOM     32  C   UNL     1     -12.596   7.612   1.901  1.00  0.00     0.010 A 
ATOM     33  C   UNL     1     -12.278   7.261   3.221  1.00  0.00    -0.014 A 
BRANCH  33  34
ATOM     34  C   UNL     1     -13.326   6.761   4.146  1.00  0.00     0.031 A 
ATOM     35  C   UNL     1     -13.857   5.362   4.046  1.00  0.00     0.074 A 
ATOM     36  C   UNL     1     -13.796   7.592   5.096  1.00  0.00     0.049 A 
ATOM     37  N   UNL     1     -14.693   4.741   4.842  1.00  0.00    -0.248 NA
ATOM     38  C   UNL     1     -13.399   4.554   2.908  1.00  0.00     0.031 C 
ATOM     39  C   UNL     1     -13.387   8.987   5.261  1.00  0.00     0.029 A 
ATOM     40  N   UNL     1     -14.700   7.386   6.107  1.00  0.00    -0.354 N 
ATOM     41  C   UNL     1     -14.842   3.466   4.317  1.00  0.00     0.074 A 
ATOM     42  C   UNL     1     -14.057   3.418   3.101  1.00  0.00     0.031 C 
ATOM     43  C   UNL     1     -14.005   9.499   6.337  1.00  0.00     0.029 A 
ATOM     44  C   UNL     1     -14.875   8.480   6.918  1.00  0.00     0.049 A 
ATOM     45  H   UNL     1     -15.178   6.535   6.239  1.00  0.00     0.167 HD
ATOM     46  C   UNL     1     -15.549   2.426   4.821  1.00  0.00     0.037 A 
ATOM     47  C   UNL     1     -15.643   8.644   8.012  1.00  0.00     0.037 A 
ATOM     48  C   UNL     1     -16.338   2.485   6.026  1.00  0.00     0.049 A 
ATOM     49  C   UNL     1     -16.460   7.487   8.520  1.00  0.00     0.074 A 
ATOM     50  C   UNL     1     -17.053   1.469   6.637  1.00  0.00     0.029 A 
ATOM     51  N   UNL     1     -16.531   3.624   6.794  1.00  0.00    -0.354 N 
ATOM     52  N   UNL     1     -16.518   6.258   8.070  1.00  0.00    -0.248 NA
ATOM     53  C   UNL     1     -17.315   7.739   9.688  1.00  0.00     0.031 C 
ATOM     54  C   UNL     1     -17.726   2.006   7.737  1.00  0.00     0.029 A 
ATOM     55  C   UNL     1     -17.384   3.344   7.850  1.00  0.00     0.049 A 
ATOM     56  H   UNL     1     -16.122   4.502   6.615  1.00  0.00     0.167 HD
ATOM     57  C   UNL     1     -17.400   5.586   8.906  1.00  0.00     0.074 A 
ATOM     58  C   UNL     1     -17.835   6.538   9.907  1.00  0.00     0.031 C 
ATOM     59  C   UNL     1     -17.814   4.298   8.843  1.00  0.00     0.037 A 
BRANCH  46  60
ATOM     60  C   UNL     1     -15.495   1.116   4.088  1.00  0.00     0.064 A 
ATOM     61  C   UNL     1     -14.329   0.335   4.078  1.00  0.00     0.173 A 
ATOM     62  C   UNL     1     -16.640   0.591   3.470  1.00  0.00     0.173 A 
ATOM     63  F   UNL     1     -13.205   0.792   4.651  1.00  0.00    -0.203 F 
ATOM     64  C   UNL     1     -14.307  -0.915   3.465  1.00  0.00     0.198 A 
ATOM     65  C   UNL     1     -16.623  -0.673   2.883  1.00  0.00     0.198 A 
ATOM     66  F   UNL     1     -17.785   1.290   3.460  1.00  0.00    -0.203 F 
ATOM     67  F   UNL     1     -13.173  -1.628   3.442  1.00  0.00    -0.200 F 
ATOM     68  C   UNL     1     -15.456  -1.422   2.878  1.00  0.00     0.200 A 
ATOM     69  F   UNL     1     -17.739  -1.169   2.333  1.00  0.00    -0.200 F 
ATOM     70  F   UNL     1     -15.439  -2.634   2.306  1.00  0.00    -0.200 F 
ENDBRANCH  46  60
BRANCH  47  71
ATOM     71  C   UNL     1     -15.641   9.951   8.721  1.00  0.00     0.064 A 
ATOM     72  C   UNL     1     -15.077  10.076   9.998  1.00  0.00     0.173 A 
ATOM     73  C   UNL     1     -16.177  11.104   8.129  1.00  0.00     0.173 A 
ATOM     74  F   UNL     1     -14.569   8.998  10.614  1.00  0.00    -0.203 F 
ATOM     75  C   UNL     1     -15.058  11.302  10.659  1.00  0.00     0.198 A 
ATOM     76  C   UNL     1     -16.130  12.336   8.778  1.00  0.00     0.198 A 
ATOM     77  F   UNL     1     -16.725  11.039   6.906  1.00  0.00    -0.203 F 
ATOM     78  F   UNL     1     -14.545  11.386  11.894  1.00  0.00    -0.200 F 
ATOM     79  C   UNL     1     -15.576  12.433  10.045  1.00  0.00     0.200 A 
ATOM     80  F   UNL     1     -16.615  13.428   8.173  1.00  0.00    -0.200 F 
ATOM     81  F   UNL     1     -15.544  13.614  10.676  1.00  0.00    -0.200 F 
ENDBRANCH  47  71
BRANCH  59  82
ATOM     82  C   UNL     1     -18.792   3.824   9.880  1.00  0.00     0.064 A 
ATOM     83  C   UNL     1     -20.131   4.241   9.866  1.00  0.00     0.173 A 
ATOM     84  C   UNL     1     -18.412   2.873  10.840  1.00  0.00     0.173 A 
ATOM     85  F   UNL     1     -20.543   5.159   8.979  1.00  0.00    -0.203 F 
ATOM     86  C   UNL     1     -21.051   3.729  10.778  1.00  0.00     0.198 A 
ATOM     87  C   UNL     1     -19.341   2.339  11.729  1.00  0.00     0.198 A 
ATOM     88  F   UNL     1     -17.145   2.434  10.893  1.00  0.00    -0.203 F 
ATOM     89  F   UNL     1     -22.319   4.164  10.764  1.00  0.00    -0.200 F 
ATOM     90  C   UNL     1     -20.659   2.769  11.699  1.00  0.00     0.200 A 
ATOM     91  F   UNL     1     -18.964   1.399  12.607  1.00  0.00    -0.200 F 
ATOM     92  F   UNL     1     -21.552   2.259  12.558  1.00  0.00    -0.200 F 
ENDBRANCH  59  82
ENDBRANCH  33  34
ENDBRANCH  26  28
ENDBRANCH  25  26
ENDBRANCH  24  25
ENDBRANCH  23  24
ENDBRANCH   1  23
TORSDOF 16
