REMARK SMILES O=C(COc1ccccc1Br)Nc1cccc(C(=O)Nc2ccc(C(=O)OCCOCCOC(=O)c3ccc(-c4c5nc(c(-c6c(F)c(F)c(F)c(F)c6F)c6ccc([nH]6)c(-c6c(F)c(F)c(F)c(F)c6F)c6nc(c(-c7c(F)c(F)c(F)c(F)c7F)c7ccc4[nH]7)C=C6)C=C5)cc3)cc2)c1
REMARK SMILES IDX 28 1 27 2 25 3 26 4 24 5 21 6 22 7 100 8 23 9 99 10 20 11
REMARK SMILES IDX 18 12 19 13 17 15 13 16 14 17 101 18 15 19 16 20 12 21 1 22
REMARK SMILES IDX 2 23 3 25 4 26 5 27 6 28 10 29 7 30 9 31 11 32 8 33 29 34
REMARK SMILES IDX 30 35 31 36 32 37 33 38 34 39 35 40 36 41 37 42 98 43 38 44
REMARK SMILES IDX 97 45 39 46 40 47 41 48 91 49 42 50 96 51 90 52 92 53 43 54
REMARK SMILES IDX 95 55 89 56 88 57 44 59 76 60 56 61 75 62 57 63 60 64 74 65
REMARK SMILES IDX 93 66 58 67 59 68 73 70 94 71 61 72 45 73 46 74 54 75 47 76
REMARK SMILES IDX 48 77 52 78 55 79 49 80 50 81 53 82 51 83 77 84 78 85 86 86
REMARK SMILES IDX 79 87 80 88 84 89 87 90 81 91 82 92 85 93 83 94 62 95 63 96
REMARK SMILES IDX 71 97 64 98 65 99 69 100 72 101 66 102 67 103 70 104 68 105
REMARK H PARENT 20 14 12 24 92 58 60 69
REMARK Flexibility Score: inf
ROOT
ATOM      1  C   UNL     1       2.823   1.262  -3.481  1.00  0.00     0.261 C 
ENDROOT
BRANCH   1   2
ATOM      2  O   UNL     1       2.363   0.037  -2.890  1.00  0.00    -0.460 OA
BRANCH   2   3
ATOM      3  C   UNL     1       1.035   0.042  -2.592  1.00  0.00     0.338 C 
ATOM      4  O   UNL     1       0.258   0.954  -2.838  1.00  0.00    -0.246 OA
BRANCH   3   5
ATOM      5  C   UNL     1       0.588  -1.233  -1.975  1.00  0.00     0.060 A 
ATOM      6  C   UNL     1      -0.400  -3.183  -0.257  1.00  0.00     0.041 A 
ATOM      7  C   UNL     1      -1.292  -2.400  -0.989  1.00  0.00     0.027 A 
ATOM      8  C   UNL     1       0.965  -3.155  -0.559  1.00  0.00     0.027 A 
ATOM      9  C   UNL     1      -0.794  -1.404  -1.824  1.00  0.00     0.018 A 
ATOM     10  C   UNL     1       1.466  -2.173  -1.424  1.00  0.00     0.018 A 
BRANCH   6  11
ATOM     11  N   UNL     1      -0.934  -3.858   0.847  1.00  0.00    -0.322 N 
ATOM     12  C   UNL     1      -0.482  -3.964   2.150  1.00  0.00     0.255 C 
ATOM     13  O   UNL     1      -1.119  -4.688   2.920  1.00  0.00    -0.269 OA
ATOM     14  H   UNL     1      -1.774  -4.339   0.666  1.00  0.00     0.170 HD
BRANCH  12  15
ATOM     15  C   UNL     1       0.682  -3.201   2.698  1.00  0.00     0.042 A 
ATOM     16  C   UNL     1       2.327  -1.405   2.632  1.00  0.00     0.042 A 
ATOM     17  C   UNL     1       2.978  -1.971   3.730  1.00  0.00     0.026 A 
ATOM     18  C   UNL     1       1.132  -1.976   2.186  1.00  0.00     0.040 A 
ATOM     19  C   UNL     1       2.459  -3.107   4.349  1.00  0.00     0.003 A 
ATOM     20  C   UNL     1       1.330  -3.733   3.820  1.00  0.00     0.014 A 
BRANCH  16  21
ATOM     21  N   UNL     1       2.962  -0.319   1.995  1.00  0.00    -0.323 N 
ATOM     22  O   UNL     1       1.361   0.394   0.459  1.00  0.00    -0.271 OA
ATOM     23  C   UNL     1       2.488   0.437   0.938  1.00  0.00     0.262 C 
ATOM     24  H   UNL     1       3.849  -0.070   2.344  1.00  0.00     0.170 HD
BRANCH  23  25
ATOM     25  C   UNL     1       3.554   1.364   0.356  1.00  0.00     0.329 C 
BRANCH  25  26
ATOM     26  O   UNL     1       4.058   2.294   1.317  1.00  0.00    -0.483 OA
BRANCH  26  27
ATOM     27  C   UNL     1       3.247   3.401   1.362  1.00  0.00     0.134 A 
ATOM     28  C   UNL     1       3.368   4.362   0.353  1.00  0.00     0.047 A 
ATOM     29  C   UNL     1       2.332   3.590   2.403  1.00  0.00     0.060 A 
ATOM     30  C   UNL     1       2.520   5.470   0.342  1.00  0.00     0.004 A 
ATOM     31  C   UNL     1       1.470   4.688   2.376  1.00  0.00     0.019 A 
ATOM     32  Br  UNL     1       2.230   2.417   3.888  1.00  0.00    -0.047 Br
ATOM     33  C   UNL     1       1.559   5.621   1.342  1.00  0.00     0.001 A 
ENDBRANCH  26  27
ENDBRANCH  25  26
ENDBRANCH  23  25
ENDBRANCH  16  21
ENDBRANCH  12  15
ENDBRANCH   6  11
ENDBRANCH   3   5
ENDBRANCH   2   3
ENDBRANCH   1   2
BRANCH   1  34
ATOM     34  C   UNL     1       3.078   1.189  -4.990  1.00  0.00     0.202 C 
BRANCH  34  35
ATOM     35  O   UNL     1       2.041   0.765  -5.863  1.00  0.00    -0.374 OA
BRANCH  35  36
ATOM     36  C   UNL     1       1.525  -0.555  -5.748  1.00  0.00     0.202 C 
BRANCH  36  37
ATOM     37  C   UNL     1       2.441  -1.755  -6.025  1.00  0.00     0.261 C 
BRANCH  37  38
ATOM     38  O   UNL     1       3.708  -1.725  -5.347  1.00  0.00    -0.460 OA
BRANCH  38  39
ATOM     39  C   UNL     1       4.764  -1.500  -6.165  1.00  0.00     0.338 C 
ATOM     40  O   UNL     1       4.744  -1.318  -7.375  1.00  0.00    -0.246 OA
BRANCH  39  41
ATOM     41  C   UNL     1       6.009  -1.368  -5.391  1.00  0.00     0.060 A 
ATOM     42  C   UNL     1       6.732  -0.175  -5.514  1.00  0.00     0.016 A 
ATOM     43  C   UNL     1       6.540  -2.454  -4.693  1.00  0.00     0.016 A 
ATOM     44  C   UNL     1       8.017  -0.081  -4.984  1.00  0.00     0.010 A 
ATOM     45  C   UNL     1       7.835  -2.362  -4.172  1.00  0.00     0.010 A 
ATOM     46  C   UNL     1       8.593  -1.191  -4.351  1.00  0.00    -0.014 A 
BRANCH  46  47
ATOM     47  C   UNL     1      10.039  -1.175  -4.023  1.00  0.00     0.031 A 
ATOM     48  C   UNL     1      11.012  -1.805  -4.982  1.00  0.00     0.074 A 
ATOM     49  C   UNL     1      10.485  -0.576  -2.905  1.00  0.00     0.049 A 
ATOM     50  N   UNL     1      12.310  -1.942  -4.879  1.00  0.00    -0.248 NA
ATOM     51  C   UNL     1      10.447  -2.352  -6.226  1.00  0.00     0.031 C 
ATOM     52  C   UNL     1       9.647   0.107  -1.923  1.00  0.00     0.029 A 
ATOM     53  N   UNL     1      11.758  -0.456  -2.407  1.00  0.00    -0.354 N 
ATOM     54  C   UNL     1      12.716  -2.585  -6.042  1.00  0.00     0.074 A 
ATOM     55  C   UNL     1      11.525  -2.838  -6.824  1.00  0.00     0.031 C 
ATOM     56  C   UNL     1      10.427   0.560  -0.926  1.00  0.00     0.029 A 
ATOM     57  C   UNL     1      11.813   0.176  -1.189  1.00  0.00     0.049 A 
ATOM     58  H   UNL     1      12.555  -0.790  -2.877  1.00  0.00     0.167 HD
ATOM     59  C   UNL     1      13.969  -2.923  -6.426  1.00  0.00     0.037 A 
ATOM     60  C   UNL     1      12.861   0.395  -0.372  1.00  0.00     0.037 A 
ATOM     61  C   UNL     1      15.154  -2.677  -5.648  1.00  0.00     0.049 A 
ATOM     62  C   UNL     1      14.236  -0.056  -0.793  1.00  0.00     0.074 A 
ATOM     63  C   UNL     1      16.467  -2.994  -5.949  1.00  0.00     0.029 A 
ATOM     64  N   UNL     1      15.166  -2.051  -4.411  1.00  0.00    -0.354 N 
ATOM     65  N   UNL     1      14.610  -0.655  -1.896  1.00  0.00    -0.248 NA
ATOM     66  C   UNL     1      15.337   0.207   0.147  1.00  0.00     0.031 C 
ATOM     67  C   UNL     1      17.271  -2.590  -4.878  1.00  0.00     0.029 A 
ATOM     68  C   UNL     1      16.463  -1.985  -3.930  1.00  0.00     0.049 A 
ATOM     69  H   UNL     1      14.372  -1.706  -3.945  1.00  0.00     0.167 HD
ATOM     70  C   UNL     1      15.986  -0.817  -1.797  1.00  0.00     0.074 A 
ATOM     71  C   UNL     1      16.384  -0.241  -0.530  1.00  0.00     0.031 C 
ATOM     72  C   UNL     1      16.843  -1.393  -2.674  1.00  0.00     0.037 A 
BRANCH  59  73
ATOM     73  C   UNL     1      14.127  -3.608  -7.750  1.00  0.00     0.064 A 
ATOM     74  C   UNL     1      14.009  -2.903  -8.957  1.00  0.00     0.173 A 
ATOM     75  C   UNL     1      14.457  -4.970  -7.813  1.00  0.00     0.173 A 
ATOM     76  F   UNL     1      13.682  -1.602  -8.948  1.00  0.00    -0.203 F 
ATOM     77  C   UNL     1      14.203  -3.540 -10.179  1.00  0.00     0.198 A 
ATOM     78  C   UNL     1      14.672  -5.598  -9.037  1.00  0.00     0.198 A 
ATOM     79  F   UNL     1      14.585  -5.687  -6.687  1.00  0.00    -0.203 F 
ATOM     80  F   UNL     1      14.056  -2.853 -11.321  1.00  0.00    -0.200 F 
ATOM     81  C   UNL     1      14.542  -4.884 -10.218  1.00  0.00     0.200 A 
ATOM     82  F   UNL     1      15.010  -6.895  -9.072  1.00  0.00    -0.200 F 
ATOM     83  F   UNL     1      14.741  -5.493 -11.396  1.00  0.00    -0.200 F 
ENDBRANCH  59  73
BRANCH  60  84
ATOM     84  C   UNL     1      12.654   1.053   0.944  1.00  0.00     0.064 A 
ATOM     85  C   UNL     1      13.161   2.334   1.203  1.00  0.00     0.173 A 
ATOM     86  C   UNL     1      11.976   0.396   1.982  1.00  0.00     0.173 A 
ATOM     87  F   UNL     1      13.838   2.991   0.250  1.00  0.00    -0.203 F 
ATOM     88  C   UNL     1      13.019   2.923   2.458  1.00  0.00     0.198 A 
ATOM     89  C   UNL     1      11.811   0.997   3.227  1.00  0.00     0.198 A 
ATOM     90  F   UNL     1      11.472  -0.831   1.784  1.00  0.00    -0.203 F 
ATOM     91  F   UNL     1      13.559   4.126   2.695  1.00  0.00    -0.200 F 
ATOM     92  C   UNL     1      12.341   2.256   3.468  1.00  0.00     0.200 A 
ATOM     93  F   UNL     1      11.145   0.354   4.196  1.00  0.00    -0.200 F 
ATOM     94  F   UNL     1      12.208   2.821   4.675  1.00  0.00    -0.200 F 
ENDBRANCH  60  84
BRANCH  72  95
ATOM     95  C   UNL     1      18.300  -1.394  -2.316  1.00  0.00     0.064 A 
ATOM     96  C   UNL     1      18.812  -2.245  -1.326  1.00  0.00     0.173 A 
ATOM     97  C   UNL     1      19.200  -0.564  -3.001  1.00  0.00     0.173 A 
ATOM     98  F   UNL     1      17.989  -3.047  -0.634  1.00  0.00    -0.203 F 
ATOM     99  C   UNL     1      20.170  -2.249  -1.020  1.00  0.00     0.198 A 
ATOM    100  C   UNL     1      20.561  -0.588  -2.709  1.00  0.00     0.198 A 
ATOM    101  F   UNL     1      18.760   0.264  -3.960  1.00  0.00    -0.203 F 
ATOM    102  F   UNL     1      20.632  -3.041  -0.042  1.00  0.00    -0.200 F 
ATOM    103  C   UNL     1      21.044  -1.426  -1.716  1.00  0.00     0.200 A 
ATOM    104  F   UNL     1      21.405   0.199  -3.390  1.00  0.00    -0.200 F 
ATOM    105  F   UNL     1      22.352  -1.435  -1.423  1.00  0.00    -0.200 F 
ENDBRANCH  72  95
ENDBRANCH  46  47
ENDBRANCH  39  41
ENDBRANCH  38  39
ENDBRANCH  37  38
ENDBRANCH  36  37
ENDBRANCH  35  36
ENDBRANCH  34  35
ENDBRANCH   1  34
TORSDOF 20
