REMARK SMILES O=C(OCCOCCOC(=O)[C@H]1[C@@H](C(=O)NN2CCOCC2)[C@H]2C=C[C@@H]1CC2)c1ccc(-c2c3nc(c(-c4c(F)c(F)c(F)c(F)c4F)c4ccc([nH]4)c(-c4c(F)c(F)c(F)c(F)c4F)c4nc(c(-c5c(F)c(F)c(F)c(F)c5F)c5ccc2[nH]5)C=C4)C=C3)cc1
REMARK SMILES IDX 6 1 5 2 4 3 3 4 2 5 1 6 29 7 30 8 91 9 31 10 90 11 32 12
REMARK SMILES IDX 33 13 34 14 84 15 35 16 89 17 83 18 85 19 36 20 88 21 82 22
REMARK SMILES IDX 81 23 37 25 69 26 49 27 68 28 50 29 53 30 67 31 86 32 51 33
REMARK SMILES IDX 52 34 66 36 87 37 54 38 38 39 39 40 47 41 40 42 41 43 45 44
REMARK SMILES IDX 48 45 42 46 43 47 46 48 44 49 70 50 71 51 79 52 72 53 73 54
REMARK SMILES IDX 77 55 80 56 74 57 75 58 78 59 76 60 55 61 56 62 64 63 57 64
REMARK SMILES IDX 58 65 62 66 65 67 59 68 60 69 63 70 61 71 7 72 8 73 9 74
REMARK SMILES IDX 10 75 11 76 12 77 13 78 26 79 23 80 25 81 27 82 24 83 28 84
REMARK SMILES IDX 14 85 15 86 16 87 17 89 18 90 22 91 19 92 21 93 20 94
REMARK H PARENT 85 24 53 35 16 88
REMARK Flexibility Score: inf
ROOT
ATOM      1  O   UNL     1       2.145   0.595   4.144  1.00  0.00    -0.374 OA
ENDROOT
BRANCH   1   2
ATOM      2  C   UNL     1       2.595   0.053   2.904  1.00  0.00     0.202 C 
BRANCH   2   3
ATOM      3  C   UNL     1       1.563   0.062   1.772  1.00  0.00     0.261 C 
BRANCH   3   4
ATOM      4  O   UNL     1       1.110   1.396   1.505  1.00  0.00    -0.460 OA
BRANCH   4   5
ATOM      5  C   UNL     1       0.003   2.015   1.973  1.00  0.00     0.338 C 
ATOM      6  O   UNL     1      -0.212   3.167   1.597  1.00  0.00    -0.246 OA
BRANCH   5   7
ATOM      7  C   UNL     1      -0.957   1.413   2.954  1.00  0.00     0.060 A 
ATOM      8  C   UNL     1      -0.684   0.341   3.806  1.00  0.00     0.016 A 
ATOM      9  C   UNL     1      -2.192   2.066   3.110  1.00  0.00     0.016 A 
ATOM     10  C   UNL     1      -1.552  -0.042   4.811  1.00  0.00     0.010 A 
ATOM     11  C   UNL     1      -3.090   1.678   4.107  1.00  0.00     0.010 A 
ATOM     12  C   UNL     1      -2.753   0.632   4.968  1.00  0.00    -0.014 A 
BRANCH  12  13
ATOM     13  C   UNL     1      -3.661   0.141   6.006  1.00  0.00     0.031 A 
ATOM     14  C   UNL     1      -4.708  -0.842   5.609  1.00  0.00     0.074 A 
ATOM     15  C   UNL     1      -3.434   0.486   7.285  1.00  0.00     0.049 A 
ATOM     16  N   UNL     1      -5.664  -1.361   6.325  1.00  0.00    -0.248 NA
ATOM     17  C   UNL     1      -4.662  -1.322   4.216  1.00  0.00     0.031 C 
ATOM     18  C   UNL     1      -2.323   1.322   7.747  1.00  0.00     0.029 A 
ATOM     19  N   UNL     1      -4.111   0.165   8.428  1.00  0.00    -0.354 N 
ATOM     20  C   UNL     1      -6.356  -2.198   5.464  1.00  0.00     0.074 A 
ATOM     21  C   UNL     1      -5.699  -2.144   4.179  1.00  0.00     0.031 C 
ATOM     22  C   UNL     1      -2.407   1.462   9.080  1.00  0.00     0.029 A 
ATOM     23  C   UNL     1      -3.610   0.783   9.547  1.00  0.00     0.049 A 
ATOM     24  H   UNL     1      -4.882  -0.447   8.447  1.00  0.00     0.167 HD
ATOM     25  C   UNL     1      -7.463  -2.921   5.738  1.00  0.00     0.037 A 
ATOM     26  C   UNL     1      -4.118   0.831  10.792  1.00  0.00     0.037 A 
ATOM     27  C   UNL     1      -8.081  -2.940   7.035  1.00  0.00     0.049 A 
ATOM     28  C   UNL     1      -5.411   0.098  11.041  1.00  0.00     0.074 A 
ATOM     29  C   UNL     1      -9.222  -3.601   7.442  1.00  0.00     0.029 A 
ATOM     30  N   UNL     1      -7.595  -2.247   8.137  1.00  0.00    -0.354 N 
ATOM     31  N   UNL     1      -6.101  -0.659  10.220  1.00  0.00    -0.248 NA
ATOM     32  C   UNL     1      -6.013   0.247  12.371  1.00  0.00     0.031 C 
ATOM     33  C   UNL     1      -9.455  -3.267   8.780  1.00  0.00     0.029 A 
ATOM     34  C   UNL     1      -8.435  -2.433   9.218  1.00  0.00     0.049 A 
ATOM     35  H   UNL     1      -6.773  -1.705   8.147  1.00  0.00     0.167 HD
ATOM     36  C   UNL     1      -7.217  -1.076  10.928  1.00  0.00     0.074 A 
ATOM     37  C   UNL     1      -7.095  -0.512  12.259  1.00  0.00     0.031 C 
ATOM     38  C   UNL     1      -8.259  -1.842  10.522  1.00  0.00     0.037 A 
BRANCH  25  39
ATOM     39  C   UNL     1      -8.107  -3.651   4.602  1.00  0.00     0.064 A 
ATOM     40  C   UNL     1      -7.563  -4.825   4.062  1.00  0.00     0.173 A 
ATOM     41  C   UNL     1      -9.284  -3.146   4.030  1.00  0.00     0.173 A 
ATOM     42  F   UNL     1      -6.420  -5.327   4.551  1.00  0.00    -0.203 F 
ATOM     43  C   UNL     1      -8.170  -5.460   2.981  1.00  0.00     0.198 A 
ATOM     44  C   UNL     1      -9.898  -3.794   2.963  1.00  0.00     0.198 A 
ATOM     45  F   UNL     1      -9.833  -2.015   4.500  1.00  0.00    -0.203 F 
ATOM     46  F   UNL     1      -7.611  -6.557   2.450  1.00  0.00    -0.200 F 
ATOM     47  C   UNL     1      -9.338  -4.948   2.436  1.00  0.00     0.200 A 
ATOM     48  F   UNL     1     -11.025  -3.295   2.436  1.00  0.00    -0.200 F 
ATOM     49  F   UNL     1      -9.918  -5.558   1.393  1.00  0.00    -0.200 F 
ENDBRANCH  25  39
BRANCH  26  50
ATOM     50  C   UNL     1      -3.473   1.663  11.842  1.00  0.00     0.064 A 
ATOM     51  C   UNL     1      -2.949   1.094  13.011  1.00  0.00     0.173 A 
ATOM     52  C   UNL     1      -3.391   3.060  11.711  1.00  0.00     0.173 A 
ATOM     53  F   UNL     1      -3.022  -0.232  13.200  1.00  0.00    -0.203 F 
ATOM     54  C   UNL     1      -2.389   1.888  14.012  1.00  0.00     0.198 A 
ATOM     55  C   UNL     1      -2.803   3.849  12.697  1.00  0.00     0.198 A 
ATOM     56  F   UNL     1      -3.882   3.663  10.618  1.00  0.00    -0.203 F 
ATOM     57  F   UNL     1      -1.945   1.321  15.143  1.00  0.00    -0.200 F 
ATOM     58  C   UNL     1      -2.311   3.263  13.852  1.00  0.00     0.200 A 
ATOM     59  F   UNL     1      -2.720   5.176  12.530  1.00  0.00    -0.200 F 
ATOM     60  F   UNL     1      -1.776   4.025  14.816  1.00  0.00    -0.200 F 
ENDBRANCH  26  50
BRANCH  38  61
ATOM     61  C   UNL     1      -9.336  -2.101  11.528  1.00  0.00     0.064 A 
ATOM     62  C   UNL     1     -10.272  -1.111  11.855  1.00  0.00     0.173 A 
ATOM     63  C   UNL     1      -9.476  -3.369  12.108  1.00  0.00     0.173 A 
ATOM     64  F   UNL     1     -10.164   0.121  11.334  1.00  0.00    -0.203 F 
ATOM     65  C   UNL     1     -11.310  -1.381  12.740  1.00  0.00     0.198 A 
ATOM     66  C   UNL     1     -10.531  -3.643  12.970  1.00  0.00     0.198 A 
ATOM     67  F   UNL     1      -8.605  -4.347  11.815  1.00  0.00    -0.203 F 
ATOM     68  F   UNL     1     -12.179  -0.414  13.065  1.00  0.00    -0.200 F 
ATOM     69  C   UNL     1     -11.445  -2.649  13.288  1.00  0.00     0.200 A 
ATOM     70  F   UNL     1     -10.669  -4.871  13.488  1.00  0.00    -0.200 F 
ATOM     71  F   UNL     1     -12.457  -2.912  14.126  1.00  0.00    -0.200 F 
ENDBRANCH  38  61
ENDBRANCH  12  13
ENDBRANCH   5   7
ENDBRANCH   4   5
ENDBRANCH   3   4
ENDBRANCH   2   3
ENDBRANCH   1   2
BRANCH   1  72
ATOM     72  C   UNL     1       2.306   2.007   4.325  1.00  0.00     0.202 C 
BRANCH  72  73
ATOM     73  C   UNL     1       3.148   2.258   5.574  1.00  0.00     0.261 C 
BRANCH  73  74
ATOM     74  O   UNL     1       4.460   1.767   5.283  1.00  0.00    -0.463 OA
BRANCH  74  75
ATOM     75  C   UNL     1       4.678   0.458   5.537  1.00  0.00     0.310 C 
ATOM     76  O   UNL     1       4.063  -0.192   6.370  1.00  0.00    -0.252 OA
BRANCH  75  77
ATOM     77  C   UNL     1       5.626  -0.176   4.517  1.00  0.00     0.119 C 
ATOM     78  C   UNL     1       6.575   0.707   3.620  1.00  0.00     0.101 C 
ATOM     79  C   UNL     1       6.455  -1.273   5.246  1.00  0.00     0.026 C 
ATOM     80  C   UNL     1       8.046   0.345   3.974  1.00  0.00     0.025 C 
ATOM     81  C   UNL     1       7.435  -0.546   6.135  1.00  0.00    -0.027 C 
ATOM     82  C   UNL     1       7.257  -2.054   4.182  1.00  0.00     0.009 C 
ATOM     83  C   UNL     1       8.228   0.318   5.483  1.00  0.00    -0.027 C 
ATOM     84  C   UNL     1       8.275  -1.113   3.496  1.00  0.00     0.009 C 
BRANCH  78  85
ATOM     85  C   UNL     1       6.354   2.219   3.646  1.00  0.00     0.238 C 
ATOM     86  O   UNL     1       6.839   2.957   4.504  1.00  0.00    -0.273 OA
ATOM     87  N   UNL     1       5.459   2.755   2.726  1.00  0.00    -0.288 N 
ATOM     88  H   UNL     1       4.642   3.204   3.041  1.00  0.00     0.185 HD
BRANCH  87  89
ATOM     89  N   UNL     1       5.721   2.656   1.323  1.00  0.00    -0.217 NA
ATOM     90  C   UNL     1       6.191   3.971   0.801  1.00  0.00     0.136 C 
ATOM     91  C   UNL     1       4.539   2.265   0.516  1.00  0.00     0.136 C 
ATOM     92  C   UNL     1       5.074   5.026   0.677  1.00  0.00     0.177 C 
ATOM     93  C   UNL     1       3.453   3.346   0.400  1.00  0.00     0.177 C 
ATOM     94  O   UNL     1       4.000   4.553  -0.142  1.00  0.00    -0.379 OA
ENDBRANCH  87  89
ENDBRANCH  78  85
ENDBRANCH  75  77
ENDBRANCH  74  75
ENDBRANCH  73  74
ENDBRANCH  72  73
ENDBRANCH   1  72
TORSDOF 16
