REMARK SMILES CC(=O)N1C[C@@H]2C[N@H+](CC(=O)NCc3ccccc3)C[C@]2(C(=O)OCCOCCOC(=O)c2ccc(-c3c4nc(c(-c5c(F)c(F)c(F)c(F)c5F)c5ccc([nH]5)c(-c5c(F)c(F)c(F)c(F)c5F)c5nc(c(-c6c(F)c(F)c(F)c(F)c6F)c6ccc3[nH]6)C=C5)C=C4)cc2)C1
REMARK SMILES IDX 26 1 25 2 24 3 22 4 23 5 21 6 4 7 5 8 96 9 6 10 7 11 20 12
REMARK SMILES IDX 8 13 2 15 1 16 3 17 9 18 10 19 11 20 12 21 13 23 14 24 15 25
REMARK SMILES IDX 19 26 16 27 18 28 17 29 27 30 28 31 29 32 30 33 31 34 32 35
REMARK SMILES IDX 33 36 34 37 95 38 35 39 94 40 36 41 37 42 38 43 88 44 39 45
REMARK SMILES IDX 93 46 87 47 89 48 40 49 92 50 86 51 85 52 41 54 73 55 53 56
REMARK SMILES IDX 72 57 54 58 57 59 71 60 90 61 55 62 56 63 70 65 91 66 58 67
REMARK SMILES IDX 42 68 43 69 51 70 44 71 45 72 49 73 52 74 46 75 47 76 50 77
REMARK SMILES IDX 48 78 74 79 75 80 83 81 76 82 77 83 81 84 84 85 78 86 79 87
REMARK SMILES IDX 82 88 80 89 59 90 60 91 68 92 61 93 62 94 66 95 69 96 63 97
REMARK SMILES IDX 64 98 67 99 65 100
REMARK H PARENT 8 14 12 22 89 53 57 64
REMARK Flexibility Score: inf
ROOT
ATOM      1  C   UNL     1       5.971   4.693  -2.213  1.00  0.00     0.202 C 
ENDROOT
BRANCH   1   2
ATOM      2  C   UNL     1       4.802   4.819  -3.184  1.00  0.00     0.261 C 
BRANCH   2   3
ATOM      3  O   UNL     1       3.428   4.608  -2.760  1.00  0.00    -0.463 OA
BRANCH   3   4
ATOM      4  C   UNL     1       2.708   5.066  -1.683  1.00  0.00     0.320 C 
ATOM      5  O   UNL     1       3.133   5.603  -0.675  1.00  0.00    -0.251 OA
BRANCH   4   6
ATOM      6  C   UNL     1       1.214   4.861  -2.054  1.00  0.00     0.144 C 
ATOM      7  N   UNL     1      -0.240   3.249  -0.985  1.00  0.00    -0.341 N 
ATOM      8  C   UNL     1      -1.159   4.103  -1.667  1.00  0.00     0.130 C 
ATOM      9  C   UNL     1       1.022   3.971  -0.765  1.00  0.00     0.144 C 
ATOM     10  C   UNL     1      -0.313   5.325  -1.948  1.00  0.00     0.089 C 
ATOM     11  C   UNL     1      -0.724   5.971  -3.274  1.00  0.00     0.269 C 
ATOM     12  C   UNL     1       1.435   6.268  -2.749  1.00  0.00     0.284 C 
ATOM     13  N   UNL     1       0.561   6.165  -3.932  1.00  0.00    -0.326 N 
ATOM     14  H   UNL     1       0.562   6.959  -4.572  1.00  0.00     0.348 HD
BRANCH   7  15
ATOM     15  C   UNL     1      -0.540   1.911  -0.860  1.00  0.00     0.219 C 
ATOM     16  C   UNL     1       0.370   1.062  -0.027  1.00  0.00     0.114 C 
ATOM     17  O   UNL     1      -1.531   1.408  -1.392  1.00  0.00    -0.275 OA
ENDBRANCH   7  15
BRANCH  13  18
ATOM     18  C   UNL     1       0.998   5.039  -4.857  1.00  0.00     0.363 C 
BRANCH  18  19
ATOM     19  C   UNL     1       0.409   3.627  -4.593  1.00  0.00     0.275 C 
ATOM     20  O   UNL     1      -0.770   3.394  -4.885  1.00  0.00    -0.268 OA
ATOM     21  N   UNL     1       1.092   2.606  -3.981  1.00  0.00    -0.347 N 
ATOM     22  H   UNL     1       0.561   2.084  -3.337  1.00  0.00     0.164 HD
BRANCH  21  23
ATOM     23  C   UNL     1       2.475   2.168  -4.125  1.00  0.00     0.151 C 
BRANCH  23  24
ATOM     24  C   UNL     1       3.001   1.306  -2.978  1.00  0.00    -0.029 A 
ATOM     25  C   UNL     1       2.809  -0.080  -2.980  1.00  0.00     0.005 A 
ATOM     26  C   UNL     1       3.716   1.817  -1.882  1.00  0.00     0.005 A 
ATOM     27  C   UNL     1       3.301  -0.887  -1.936  1.00  0.00     0.000 A 
ATOM     28  C   UNL     1       4.191   1.031  -0.828  1.00  0.00     0.000 A 
ATOM     29  C   UNL     1       3.982  -0.332  -0.855  1.00  0.00     0.000 A 
ENDBRANCH  23  24
ENDBRANCH  21  23
ENDBRANCH  18  19
ENDBRANCH  13  18
ENDBRANCH   4   6
ENDBRANCH   3   4
ENDBRANCH   2   3
ENDBRANCH   1   2
BRANCH   1  30
ATOM     30  O   UNL     1       5.699   5.165  -0.914  1.00  0.00    -0.374 OA
BRANCH  30  31
ATOM     31  C   UNL     1       6.221   6.456  -0.611  1.00  0.00     0.202 C 
BRANCH  31  32
ATOM     32  C   UNL     1       5.429   7.636  -1.196  1.00  0.00     0.261 C 
BRANCH  32  33
ATOM     33  O   UNL     1       5.367   7.682  -2.634  1.00  0.00    -0.460 OA
BRANCH  33  34
ATOM     34  C   UNL     1       6.533   7.941  -3.272  1.00  0.00     0.338 C 
ATOM     35  O   UNL     1       7.618   8.119  -2.765  1.00  0.00    -0.246 OA
BRANCH  34  36
ATOM     36  C   UNL     1       6.320   7.837  -4.735  1.00  0.00     0.060 A 
ATOM     37  C   UNL     1       7.187   7.025  -5.475  1.00  0.00     0.016 A 
ATOM     38  C   UNL     1       5.327   8.580  -5.380  1.00  0.00     0.016 A 
ATOM     39  C   UNL     1       7.109   7.006  -6.870  1.00  0.00     0.010 A 
ATOM     40  C   UNL     1       5.259   8.571  -6.778  1.00  0.00     0.010 A 
ATOM     41  C   UNL     1       6.178   7.819  -7.531  1.00  0.00    -0.014 A 
BRANCH  41  42
ATOM     42  C   UNL     1       6.289   8.039  -8.996  1.00  0.00     0.031 A 
ATOM     43  C   UNL     1       7.039   9.250  -9.485  1.00  0.00     0.074 A 
ATOM     44  C   UNL     1       5.742   7.189  -9.881  1.00  0.00     0.049 A 
ATOM     45  N   UNL     1       7.210   9.689 -10.706  1.00  0.00    -0.248 NA
ATOM     46  C   UNL     1       7.684  10.077  -8.453  1.00  0.00     0.031 C 
ATOM     47  C   UNL     1       5.026   5.962  -9.543  1.00  0.00     0.029 A 
ATOM     48  N   UNL     1       5.691   7.242 -11.253  1.00  0.00    -0.354 N 
ATOM     49  C   UNL     1       7.971  10.845 -10.588  1.00  0.00     0.074 A 
ATOM     50  C   UNL     1       8.213  11.052  -9.177  1.00  0.00     0.031 C 
ATOM     51  C   UNL     1       4.587   5.388 -10.677  1.00  0.00     0.029 A 
ATOM     52  C   UNL     1       4.963   6.224 -11.817  1.00  0.00     0.049 A 
ATOM     53  H   UNL     1       6.135   7.944 -11.782  1.00  0.00     0.167 HD
ATOM     54  C   UNL     1       8.431  11.659 -11.568  1.00  0.00     0.037 A 
ATOM     55  C   UNL     1       4.615   6.010 -13.102  1.00  0.00     0.037 A 
ATOM     56  C   UNL     1       8.189  11.459 -12.972  1.00  0.00     0.049 A 
ATOM     57  C   UNL     1       5.077   6.971 -14.169  1.00  0.00     0.074 A 
ATOM     58  C   UNL     1       8.631  12.218 -14.041  1.00  0.00     0.029 A 
ATOM     59  N   UNL     1       7.428  10.428 -13.500  1.00  0.00    -0.354 N 
ATOM     60  N   UNL     1       5.821   8.044 -14.052  1.00  0.00    -0.248 NA
ATOM     61  C   UNL     1       4.651   6.688 -15.549  1.00  0.00     0.031 C 
ATOM     62  C   UNL     1       8.096  11.675 -15.213  1.00  0.00     0.029 A 
ATOM     63  C   UNL     1       7.365  10.547 -14.879  1.00  0.00     0.049 A 
ATOM     64  H   UNL     1       6.997   9.716 -12.974  1.00  0.00     0.167 HD
ATOM     65  C   UNL     1       5.975   8.547 -15.339  1.00  0.00     0.074 A 
ATOM     66  C   UNL     1       5.255   7.657 -16.224  1.00  0.00     0.031 C 
ATOM     67  C   UNL     1       6.654   9.646 -15.750  1.00  0.00     0.037 A 
BRANCH  54  68
ATOM     68  C   UNL     1       9.220  12.866 -11.150  1.00  0.00     0.064 A 
ATOM     69  C   UNL     1      10.527  12.757 -10.654  1.00  0.00     0.173 A 
ATOM     70  C   UNL     1       8.670  14.150 -11.278  1.00  0.00     0.173 A 
ATOM     71  F   UNL     1      11.092  11.550 -10.499  1.00  0.00    -0.203 F 
ATOM     72  C   UNL     1      11.246  13.889 -10.277  1.00  0.00     0.198 A 
ATOM     73  C   UNL     1       9.401  15.281 -10.925  1.00  0.00     0.198 A 
ATOM     74  F   UNL     1       7.424  14.309 -11.750  1.00  0.00    -0.203 F 
ATOM     75  F   UNL     1      12.477  13.758  -9.763  1.00  0.00    -0.200 F 
ATOM     76  C   UNL     1      10.685  15.149 -10.419  1.00  0.00     0.200 A 
ATOM     77  F   UNL     1       8.861  16.499 -11.073  1.00  0.00    -0.200 F 
ATOM     78  F   UNL     1      11.380  16.238 -10.060  1.00  0.00    -0.200 F 
ENDBRANCH  54  68
BRANCH  55  79
ATOM     79  C   UNL     1       3.762   4.845 -13.455  1.00  0.00     0.064 A 
ATOM     80  C   UNL     1       4.271   3.771 -14.198  1.00  0.00     0.173 A 
ATOM     81  C   UNL     1       2.413   4.792 -13.072  1.00  0.00     0.173 A 
ATOM     82  F   UNL     1       5.546   3.789 -14.613  1.00  0.00    -0.203 F 
ATOM     83  C   UNL     1       3.460   2.696 -14.556  1.00  0.00     0.198 A 
ATOM     84  C   UNL     1       1.611   3.703 -13.407  1.00  0.00     0.198 A 
ATOM     85  F   UNL     1       1.877   5.796 -12.364  1.00  0.00    -0.203 F 
ATOM     86  F   UNL     1       3.961   1.703 -15.304  1.00  0.00    -0.200 F 
ATOM     87  C   UNL     1       2.133   2.659 -14.155  1.00  0.00     0.200 A 
ATOM     88  F   UNL     1       0.333   3.668 -13.008  1.00  0.00    -0.200 F 
ATOM     89  F   UNL     1       1.356   1.622 -14.496  1.00  0.00    -0.200 F 
ENDBRANCH  55  79
BRANCH  67  90
ATOM     90  C   UNL     1       6.691   9.931 -17.224  1.00  0.00     0.064 A 
ATOM     91  C   UNL     1       5.570  10.422 -17.908  1.00  0.00     0.173 A 
ATOM     92  C   UNL     1       7.883   9.766 -17.947  1.00  0.00     0.173 A 
ATOM     93  F   UNL     1       4.404  10.585 -17.265  1.00  0.00    -0.203 F 
ATOM     94  C   UNL     1       5.636  10.721 -19.267  1.00  0.00     0.198 A 
ATOM     95  C   UNL     1       7.953  10.092 -19.298  1.00  0.00     0.198 A 
ATOM     96  F   UNL     1       8.986   9.307 -17.337  1.00  0.00    -0.203 F 
ATOM     97  F   UNL     1       4.543  11.154 -19.910  1.00  0.00    -0.200 F 
ATOM     98  C   UNL     1       6.829  10.564 -19.958  1.00  0.00     0.200 A 
ATOM     99  F   UNL     1       9.109   9.953 -19.961  1.00  0.00    -0.200 F 
ATOM    100  F   UNL     1       6.893  10.863 -21.263  1.00  0.00    -0.200 F 
ENDBRANCH  67  90
ENDBRANCH  41  42
ENDBRANCH  34  36
ENDBRANCH  33  34
ENDBRANCH  32  33
ENDBRANCH  31  32
ENDBRANCH  30  31
ENDBRANCH   1  30
TORSDOF 19
