REMARK SMILES O=C(OCCOCCOC(=O)[C@@H]1C[C@@H]1C(=O)N1CCN(c2ncc(C(F)(F)F)cc2Cl)CC1)c1ccc(-c2c3nc(c(-c4c(F)c(F)c(F)c(F)c4F)c4ccc([nH]4)c(-c4c(F)c(F)c(F)c(F)c4F)c4nc(c(-c5c(F)c(F)c(F)c(F)c5F)c5ccc2[nH]5)C=C4)C=C3)cc1
REMARK SMILES IDX 7 1 6 2 5 3 4 4 3 5 2 6 1 7 34 8 35 9 96 10 36 11 95 12
REMARK SMILES IDX 37 13 38 14 39 15 89 16 40 17 94 18 88 19 90 20 41 21 93 22
REMARK SMILES IDX 87 23 86 24 42 26 74 27 54 28 73 29 55 30 58 31 72 32 91 33
REMARK SMILES IDX 56 34 57 35 71 37 92 38 59 39 43 40 44 41 52 42 45 43 46 44
REMARK SMILES IDX 50 45 53 46 47 47 48 48 51 49 49 50 75 51 76 52 84 53 77 54
REMARK SMILES IDX 78 55 82 56 85 57 79 58 80 59 83 60 81 61 60 62 61 63 69 64
REMARK SMILES IDX 62 65 63 66 67 67 70 68 64 69 65 70 68 71 66 72 8 73 9 74
REMARK SMILES IDX 10 75 11 76 12 77 13 78 14 79 15 80 16 81 17 82 18 83 33 84
REMARK SMILES IDX 19 85 32 86 20 87 21 88 22 89 30 90 23 91 29 92 31 93 24 94
REMARK SMILES IDX 25 95 26 96 27 97 28 98
REMARK H PARENT 90 25 58 36
REMARK Flexibility Score: inf
ROOT
ATOM      1  C   UNL     1       2.780  -0.500  -2.181  1.00  0.00     0.202 C 
ENDROOT
BRANCH   1   2
ATOM      2  O   UNL     1       4.154  -0.404  -1.773  1.00  0.00    -0.374 OA
BRANCH   2   3
ATOM      3  C   UNL     1       4.561  -1.322  -0.754  1.00  0.00     0.202 C 
BRANCH   3   4
ATOM      4  C   UNL     1       4.208  -0.956   0.693  1.00  0.00     0.261 C 
BRANCH   4   5
ATOM      5  O   UNL     1       2.805  -0.675   0.839  1.00  0.00    -0.460 OA
BRANCH   5   6
ATOM      6  C   UNL     1       2.204   0.532   0.944  1.00  0.00     0.338 C 
ATOM      7  O   UNL     1       0.993   0.587   1.146  1.00  0.00    -0.246 OA
BRANCH   6   8
ATOM      8  C   UNL     1       2.958   1.816   0.860  1.00  0.00     0.060 A 
ATOM      9  C   UNL     1       4.133   1.993   0.132  1.00  0.00     0.016 A 
ATOM     10  C   UNL     1       2.405   2.935   1.502  1.00  0.00     0.016 A 
ATOM     11  C   UNL     1       4.804   3.200   0.115  1.00  0.00     0.010 A 
ATOM     12  C   UNL     1       3.040   4.179   1.441  1.00  0.00     0.010 A 
ATOM     13  C   UNL     1       4.256   4.301   0.762  1.00  0.00    -0.014 A 
BRANCH  13  14
ATOM     14  C   UNL     1       5.045   5.542   0.757  1.00  0.00     0.031 A 
ATOM     15  C   UNL     1       5.804   5.910   1.989  1.00  0.00     0.074 A 
ATOM     16  C   UNL     1       5.191   6.212  -0.399  1.00  0.00     0.049 A 
ATOM     17  N   UNL     1       6.574   6.941   2.208  1.00  0.00    -0.248 NA
ATOM     18  C   UNL     1       5.700   4.979   3.126  1.00  0.00     0.031 C 
ATOM     19  C   UNL     1       4.581   5.829  -1.675  1.00  0.00     0.029 A 
ATOM     20  N   UNL     1       5.928   7.323  -0.701  1.00  0.00    -0.354 N 
ATOM     21  C   UNL     1       7.023   6.799   3.512  1.00  0.00     0.074 A 
ATOM     22  C   UNL     1       6.444   5.583   4.039  1.00  0.00     0.031 C 
ATOM     23  C   UNL     1       4.998   6.674  -2.630  1.00  0.00     0.029 A 
ATOM     24  C   UNL     1       5.843   7.693  -2.020  1.00  0.00     0.049 A 
ATOM     25  H   UNL     1       6.468   7.810  -0.037  1.00  0.00     0.167 HD
ATOM     26  C   UNL     1       7.841   7.626   4.202  1.00  0.00     0.037 A 
ATOM     27  C   UNL     1       6.371   8.759  -2.647  1.00  0.00     0.037 A 
ATOM     28  C   UNL     1       8.394   8.830   3.646  1.00  0.00     0.049 A 
ATOM     29  C   UNL     1       7.200   9.712  -1.831  1.00  0.00     0.074 A 
ATOM     30  C   UNL     1       9.175   9.792   4.258  1.00  0.00     0.029 A 
ATOM     31  N   UNL     1       8.217   9.233   2.327  1.00  0.00    -0.354 N 
ATOM     32  N   UNL     1       7.562   9.621  -0.572  1.00  0.00    -0.248 NA
ATOM     33  C   UNL     1       7.674  10.923  -2.509  1.00  0.00     0.031 C 
ATOM     34  C   UNL     1       9.436  10.797   3.319  1.00  0.00     0.029 A 
ATOM     35  C   UNL     1       8.856  10.440   2.110  1.00  0.00     0.049 A 
ATOM     36  H   UNL     1       7.710   8.732   1.647  1.00  0.00     0.167 HD
ATOM     37  C   UNL     1       8.310  10.757  -0.306  1.00  0.00     0.074 A 
ATOM     38  C   UNL     1       8.371  11.510  -1.545  1.00  0.00     0.031 C 
ATOM     39  C   UNL     1       8.888  11.152   0.856  1.00  0.00     0.037 A 
BRANCH  26  40
ATOM     40  C   UNL     1       8.097   7.281   5.638  1.00  0.00     0.064 A 
ATOM     41  C   UNL     1       8.912   6.201   6.010  1.00  0.00     0.173 A 
ATOM     42  C   UNL     1       7.470   8.013   6.658  1.00  0.00     0.173 A 
ATOM     43  F   UNL     1       9.508   5.450   5.071  1.00  0.00    -0.203 F 
ATOM     44  C   UNL     1       9.062   5.846   7.349  1.00  0.00     0.198 A 
ATOM     45  C   UNL     1       7.642   7.670   7.996  1.00  0.00     0.198 A 
ATOM     46  F   UNL     1       6.673   9.048   6.355  1.00  0.00    -0.203 F 
ATOM     47  F   UNL     1       9.793   4.772   7.678  1.00  0.00    -0.200 F 
ATOM     48  C   UNL     1       8.429   6.582   8.340  1.00  0.00     0.200 A 
ATOM     49  F   UNL     1       7.029   8.382   8.952  1.00  0.00    -0.200 F 
ATOM     50  F   UNL     1       8.562   6.230   9.626  1.00  0.00    -0.200 F 
ENDBRANCH  26  40
BRANCH  27  51
ATOM     51  C   UNL     1       6.092   8.992  -4.088  1.00  0.00     0.064 A 
ATOM     52  C   UNL     1       7.112   8.931  -5.046  1.00  0.00     0.173 A 
ATOM     53  C   UNL     1       4.792   9.269  -4.539  1.00  0.00     0.173 A 
ATOM     54  F   UNL     1       8.376   8.692  -4.666  1.00  0.00    -0.203 F 
ATOM     55  C   UNL     1       6.844   9.147  -6.398  1.00  0.00     0.198 A 
ATOM     56  C   UNL     1       4.520   9.455  -5.893  1.00  0.00     0.198 A 
ATOM     57  F   UNL     1       3.778   9.342  -3.664  1.00  0.00    -0.203 F 
ATOM     58  F   UNL     1       7.844   9.121  -7.289  1.00  0.00    -0.200 F 
ATOM     59  C   UNL     1       5.548   9.400  -6.821  1.00  0.00     0.200 A 
ATOM     60  F   UNL     1       3.263   9.686  -6.296  1.00  0.00    -0.200 F 
ATOM     61  F   UNL     1       5.290   9.600  -8.120  1.00  0.00    -0.200 F 
ENDBRANCH  27  51
BRANCH  39  62
ATOM     62  C   UNL     1       9.641  12.446   0.824  1.00  0.00     0.064 A 
ATOM     63  C   UNL     1       8.973  13.678   0.790  1.00  0.00     0.173 A 
ATOM     64  C   UNL     1      11.042  12.451   0.876  1.00  0.00     0.173 A 
ATOM     65  F   UNL     1       7.634  13.718   0.723  1.00  0.00    -0.203 F 
ATOM     66  C   UNL     1       9.685  14.873   0.790  1.00  0.00     0.198 A 
ATOM     67  C   UNL     1      11.749  13.648   0.903  1.00  0.00     0.198 A 
ATOM     68  F   UNL     1      11.722  11.295   0.915  1.00  0.00    -0.203 F 
ATOM     69  F   UNL     1       9.030  16.040   0.717  1.00  0.00    -0.200 F 
ATOM     70  C   UNL     1      11.070  14.857   0.854  1.00  0.00     0.200 A 
ATOM     71  F   UNL     1      13.087  13.632   0.976  1.00  0.00    -0.200 F 
ATOM     72  F   UNL     1      11.754  16.009   0.863  1.00  0.00    -0.200 F 
ENDBRANCH  39  62
ENDBRANCH  13  14
ENDBRANCH   6   8
ENDBRANCH   5   6
ENDBRANCH   4   5
ENDBRANCH   3   4
ENDBRANCH   2   3
ENDBRANCH   1   2
BRANCH   1  73
ATOM     73  C   UNL     1       2.670  -0.818  -3.679  1.00  0.00     0.261 C 
BRANCH  73  74
ATOM     74  O   UNL     1       3.267  -2.095  -3.943  1.00  0.00    -0.463 OA
BRANCH  74  75
ATOM     75  C   UNL     1       4.591  -2.056  -4.194  1.00  0.00     0.309 C 
ATOM     76  O   UNL     1       5.176  -1.167  -4.798  1.00  0.00    -0.252 OA
BRANCH  75  77
ATOM     77  C   UNL     1       5.357  -3.167  -3.578  1.00  0.00     0.112 C 
ATOM     78  C   UNL     1       5.241  -4.578  -4.071  1.00  0.00     0.030 C 
ATOM     79  C   UNL     1       4.837  -4.244  -2.646  1.00  0.00     0.094 C 
BRANCH  79  80
ATOM     80  C   UNL     1       3.421  -4.500  -2.265  1.00  0.00     0.226 C 
ATOM     81  O   UNL     1       2.637  -3.593  -2.023  1.00  0.00    -0.275 OA
ATOM     82  N   UNL     1       3.037  -5.813  -2.198  1.00  0.00    -0.339 N 
ATOM     83  C   UNL     1       1.628  -6.139  -2.436  1.00  0.00     0.141 C 
ATOM     84  C   UNL     1       3.929  -6.956  -1.977  1.00  0.00     0.141 C 
ATOM     85  C   UNL     1       1.526  -7.115  -3.623  1.00  0.00     0.139 C 
ATOM     86  C   UNL     1       3.797  -7.992  -3.102  1.00  0.00     0.139 C 
ATOM     87  N   UNL     1       2.377  -8.267  -3.321  1.00  0.00    -0.352 N 
BRANCH  87  88
ATOM     88  C   UNL     1       1.987  -9.508  -3.759  1.00  0.00     0.147 A 
ATOM     89  N   UNL     1       1.538  -9.608  -5.031  1.00  0.00    -0.237 NA
ATOM     90  C   UNL     1       1.988 -10.616  -2.895  1.00  0.00     0.084 A 
ATOM     91  C   UNL     1       1.096 -10.812  -5.460  1.00  0.00     0.126 A 
ATOM     92  C   UNL     1       1.512 -11.839  -3.355  1.00  0.00     0.039 A 
ATOM     93  Cl  UNL     1       2.469 -10.505  -1.236  1.00  0.00    -0.080 Cl
ATOM     94  C   UNL     1       1.050 -11.948  -4.666  1.00  0.00     0.075 A 
BRANCH  94  95
ATOM     95  C   UNL     1       0.513 -13.226  -5.223  1.00  0.00     0.417 C 
ATOM     96  F   UNL     1      -0.724 -13.077  -5.770  1.00  0.00    -0.166 F 
ATOM     97  F   UNL     1       1.303 -13.733  -6.207  1.00  0.00    -0.166 F 
ATOM     98  F   UNL     1       0.395 -14.210  -4.291  1.00  0.00    -0.166 F 
ENDBRANCH  94  95
ENDBRANCH  87  88
ENDBRANCH  79  80
ENDBRANCH  75  77
ENDBRANCH  74  75
ENDBRANCH  73  74
ENDBRANCH   1  73
TORSDOF 17
