REMARK SMILES Cn1ncc(SCC(=O)OCCOCCOC(=O)c2ccc(-c3c4nc(c(-c5c(F)c(F)c(F)c(F)c5F)c5ccc([nH]5)c(-c5c(F)c(F)c(F)c(F)c5F)c5nc(c(-c6c(F)c(F)c(F)c(F)c6F)c6ccc3[nH]6)C=C5)C=C4)cc2)c(Cl)c1=O
REMARK SMILES IDX 13 1 12 2 11 3 10 4 8 5 9 6 7 7 6 8 5 9 1 10 2 11 3 12 84 13
REMARK SMILES IDX 4 14 82 15 85 16 83 17 14 18 15 19 16 20 17 21 18 22 19 23
REMARK SMILES IDX 20 24 81 25 21 26 80 27 22 28 23 29 24 30 74 31 25 32 79 33
REMARK SMILES IDX 73 34 75 35 26 36 78 37 72 38 71 39 27 41 59 42 39 43 58 44
REMARK SMILES IDX 40 45 43 46 57 47 76 48 41 49 42 50 56 52 77 53 44 54 28 55
REMARK SMILES IDX 29 56 37 57 30 58 31 59 35 60 38 61 32 62 33 63 36 64 34 65
REMARK SMILES IDX 60 66 61 67 69 68 62 69 63 70 67 71 70 72 64 73 65 74 68 75
REMARK SMILES IDX 66 76 45 77 46 78 54 79 47 80 48 81 52 82 55 83 49 84 50 85
REMARK SMILES IDX 53 86 51 87
REMARK H PARENT 75 40 43 51
REMARK Flexibility Score: inf
ROOT
ATOM      1  O   UNL     1       0.511   5.566   3.223  1.00  0.00    -0.374 OA
ENDROOT
BRANCH   1   2
ATOM      2  C   UNL     1      -0.653   6.384   3.185  1.00  0.00     0.202 C 
BRANCH   2   3
ATOM      3  C   UNL     1      -0.704   7.479   2.115  1.00  0.00     0.261 C 
BRANCH   3   4
ATOM      4  O   UNL     1      -0.730   6.987   0.757  1.00  0.00    -0.463 OA
BRANCH   4   5
ATOM      5  C   UNL     1       0.346   7.330  -0.008  1.00  0.00     0.316 C 
ATOM      6  O   UNL     1       1.338   7.912   0.422  1.00  0.00    -0.251 OA
BRANCH   5   7
ATOM      7  C   UNL     1       0.169   7.068  -1.485  1.00  0.00     0.197 C 
BRANCH   7   8
ATOM      8  S   UNL     1      -0.755   5.615  -1.989  1.00  0.00    -0.111 SA
BRANCH   8   9
ATOM      9  C   UNL     1       0.088   4.159  -1.598  1.00  0.00     0.052 A 
ATOM     10  C   UNL     1       1.020   0.196  -0.361  1.00  0.00     0.178 C 
ATOM     11  N   UNL     1       0.776   1.525  -0.902  1.00  0.00    -0.232 N 
ATOM     12  N   UNL     1      -0.494   1.752  -1.350  1.00  0.00    -0.177 NA
ATOM     13  C   UNL     1       1.770   2.495  -0.872  1.00  0.00     0.286 A 
ATOM     14  C   UNL     1      -0.791   2.964  -1.680  1.00  0.00     0.150 A 
ATOM     15  C   UNL     1       1.364   3.881  -1.298  1.00  0.00     0.123 A 
ATOM     16  O   UNL     1       2.907   2.271  -0.457  1.00  0.00    -0.266 OA
ATOM     17  Cl  UNL     1       2.648   5.037  -1.263  1.00  0.00    -0.077 Cl
ENDBRANCH   8   9
ENDBRANCH   7   8
ENDBRANCH   5   7
ENDBRANCH   4   5
ENDBRANCH   3   4
ENDBRANCH   2   3
ENDBRANCH   1   2
BRANCH   1  18
ATOM     18  C   UNL     1       0.682   4.621   2.170  1.00  0.00     0.202 C 
BRANCH  18  19
ATOM     19  C   UNL     1      -0.264   3.417   2.189  1.00  0.00     0.261 C 
BRANCH  19  20
ATOM     20  O   UNL     1      -1.635   3.807   2.001  1.00  0.00    -0.460 OA
BRANCH  20  21
ATOM     21  C   UNL     1      -2.484   3.283   2.909  1.00  0.00     0.338 C 
ATOM     22  O   UNL     1      -2.247   2.424   3.755  1.00  0.00    -0.246 OA
BRANCH  21  23
ATOM     23  C   UNL     1      -3.762   3.998   2.878  1.00  0.00     0.060 A 
ATOM     24  C   UNL     1      -4.069   4.833   3.960  1.00  0.00     0.016 A 
ATOM     25  C   UNL     1      -4.705   3.733   1.883  1.00  0.00     0.016 A 
ATOM     26  C   UNL     1      -5.347   5.367   4.080  1.00  0.00     0.010 A 
ATOM     27  C   UNL     1      -5.994   4.257   2.014  1.00  0.00     0.010 A 
ATOM     28  C   UNL     1      -6.328   5.036   3.136  1.00  0.00    -0.014 A 
BRANCH  28  29
ATOM     29  C   UNL     1      -7.744   5.332   3.449  1.00  0.00     0.031 A 
ATOM     30  C   UNL     1      -8.552   4.283   4.161  1.00  0.00     0.074 A 
ATOM     31  C   UNL     1      -8.273   6.534   3.164  1.00  0.00     0.049 A 
ATOM     32  N   UNL     1      -9.794   4.328   4.571  1.00  0.00    -0.248 NA
ATOM     33  C   UNL     1      -7.865   3.015   4.462  1.00  0.00     0.031 C 
ATOM     34  C   UNL     1      -7.561   7.638   2.526  1.00  0.00     0.029 A 
ATOM     35  N   UNL     1      -9.534   7.027   3.386  1.00  0.00    -0.354 N 
ATOM     36  C   UNL     1     -10.027   3.107   5.191  1.00  0.00     0.074 A 
ATOM     37  C   UNL     1      -8.818   2.326   5.072  1.00  0.00     0.031 C 
ATOM     38  C   UNL     1      -8.397   8.683   2.406  1.00  0.00     0.029 A 
ATOM     39  C   UNL     1      -9.707   8.312   2.939  1.00  0.00     0.049 A 
ATOM     40  H   UNL     1     -10.246   6.508   3.825  1.00  0.00     0.167 HD
ATOM     41  C   UNL     1     -11.149   2.686   5.819  1.00  0.00     0.037 A 
ATOM     42  C   UNL     1     -10.806   9.092   2.955  1.00  0.00     0.037 A 
ATOM     43  C   UNL     1     -12.354   3.463   5.920  1.00  0.00     0.049 A 
ATOM     44  C   UNL     1     -12.074   8.558   3.569  1.00  0.00     0.074 A 
ATOM     45  C   UNL     1     -13.552   3.125   6.524  1.00  0.00     0.029 A 
ATOM     46  N   UNL     1     -12.513   4.737   5.394  1.00  0.00    -0.354 N 
ATOM     47  N   UNL     1     -12.283   7.410   4.167  1.00  0.00    -0.248 NA
ATOM     48  C   UNL     1     -13.258   9.428   3.512  1.00  0.00     0.031 C 
ATOM     49  C   UNL     1     -14.451   4.176   6.324  1.00  0.00     0.029 A 
ATOM     50  C   UNL     1     -13.798   5.190   5.639  1.00  0.00     0.049 A 
ATOM     51  H   UNL     1     -11.816   5.244   4.919  1.00  0.00     0.167 HD
ATOM     52  C   UNL     1     -13.609   7.428   4.578  1.00  0.00     0.074 A 
ATOM     53  C   UNL     1     -14.154   8.707   4.172  1.00  0.00     0.031 C 
ATOM     54  C   UNL     1     -14.314   6.471   5.231  1.00  0.00     0.037 A 
BRANCH  41  55
ATOM     55  C   UNL     1     -11.132   1.322   6.441  1.00  0.00     0.064 A 
ATOM     56  C   UNL     1     -10.425   1.070   7.627  1.00  0.00     0.173 A 
ATOM     57  C   UNL     1     -11.876   0.273   5.882  1.00  0.00     0.173 A 
ATOM     58  F   UNL     1      -9.687   2.037   8.191  1.00  0.00    -0.203 F 
ATOM     59  C   UNL     1     -10.459  -0.187   8.226  1.00  0.00     0.198 A 
ATOM     60  C   UNL     1     -11.926  -0.976   6.497  1.00  0.00     0.198 A 
ATOM     61  F   UNL     1     -12.568   0.464   4.749  1.00  0.00    -0.203 F 
ATOM     62  F   UNL     1      -9.756  -0.414   9.344  1.00  0.00    -0.200 F 
ATOM     63  C   UNL     1     -11.216  -1.205   7.666  1.00  0.00     0.200 A 
ATOM     64  F   UNL     1     -12.666  -1.956   5.960  1.00  0.00    -0.200 F 
ATOM     65  F   UNL     1     -11.261  -2.409   8.253  1.00  0.00    -0.200 F 
ENDBRANCH  41  55
BRANCH  42  66
ATOM     66  C   UNL     1     -10.753  10.460   2.376  1.00  0.00     0.064 A 
ATOM     67  C   UNL     1     -10.850  11.594   3.193  1.00  0.00     0.173 A 
ATOM     68  C   UNL     1     -10.607  10.661   0.995  1.00  0.00     0.173 A 
ATOM     69  F   UNL     1     -11.014  11.454   4.516  1.00  0.00    -0.203 F 
ATOM     70  C   UNL     1     -10.813  12.878   2.651  1.00  0.00     0.198 A 
ATOM     71  C   UNL     1     -10.544  11.945   0.457  1.00  0.00     0.198 A 
ATOM     72  F   UNL     1     -10.513   9.609   0.169  1.00  0.00    -0.203 F 
ATOM     73  F   UNL     1     -10.944  13.945   3.450  1.00  0.00    -0.200 F 
ATOM     74  C   UNL     1     -10.653  13.052   1.284  1.00  0.00     0.200 A 
ATOM     75  F   UNL     1     -10.378  12.108  -0.863  1.00  0.00    -0.200 F 
ATOM     76  F   UNL     1     -10.610  14.286   0.764  1.00  0.00    -0.200 F 
ENDBRANCH  42  66
BRANCH  54  77
ATOM     77  C   UNL     1     -15.745   6.770   5.567  1.00  0.00     0.064 A 
ATOM     78  C   UNL     1     -16.743   6.762   4.583  1.00  0.00     0.173 A 
ATOM     79  C   UNL     1     -16.133   6.980   6.899  1.00  0.00     0.173 A 
ATOM     80  F   UNL     1     -16.419   6.577   3.294  1.00  0.00    -0.203 F 
ATOM     81  C   UNL     1     -18.078   6.965   4.919  1.00  0.00     0.198 A 
ATOM     82  C   UNL     1     -17.472   7.155   7.235  1.00  0.00     0.198 A 
ATOM     83  F   UNL     1     -15.216   6.987   7.878  1.00  0.00    -0.203 F 
ATOM     84  F   UNL     1     -19.013   6.984   3.959  1.00  0.00    -0.200 F 
ATOM     85  C   UNL     1     -18.443   7.151   6.245  1.00  0.00     0.200 A 
ATOM     86  F   UNL     1     -17.824   7.318   8.518  1.00  0.00    -0.200 F 
ATOM     87  F   UNL     1     -19.731   7.327   6.568  1.00  0.00    -0.200 F 
ENDBRANCH  54  77
ENDBRANCH  28  29
ENDBRANCH  21  23
ENDBRANCH  20  21
ENDBRANCH  19  20
ENDBRANCH  18  19
ENDBRANCH   1  18
TORSDOF 16
