REMARK SMILES CC[C@@H](C(=O)OCCOCCOC(=O)c1ccc(-c2c3nc(c(-c4c(F)c(F)c(F)c(F)c4F)c4ccc([nH]4)c(-c4c(F)c(F)c(F)c(F)c4F)c4nc(c(-c5c(F)c(F)c(F)c(F)c5F)c5ccc2[nH]5)C=C4)C=C3)cc1)[N@@H+]1CCc2ccc(N)cc2C1
REMARK SMILES IDX 9 1 8 2 7 3 6 4 4 5 5 6 3 7 2 8 1 9 78 10 79 11 88 12 80 14
REMARK SMILES IDX 87 15 81 16 86 17 82 18 84 19 83 20 85 21 10 24 11 25 12 26
REMARK SMILES IDX 13 27 14 28 15 29 16 30 77 31 17 32 76 33 18 34 19 35 20 36
REMARK SMILES IDX 70 37 21 38 75 39 69 40 71 41 22 42 74 43 68 44 67 45 23 47
REMARK SMILES IDX 55 48 35 49 54 50 36 51 39 52 53 53 72 54 37 55 38 56 52 58
REMARK SMILES IDX 73 59 40 60 24 61 25 62 33 63 26 64 27 65 31 66 34 67 28 68
REMARK SMILES IDX 29 69 32 70 30 71 56 72 57 73 65 74 58 75 59 76 63 77 66 78
REMARK SMILES IDX 60 79 61 80 64 81 62 82 41 83 42 84 50 85 43 86 44 87 48 88
REMARK SMILES IDX 51 89 45 90 46 91 49 92 47 93
REMARK H PARENT 78 13 85 22 85 23 71 46 39 57
REMARK Flexibility Score: inf
ROOT
ATOM      1  O   UNL     1      -1.551   0.977  -5.182  1.00  0.00    -0.374 OA
ENDROOT
BRANCH   1   2
ATOM      2  C   UNL     1      -0.315   0.349  -4.774  1.00  0.00     0.202 C 
BRANCH   2   3
ATOM      3  C   UNL     1       0.968   1.281  -4.867  1.00  0.00     0.261 C 
BRANCH   3   4
ATOM      4  O   UNL     1       2.011   1.387  -3.727  1.00  0.00    -0.459 OA
BRANCH   4   5
ATOM      5  C   UNL     1       2.588   1.979  -2.642  1.00  0.00     0.364 C 
ATOM      6  O   UNL     1       3.812   1.780  -2.549  1.00  0.00    -0.245 OA
BRANCH   5   7
ATOM      7  C   UNL     1       1.930   2.781  -1.405  1.00  0.00     0.295 C 
BRANCH   7   8
ATOM      8  C   UNL     1       2.180   2.182   0.035  1.00  0.00     0.074 C 
ATOM      9  C   UNL     1       2.901   0.857   0.235  1.00  0.00     0.011 C 
ENDBRANCH   7   8
BRANCH   7  10
ATOM     10  N   UNL     1       0.588   3.446  -1.585  1.00  0.00    -0.319 N 
ATOM     11  C   UNL     1      -0.248   3.787  -0.378  1.00  0.00     0.268 C 
ATOM     12  C   UNL     1      -0.239   2.571  -2.355  1.00  0.00     0.300 C 
ATOM     13  H   UNL     1       0.852   4.341  -1.998  1.00  0.00     0.349 HD
ATOM     14  C   UNL     1      -1.531   2.861  -0.084  1.00  0.00     0.097 C 
ATOM     15  C   UNL     1      -0.448   1.287  -1.585  1.00  0.00     0.012 A 
ATOM     16  C   UNL     1      -1.269   1.425  -0.477  1.00  0.00    -0.033 A 
ATOM     17  C   UNL     1       0.240   0.081  -1.742  1.00  0.00     0.035 A 
ATOM     18  C   UNL     1      -1.686   0.281   0.197  1.00  0.00     0.006 A 
ATOM     19  C   UNL     1      -0.044  -1.049  -0.996  1.00  0.00     0.032 A 
ATOM     20  C   UNL     1      -1.093  -0.962  -0.095  1.00  0.00     0.026 A 
BRANCH  19  21
ATOM     21  N   UNL     1       0.653  -2.214  -1.263  1.00  0.00    -0.399 N 
ATOM     22  H   UNL     1       0.466  -3.029  -0.744  1.00  0.00     0.156 HD
ATOM     23  H   UNL     1       1.335  -2.228  -1.972  1.00  0.00     0.156 HD
ENDBRANCH  19  21
ENDBRANCH   7  10
ENDBRANCH   5   7
ENDBRANCH   4   5
ENDBRANCH   3   4
ENDBRANCH   2   3
ENDBRANCH   1   2
BRANCH   1  24
ATOM     24  C   UNL     1      -2.581   1.180  -4.203  1.00  0.00     0.202 C 
BRANCH  24  25
ATOM     25  C   UNL     1      -3.447   0.009  -3.725  1.00  0.00     0.261 C 
BRANCH  25  26
ATOM     26  O   UNL     1      -2.663  -1.109  -3.312  1.00  0.00    -0.460 OA
BRANCH  26  27
ATOM     27  C   UNL     1      -3.279  -2.300  -3.491  1.00  0.00     0.338 C 
ATOM     28  O   UNL     1      -4.400  -2.515  -3.894  1.00  0.00    -0.246 OA
BRANCH  27  29
ATOM     29  C   UNL     1      -2.305  -3.364  -3.222  1.00  0.00     0.060 A 
ATOM     30  C   UNL     1      -1.671  -3.954  -4.313  1.00  0.00     0.016 A 
ATOM     31  C   UNL     1      -2.104  -3.838  -1.926  1.00  0.00     0.016 A 
ATOM     32  C   UNL     1      -0.855  -5.064  -4.109  1.00  0.00     0.010 A 
ATOM     33  C   UNL     1      -1.240  -4.917  -1.718  1.00  0.00     0.010 A 
ATOM     34  C   UNL     1      -0.652  -5.572  -2.816  1.00  0.00    -0.014 A 
BRANCH  34  35
ATOM     35  C   UNL     1       0.010  -6.895  -2.664  1.00  0.00     0.031 A 
ATOM     36  C   UNL     1      -0.825  -8.088  -2.277  1.00  0.00     0.074 A 
ATOM     37  C   UNL     1       1.311  -7.064  -2.971  1.00  0.00     0.049 A 
ATOM     38  N   UNL     1      -0.489  -9.352  -2.212  1.00  0.00    -0.248 NA
ATOM     39  C   UNL     1      -2.226  -7.824  -1.911  1.00  0.00     0.031 C 
ATOM     40  C   UNL     1       2.234  -6.003  -3.368  1.00  0.00     0.029 A 
ATOM     41  N   UNL     1       2.072  -8.207  -3.021  1.00  0.00    -0.354 N 
ATOM     42  C   UNL     1      -1.633 -10.025  -1.806  1.00  0.00     0.074 A 
ATOM     43  C   UNL     1      -2.653  -9.029  -1.572  1.00  0.00     0.031 C 
ATOM     44  C   UNL     1       3.430  -6.548  -3.651  1.00  0.00     0.029 A 
ATOM     45  C   UNL     1       3.363  -7.993  -3.438  1.00  0.00     0.049 A 
ATOM     46  H   UNL     1       1.725  -9.096  -2.780  1.00  0.00     0.167 HD
ATOM     47  C   UNL     1      -1.837 -11.356  -1.676  1.00  0.00     0.037 A 
ATOM     48  C   UNL     1       4.372  -8.866  -3.635  1.00  0.00     0.037 A 
ATOM     49  C   UNL     1      -0.844 -12.361  -1.931  1.00  0.00     0.049 A 
ATOM     50  C   UNL     1       4.135 -10.342  -3.431  1.00  0.00     0.074 A 
ATOM     51  C   UNL     1      -0.970 -13.736  -1.853  1.00  0.00     0.029 A 
ATOM     52  N   UNL     1       0.463 -12.097  -2.309  1.00  0.00    -0.354 N 
ATOM     53  N   UNL     1       3.030 -10.969  -3.109  1.00  0.00    -0.248 NA
ATOM     54  C   UNL     1       5.288 -11.233  -3.633  1.00  0.00     0.031 C 
ATOM     55  C   UNL     1       0.275 -14.305  -2.137  1.00  0.00     0.029 A 
ATOM     56  C   UNL     1       1.162 -13.286  -2.443  1.00  0.00     0.049 A 
ATOM     57  H   UNL     1       0.838 -11.200  -2.461  1.00  0.00     0.167 HD
ATOM     58  C   UNL     1       3.345 -12.323  -3.103  1.00  0.00     0.074 A 
ATOM     59  C   UNL     1       4.742 -12.430  -3.465  1.00  0.00     0.031 C 
ATOM     60  C   UNL     1       2.547 -13.383  -2.824  1.00  0.00     0.037 A 
BRANCH  47  61
ATOM     61  C   UNL     1      -3.199 -11.799  -1.230  1.00  0.00     0.064 A 
ATOM     62  C   UNL     1      -4.317 -11.699  -2.072  1.00  0.00     0.173 A 
ATOM     63  C   UNL     1      -3.385 -12.336   0.051  1.00  0.00     0.173 A 
ATOM     64  F   UNL     1      -4.193 -11.174  -3.300  1.00  0.00    -0.203 F 
ATOM     65  C   UNL     1      -5.579 -12.092  -1.634  1.00  0.00     0.198 A 
ATOM     66  C   UNL     1      -4.642 -12.757   0.474  1.00  0.00     0.198 A 
ATOM     67  F   UNL     1      -2.347 -12.453   0.893  1.00  0.00    -0.203 F 
ATOM     68  F   UNL     1      -6.643 -11.935  -2.434  1.00  0.00    -0.200 F 
ATOM     69  C   UNL     1      -5.739 -12.626  -0.364  1.00  0.00     0.200 A 
ATOM     70  F   UNL     1      -4.794 -13.282   1.698  1.00  0.00    -0.200 F 
ATOM     71  F   UNL     1      -6.953 -13.006   0.055  1.00  0.00    -0.200 F 
ENDBRANCH  47  61
BRANCH  48  72
ATOM     72  C   UNL     1       5.710  -8.377  -4.063  1.00  0.00     0.064 A 
ATOM     73  C   UNL     1       6.225  -8.683  -5.331  1.00  0.00     0.173 A 
ATOM     74  C   UNL     1       6.522  -7.639  -3.190  1.00  0.00     0.173 A 
ATOM     75  F   UNL     1       5.498  -9.411  -6.191  1.00  0.00    -0.203 F 
ATOM     76  C   UNL     1       7.512  -8.293  -5.698  1.00  0.00     0.198 A 
ATOM     77  C   UNL     1       7.798  -7.226  -3.569  1.00  0.00     0.198 A 
ATOM     78  F   UNL     1       6.078  -7.324  -1.964  1.00  0.00    -0.203 F 
ATOM     79  F   UNL     1       8.002  -8.650  -6.893  1.00  0.00    -0.200 F 
ATOM     80  C   UNL     1       8.296  -7.562  -4.818  1.00  0.00     0.200 A 
ATOM     81  F   UNL     1       8.549  -6.514  -2.717  1.00  0.00    -0.200 F 
ATOM     82  F   UNL     1       9.536  -7.196  -5.168  1.00  0.00    -0.200 F 
ENDBRANCH  48  72
BRANCH  60  83
ATOM     83  C   UNL     1       3.141 -14.758  -2.936  1.00  0.00     0.064 A 
ATOM     84  C   UNL     1       4.068 -15.240  -2.001  1.00  0.00     0.173 A 
ATOM     85  C   UNL     1       2.724 -15.629  -3.955  1.00  0.00     0.173 A 
ATOM     86  F   UNL     1       4.508 -14.445  -1.014  1.00  0.00    -0.203 F 
ATOM     87  C   UNL     1       4.569 -16.536  -2.093  1.00  0.00     0.198 A 
ATOM     88  C   UNL     1       3.204 -16.933  -4.027  1.00  0.00     0.198 A 
ATOM     89  F   UNL     1       1.831 -15.220  -4.870  1.00  0.00    -0.203 F 
ATOM     90  F   UNL     1       5.483 -16.963  -1.211  1.00  0.00    -0.200 F 
ATOM     91  C   UNL     1       4.130 -17.384  -3.099  1.00  0.00     0.200 A 
ATOM     92  F   UNL     1       2.765 -17.756  -4.990  1.00  0.00    -0.200 F 
ATOM     93  F   UNL     1       4.603 -18.636  -3.177  1.00  0.00    -0.200 F 
ENDBRANCH  60  83
ENDBRANCH  34  35
ENDBRANCH  27  29
ENDBRANCH  26  27
ENDBRANCH  25  26
ENDBRANCH  24  25
ENDBRANCH   1  24
TORSDOF 17
