REMARK SMILES O=C(OCCOCCOC(=O)[C@H]1CCCN1C(=O)Cc1csc(-c2cccs2)n1)c1ccc(-c2c3nc(c(-c4c(F)c(F)c(F)c(F)c4F)c4ccc([nH]4)c(-c4c(F)c(F)c(F)c(F)c4F)c4nc(c(-c5c(F)c(F)c(F)c(F)c5F)c5ccc2[nH]5)C=C4)C=C3)cc1
REMARK SMILES IDX 7 1 6 2 5 3 4 4 3 5 2 6 1 7 30 8 31 9 92 10 32 11 91 12
REMARK SMILES IDX 33 13 34 14 35 15 85 16 36 17 90 18 84 19 86 20 37 21 89 22
REMARK SMILES IDX 83 23 82 24 38 26 70 27 50 28 69 29 51 30 54 31 68 32 87 33
REMARK SMILES IDX 52 34 53 35 67 37 88 38 55 39 39 40 40 41 48 42 41 43 42 44
REMARK SMILES IDX 46 45 49 46 43 47 44 48 47 49 45 50 71 51 72 52 80 53 73 54
REMARK SMILES IDX 74 55 78 56 81 57 75 58 76 59 79 60 77 61 56 62 57 63 65 64
REMARK SMILES IDX 58 65 59 66 63 67 66 68 60 69 61 70 64 71 62 72 8 73 9 74
REMARK SMILES IDX 10 75 11 76 12 77 13 78 16 79 14 80 15 81 17 82 18 83 19 84
REMARK SMILES IDX 20 85 21 86 29 87 22 88 23 89 24 90 25 91 28 92 26 93 27 94
REMARK H PARENT 86 25 54 36
REMARK Flexibility Score: inf
ROOT
ATOM      1  C   UNL     1       8.165  -2.779   0.868  1.00  0.00     0.202 C 
ENDROOT
BRANCH   1   2
ATOM      2  O   UNL     1       7.806  -4.092   1.313  1.00  0.00    -0.374 OA
BRANCH   2   3
ATOM      3  C   UNL     1       6.616  -4.175   2.103  1.00  0.00     0.202 C 
BRANCH   3   4
ATOM      4  C   UNL     1       6.722  -3.921   3.619  1.00  0.00     0.261 C 
BRANCH   4   5
ATOM      5  O   UNL     1       7.115  -2.565   3.908  1.00  0.00    -0.460 OA
BRANCH   5   6
ATOM      6  C   UNL     1       8.272  -2.108   4.430  1.00  0.00     0.338 C 
ATOM      7  O   UNL     1       8.297  -0.995   4.962  1.00  0.00    -0.246 OA
BRANCH   6   8
ATOM      8  C   UNL     1       9.548  -2.863   4.326  1.00  0.00     0.060 A 
ATOM      9  C   UNL     1       9.703  -4.026   3.578  1.00  0.00     0.016 A 
ATOM     10  C   UNL     1      10.675  -2.350   4.988  1.00  0.00     0.016 A 
ATOM     11  C   UNL     1      10.899  -4.692   3.490  1.00  0.00     0.010 A 
ATOM     12  C   UNL     1      11.897  -3.018   4.924  1.00  0.00     0.010 A 
ATOM     13  C   UNL     1      11.987  -4.200   4.185  1.00  0.00    -0.014 A 
BRANCH  13  14
ATOM     14  C   UNL     1      13.134  -5.096   4.260  1.00  0.00     0.031 A 
ATOM     15  C   UNL     1      13.216  -5.991   5.447  1.00  0.00     0.074 A 
ATOM     16  C   UNL     1      13.927  -5.218   3.187  1.00  0.00     0.049 A 
ATOM     17  N   UNL     1      14.171  -6.797   5.809  1.00  0.00    -0.248 NA
ATOM     18  C   UNL     1      12.045  -5.994   6.345  1.00  0.00     0.031 C 
ATOM     19  C   UNL     1      13.734  -4.518   1.914  1.00  0.00     0.029 A 
ATOM     20  N   UNL     1      15.034  -5.987   2.988  1.00  0.00    -0.354 N 
ATOM     21  C   UNL     1      13.743  -7.359   7.002  1.00  0.00     0.074 A 
ATOM     22  C   UNL     1      12.429  -6.837   7.289  1.00  0.00     0.031 C 
ATOM     23  C   UNL     1      14.714  -4.875   1.070  1.00  0.00     0.029 A 
ATOM     24  C   UNL     1      15.636  -5.752   1.780  1.00  0.00     0.049 A 
ATOM     25  H   UNL     1      15.366  -6.643   3.644  1.00  0.00     0.167 HD
ATOM     26  C   UNL     1      14.434  -8.208   7.794  1.00  0.00     0.037 A 
ATOM     27  C   UNL     1      16.845  -6.152   1.351  1.00  0.00     0.037 A 
ATOM     28  C   UNL     1      15.750  -8.666   7.448  1.00  0.00     0.049 A 
ATOM     29  C   UNL     1      17.653  -7.002   2.292  1.00  0.00     0.074 A 
ATOM     30  C   UNL     1      16.626  -9.441   8.178  1.00  0.00     0.029 A 
ATOM     31  N   UNL     1      16.379  -8.366   6.241  1.00  0.00    -0.354 N 
ATOM     32  N   UNL     1      17.325  -7.445   3.486  1.00  0.00    -0.248 NA
ATOM     33  C   UNL     1      18.993  -7.393   1.851  1.00  0.00     0.031 C 
ATOM     34  C   UNL     1      17.805  -9.567   7.432  1.00  0.00     0.029 A 
ATOM     35  C   UNL     1      17.640  -8.925   6.210  1.00  0.00     0.049 A 
ATOM     36  H   UNL     1      15.980  -7.834   5.515  1.00  0.00     0.167 HD
ATOM     37  C   UNL     1      18.407  -8.181   3.937  1.00  0.00     0.074 A 
ATOM     38  C   UNL     1      19.402  -8.127   2.879  1.00  0.00     0.031 C 
ATOM     39  C   UNL     1      18.573  -8.843   5.110  1.00  0.00     0.037 A 
BRANCH  26  40
ATOM     40  C   UNL     1      13.821  -8.540   9.122  1.00  0.00     0.064 A 
ATOM     41  C   UNL     1      12.668  -9.331   9.243  1.00  0.00     0.173 A 
ATOM     42  C   UNL     1      14.342  -7.962  10.291  1.00  0.00     0.173 A 
ATOM     43  F   UNL     1      12.104  -9.873   8.153  1.00  0.00    -0.203 F 
ATOM     44  C   UNL     1      12.035  -9.492  10.475  1.00  0.00     0.198 A 
ATOM     45  C   UNL     1      13.724  -8.150  11.524  1.00  0.00     0.198 A 
ATOM     46  F   UNL     1      15.432  -7.183  10.232  1.00  0.00    -0.203 F 
ATOM     47  F   UNL     1      10.887 -10.181  10.551  1.00  0.00    -0.200 F 
ATOM     48  C   UNL     1      12.563  -8.902  11.613  1.00  0.00     0.200 A 
ATOM     49  F   UNL     1      14.235  -7.576  12.622  1.00  0.00    -0.200 F 
ATOM     50  F   UNL     1      11.939  -9.038  12.792  1.00  0.00    -0.200 F 
ENDBRANCH  26  40
BRANCH  27  51
ATOM     51  C   UNL     1      17.353  -5.675   0.041  1.00  0.00     0.064 A 
ATOM     52  C   UNL     1      17.536  -6.551  -1.035  1.00  0.00     0.173 A 
ATOM     53  C   UNL     1      17.602  -4.309  -0.184  1.00  0.00     0.173 A 
ATOM     54  F   UNL     1      17.324  -7.865  -0.872  1.00  0.00    -0.203 F 
ATOM     55  C   UNL     1      17.946  -6.082  -2.283  1.00  0.00     0.198 A 
ATOM     56  C   UNL     1      17.984  -3.838  -1.438  1.00  0.00     0.198 A 
ATOM     57  F   UNL     1      17.437  -3.424   0.810  1.00  0.00    -0.203 F 
ATOM     58  F   UNL     1      18.133  -6.944  -3.292  1.00  0.00    -0.200 F 
ATOM     59  C   UNL     1      18.159  -4.726  -2.486  1.00  0.00     0.200 A 
ATOM     60  F   UNL     1      18.166  -2.525  -1.631  1.00  0.00    -0.200 F 
ATOM     61  F   UNL     1      18.532  -4.275  -3.692  1.00  0.00    -0.200 F 
ENDBRANCH  27  51
BRANCH  39  62
ATOM     62  C   UNL     1      19.851  -9.600   5.278  1.00  0.00     0.064 A 
ATOM     63  C   UNL     1      21.053  -8.950   5.584  1.00  0.00     0.173 A 
ATOM     64  C   UNL     1      19.840 -11.002   5.234  1.00  0.00     0.173 A 
ATOM     65  F   UNL     1      21.107  -7.610   5.622  1.00  0.00    -0.203 F 
ATOM     66  C   UNL     1      22.208  -9.682   5.836  1.00  0.00     0.198 A 
ATOM     67  C   UNL     1      20.988 -11.730   5.515  1.00  0.00     0.198 A 
ATOM     68  F   UNL     1      18.705 -11.660   4.953  1.00  0.00    -0.203 F 
ATOM     69  F   UNL     1      23.356  -9.046   6.104  1.00  0.00    -0.200 F 
ATOM     70  C   UNL     1      22.171 -11.070   5.814  1.00  0.00     0.200 A 
ATOM     71  F   UNL     1      20.948 -13.069   5.510  1.00  0.00    -0.200 F 
ATOM     72  F   UNL     1      23.279 -11.774   6.083  1.00  0.00    -0.200 F 
ENDBRANCH  39  62
ENDBRANCH  13  14
ENDBRANCH   6   8
ENDBRANCH   5   6
ENDBRANCH   4   5
ENDBRANCH   3   4
ENDBRANCH   2   3
ENDBRANCH   1   2
BRANCH   1  73
ATOM     73  C   UNL     1       7.596  -2.451  -0.510  1.00  0.00     0.261 C 
BRANCH  73  74
ATOM     74  O   UNL     1       6.170  -2.636  -0.500  1.00  0.00    -0.462 OA
BRANCH  74  75
ATOM     75  C   UNL     1       5.708  -3.726  -1.164  1.00  0.00     0.328 C 
ATOM     76  O   UNL     1       6.390  -4.414  -1.924  1.00  0.00    -0.250 OA
BRANCH  75  77
ATOM     77  C   UNL     1       4.192  -3.924  -0.959  1.00  0.00     0.195 C 
ATOM     78  C   UNL     1       3.822  -5.390  -1.230  1.00  0.00     0.039 C 
ATOM     79  N   UNL     1       3.684  -3.716   0.413  1.00  0.00    -0.329 N 
ATOM     80  C   UNL     1       4.014  -6.046   0.131  1.00  0.00     0.024 C 
ATOM     81  C   UNL     1       3.453  -4.998   1.076  1.00  0.00     0.120 C 
BRANCH  79  82
ATOM     82  C   UNL     1       3.296  -2.558   1.054  1.00  0.00     0.229 C 
ATOM     83  O   UNL     1       2.841  -2.622   2.203  1.00  0.00    -0.274 OA
BRANCH  82  84
ATOM     84  C   UNL     1       3.463  -1.200   0.377  1.00  0.00     0.157 C 
BRANCH  84  85
ATOM     85  C   UNL     1       4.556  -0.375   0.996  1.00  0.00     0.061 A 
ATOM     86  C   UNL     1       5.249  -0.673   2.153  1.00  0.00     0.091 A 
ATOM     87  N   UNL     1       4.936   0.838   0.407  1.00  0.00    -0.240 NA
ATOM     88  S   UNL     1       6.397   0.523   2.509  1.00  0.00    -0.121 S 
ATOM     89  C   UNL     1       5.861   1.421   1.147  1.00  0.00     0.133 A 
BRANCH  89  90
ATOM     90  C   UNL     1       6.452   2.710   0.921  1.00  0.00     0.063 A 
ATOM     91  C   UNL     1       6.591   3.712   1.867  1.00  0.00     0.023 A 
ATOM     92  S   UNL     1       7.227   3.127  -0.544  1.00  0.00    -0.141 S 
ATOM     93  C   UNL     1       7.441   4.764   1.429  1.00  0.00     0.012 A 
ATOM     94  C   UNL     1       7.876   4.561   0.138  1.00  0.00     0.065 A 
ENDBRANCH  89  90
ENDBRANCH  84  85
ENDBRANCH  82  84
ENDBRANCH  79  82
ENDBRANCH  75  77
ENDBRANCH  74  75
ENDBRANCH  73  74
ENDBRANCH   1  73
TORSDOF 18
