REMARK SMILES NC(=O)c1ccsc1NS(=O)(=O)c1ccc(C(=O)OCCOCCOC(=O)c2ccc(-c3c4nc(c(-c5c(F)c(F)c(F)c(F)c5F)c5ccc([nH]5)c(-c5c(F)c(F)c(F)c(F)c5F)c5nc(c(-c6c(F)c(F)c(F)c(F)c6F)c6ccc3[nH]6)C=C5)C=C4)cc2)cc1
REMARK SMILES IDX 21 1 20 2 19 3 17 4 18 5 16 6 13 7 14 8 92 9 15 10 91 11
REMARK SMILES IDX 10 12 11 13 12 14 9 15 8 17 4 18 5 19 6 20 7 21 2 22 1 23
REMARK SMILES IDX 3 26 22 27 23 28 24 29 25 30 26 31 27 32 28 33 29 34 90 35
REMARK SMILES IDX 30 36 89 37 31 38 32 39 33 40 83 41 34 42 88 43 82 44 84 45
REMARK SMILES IDX 35 46 87 47 81 48 80 49 36 51 68 52 48 53 67 54 49 55 52 56
REMARK SMILES IDX 66 57 85 58 50 59 51 60 65 62 86 63 53 64 37 65 38 66 46 67
REMARK SMILES IDX 39 68 40 69 44 70 47 71 41 72 42 73 45 74 43 75 69 76 70 77
REMARK SMILES IDX 78 78 71 79 72 80 76 81 79 82 73 83 74 84 77 85 75 86 54 87
REMARK SMILES IDX 55 88 63 89 56 90 57 91 61 92 64 93 58 94 59 95 62 96 60 97
REMARK H PARENT 9 16 1 24 1 25 84 50 52 61
REMARK Flexibility Score: inf
ROOT
ATOM      1  C   UNL     1       4.616   7.089   9.604  1.00  0.00     0.202 C 
ENDROOT
BRANCH   1   2
ATOM      2  C   UNL     1       4.662   6.953   8.079  1.00  0.00     0.261 C 
BRANCH   2   3
ATOM      3  O   UNL     1       3.521   6.249   7.573  1.00  0.00    -0.460 OA
BRANCH   3   4
ATOM      4  C   UNL     1       3.806   5.002   7.130  1.00  0.00     0.338 C 
ATOM      5  O   UNL     1       4.913   4.510   6.988  1.00  0.00    -0.246 OA
BRANCH   4   6
ATOM      6  C   UNL     1       2.567   4.214   6.962  1.00  0.00     0.060 A 
ATOM      7  C   UNL     1       0.520   2.527   6.201  1.00  0.00     0.087 A 
ATOM      8  C   UNL     1       1.630   1.991   6.863  1.00  0.00     0.023 A 
ATOM      9  C   UNL     1       0.334   3.912   6.093  1.00  0.00     0.023 A 
ATOM     10  C   UNL     1       2.665   2.840   7.227  1.00  0.00     0.017 A 
ATOM     11  C   UNL     1       1.374   4.765   6.475  1.00  0.00     0.017 A 
BRANCH   7  12
ATOM     12  S   UNL     1      -0.567   1.411   5.363  1.00  0.00     0.262 S 
ATOM     13  O   UNL     1      -1.887   2.005   5.415  1.00  0.00    -0.201 OA
ATOM     14  O   UNL     1      -0.345   0.091   5.920  1.00  0.00    -0.201 OA
BRANCH  12  15
ATOM     15  N   UNL     1      -0.141   1.340   3.749  1.00  0.00    -0.270 N 
ATOM     16  H   UNL     1      -0.770   0.840   3.181  1.00  0.00     0.181 HD
BRANCH  15  17
ATOM     17  C   UNL     1       0.987   1.885   3.053  1.00  0.00     0.115 A 
ATOM     18  C   UNL     1       1.124   1.713   1.678  1.00  0.00     0.074 A 
ATOM     19  C   UNL     1       2.230   2.476   1.153  1.00  0.00     0.028 A 
ATOM     20  C   UNL     1       2.940   3.114   2.138  1.00  0.00     0.068 A 
ATOM     21  S   UNL     1       2.331   2.721   3.668  1.00  0.00    -0.125 S 
BRANCH  18  22
ATOM     22  C   UNL     1       0.242   0.867   0.889  1.00  0.00     0.251 C 
ATOM     23  N   UNL     1       0.845   0.222  -0.149  1.00  0.00    -0.366 N 
ATOM     24  H   UNL     1       0.319  -0.371  -0.733  1.00  0.00     0.159 HD
ATOM     25  H   UNL     1       1.807   0.348  -0.316  1.00  0.00     0.159 HD
ATOM     26  O   UNL     1      -0.941   0.684   1.164  1.00  0.00    -0.269 OA
ENDBRANCH  18  22
ENDBRANCH  15  17
ENDBRANCH  12  15
ENDBRANCH   7  12
ENDBRANCH   4   6
ENDBRANCH   3   4
ENDBRANCH   2   3
ENDBRANCH   1   2
BRANCH   1  27
ATOM     27  O   UNL     1       4.550   5.905  10.392  1.00  0.00    -0.374 OA
BRANCH  27  28
ATOM     28  C   UNL     1       3.324   5.178  10.437  1.00  0.00     0.202 C 
BRANCH  28  29
ATOM     29  C   UNL     1       2.125   5.784  11.179  1.00  0.00     0.261 C 
BRANCH  29  30
ATOM     30  O   UNL     1       1.715   7.062  10.668  1.00  0.00    -0.460 OA
BRANCH  30  31
ATOM     31  C   UNL     1       2.014   8.110  11.477  1.00  0.00     0.338 C 
ATOM     32  O   UNL     1       2.544   8.076  12.574  1.00  0.00    -0.246 OA
BRANCH  31  33
ATOM     33  C   UNL     1       1.773   9.373  10.758  1.00  0.00     0.060 A 
ATOM     34  C   UNL     1       2.858  10.242  10.583  1.00  0.00     0.016 A 
ATOM     35  C   UNL     1       0.496   9.732  10.328  1.00  0.00     0.016 A 
ATOM     36  C   UNL     1       2.664  11.489   9.993  1.00  0.00     0.010 A 
ATOM     37  C   UNL     1       0.301  10.988   9.747  1.00  0.00     0.010 A 
ATOM     38  C   UNL     1       1.379  11.880   9.597  1.00  0.00    -0.014 A 
BRANCH  38  39
ATOM     39  C   UNL     1       1.144  13.259   9.107  1.00  0.00     0.031 A 
ATOM     40  C   UNL     1       0.505  14.268  10.017  1.00  0.00     0.074 A 
ATOM     41  C   UNL     1       1.503  13.604   7.859  1.00  0.00     0.049 A 
ATOM     42  N   UNL     1       0.148  15.503   9.769  1.00  0.00    -0.248 NA
ATOM     43  C   UNL     1       0.228  13.824  11.391  1.00  0.00     0.031 C 
ATOM     44  C   UNL     1       2.167  12.724   6.900  1.00  0.00     0.029 A 
ATOM     45  N   UNL     1       1.347  14.787   7.181  1.00  0.00    -0.354 N 
ATOM     46  C   UNL     1      -0.404  15.980  10.950  1.00  0.00     0.074 A 
ATOM     47  C   UNL     1      -0.365  14.892  11.905  1.00  0.00     0.031 C 
ATOM     48  C   UNL     1       2.353  13.394   5.751  1.00  0.00     0.029 A 
ATOM     49  C   UNL     1       1.783  14.733   5.881  1.00  0.00     0.049 A 
ATOM     50  H   UNL     1       0.960  15.596   7.588  1.00  0.00     0.167 HD
ATOM     51  C   UNL     1      -0.893  17.216  11.214  1.00  0.00     0.037 A 
ATOM     52  C   UNL     1       1.701  15.651   4.899  1.00  0.00     0.037 A 
ATOM     53  C   UNL     1      -0.934  18.291  10.255  1.00  0.00     0.049 A 
ATOM     54  C   UNL     1       1.069  16.987   5.189  1.00  0.00     0.074 A 
ATOM     55  C   UNL     1      -1.379  19.589  10.431  1.00  0.00     0.029 A 
ATOM     56  N   UNL     1      -0.528  18.186   8.932  1.00  0.00    -0.354 N 
ATOM     57  N   UNL     1       0.580  17.446   6.316  1.00  0.00    -0.248 NA
ATOM     58  C   UNL     1       0.973  17.931   4.067  1.00  0.00     0.031 C 
ATOM     59  C   UNL     1      -1.308  20.248   9.199  1.00  0.00     0.029 A 
ATOM     60  C   UNL     1      -0.755  19.382   8.269  1.00  0.00     0.049 A 
ATOM     61  H   UNL     1      -0.136  17.380   8.524  1.00  0.00     0.167 HD
ATOM     62  C   UNL     1       0.140  18.735   6.047  1.00  0.00     0.074 A 
ATOM     63  C   UNL     1       0.439  18.994   4.654  1.00  0.00     0.031 C 
ATOM     64  C   UNL     1      -0.461  19.624   6.878  1.00  0.00     0.037 A 
BRANCH  51  65
ATOM     65  C   UNL     1      -1.459  17.460  12.585  1.00  0.00     0.064 A 
ATOM     66  C   UNL     1      -0.647  17.496  13.728  1.00  0.00     0.173 A 
ATOM     67  C   UNL     1      -2.835  17.683  12.753  1.00  0.00     0.173 A 
ATOM     68  F   UNL     1       0.673  17.280  13.627  1.00  0.00    -0.203 F 
ATOM     69  C   UNL     1      -1.195  17.709  14.992  1.00  0.00     0.198 A 
ATOM     70  C   UNL     1      -3.374  17.930  14.013  1.00  0.00     0.198 A 
ATOM     71  F   UNL     1      -3.658  17.667  11.694  1.00  0.00    -0.203 F 
ATOM     72  F   UNL     1      -0.407  17.680  16.075  1.00  0.00    -0.200 F 
ATOM     73  C   UNL     1      -2.556  17.932  15.132  1.00  0.00     0.200 A 
ATOM     74  F   UNL     1      -4.688  18.162  14.144  1.00  0.00    -0.200 F 
ATOM     75  F   UNL     1      -3.081  18.141  16.347  1.00  0.00    -0.200 F 
ENDBRANCH  51  65
BRANCH  52  76
ATOM     76  C   UNL     1       2.220  15.330   3.543  1.00  0.00     0.064 A 
ATOM     77  C   UNL     1       3.341  15.991   3.025  1.00  0.00     0.173 A 
ATOM     78  C   UNL     1       1.607  14.357   2.740  1.00  0.00     0.173 A 
ATOM     79  F   UNL     1       3.947  16.947   3.744  1.00  0.00    -0.203 F 
ATOM     80  C   UNL     1       3.822  15.700   1.750  1.00  0.00     0.198 A 
ATOM     81  C   UNL     1       2.108  14.044   1.479  1.00  0.00     0.198 A 
ATOM     82  F   UNL     1       0.530  13.695   3.188  1.00  0.00    -0.203 F 
ATOM     83  F   UNL     1       4.871  16.376   1.262  1.00  0.00    -0.200 F 
ATOM     84  C   UNL     1       3.211  14.721   0.982  1.00  0.00     0.200 A 
ATOM     85  F   UNL     1       1.523  13.086   0.747  1.00  0.00    -0.200 F 
ATOM     86  F   UNL     1       3.681  14.433  -0.240  1.00  0.00    -0.200 F 
ENDBRANCH  52  76
BRANCH  64  87
ATOM     87  C   UNL     1      -0.823  20.967   6.306  1.00  0.00     0.064 A 
ATOM     88  C   UNL     1      -1.856  21.113   5.368  1.00  0.00     0.173 A 
ATOM     89  C   UNL     1      -0.154  22.126   6.729  1.00  0.00     0.173 A 
ATOM     90  F   UNL     1      -2.517  20.036   4.917  1.00  0.00    -0.203 F 
ATOM     91  C   UNL     1      -2.186  22.366   4.855  1.00  0.00     0.198 A 
ATOM     92  C   UNL     1      -0.510  23.380   6.240  1.00  0.00     0.198 A 
ATOM     93  F   UNL     1       0.838  22.045   7.629  1.00  0.00    -0.203 F 
ATOM     94  F   UNL     1      -3.140  22.474   3.920  1.00  0.00    -0.200 F 
ATOM     95  C   UNL     1      -1.520  23.498   5.298  1.00  0.00     0.200 A 
ATOM     96  F   UNL     1       0.124  24.475   6.682  1.00  0.00    -0.200 F 
ATOM     97  F   UNL     1      -1.845  24.703   4.809  1.00  0.00    -0.200 F 
ENDBRANCH  64  87
ENDBRANCH  38  39
ENDBRANCH  31  33
ENDBRANCH  30  31
ENDBRANCH  29  30
ENDBRANCH  28  29
ENDBRANCH  27  28
ENDBRANCH   1  27
TORSDOF 18
