REMARK SMILES C[C@@H](CCC(=O)OCCOCCOC(=O)c1ccc(-c2c3nc(c(-c4c(F)c(F)c(F)c(F)c4F)c4ccc([nH]4)c(-c4c(F)c(F)c(F)c(F)c4F)c4nc(c(-c5c(F)c(F)c(F)c(F)c5F)c5ccc2[nH]5)C=C4)C=C3)cc1)[C@@H]1CC[C@@H]2[C@H]3CC[C@@H]4CC(=O)CC[C@]4(C)[C@@H]3CC(=O)[C@]21C
REMARK SMILES IDX 9 1 8 2 7 3 5 4 6 5 4 6 3 7 2 8 1 9 79 10 80 11 98 12 81 13
REMARK SMILES IDX 82 14 96 15 99 16 83 17 95 18 97 19 84 20 94 21 85 22 92 23
REMARK SMILES IDX 86 24 91 25 93 26 87 27 90 28 88 29 89 30 10 31 11 32 12 33
REMARK SMILES IDX 13 34 14 35 15 36 16 37 17 38 78 39 18 40 77 41 19 42 20 43
REMARK SMILES IDX 21 44 71 45 22 46 76 47 70 48 72 49 23 50 75 51 69 52 68 53
REMARK SMILES IDX 24 55 56 56 36 57 55 58 37 59 40 60 54 61 73 62 38 63 39 64
REMARK SMILES IDX 53 66 74 67 41 68 25 69 26 70 34 71 27 72 28 73 32 74 35 75
REMARK SMILES IDX 29 76 30 77 33 78 31 79 57 80 58 81 66 82 59 83 60 84 64 85
REMARK SMILES IDX 67 86 61 87 62 88 65 89 63 90 42 91 43 92 51 93 44 94 45 95
REMARK SMILES IDX 49 96 52 97 46 98 47 99 50 100 48 101
REMARK H PARENT 72 54 40 65
REMARK Flexibility Score: inf
ROOT
ATOM      1  C   UNL     1      -1.155   3.915  -0.942  1.00  0.00     0.202 C 
ENDROOT
BRANCH   1   2
ATOM      2  C   UNL     1      -0.593   3.396   0.382  1.00  0.00     0.261 C 
BRANCH   2   3
ATOM      3  O   UNL     1      -0.766   1.970   0.587  1.00  0.00    -0.463 OA
BRANCH   3   4
ATOM      4  C   UNL     1      -1.819   1.533   1.335  1.00  0.00     0.305 C 
ATOM      5  O   UNL     1      -2.750   2.236   1.702  1.00  0.00    -0.252 OA
BRANCH   4   6
ATOM      6  C   UNL     1      -1.632   0.068   1.768  1.00  0.00     0.123 C 
BRANCH   6   7
ATOM      7  C   UNL     1      -2.383  -1.106   1.051  1.00  0.00     0.015 C 
BRANCH   7   8
ATOM      8  C   UNL     1      -1.640  -2.066   0.004  1.00  0.00    -0.010 C 
ATOM      9  C   UNL     1      -0.265  -2.423   0.616  1.00  0.00     0.008 C 
BRANCH   8  10
ATOM     10  C   UNL     1      -1.412  -1.573  -1.481  1.00  0.00     0.005 C 
ATOM     11  C   UNL     1      -1.534  -0.065  -1.443  1.00  0.00     0.005 C 
ATOM     12  C   UNL     1      -2.263  -1.932  -2.790  1.00  0.00     0.032 C 
ATOM     13  C   UNL     1      -1.897   0.398  -2.815  1.00  0.00     0.005 C 
ATOM     14  C   UNL     1      -1.786  -0.774  -3.726  1.00  0.00     0.006 C 
ATOM     15  C   UNL     1      -1.892  -3.144  -3.661  1.00  0.00     0.139 C 
ATOM     16  C   UNL     1      -3.765  -1.947  -2.498  1.00  0.00     0.020 C 
ATOM     17  C   UNL     1      -2.486  -0.648  -5.116  1.00  0.00    -0.003 C 
ATOM     18  C   UNL     1      -2.438  -3.159  -5.136  1.00  0.00     0.080 C 
ATOM     19  O   UNL     1      -1.202  -4.064  -3.224  1.00  0.00    -0.299 OA
ATOM     20  C   UNL     1      -2.193   0.670  -5.853  1.00  0.00     0.004 C 
ATOM     21  C   UNL     1      -2.072  -1.875  -5.927  1.00  0.00     0.006 C 
ATOM     22  C   UNL     1      -1.666   0.701  -7.288  1.00  0.00     0.005 C 
ATOM     23  C   UNL     1      -2.379  -1.722  -7.492  1.00  0.00    -0.025 C 
ATOM     24  C   UNL     1      -1.365  -0.649  -7.946  1.00  0.00     0.002 C 
ATOM     25  C   UNL     1      -3.776  -1.203  -7.971  1.00  0.00     0.015 C 
ATOM     26  C   UNL     1      -2.125  -3.089  -8.156  1.00  0.00     0.012 C 
ATOM     27  C   UNL     1      -1.262  -0.516  -9.462  1.00  0.00     0.079 C 
ATOM     28  C   UNL     1      -3.831  -0.318  -9.263  1.00  0.00     0.076 C 
ATOM     29  C   UNL     1      -2.550  -0.010 -10.018  1.00  0.00     0.133 C 
ATOM     30  O   UNL     1      -2.562   0.634 -11.069  1.00  0.00    -0.300 OA
ENDBRANCH   8  10
ENDBRANCH   7   8
ENDBRANCH   6   7
ENDBRANCH   4   6
ENDBRANCH   3   4
ENDBRANCH   2   3
ENDBRANCH   1   2
BRANCH   1  31
ATOM     31  O   UNL     1      -2.557   4.157  -0.926  1.00  0.00    -0.374 OA
BRANCH  31  32
ATOM     32  C   UNL     1      -3.309   3.239  -1.710  1.00  0.00     0.202 C 
BRANCH  32  33
ATOM     33  C   UNL     1      -3.147   3.406  -3.244  1.00  0.00     0.261 C 
BRANCH  33  34
ATOM     34  O   UNL     1      -1.866   2.957  -3.790  1.00  0.00    -0.460 OA
BRANCH  34  35
ATOM     35  C   UNL     1      -0.882   3.786  -4.245  1.00  0.00     0.338 C 
ATOM     36  O   UNL     1      -0.917   4.986  -4.203  1.00  0.00    -0.246 OA
BRANCH  35  37
ATOM     37  C   UNL     1       0.210   2.984  -4.958  1.00  0.00     0.060 A 
ATOM     38  C   UNL     1       0.656   3.440  -6.202  1.00  0.00     0.016 A 
ATOM     39  C   UNL     1       0.720   1.750  -4.522  1.00  0.00     0.016 A 
ATOM     40  C   UNL     1       1.470   2.627  -7.033  1.00  0.00     0.010 A 
ATOM     41  C   UNL     1       1.403   0.882  -5.400  1.00  0.00     0.010 A 
ATOM     42  C   UNL     1       1.796   1.306  -6.677  1.00  0.00    -0.014 A 
BRANCH  42  43
ATOM     43  C   UNL     1       2.772   0.499  -7.457  1.00  0.00     0.031 A 
ATOM     44  C   UNL     1       2.515  -0.318  -8.682  1.00  0.00     0.074 A 
ATOM     45  C   UNL     1       4.013   0.367  -6.969  1.00  0.00     0.049 A 
ATOM     46  N   UNL     1       2.995  -0.163  -9.888  1.00  0.00    -0.248 NA
ATOM     47  C   UNL     1       1.746  -1.559  -8.524  1.00  0.00     0.031 C 
ATOM     48  C   UNL     1       4.470   0.849  -5.670  1.00  0.00     0.029 A 
ATOM     49  N   UNL     1       5.101  -0.246  -7.519  1.00  0.00    -0.354 N 
ATOM     50  C   UNL     1       2.349  -1.110 -10.673  1.00  0.00     0.074 A 
ATOM     51  C   UNL     1       1.598  -1.965  -9.786  1.00  0.00     0.031 C 
ATOM     52  C   UNL     1       5.748   0.491  -5.505  1.00  0.00     0.029 A 
ATOM     53  C   UNL     1       6.212  -0.141  -6.733  1.00  0.00     0.049 A 
ATOM     54  H   UNL     1       5.086  -0.712  -8.386  1.00  0.00     0.167 HD
ATOM     55  C   UNL     1       2.547  -1.391 -11.981  1.00  0.00     0.037 A 
ATOM     56  C   UNL     1       7.486  -0.432  -7.029  1.00  0.00     0.037 A 
ATOM     57  C   UNL     1       3.882  -1.410 -12.515  1.00  0.00     0.049 A 
ATOM     58  C   UNL     1       7.804  -0.793  -8.451  1.00  0.00     0.074 A 
ATOM     59  C   UNL     1       4.335  -1.825 -13.752  1.00  0.00     0.029 A 
ATOM     60  N   UNL     1       5.003  -1.190 -11.725  1.00  0.00    -0.354 N 
ATOM     61  N   UNL     1       6.990  -0.987  -9.465  1.00  0.00    -0.248 NA
ATOM     62  C   UNL     1       9.225  -0.895  -8.784  1.00  0.00     0.031 C 
ATOM     63  C   UNL     1       5.725  -2.003 -13.653  1.00  0.00     0.029 A 
ATOM     64  C   UNL     1       6.140  -1.593 -12.393  1.00  0.00     0.049 A 
ATOM     65  H   UNL     1       4.988  -0.803 -10.820  1.00  0.00     0.167 HD
ATOM     66  C   UNL     1       7.803  -1.228 -10.565  1.00  0.00     0.074 A 
ATOM     67  C   UNL     1       9.170  -1.105 -10.091  1.00  0.00     0.031 C 
ATOM     68  C   UNL     1       7.472  -1.526 -11.849  1.00  0.00     0.037 A 
BRANCH  55  69
ATOM     69  C   UNL     1       1.391  -1.854 -12.821  1.00  0.00     0.064 A 
ATOM     70  C   UNL     1       0.487  -0.898 -13.323  1.00  0.00     0.173 A 
ATOM     71  C   UNL     1       1.255  -3.169 -13.281  1.00  0.00     0.173 A 
ATOM     72  F   UNL     1       0.594   0.387 -12.952  1.00  0.00    -0.203 F 
ATOM     73  C   UNL     1      -0.499  -1.243 -14.250  1.00  0.00     0.198 A 
ATOM     74  C   UNL     1       0.269  -3.512 -14.212  1.00  0.00     0.198 A 
ATOM     75  F   UNL     1       2.095  -4.123 -12.854  1.00  0.00    -0.203 F 
ATOM     76  F   UNL     1      -1.326  -0.306 -14.737  1.00  0.00    -0.200 F 
ATOM     77  C   UNL     1      -0.604  -2.549 -14.698  1.00  0.00     0.200 A 
ATOM     78  F   UNL     1       0.180  -4.773 -14.657  1.00  0.00    -0.200 F 
ATOM     79  F   UNL     1      -1.533  -2.880 -15.606  1.00  0.00    -0.200 F 
ENDBRANCH  55  69
BRANCH  56  80
ATOM     80  C   UNL     1       8.508  -0.175  -5.991  1.00  0.00     0.064 A 
ATOM     81  C   UNL     1       9.347   0.942  -6.072  1.00  0.00     0.173 A 
ATOM     82  C   UNL     1       8.554  -0.950  -4.822  1.00  0.00     0.173 A 
ATOM     83  F   UNL     1       9.308   1.732  -7.156  1.00  0.00    -0.203 F 
ATOM     84  C   UNL     1      10.217   1.261  -5.034  1.00  0.00     0.198 A 
ATOM     85  C   UNL     1       9.402  -0.612  -3.772  1.00  0.00     0.198 A 
ATOM     86  F   UNL     1       7.723  -1.994  -4.675  1.00  0.00    -0.203 F 
ATOM     87  F   UNL     1      11.022   2.326  -5.143  1.00  0.00    -0.200 F 
ATOM     88  C   UNL     1      10.238   0.488  -3.882  1.00  0.00     0.200 A 
ATOM     89  F   UNL     1       9.385  -1.333  -2.642  1.00  0.00    -0.200 F 
ATOM     90  F   UNL     1      11.055   0.814  -2.871  1.00  0.00    -0.200 F 
ENDBRANCH  56  80
BRANCH  68  91
ATOM     91  C   UNL     1       8.608  -1.803 -12.784  1.00  0.00     0.064 A 
ATOM     92  C   UNL     1       9.429  -2.930 -12.625  1.00  0.00     0.173 A 
ATOM     93  C   UNL     1       8.872  -0.937 -13.854  1.00  0.00     0.173 A 
ATOM     94  F   UNL     1       9.213  -3.787 -11.614  1.00  0.00    -0.203 F 
ATOM     95  C   UNL     1      10.513  -3.146 -13.467  1.00  0.00     0.198 A 
ATOM     96  C   UNL     1       9.932  -1.179 -14.720  1.00  0.00     0.198 A 
ATOM     97  F   UNL     1       8.104   0.144 -14.057  1.00  0.00    -0.203 F 
ATOM     98  F   UNL     1      11.332  -4.184 -13.248  1.00  0.00    -0.200 F 
ATOM     99  C   UNL     1      10.761  -2.273 -14.516  1.00  0.00     0.200 A 
ATOM    100  F   UNL     1      10.160  -0.346 -15.744  1.00  0.00    -0.200 F 
ATOM    101  F   UNL     1      11.810  -2.478 -15.323  1.00  0.00    -0.200 F 
ENDBRANCH  68  91
ENDBRANCH  42  43
ENDBRANCH  35  37
ENDBRANCH  34  35
ENDBRANCH  33  34
ENDBRANCH  32  33
ENDBRANCH  31  32
ENDBRANCH   1  31
TORSDOF 17
