REMARK SMILES [NH3+][C@]1(C(=O)OCCOCCOC(=O)c2ccc(-c3c4nc(c(-c5c(F)c(F)c(F)c(F)c5F)c5ccc([nH]5)c(-c5c(F)c(F)c(F)c(F)c5F)c5nc(c(-c6c(F)c(F)c(F)c(F)c6F)c6ccc3[nH]6)C=C5)C=C4)cc2)CCC[C@@H](Oc2ccc3c(c2)CCC3)C1
REMARK SMILES IDX 8 1 7 2 6 3 5 4 3 5 4 6 2 7 77 8 91 9 78 10 80 11 79 12 1 13
REMARK SMILES IDX 81 17 82 18 83 19 87 20 84 21 86 22 85 23 88 24 90 25 89 26
REMARK SMILES IDX 9 27 10 28 11 29 12 30 13 31 14 32 15 33 76 34 16 35 75 36
REMARK SMILES IDX 17 37 18 38 19 39 69 40 20 41 74 42 68 43 70 44 21 45 73 46
REMARK SMILES IDX 67 47 66 48 22 50 54 51 34 52 53 53 35 54 38 55 52 56 71 57
REMARK SMILES IDX 36 58 37 59 51 61 72 62 39 63 23 64 24 65 32 66 25 67 26 68
REMARK SMILES IDX 30 69 33 70 27 71 28 72 31 73 29 74 55 75 56 76 64 77 57 78
REMARK SMILES IDX 58 79 62 80 65 81 59 82 60 83 63 84 61 85 40 86 41 87 49 88
REMARK SMILES IDX 42 89 43 90 47 91 50 92 44 93 45 94 48 95 46 96
REMARK H PARENT 1 14 1 15 1 16 70 49 38 60
REMARK Flexibility Score: inf
ROOT
ATOM      1  O   UNL     1      -0.394   1.265  -4.866  1.00  0.00    -0.374 OA
ENDROOT
BRANCH   1   2
ATOM      2  C   UNL     1      -1.172   2.110  -3.993  1.00  0.00     0.202 C 
BRANCH   2   3
ATOM      3  C   UNL     1      -2.275   1.471  -3.111  1.00  0.00     0.261 C 
BRANCH   3   4
ATOM      4  O   UNL     1      -1.815   1.402  -1.737  1.00  0.00    -0.459 OA
BRANCH   4   5
ATOM      5  C   UNL     1      -2.400   0.565  -0.813  1.00  0.00     0.368 C 
ATOM      6  O   UNL     1      -3.455  -0.025  -1.000  1.00  0.00    -0.245 OA
BRANCH   5   7
ATOM      7  C   UNL     1      -1.433   0.406   0.489  1.00  0.00     0.196 C 
ATOM      8  C   UNL     1      -1.164  -1.082   0.939  1.00  0.00     0.081 C 
ATOM      9  C   UNL     1      -0.112   1.212   0.276  1.00  0.00     0.126 C 
ATOM     10  C   UNL     1       0.277  -1.560   1.267  1.00  0.00     0.011 C 
ATOM     11  C   UNL     1       1.205   0.419   0.081  1.00  0.00     0.180 C 
ATOM     12  C   UNL     1       1.374  -0.514   1.255  1.00  0.00     0.046 C 
BRANCH   7  13
ATOM     13  N   UNL     1      -2.233   0.986   1.603  1.00  0.00    -0.343 N 
ATOM     14  H   UNL     1      -3.089   0.445   1.724  1.00  0.00     0.345 HD
ATOM     15  H   UNL     1      -2.470   1.953   1.383  1.00  0.00     0.345 HD
ATOM     16  H   UNL     1      -1.688   0.958   2.464  1.00  0.00     0.345 HD
ENDBRANCH   7  13
BRANCH  11  17
ATOM     17  O   UNL     1       1.649  -0.177  -1.161  1.00  0.00    -0.490 OA
BRANCH  17  18
ATOM     18  C   UNL     1       1.095  -1.265  -1.780  1.00  0.00     0.120 A 
ATOM     19  C   UNL     1       1.894  -2.151  -2.505  1.00  0.00     0.047 A 
ATOM     20  C   UNL     1      -0.263  -1.350  -1.992  1.00  0.00     0.050 A 
ATOM     21  C   UNL     1       1.318  -3.049  -3.439  1.00  0.00     0.008 A 
ATOM     22  C   UNL     1      -0.855  -2.227  -2.867  1.00  0.00    -0.041 A 
ATOM     23  C   UNL     1      -0.058  -3.043  -3.640  1.00  0.00    -0.045 A 
ATOM     24  C   UNL     1      -2.305  -2.355  -3.209  1.00  0.00     0.036 C 
ATOM     25  C   UNL     1      -0.915  -3.738  -4.657  1.00  0.00     0.036 C 
ATOM     26  C   UNL     1      -2.176  -2.844  -4.648  1.00  0.00     0.010 C 
ENDBRANCH  17  18
ENDBRANCH  11  17
ENDBRANCH   5   7
ENDBRANCH   4   5
ENDBRANCH   3   4
ENDBRANCH   2   3
ENDBRANCH   1   2
BRANCH   1  27
ATOM     27  C   UNL     1       0.803   0.722  -4.301  1.00  0.00     0.202 C 
BRANCH  27  28
ATOM     28  C   UNL     1       2.089   1.567  -4.211  1.00  0.00     0.261 C 
BRANCH  28  29
ATOM     29  O   UNL     1       1.790   2.952  -4.130  1.00  0.00    -0.460 OA
BRANCH  29  30
ATOM     30  C   UNL     1       1.848   3.538  -5.348  1.00  0.00     0.338 C 
ATOM     31  O   UNL     1       2.539   3.238  -6.295  1.00  0.00    -0.246 OA
BRANCH  30  32
ATOM     32  C   UNL     1       0.674   4.409  -5.441  1.00  0.00     0.060 A 
ATOM     33  C   UNL     1      -0.173   4.167  -6.527  1.00  0.00     0.016 A 
ATOM     34  C   UNL     1       0.372   5.363  -4.465  1.00  0.00     0.016 A 
ATOM     35  C   UNL     1      -1.295   4.953  -6.696  1.00  0.00     0.010 A 
ATOM     36  C   UNL     1      -0.754   6.159  -4.638  1.00  0.00     0.010 A 
ATOM     37  C   UNL     1      -1.543   5.989  -5.787  1.00  0.00    -0.014 A 
BRANCH  37  38
ATOM     38  C   UNL     1      -2.464   7.048  -6.221  1.00  0.00     0.031 A 
ATOM     39  C   UNL     1      -1.861   8.251  -6.884  1.00  0.00     0.074 A 
ATOM     40  C   UNL     1      -3.789   6.865  -6.134  1.00  0.00     0.049 A 
ATOM     41  N   UNL     1      -2.448   9.296  -7.398  1.00  0.00    -0.248 NA
ATOM     42  C   UNL     1      -0.390   8.273  -6.993  1.00  0.00     0.031 C 
ATOM     43  C   UNL     1      -4.441   5.683  -5.572  1.00  0.00     0.029 A 
ATOM     44  N   UNL     1      -4.820   7.668  -6.533  1.00  0.00    -0.354 N 
ATOM     45  C   UNL     1      -1.423  10.096  -7.885  1.00  0.00     0.074 A 
ATOM     46  C   UNL     1      -0.175   9.438  -7.582  1.00  0.00     0.031 C 
ATOM     47  C   UNL     1      -5.772   5.841  -5.659  1.00  0.00     0.029 A 
ATOM     48  C   UNL     1      -6.055   7.148  -6.246  1.00  0.00     0.049 A 
ATOM     49  H   UNL     1      -4.688   8.533  -6.983  1.00  0.00     0.167 HD
ATOM     50  C   UNL     1      -1.527  11.276  -8.536  1.00  0.00     0.037 A 
ATOM     51  C   UNL     1      -7.271   7.697  -6.419  1.00  0.00     0.037 A 
ATOM     52  C   UNL     1      -2.787  11.905  -8.823  1.00  0.00     0.049 A 
ATOM     53  C   UNL     1      -7.353   9.055  -7.065  1.00  0.00     0.074 A 
ATOM     54  C   UNL     1      -3.027  13.096  -9.478  1.00  0.00     0.029 A 
ATOM     55  N   UNL     1      -4.022  11.386  -8.457  1.00  0.00    -0.354 N 
ATOM     56  N   UNL     1      -6.386   9.809  -7.533  1.00  0.00    -0.248 NA
ATOM     57  C   UNL     1      -8.691   9.639  -7.207  1.00  0.00     0.031 C 
ATOM     58  C   UNL     1      -4.405  13.333  -9.447  1.00  0.00     0.029 A 
ATOM     59  C   UNL     1      -5.029  12.255  -8.836  1.00  0.00     0.049 A 
ATOM     60  H   UNL     1      -4.161  10.527  -7.997  1.00  0.00     0.167 HD
ATOM     61  C   UNL     1      -6.997  10.947  -8.041  1.00  0.00     0.074 A 
ATOM     62  C   UNL     1      -8.422  10.769  -7.845  1.00  0.00     0.031 C 
ATOM     63  C   UNL     1      -6.438  12.043  -8.615  1.00  0.00     0.037 A 
BRANCH  50  64
ATOM     64  C   UNL     1      -0.257  11.973  -8.925  1.00  0.00     0.064 A 
ATOM     65  C   UNL     1       0.587  11.484  -9.933  1.00  0.00     0.173 A 
ATOM     66  C   UNL     1       0.112  13.167  -8.285  1.00  0.00     0.173 A 
ATOM     67  F   UNL     1       0.296  10.334 -10.560  1.00  0.00    -0.203 F 
ATOM     68  C   UNL     1       1.761  12.153 -10.273  1.00  0.00     0.198 A 
ATOM     69  C   UNL     1       1.269  13.849  -8.649  1.00  0.00     0.198 A 
ATOM     70  F   UNL     1      -0.654  13.674  -7.308  1.00  0.00    -0.203 F 
ATOM     71  F   UNL     1       2.577  11.642 -11.206  1.00  0.00    -0.200 F 
ATOM     72  C   UNL     1       2.096  13.339  -9.637  1.00  0.00     0.200 A 
ATOM     73  F   UNL     1       1.585  15.000  -8.039  1.00  0.00    -0.200 F 
ATOM     74  F   UNL     1       3.220  13.988  -9.972  1.00  0.00    -0.200 F 
ENDBRANCH  50  64
BRANCH  51  75
ATOM     75  C   UNL     1      -8.482   6.981  -5.943  1.00  0.00     0.064 A 
ATOM     76  C   UNL     1      -9.458   6.519  -6.835  1.00  0.00     0.173 A 
ATOM     77  C   UNL     1      -8.688   6.745  -4.574  1.00  0.00     0.173 A 
ATOM     78  F   UNL     1      -9.318   6.734  -8.152  1.00  0.00    -0.203 F 
ATOM     79  C   UNL     1     -10.603   5.869  -6.376  1.00  0.00     0.198 A 
ATOM     80  C   UNL     1      -9.815   6.066  -4.119  1.00  0.00     0.198 A 
ATOM     81  F   UNL     1      -7.784   7.164  -3.676  1.00  0.00    -0.203 F 
ATOM     82  F   UNL     1     -11.544   5.481  -7.248  1.00  0.00    -0.200 F 
ATOM     83  C   UNL     1     -10.777   5.636  -5.020  1.00  0.00     0.200 A 
ATOM     84  F   UNL     1      -9.969   5.830  -2.809  1.00  0.00    -0.200 F 
ATOM     85  F   UNL     1     -11.875   5.007  -4.581  1.00  0.00    -0.200 F 
ENDBRANCH  51  75
BRANCH  63  86
ATOM     86  C   UNL     1      -7.376  13.118  -9.080  1.00  0.00     0.064 A 
ATOM     87  C   UNL     1      -8.076  13.925  -8.171  1.00  0.00     0.173 A 
ATOM     88  C   UNL     1      -7.542  13.371 -10.450  1.00  0.00     0.173 A 
ATOM     89  F   UNL     1      -7.960  13.713  -6.851  1.00  0.00    -0.203 F 
ATOM     90  C   UNL     1      -8.934  14.924  -8.619  1.00  0.00     0.198 A 
ATOM     91  C   UNL     1      -8.370  14.396 -10.893  1.00  0.00     0.198 A 
ATOM     92  F   UNL     1      -6.885  12.635 -11.359  1.00  0.00    -0.203 F 
ATOM     93  F   UNL     1      -9.638  15.645  -7.735  1.00  0.00    -0.200 F 
ATOM     94  C   UNL     1      -9.073  15.165  -9.978  1.00  0.00     0.200 A 
ATOM     95  F   UNL     1      -8.488  14.641 -12.205  1.00  0.00    -0.200 F 
ATOM     96  F   UNL     1      -9.893  16.135 -10.406  1.00  0.00    -0.200 F 
ENDBRANCH  63  86
ENDBRANCH  37  38
ENDBRANCH  30  32
ENDBRANCH  29  30
ENDBRANCH  28  29
ENDBRANCH  27  28
ENDBRANCH   1  27
TORSDOF 17
