REMARK SMILES C[C@H](O)[C@H](NC(=O)N1CC[N@@H+]2CCC[C@@H]2C1)C(=O)OCCOCCOC(=O)c1ccc(-c2c3nc(c(-c4c(F)c(F)c(F)c(F)c4F)c4ccc([nH]4)c(-c4c(F)c(F)c(F)c(F)c4F)c4nc(c(-c5c(F)c(F)c(F)c(F)c5F)c5ccc2[nH]5)C=C4)C=C3)cc1
REMARK SMILES IDX 22 1 21 2 20 3 19 4 17 5 18 6 4 7 2 8 1 9 3 10 5 12 6 13
REMARK SMILES IDX 7 15 8 16 9 17 16 18 10 19 15 20 11 21 14 22 12 23 13 25
REMARK SMILES IDX 23 26 24 27 25 28 26 29 27 30 28 31 29 32 90 33 30 34 89 35
REMARK SMILES IDX 31 36 32 37 33 38 83 39 34 40 88 41 82 42 84 43 35 44 87 45
REMARK SMILES IDX 81 46 80 47 36 49 68 50 48 51 67 52 49 53 52 54 66 55 85 56
REMARK SMILES IDX 50 57 51 58 65 60 86 61 53 62 37 63 38 64 46 65 39 66 40 67
REMARK SMILES IDX 44 68 47 69 41 70 42 71 45 72 43 73 69 74 70 75 78 76 71 77
REMARK SMILES IDX 72 78 76 79 79 80 73 81 74 82 77 83 75 84 54 85 55 86 63 87
REMARK SMILES IDX 56 88 57 89 61 90 64 91 58 92 59 93 62 94 60 95
REMARK H PARENT 3 11 5 14 11 24 84 48 52 59
REMARK Flexibility Score: inf
ROOT
ATOM      1  O   UNL     1      -1.716   5.471  -0.048  1.00  0.00    -0.374 OA
ENDROOT
BRANCH   1   2
ATOM      2  C   UNL     1      -1.870   5.483   1.368  1.00  0.00     0.202 C 
BRANCH   2   3
ATOM      3  C   UNL     1      -2.595   4.286   1.985  1.00  0.00     0.261 C 
BRANCH   3   4
ATOM      4  O   UNL     1      -1.917   3.048   1.729  1.00  0.00    -0.462 OA
BRANCH   4   5
ATOM      5  C   UNL     1      -2.510   2.207   0.823  1.00  0.00     0.331 C 
ATOM      6  O   UNL     1      -3.541   2.451   0.210  1.00  0.00    -0.250 OA
BRANCH   5   7
ATOM      7  C   UNL     1      -1.766   0.859   0.761  1.00  0.00     0.222 C 
BRANCH   7   8
ATOM      8  C   UNL     1      -2.594  -0.166   1.567  1.00  0.00     0.145 C 
ATOM      9  C   UNL     1      -3.492  -0.977   0.635  1.00  0.00     0.041 C 
BRANCH   8  10
ATOM     10  O   UNL     1      -3.402   0.408   2.597  1.00  0.00    -0.391 OA
ATOM     11  H   UNL     1      -4.073   0.984   2.199  1.00  0.00     0.211 HD
ENDBRANCH   8  10
ENDBRANCH   7   8
BRANCH   7  12
ATOM     12  N   UNL     1      -0.351   1.056   1.147  1.00  0.00    -0.322 N 
ATOM     13  C   UNL     1       0.641   0.343   1.704  1.00  0.00     0.318 C 
ATOM     14  H   UNL     1      -0.052   1.970   0.936  1.00  0.00     0.166 HD
ATOM     15  O   UNL     1       1.709   0.928   1.887  1.00  0.00    -0.249 OA
BRANCH  13  16
ATOM     16  N   UNL     1       0.397  -0.898   2.192  1.00  0.00    -0.313 N 
ATOM     17  C   UNL     1       0.133  -2.066   1.344  1.00  0.00     0.183 C 
ATOM     18  C   UNL     1       0.860  -1.177   3.550  1.00  0.00     0.186 C 
ATOM     19  C   UNL     1      -0.413  -3.247   2.176  1.00  0.00     0.284 C 
ATOM     20  C   UNL     1       1.369  -2.611   3.771  1.00  0.00     0.204 C 
ATOM     21  N   UNL     1       0.550  -3.696   3.189  1.00  0.00    -0.330 N 
ATOM     22  C   UNL     1       1.484  -2.935   5.263  1.00  0.00     0.073 C 
ATOM     23  C   UNL     1      -0.053  -4.452   4.286  1.00  0.00     0.262 C 
ATOM     24  H   UNL     1       1.159  -4.314   2.653  1.00  0.00     0.348 HD
ATOM     25  C   UNL     1       1.004  -4.370   5.372  1.00  0.00     0.068 C 
ENDBRANCH  13  16
ENDBRANCH   7  12
ENDBRANCH   5   7
ENDBRANCH   4   5
ENDBRANCH   3   4
ENDBRANCH   2   3
ENDBRANCH   1   2
BRANCH   1  26
ATOM     26  C   UNL     1      -0.678   4.659  -0.597  1.00  0.00     0.202 C 
BRANCH  26  27
ATOM     27  C   UNL     1       0.756   5.178  -0.441  1.00  0.00     0.261 C 
BRANCH  27  28
ATOM     28  O   UNL     1       1.192   5.154   0.931  1.00  0.00    -0.460 OA
BRANCH  28  29
ATOM     29  C   UNL     1       1.439   6.370   1.466  1.00  0.00     0.338 C 
ATOM     30  O   UNL     1       1.393   7.455   0.894  1.00  0.00    -0.246 OA
BRANCH  29  31
ATOM     31  C   UNL     1       1.614   6.277   2.925  1.00  0.00     0.060 A 
ATOM     32  C   UNL     1       0.812   7.106   3.720  1.00  0.00     0.016 A 
ATOM     33  C   UNL     1       2.616   5.494   3.500  1.00  0.00     0.016 A 
ATOM     34  C   UNL     1       1.057   7.212   5.086  1.00  0.00     0.010 A 
ATOM     35  C   UNL     1       2.867   5.608   4.873  1.00  0.00     0.010 A 
ATOM     36  C   UNL     1       2.120   6.503   5.661  1.00  0.00    -0.014 A 
BRANCH  36  37
ATOM     37  C   UNL     1       2.546   6.845   7.040  1.00  0.00     0.031 A 
ATOM     38  C   UNL     1       3.705   7.786   7.232  1.00  0.00     0.074 A 
ATOM     39  C   UNL     1       1.874   6.375   8.105  1.00  0.00     0.049 A 
ATOM     40  N   UNL     1       4.238   8.236   8.340  1.00  0.00    -0.248 NA
ATOM     41  C   UNL     1       4.350   8.289   6.008  1.00  0.00     0.031 C 
ATOM     42  C   UNL     1       0.715   5.488   8.047  1.00  0.00     0.029 A 
ATOM     43  N   UNL     1       2.074   6.583   9.447  1.00  0.00    -0.354 N 
ATOM     44  C   UNL     1       5.281   9.066   7.947  1.00  0.00     0.074 A 
ATOM     45  C   UNL     1       5.325   9.037   6.502  1.00  0.00     0.031 C 
ATOM     46  C   UNL     1       0.311   5.216   9.300  1.00  0.00     0.029 A 
ATOM     47  C   UNL     1       1.198   5.892  10.246  1.00  0.00     0.049 A 
ATOM     48  H   UNL     1       2.779   7.171   9.803  1.00  0.00     0.167 HD
ATOM     49  C   UNL     1       6.120   9.792   8.723  1.00  0.00     0.037 A 
ATOM     50  C   UNL     1       1.132   5.804  11.589  1.00  0.00     0.037 A 
ATOM     51  C   UNL     1       6.068   9.828  10.161  1.00  0.00     0.049 A 
ATOM     52  C   UNL     1       2.105   6.590  12.430  1.00  0.00     0.074 A 
ATOM     53  C   UNL     1       6.858  10.554  11.036  1.00  0.00     0.029 A 
ATOM     54  N   UNL     1       5.178   9.100  10.936  1.00  0.00    -0.354 N 
ATOM     55  N   UNL     1       3.066   7.397  12.050  1.00  0.00    -0.248 NA
ATOM     56  C   UNL     1       1.975   6.460  13.888  1.00  0.00     0.031 C 
ATOM     57  C   UNL     1       6.478  10.227  12.342  1.00  0.00     0.029 A 
ATOM     58  C   UNL     1       5.415   9.341  12.280  1.00  0.00     0.049 A 
ATOM     59  H   UNL     1       4.481   8.501  10.584  1.00  0.00     0.167 HD
ATOM     60  C   UNL     1       3.633   7.893  13.217  1.00  0.00     0.074 A 
ATOM     61  C   UNL     1       2.899   7.306  14.319  1.00  0.00     0.031 C 
ATOM     62  C   UNL     1       4.668   8.756  13.365  1.00  0.00     0.037 A 
BRANCH  49  63
ATOM     63  C   UNL     1       7.186  10.592   8.035  1.00  0.00     0.064 A 
ATOM     64  C   UNL     1       6.886  11.756   7.311  1.00  0.00     0.173 A 
ATOM     65  C   UNL     1       8.533  10.213   8.138  1.00  0.00     0.173 A 
ATOM     66  F   UNL     1       5.613  12.154   7.170  1.00  0.00    -0.203 F 
ATOM     67  C   UNL     1       7.894  12.498   6.699  1.00  0.00     0.198 A 
ATOM     68  C   UNL     1       9.540  10.972   7.549  1.00  0.00     0.198 A 
ATOM     69  F   UNL     1       8.874   9.110   8.822  1.00  0.00    -0.203 F 
ATOM     70  F   UNL     1       7.581  13.585   5.979  1.00  0.00    -0.200 F 
ATOM     71  C   UNL     1       9.220  12.110   6.825  1.00  0.00     0.200 A 
ATOM     72  F   UNL     1      10.821  10.602   7.682  1.00  0.00    -0.200 F 
ATOM     73  F   UNL     1      10.189  12.832   6.245  1.00  0.00    -0.200 F 
ENDBRANCH  49  63
BRANCH  50  74
ATOM     74  C   UNL     1       0.113   4.929  12.226  1.00  0.00     0.064 A 
ATOM     75  C   UNL     1      -0.944   5.467  12.973  1.00  0.00     0.173 A 
ATOM     76  C   UNL     1       0.192   3.532  12.121  1.00  0.00     0.173 A 
ATOM     77  F   UNL     1      -1.049   6.796  13.124  1.00  0.00    -0.203 F 
ATOM     78  C   UNL     1      -1.869   4.642  13.610  1.00  0.00     0.198 A 
ATOM     79  C   UNL     1      -0.750   2.709  12.733  1.00  0.00     0.198 A 
ATOM     80  F   UNL     1       1.185   2.967  11.418  1.00  0.00    -0.203 F 
ATOM     81  F   UNL     1      -2.839   5.181  14.360  1.00  0.00    -0.200 F 
ATOM     82  C   UNL     1      -1.774   3.264  13.485  1.00  0.00     0.200 A 
ATOM     83  F   UNL     1      -0.661   1.379  12.599  1.00  0.00    -0.200 F 
ATOM     84  F   UNL     1      -2.664   2.471  14.096  1.00  0.00    -0.200 F 
ENDBRANCH  50  74
BRANCH  62  85
ATOM     85  C   UNL     1       5.042   9.151  14.765  1.00  0.00     0.064 A 
ATOM     86  C   UNL     1       5.667   8.254  15.644  1.00  0.00     0.173 A 
ATOM     87  C   UNL     1       4.796  10.455  15.222  1.00  0.00     0.173 A 
ATOM     88  F   UNL     1       5.912   6.992  15.259  1.00  0.00    -0.203 F 
ATOM     89  C   UNL     1       6.002   8.639  16.939  1.00  0.00     0.198 A 
ATOM     90  C   UNL     1       5.162  10.845  16.508  1.00  0.00     0.198 A 
ATOM     91  F   UNL     1       4.209  11.355  14.419  1.00  0.00    -0.203 F 
ATOM     92  F   UNL     1       6.549   7.749  17.780  1.00  0.00    -0.200 F 
ATOM     93  C   UNL     1       5.755   9.934  17.368  1.00  0.00     0.200 A 
ATOM     94  F   UNL     1       4.935  12.102  16.915  1.00  0.00    -0.200 F 
ATOM     95  F   UNL     1       6.081  10.303  18.614  1.00  0.00    -0.200 F 
ENDBRANCH  62  85
ENDBRANCH  36  37
ENDBRANCH  29  31
ENDBRANCH  28  29
ENDBRANCH  27  28
ENDBRANCH  26  27
ENDBRANCH   1  26
TORSDOF 18
