REMARK SMILES C[N@H+]1CC[C@@H](Cc2nccnc2C(=O)OCCOCCOC(=O)c2ccc(-c3c4nc(c(-c5c(F)c(F)c(F)c(F)c5F)c5ccc([nH]5)c(-c5c(F)c(F)c(F)c(F)c5F)c5nc(c(-c6c(F)c(F)c(F)c(F)c6F)c6ccc3[nH]6)C=C5)C=C4)cc2)C1
REMARK SMILES IDX 18 1 17 2 16 3 15 4 13 5 14 6 12 7 7 8 8 9 9 10 11 11 10 12
REMARK SMILES IDX 6 13 5 14 1 15 2 16 3 17 87 18 4 20 19 21 20 22 21 23 22 24
REMARK SMILES IDX 23 25 24 26 25 27 86 28 26 29 85 30 27 31 28 32 29 33 79 34
REMARK SMILES IDX 30 35 84 36 78 37 80 38 31 39 83 40 77 41 76 42 32 44 64 45
REMARK SMILES IDX 44 46 63 47 45 48 48 49 62 50 81 51 46 52 47 53 61 55 82 56
REMARK SMILES IDX 49 57 33 58 34 59 42 60 35 61 36 62 40 63 43 64 37 65 38 66
REMARK SMILES IDX 41 67 39 68 65 69 66 70 74 71 67 72 68 73 72 74 75 75 69 76
REMARK SMILES IDX 70 77 73 78 71 79 50 80 51 81 59 82 52 83 53 84 57 85 60 86
REMARK SMILES IDX 54 87 55 88 58 89 56 90
REMARK H PARENT 2 19 80 43 48 54
REMARK Flexibility Score: inf
ROOT
ATOM      1  O   UNL     1      -0.017  -2.380   5.287  1.00  0.00    -0.374 OA
ENDROOT
BRANCH   1   2
ATOM      2  C   UNL     1       0.789  -1.202   5.259  1.00  0.00     0.202 C 
BRANCH   2   3
ATOM      3  C   UNL     1       2.268  -1.438   4.954  1.00  0.00     0.261 C 
BRANCH   3   4
ATOM      4  O   UNL     1       2.410  -1.884   3.593  1.00  0.00    -0.458 OA
BRANCH   4   5
ATOM      5  C   UNL     1       3.002  -3.089   3.418  1.00  0.00     0.358 C 
ATOM      6  O   UNL     1       3.573  -3.719   4.297  1.00  0.00    -0.244 OA
BRANCH   5   7
ATOM      7  C   UNL     1       2.748  -3.641   2.047  1.00  0.00     0.169 A 
ATOM      8  C   UNL     1       2.597  -2.911   0.860  1.00  0.00     0.074 A 
ATOM      9  N   UNL     1       2.437  -3.567  -0.331  1.00  0.00    -0.257 NA
ATOM     10  C   UNL     1       2.368  -4.913  -0.306  1.00  0.00     0.131 A 
ATOM     11  N   UNL     1       2.658  -5.008   2.053  1.00  0.00    -0.246 NA
ATOM     12  C   UNL     1       2.461  -5.620   0.869  1.00  0.00     0.132 A 
BRANCH   8  13
ATOM     13  C   UNL     1       2.632  -1.407   0.727  1.00  0.00     0.068 C 
BRANCH  13  14
ATOM     14  C   UNL     1       1.740  -0.874  -0.416  1.00  0.00     0.056 C 
ATOM     15  C   UNL     1      -1.885  -0.249  -0.507  1.00  0.00     0.332 C 
ATOM     16  N   UNL     1      -0.467  -0.174  -0.820  1.00  0.00    -0.337 N 
ATOM     17  C   UNL     1       0.204   0.986  -0.244  1.00  0.00     0.262 C 
ATOM     18  C   UNL     1       0.275  -1.317  -0.287  1.00  0.00     0.266 C 
ATOM     19  H   UNL     1      -0.459  -0.136  -1.839  1.00  0.00     0.347 HD
ATOM     20  C   UNL     1       1.674   0.661  -0.452  1.00  0.00     0.071 C 
ENDBRANCH  13  14
ENDBRANCH   8  13
ENDBRANCH   5   7
ENDBRANCH   4   5
ENDBRANCH   3   4
ENDBRANCH   2   3
ENDBRANCH   1   2
BRANCH   1  21
ATOM     21  C   UNL     1      -0.487  -2.866   4.029  1.00  0.00     0.202 C 
BRANCH  21  22
ATOM     22  C   UNL     1      -1.741  -2.173   3.483  1.00  0.00     0.261 C 
BRANCH  22  23
ATOM     23  O   UNL     1      -1.501  -0.793   3.152  1.00  0.00    -0.460 OA
BRANCH  23  24
ATOM     24  C   UNL     1      -2.002   0.117   4.023  1.00  0.00     0.338 C 
ATOM     25  O   UNL     1      -2.663  -0.092   5.027  1.00  0.00    -0.246 OA
BRANCH  24  26
ATOM     26  C   UNL     1      -1.493   1.449   3.653  1.00  0.00     0.060 A 
ATOM     27  C   UNL     1      -0.715   2.165   4.569  1.00  0.00     0.016 A 
ATOM     28  C   UNL     1      -1.800   2.000   2.412  1.00  0.00     0.016 A 
ATOM     29  C   UNL     1      -0.255   3.445   4.245  1.00  0.00     0.010 A 
ATOM     30  C   UNL     1      -1.292   3.253   2.067  1.00  0.00     0.010 A 
ATOM     31  C   UNL     1      -0.555   4.008   2.996  1.00  0.00    -0.014 A 
BRANCH  31  32
ATOM     32  C   UNL     1      -0.278   5.441   2.702  1.00  0.00     0.031 A 
ATOM     33  C   UNL     1      -1.452   6.369   2.502  1.00  0.00     0.074 A 
ATOM     34  C   UNL     1       0.976   5.917   2.585  1.00  0.00     0.049 A 
ATOM     35  N   UNL     1      -1.476   7.612   2.096  1.00  0.00    -0.248 NA
ATOM     36  C   UNL     1      -2.784   5.800   2.764  1.00  0.00     0.031 C 
ATOM     37  C   UNL     1       2.201   5.139   2.760  1.00  0.00     0.029 A 
ATOM     38  N   UNL     1       1.423   7.179   2.273  1.00  0.00    -0.354 N 
ATOM     39  C   UNL     1      -2.821   7.954   2.014  1.00  0.00     0.074 A 
ATOM     40  C   UNL     1      -3.581   6.773   2.356  1.00  0.00     0.031 C 
ATOM     41  C   UNL     1       3.261   5.942   2.561  1.00  0.00     0.029 A 
ATOM     42  C   UNL     1       2.792   7.279   2.201  1.00  0.00     0.049 A 
ATOM     43  H   UNL     1       0.819   7.940   2.117  1.00  0.00     0.167 HD
ATOM     44  C   UNL     1      -3.377   9.150   1.709  1.00  0.00     0.037 A 
ATOM     45  C   UNL     1       3.573   8.325   1.863  1.00  0.00     0.037 A 
ATOM     46  C   UNL     1      -2.621  10.338   1.420  1.00  0.00     0.049 A 
ATOM     47  C   UNL     1       2.931   9.644   1.503  1.00  0.00     0.074 A 
ATOM     48  C   UNL     1      -3.088  11.611   1.149  1.00  0.00     0.029 A 
ATOM     49  N   UNL     1      -1.237  10.399   1.372  1.00  0.00    -0.354 N 
ATOM     50  N   UNL     1       1.661   9.965   1.459  1.00  0.00    -0.248 NA
ATOM     51  C   UNL     1       3.837  10.748   1.149  1.00  0.00     0.031 C 
ATOM     52  C   UNL     1      -1.988  12.431   0.883  1.00  0.00     0.029 A 
ATOM     53  C   UNL     1      -0.833  11.685   1.056  1.00  0.00     0.049 A 
ATOM     54  H   UNL     1      -0.631   9.640   1.537  1.00  0.00     0.167 HD
ATOM     55  C   UNL     1       1.617  11.312   1.116  1.00  0.00     0.074 A 
ATOM     56  C   UNL     1       2.988  11.750   0.968  1.00  0.00     0.031 C 
ATOM     57  C   UNL     1       0.537  12.114   0.941  1.00  0.00     0.037 A 
BRANCH  44  58
ATOM     58  C   UNL     1      -4.877   9.229   1.667  1.00  0.00     0.064 A 
ATOM     59  C   UNL     1      -5.659   9.101   2.825  1.00  0.00     0.173 A 
ATOM     60  C   UNL     1      -5.540   9.456   0.452  1.00  0.00     0.173 A 
ATOM     61  F   UNL     1      -5.077   8.868   4.012  1.00  0.00    -0.203 F 
ATOM     62  C   UNL     1      -7.049   9.157   2.762  1.00  0.00     0.198 A 
ATOM     63  C   UNL     1      -6.928   9.551   0.398  1.00  0.00     0.198 A 
ATOM     64  F   UNL     1      -4.842   9.591  -0.686  1.00  0.00    -0.203 F 
ATOM     65  F   UNL     1      -7.776   8.966   3.872  1.00  0.00    -0.200 F 
ATOM     66  C   UNL     1      -7.682   9.390   1.551  1.00  0.00     0.200 A 
ATOM     67  F   UNL     1      -7.537   9.793  -0.771  1.00  0.00    -0.200 F 
ATOM     68  F   UNL     1      -9.019   9.452   1.493  1.00  0.00    -0.200 F 
ENDBRANCH  44  58
BRANCH  45  69
ATOM     69  C   UNL     1       5.054   8.181   1.851  1.00  0.00     0.064 A 
ATOM     70  C   UNL     1       5.854   8.872   2.774  1.00  0.00     0.173 A 
ATOM     71  C   UNL     1       5.705   7.377   0.904  1.00  0.00     0.173 A 
ATOM     72  F   UNL     1       5.283   9.675   3.684  1.00  0.00    -0.203 F 
ATOM     73  C   UNL     1       7.244   8.785   2.733  1.00  0.00     0.198 A 
ATOM     74  C   UNL     1       7.094   7.265   0.884  1.00  0.00     0.198 A 
ATOM     75  F   UNL     1       4.989   6.694  -0.002  1.00  0.00    -0.203 F 
ATOM     76  F   UNL     1       7.984   9.501   3.591  1.00  0.00    -0.200 F 
ATOM     77  C   UNL     1       7.863   7.977   1.792  1.00  0.00     0.200 A 
ATOM     78  F   UNL     1       7.687   6.471  -0.018  1.00  0.00    -0.200 F 
ATOM     79  F   UNL     1       9.200   7.891   1.753  1.00  0.00    -0.200 F 
ENDBRANCH  45  69
BRANCH  57  80
ATOM     80  C   UNL     1       0.783  13.565   0.640  1.00  0.00     0.064 A 
ATOM     81  C   UNL     1       1.280  13.994  -0.599  1.00  0.00     0.173 A 
ATOM     82  C   UNL     1       0.451  14.546   1.589  1.00  0.00     0.173 A 
ATOM     83  F   UNL     1       1.623  13.098  -1.536  1.00  0.00    -0.203 F 
ATOM     84  C   UNL     1       1.456  15.350  -0.868  1.00  0.00     0.198 A 
ATOM     85  C   UNL     1       0.596  15.900   1.304  1.00  0.00     0.198 A 
ATOM     86  F   UNL     1      -0.038  14.190   2.787  1.00  0.00    -0.203 F 
ATOM     87  F   UNL     1       1.973  15.735  -2.043  1.00  0.00    -0.200 F 
ATOM     88  C   UNL     1       1.105  16.301   0.079  1.00  0.00     0.200 A 
ATOM     89  F   UNL     1       0.237  16.817   2.213  1.00  0.00    -0.200 F 
ATOM     90  F   UNL     1       1.260  17.605  -0.189  1.00  0.00    -0.200 F 
ENDBRANCH  57  80
ENDBRANCH  31  32
ENDBRANCH  24  26
ENDBRANCH  23  24
ENDBRANCH  22  23
ENDBRANCH  21  22
ENDBRANCH   1  21
TORSDOF 16
