REMARK SMILES C[C@H](C(=O)OCCOCCOC(=O)c1ccc(-c2c3nc(c(-c4c(F)c(F)c(F)c(F)c4F)c4ccc([nH]4)c(-c4c(F)c(F)c(F)c(F)c4F)c4nc(c(-c5c(F)c(F)c(F)c(F)c5F)c5ccc2[nH]5)C=C4)C=C3)cc1)[C@@H](C)Nc1ccccc1Oc1ccccc1
REMARK SMILES IDX 6 1 5 2 3 3 4 4 2 5 1 6 77 7 78 8 79 9 80 11 81 12 85 13
REMARK SMILES IDX 82 14 84 15 83 16 86 17 87 18 88 19 92 20 89 21 91 22 90 23
REMARK SMILES IDX 7 24 8 25 9 26 10 27 11 28 12 29 13 30 14 31 15 32 76 33
REMARK SMILES IDX 16 34 75 35 17 36 18 37 19 38 69 39 20 40 74 41 68 42 70 43
REMARK SMILES IDX 21 44 73 45 67 46 66 47 22 49 54 50 34 51 53 52 35 53 38 54
REMARK SMILES IDX 52 55 71 56 36 57 37 58 51 60 72 61 39 62 23 63 24 64 32 65
REMARK SMILES IDX 25 66 26 67 30 68 33 69 27 70 28 71 31 72 29 73 55 74 56 75
REMARK SMILES IDX 64 76 57 77 58 78 62 79 65 80 59 81 60 82 63 83 61 84 40 85
REMARK SMILES IDX 41 86 49 87 42 88 43 89 47 90 50 91 44 92 45 93 48 94 46 95
REMARK H PARENT 79 10 70 48 38 59
REMARK Flexibility Score: inf
ROOT
ATOM      1  C   UNL     1       2.379   0.668   1.347  1.00  0.00     0.261 C 
ENDROOT
BRANCH   1   2
ATOM      2  O   UNL     1       1.707   0.620   0.073  1.00  0.00    -0.463 OA
BRANCH   2   3
ATOM      3  C   UNL     1       2.012  -0.416  -0.752  1.00  0.00     0.310 C 
ATOM      4  O   UNL     1       2.861  -1.260  -0.493  1.00  0.00    -0.252 OA
BRANCH   3   5
ATOM      5  C   UNL     1       1.250  -0.352  -2.083  1.00  0.00     0.118 C 
ATOM      6  C   UNL     1       1.389  -1.714  -2.773  1.00  0.00     0.022 C 
BRANCH   5   7
ATOM      7  C   UNL     1      -0.234   0.117  -1.955  1.00  0.00     0.090 C 
ATOM      8  C   UNL     1      -0.237   1.621  -1.638  1.00  0.00     0.031 C 
BRANCH   7   9
ATOM      9  N   UNL     1      -0.952  -0.045  -3.224  1.00  0.00    -0.379 N 
ATOM     10  H   UNL     1      -0.579   0.462  -3.981  1.00  0.00     0.160 HD
BRANCH   9  11
ATOM     11  C   UNL     1      -2.075  -0.801  -3.522  1.00  0.00     0.078 A 
ATOM     12  C   UNL     1      -2.022  -1.464  -4.772  1.00  0.00     0.029 A 
ATOM     13  C   UNL     1      -3.219  -1.063  -2.741  1.00  0.00     0.150 A 
ATOM     14  C   UNL     1      -3.014  -2.344  -5.219  1.00  0.00     0.002 A 
ATOM     15  C   UNL     1      -4.222  -1.949  -3.198  1.00  0.00     0.049 A 
ATOM     16  C   UNL     1      -4.123  -2.588  -4.428  1.00  0.00     0.004 A 
BRANCH  13  17
ATOM     17  O   UNL     1      -3.485  -0.630  -1.465  1.00  0.00    -0.455 OA
BRANCH  17  18
ATOM     18  C   UNL     1      -3.429   0.695  -1.133  1.00  0.00     0.127 A 
ATOM     19  C   UNL     1      -3.010   0.909   0.177  1.00  0.00     0.047 A 
ATOM     20  C   UNL     1      -3.735   1.782  -1.947  1.00  0.00     0.047 A 
ATOM     21  C   UNL     1      -2.727   2.193   0.620  1.00  0.00     0.004 A 
ATOM     22  C   UNL     1      -3.510   3.083  -1.470  1.00  0.00     0.004 A 
ATOM     23  C   UNL     1      -2.973   3.286  -0.198  1.00  0.00     0.000 A 
ENDBRANCH  17  18
ENDBRANCH  13  17
ENDBRANCH   9  11
ENDBRANCH   7   9
ENDBRANCH   5   7
ENDBRANCH   3   5
ENDBRANCH   2   3
ENDBRANCH   1   2
BRANCH   1  24
ATOM     24  C   UNL     1       1.448   0.217   2.474  1.00  0.00     0.202 C 
BRANCH  24  25
ATOM     25  O   UNL     1       1.156  -1.180   2.441  1.00  0.00    -0.374 OA
BRANCH  25  26
ATOM     26  C   UNL     1      -0.018  -1.529   1.706  1.00  0.00     0.202 C 
BRANCH  26  27
ATOM     27  C   UNL     1      -1.283  -1.562   2.569  1.00  0.00     0.261 C 
BRANCH  27  28
ATOM     28  O   UNL     1      -1.640  -0.229   2.994  1.00  0.00    -0.460 OA
BRANCH  28  29
ATOM     29  C   UNL     1      -1.396   0.059   4.296  1.00  0.00     0.338 C 
ATOM     30  O   UNL     1      -1.032  -0.706   5.165  1.00  0.00    -0.246 OA
BRANCH  29  31
ATOM     31  C   UNL     1      -1.462   1.527   4.496  1.00  0.00     0.060 A 
ATOM     32  C   UNL     1      -0.410   2.133   5.186  1.00  0.00     0.016 A 
ATOM     33  C   UNL     1      -2.528   2.303   4.038  1.00  0.00     0.016 A 
ATOM     34  C   UNL     1      -0.441   3.504   5.455  1.00  0.00     0.010 A 
ATOM     35  C   UNL     1      -2.524   3.691   4.247  1.00  0.00     0.010 A 
ATOM     36  C   UNL     1      -1.510   4.297   5.011  1.00  0.00    -0.014 A 
BRANCH  36  37
ATOM     37  C   UNL     1      -1.646   5.700   5.505  1.00  0.00     0.031 A 
ATOM     38  C   UNL     1      -2.766   6.037   6.461  1.00  0.00     0.074 A 
ATOM     39  C   UNL     1      -0.754   6.657   5.179  1.00  0.00     0.049 A 
ATOM     40  N   UNL     1      -3.039   7.170   7.061  1.00  0.00    -0.248 NA
ATOM     41  C   UNL     1      -3.712   4.955   6.778  1.00  0.00     0.031 C 
ATOM     42  C   UNL     1       0.385   6.486   4.280  1.00  0.00     0.029 A 
ATOM     43  N   UNL     1      -0.662   7.970   5.585  1.00  0.00    -0.354 N 
ATOM     44  C   UNL     1      -4.184   6.935   7.813  1.00  0.00     0.074 A 
ATOM     45  C   UNL     1      -4.592   5.574   7.548  1.00  0.00     0.031 C 
ATOM     46  C   UNL     1       1.076   7.638   4.222  1.00  0.00     0.029 A 
ATOM     47  C   UNL     1       0.413   8.642   5.054  1.00  0.00     0.049 A 
ATOM     48  H   UNL     1      -1.308   8.389   6.199  1.00  0.00     0.167 HD
ATOM     49  C   UNL     1      -4.828   7.761   8.671  1.00  0.00     0.037 A 
ATOM     50  C   UNL     1       0.817   9.919   5.216  1.00  0.00     0.037 A 
ATOM     51  C   UNL     1      -4.422   9.108   8.967  1.00  0.00     0.049 A 
ATOM     52  C   UNL     1       0.048  10.840   6.133  1.00  0.00     0.074 A 
ATOM     53  C   UNL     1      -4.989  10.001   9.860  1.00  0.00     0.029 A 
ATOM     54  N   UNL     1      -3.353   9.761   8.373  1.00  0.00    -0.354 N 
ATOM     55  N   UNL     1      -0.998  10.584   6.881  1.00  0.00    -0.248 NA
ATOM     56  C   UNL     1       0.523  12.229   6.231  1.00  0.00     0.031 C 
ATOM     57  C   UNL     1      -4.306  11.216   9.757  1.00  0.00     0.029 A 
ATOM     58  C   UNL     1      -3.268  11.059   8.854  1.00  0.00     0.049 A 
ATOM     59  H   UNL     1      -2.745   9.362   7.710  1.00  0.00     0.167 HD
ATOM     60  C   UNL     1      -1.280  11.764   7.562  1.00  0.00     0.074 A 
ATOM     61  C   UNL     1      -0.289  12.733   7.150  1.00  0.00     0.031 C 
ATOM     62  C   UNL     1      -2.272  12.018   8.451  1.00  0.00     0.037 A 
BRANCH  49  63
ATOM     63  C   UNL     1      -6.061   7.232   9.349  1.00  0.00     0.064 A 
ATOM     64  C   UNL     1      -5.997   6.225  10.324  1.00  0.00     0.173 A 
ATOM     65  C   UNL     1      -7.321   7.767   9.040  1.00  0.00     0.173 A 
ATOM     66  F   UNL     1      -4.819   5.670  10.646  1.00  0.00    -0.203 F 
ATOM     67  C   UNL     1      -7.152   5.751  10.941  1.00  0.00     0.198 A 
ATOM     68  C   UNL     1      -8.469   7.316   9.685  1.00  0.00     0.198 A 
ATOM     69  F   UNL     1      -7.438   8.736   8.120  1.00  0.00    -0.203 F 
ATOM     70  F   UNL     1      -7.072   4.750  11.828  1.00  0.00    -0.200 F 
ATOM     71  C   UNL     1      -8.385   6.303  10.628  1.00  0.00     0.200 A 
ATOM     72  F   UNL     1      -9.657   7.862   9.393  1.00  0.00    -0.200 F 
ATOM     73  F   UNL     1      -9.494   5.852  11.229  1.00  0.00    -0.200 F 
ENDBRANCH  49  63
BRANCH  50  74
ATOM     74  C   UNL     1       2.022  10.421   4.498  1.00  0.00     0.064 A 
ATOM     75  C   UNL     1       3.178  10.803   5.196  1.00  0.00     0.173 A 
ATOM     76  C   UNL     1       2.025  10.575   3.104  1.00  0.00     0.173 A 
ATOM     77  F   UNL     1       3.215  10.705   6.533  1.00  0.00    -0.203 F 
ATOM     78  C   UNL     1       4.279  11.340   4.530  1.00  0.00     0.198 A 
ATOM     79  C   UNL     1       3.139  11.081   2.436  1.00  0.00     0.198 A 
ATOM     80  F   UNL     1       0.945  10.232   2.388  1.00  0.00    -0.203 F 
ATOM     81  F   UNL     1       5.346  11.751   5.228  1.00  0.00    -0.200 F 
ATOM     82  C   UNL     1       4.261  11.473   3.150  1.00  0.00     0.200 A 
ATOM     83  F   UNL     1       3.120  11.198   1.101  1.00  0.00    -0.200 F 
ATOM     84  F   UNL     1       5.318  11.990   2.510  1.00  0.00    -0.200 F 
ENDBRANCH  50  74
BRANCH  62  85
ATOM     85  C   UNL     1      -2.319  13.383   9.081  1.00  0.00     0.064 A 
ATOM     86  C   UNL     1      -2.667  14.527   8.348  1.00  0.00     0.173 A 
ATOM     87  C   UNL     1      -2.059  13.540  10.452  1.00  0.00     0.173 A 
ATOM     88  F   UNL     1      -2.915  14.437   7.032  1.00  0.00    -0.203 F 
ATOM     89  C   UNL     1      -2.726  15.779   8.957  1.00  0.00     0.198 A 
ATOM     90  C   UNL     1      -2.153  14.787  11.065  1.00  0.00     0.198 A 
ATOM     91  F   UNL     1      -1.732  12.479  11.204  1.00  0.00    -0.203 F 
ATOM     92  F   UNL     1      -3.011  16.865   8.225  1.00  0.00    -0.200 F 
ATOM     93  C   UNL     1      -2.478  15.907  10.315  1.00  0.00     0.200 A 
ATOM     94  F   UNL     1      -1.932  14.904  12.381  1.00  0.00    -0.200 F 
ATOM     95  F   UNL     1      -2.545  17.110  10.900  1.00  0.00    -0.200 F 
ENDBRANCH  62  85
ENDBRANCH  36  37
ENDBRANCH  29  31
ENDBRANCH  28  29
ENDBRANCH  27  28
ENDBRANCH  26  27
ENDBRANCH  25  26
ENDBRANCH  24  25
ENDBRANCH   1  24
TORSDOF 19
