REMARK SMILES CC(C)COc1cccc(C(=O)Nc2ccc(O)c(C(=O)OCCOCCOC(=O)c3ccc(-c4c5nc(c(-c6c(F)c(F)c(F)c(F)c6F)c6ccc([nH]6)c(-c6c(F)c(F)c(F)c(F)c6F)c6nc(c(-c7c(F)c(F)c(F)c(F)c7F)c7ccc4[nH]7)C=C6)C=C5)cc3)c2)c1
REMARK SMILES IDX 23 1 22 2 20 3 21 4 19 5 14 6 15 7 94 8 16 9 17 10 13 11
REMARK SMILES IDX 11 12 12 13 10 15 6 16 7 17 95 18 8 19 9 20 5 21 4 22 2 23
REMARK SMILES IDX 1 24 3 25 18 26 24 28 25 29 26 30 27 31 28 32 29 33 30 34
REMARK SMILES IDX 31 35 32 36 93 37 33 38 92 39 34 40 35 41 36 42 86 43 37 44
REMARK SMILES IDX 91 45 85 46 87 47 38 48 90 49 84 50 83 51 39 53 71 54 51 55
REMARK SMILES IDX 70 56 52 57 55 58 69 59 88 60 53 61 54 62 68 64 89 65 56 66
REMARK SMILES IDX 40 67 41 68 49 69 42 70 43 71 47 72 50 73 44 74 45 75 48 76
REMARK SMILES IDX 46 77 72 78 73 79 81 80 74 81 75 82 79 83 82 84 76 85 77 86
REMARK SMILES IDX 80 87 78 88 57 89 58 90 66 91 59 92 60 93 64 94 67 95 61 96
REMARK SMILES IDX 62 97 65 98 63 99
REMARK H PARENT 13 14 18 27 87 52 55 63
REMARK Flexibility Score: inf
ROOT
ATOM      1  C   UNL     1      -0.879   2.388  -3.930  1.00  0.00     0.261 C 
ENDROOT
BRANCH   1   2
ATOM      2  O   UNL     1       0.329   2.259  -3.164  1.00  0.00    -0.460 OA
BRANCH   2   3
ATOM      3  C   UNL     1       0.606   0.996  -2.782  1.00  0.00     0.342 C 
ATOM      4  O   UNL     1      -0.011  -0.018  -3.082  1.00  0.00    -0.246 OA
BRANCH   3   5
ATOM      5  C   UNL     1       1.848   0.903  -1.997  1.00  0.00     0.103 A 
ATOM      6  C   UNL     1       2.957   1.474   0.057  1.00  0.00     0.042 A 
ATOM      7  C   UNL     1       3.791   0.356  -0.084  1.00  0.00     0.030 A 
ATOM      8  C   UNL     1       2.091   1.827  -0.978  1.00  0.00     0.045 A 
ATOM      9  C   UNL     1       3.629  -0.510  -1.168  1.00  0.00     0.049 A 
ATOM     10  C   UNL     1       2.613  -0.268  -2.083  1.00  0.00     0.130 A 
BRANCH   6  11
ATOM     11  N   UNL     1       2.940   2.111   1.309  1.00  0.00    -0.322 N 
ATOM     12  C   UNL     1       1.925   2.735   2.021  1.00  0.00     0.255 C 
ATOM     13  O   UNL     1       2.241   3.391   3.016  1.00  0.00    -0.269 OA
ATOM     14  H   UNL     1       3.811   2.116   1.768  1.00  0.00     0.170 HD
BRANCH  12  15
ATOM     15  C   UNL     1       0.465   2.570   1.722  1.00  0.00     0.043 A 
ATOM     16  C   UNL     1      -1.392   1.406   0.654  1.00  0.00     0.120 A 
ATOM     17  C   UNL     1      -2.279   2.367   1.119  1.00  0.00     0.046 A 
ATOM     18  C   UNL     1      -0.047   1.490   1.002  1.00  0.00     0.060 A 
ATOM     19  C   UNL     1      -1.813   3.393   1.945  1.00  0.00     0.005 A 
ATOM     20  C   UNL     1      -0.445   3.503   2.233  1.00  0.00     0.014 A 
BRANCH  16  21
ATOM     21  O   UNL     1      -1.813   0.521  -0.300  1.00  0.00    -0.493 OA
BRANCH  21  22
ATOM     22  C   UNL     1      -1.824  -0.864   0.092  1.00  0.00     0.232 C 
BRANCH  22  23
ATOM     23  C   UNL     1      -0.468  -1.571  -0.121  1.00  0.00     0.020 C 
ATOM     24  C   UNL     1       0.190  -1.932   1.214  1.00  0.00     0.011 C 
ATOM     25  C   UNL     1      -0.599  -2.840  -0.964  1.00  0.00     0.011 C 
ENDBRANCH  22  23
ENDBRANCH  21  22
ENDBRANCH  16  21
ENDBRANCH  12  15
ENDBRANCH   6  11
BRANCH  10  26
ATOM     26  O   UNL     1       2.360  -1.258  -2.995  1.00  0.00    -0.507 OA
ATOM     27  H   UNL     1       2.898  -2.024  -3.017  1.00  0.00     0.293 HD
ENDBRANCH  10  26
ENDBRANCH   3   5
ENDBRANCH   2   3
ENDBRANCH   1   2
BRANCH   1  28
ATOM     28  C   UNL     1      -0.634   2.620  -5.425  1.00  0.00     0.202 C 
BRANCH  28  29
ATOM     29  O   UNL     1      -0.072   1.596  -6.234  1.00  0.00    -0.374 OA
BRANCH  29  30
ATOM     30  C   UNL     1       1.189   1.024  -5.921  1.00  0.00     0.202 C 
BRANCH  30  31
ATOM     31  C   UNL     1       2.454   1.893  -5.832  1.00  0.00     0.261 C 
BRANCH  31  32
ATOM     32  O   UNL     1       2.287   3.152  -5.167  1.00  0.00    -0.460 OA
BRANCH  32  33
ATOM     33  C   UNL     1       2.284   4.217  -6.005  1.00  0.00     0.338 C 
ATOM     34  O   UNL     1       2.429   4.212  -7.214  1.00  0.00    -0.246 OA
BRANCH  33  35
ATOM     35  C   UNL     1       1.917   5.442  -5.275  1.00  0.00     0.060 A 
ATOM     36  C   UNL     1       0.784   6.136  -5.718  1.00  0.00     0.016 A 
ATOM     37  C   UNL     1       2.736   5.972  -4.277  1.00  0.00     0.016 A 
ATOM     38  C   UNL     1       0.493   7.393  -5.201  1.00  0.00     0.010 A 
ATOM     39  C   UNL     1       2.453   7.245  -3.771  1.00  0.00     0.010 A 
ATOM     40  C   UNL     1       1.356   7.975  -4.263  1.00  0.00    -0.014 A 
BRANCH  40  41
ATOM     41  C   UNL     1       1.194   9.414  -3.955  1.00  0.00     0.031 A 
ATOM     42  C   UNL     1       2.022  10.414  -4.714  1.00  0.00     0.074 A 
ATOM     43  C   UNL     1       0.272   9.825  -3.069  1.00  0.00     0.049 A 
ATOM     44  N   UNL     1       2.024  11.720  -4.638  1.00  0.00    -0.248 NA
ATOM     45  C   UNL     1       2.973   9.867  -5.695  1.00  0.00     0.031 C 
ATOM     46  C   UNL     1      -0.618   8.949  -2.311  1.00  0.00     0.029 A 
ATOM     47  N   UNL     1      -0.072  11.090  -2.665  1.00  0.00    -0.354 N 
ATOM     48  C   UNL     1       2.971  12.149  -5.560  1.00  0.00     0.074 A 
ATOM     49  C   UNL     1       3.546  10.966  -6.162  1.00  0.00     0.031 C 
ATOM     50  C   UNL     1      -1.405   9.704  -1.525  1.00  0.00     0.029 A 
ATOM     51  C   UNL     1      -1.057  11.111  -1.710  1.00  0.00     0.049 A 
ATOM     52  H   UNL     1       0.348  11.904  -3.025  1.00  0.00     0.167 HD
ATOM     53  C   UNL     1       3.320  13.417  -5.881  1.00  0.00     0.037 A 
ATOM     54  C   UNL     1      -1.602  12.153  -1.052  1.00  0.00     0.037 A 
ATOM     55  C   UNL     1       2.745  14.591  -5.281  1.00  0.00     0.049 A 
ATOM     56  C   UNL     1      -1.150  13.551  -1.383  1.00  0.00     0.074 A 
ATOM     57  C   UNL     1       3.022  15.921  -5.544  1.00  0.00     0.029 A 
ATOM     58  N   UNL     1       1.776  14.572  -4.288  1.00  0.00    -0.354 N 
ATOM     59  N   UNL     1      -0.273  13.950  -2.273  1.00  0.00    -0.248 NA
ATOM     60  C   UNL     1      -1.769  14.645  -0.622  1.00  0.00     0.031 C 
ATOM     61  C   UNL     1       2.253  16.706  -4.678  1.00  0.00     0.029 A 
ATOM     62  C   UNL     1       1.461  15.868  -3.911  1.00  0.00     0.049 A 
ATOM     63  H   UNL     1       1.372  13.759  -3.908  1.00  0.00     0.167 HD
ATOM     64  C   UNL     1      -0.255  15.336  -2.199  1.00  0.00     0.074 A 
ATOM     65  C   UNL     1      -1.219  15.711  -1.185  1.00  0.00     0.031 C 
ATOM     66  C   UNL     1       0.492  16.220  -2.906  1.00  0.00     0.037 A 
BRANCH  53  67
ATOM     67  C   UNL     1       4.393  13.600  -6.913  1.00  0.00     0.064 A 
ATOM     68  C   UNL     1       4.158  13.348  -8.273  1.00  0.00     0.173 A 
ATOM     69  C   UNL     1       5.663  14.064  -6.541  1.00  0.00     0.173 A 
ATOM     70  F   UNL     1       2.965  12.888  -8.678  1.00  0.00    -0.203 F 
ATOM     71  C   UNL     1       5.162  13.536  -9.220  1.00  0.00     0.198 A 
ATOM     72  C   UNL     1       6.657  14.276  -7.493  1.00  0.00     0.198 A 
ATOM     73  F   UNL     1       5.939  14.322  -5.253  1.00  0.00    -0.203 F 
ATOM     74  F   UNL     1       4.928  13.252 -10.508  1.00  0.00    -0.200 F 
ATOM     75  C   UNL     1       6.408  14.006  -8.830  1.00  0.00     0.200 A 
ATOM     76  F   UNL     1       7.856  14.740  -7.116  1.00  0.00    -0.200 F 
ATOM     77  F   UNL     1       7.370  14.194  -9.743  1.00  0.00    -0.200 F 
ENDBRANCH  53  67
BRANCH  54  78
ATOM     78  C   UNL     1      -2.632  11.913  -0.009  1.00  0.00     0.064 A 
ATOM     79  C   UNL     1      -3.964  12.305  -0.199  1.00  0.00     0.173 A 
ATOM     80  C   UNL     1      -2.300  11.298   1.208  1.00  0.00     0.173 A 
ATOM     81  F   UNL     1      -4.325  12.919  -1.336  1.00  0.00    -0.203 F 
ATOM     82  C   UNL     1      -4.921  12.108   0.795  1.00  0.00     0.198 A 
ATOM     83  C   UNL     1      -3.263  11.077   2.189  1.00  0.00     0.198 A 
ATOM     84  F   UNL     1      -1.039  10.905   1.439  1.00  0.00    -0.203 F 
ATOM     85  F   UNL     1      -6.177  12.534   0.606  1.00  0.00    -0.200 F 
ATOM     86  C   UNL     1      -4.571  11.489   1.986  1.00  0.00     0.200 A 
ATOM     87  F   UNL     1      -2.923  10.467   3.333  1.00  0.00    -0.200 F 
ATOM     88  F   UNL     1      -5.492  11.297   2.939  1.00  0.00    -0.200 F 
ENDBRANCH  54  78
BRANCH  66  89
ATOM     89  C   UNL     1       0.271  17.680  -2.634  1.00  0.00     0.064 A 
ATOM     90  C   UNL     1       0.721  18.284  -1.452  1.00  0.00     0.173 A 
ATOM     91  C   UNL     1      -0.363  18.490  -3.588  1.00  0.00     0.173 A 
ATOM     92  F   UNL     1       1.319  17.549  -0.503  1.00  0.00    -0.203 F 
ATOM     93  C   UNL     1       0.522  19.643  -1.224  1.00  0.00     0.198 A 
ATOM     94  C   UNL     1      -0.534  19.854  -3.369  1.00  0.00     0.198 A 
ATOM     95  F   UNL     1      -0.804  17.961  -4.739  1.00  0.00    -0.203 F 
ATOM     96  F   UNL     1       0.919  20.192  -0.067  1.00  0.00    -0.200 F 
ATOM     97  C   UNL     1      -0.098  20.428  -2.185  1.00  0.00     0.200 A 
ATOM     98  F   UNL     1      -1.121  20.613  -4.305  1.00  0.00    -0.200 F 
ATOM     99  F   UNL     1      -0.282  21.737  -1.966  1.00  0.00    -0.200 F 
ENDBRANCH  66  89
ENDBRANCH  40  41
ENDBRANCH  33  35
ENDBRANCH  32  33
ENDBRANCH  31  32
ENDBRANCH  30  31
ENDBRANCH  29  30
ENDBRANCH  28  29
ENDBRANCH   1  28
TORSDOF 20
