REMARK SMILES NS(=O)(=O)c1ccc(-n2nc(C(=O)OCCOCCOC(=O)c3ccc(-c4c5nc(c(-c6c(F)c(F)c(F)c(F)c6F)c6ccc([nH]6)c(-c6c(F)c(F)c(F)c(F)c6F)c6nc(c(-c7c(F)c(F)c(F)c(F)c7F)c7ccc4[nH]7)C=C6)C=C5)cc3)c(Cl)c2-c2ccc(Cl)cc2)cc1
REMARK SMILES IDX 16 1 15 2 14 3 12 4 13 5 11 6 9 7 10 8 88 9 86 10 87 11 8 12
REMARK SMILES IDX 5 13 6 14 97 15 7 16 96 17 2 18 3 19 4 20 1 21 89 24 90 25
REMARK SMILES IDX 95 26 91 27 94 28 92 29 93 30 17 31 18 32 19 33 20 34 21 35
REMARK SMILES IDX 22 36 23 37 24 38 85 39 25 40 84 41 26 42 27 43 28 44 78 45
REMARK SMILES IDX 29 46 83 47 77 48 79 49 30 50 82 51 76 52 75 53 31 55 63 56
REMARK SMILES IDX 43 57 62 58 44 59 47 60 61 61 80 62 45 63 46 64 60 66 81 67
REMARK SMILES IDX 48 68 32 69 33 70 41 71 34 72 35 73 39 74 42 75 36 76 37 77
REMARK SMILES IDX 40 78 38 79 64 80 65 81 73 82 66 83 67 84 71 85 74 86 68 87
REMARK SMILES IDX 69 88 72 89 70 90 49 91 50 92 58 93 51 94 52 95 56 96 59 97
REMARK SMILES IDX 53 98 54 99 57 100 55 101
REMARK H PARENT 1 22 1 23 79 54 47 65
REMARK Flexibility Score: inf
ROOT
ATOM      1  C   UNL     1       5.158   6.812  10.509  1.00  0.00     0.202 C 
ENDROOT
BRANCH   1   2
ATOM      2  C   UNL     1       4.762   7.680   9.317  1.00  0.00     0.261 C 
BRANCH   2   3
ATOM      3  O   UNL     1       3.672   7.098   8.587  1.00  0.00    -0.458 OA
BRANCH   3   4
ATOM      4  C   UNL     1       3.947   6.617   7.338  1.00  0.00     0.360 C 
ATOM      5  O   UNL     1       5.048   6.690   6.804  1.00  0.00    -0.244 OA
BRANCH   4   6
ATOM      6  C   UNL     1       2.787   5.951   6.727  1.00  0.00     0.190 A 
ATOM      7  N   UNL     1       1.673   4.807   5.298  1.00  0.00    -0.231 N 
ATOM      8  N   UNL     1       2.924   5.002   5.774  1.00  0.00    -0.159 NA
ATOM      9  C   UNL     1       0.724   5.537   5.990  1.00  0.00     0.094 A 
ATOM     10  C   UNL     1       1.418   6.186   6.992  1.00  0.00     0.102 A 
ATOM     11  Cl  UNL     1       0.744   7.180   8.203  1.00  0.00    -0.079 Cl
BRANCH   7  12
ATOM     12  C   UNL     1       1.481   4.090   4.096  1.00  0.00     0.065 A 
ATOM     13  C   UNL     1       0.924   2.692   1.761  1.00  0.00     0.082 A 
ATOM     14  C   UNL     1       1.382   1.997   2.887  1.00  0.00     0.024 A 
ATOM     15  C   UNL     1       0.781   4.084   1.788  1.00  0.00     0.024 A 
ATOM     16  C   UNL     1       1.687   2.704   4.059  1.00  0.00     0.030 A 
ATOM     17  C   UNL     1       1.041   4.784   2.963  1.00  0.00     0.030 A 
BRANCH  13  18
ATOM     18  S   UNL     1       0.514   1.868   0.249  1.00  0.00     0.238 S 
ATOM     19  O   UNL     1       1.177   2.545  -0.835  1.00  0.00    -0.207 OA
ATOM     20  O   UNL     1      -0.910   1.607   0.256  1.00  0.00    -0.207 OA
BRANCH  18  21
ATOM     21  N   UNL     1       1.253   0.363   0.349  1.00  0.00    -0.225 NA
ATOM     22  H   UNL     1       1.056  -0.169  -0.499  1.00  0.00     0.137 HD
ATOM     23  H   UNL     1       0.892  -0.140   1.159  1.00  0.00     0.137 HD
ENDBRANCH  18  21
ENDBRANCH  13  18
ENDBRANCH   7  12
BRANCH   9  24
ATOM     24  C   UNL     1      -0.697   5.629   5.672  1.00  0.00     0.002 A 
ATOM     25  C   UNL     1      -1.232   6.895   5.389  1.00  0.00     0.012 A 
ATOM     26  C   UNL     1      -1.544   4.519   5.726  1.00  0.00     0.012 A 
ATOM     27  C   UNL     1      -2.602   7.061   5.204  1.00  0.00     0.021 A 
ATOM     28  C   UNL     1      -2.920   4.686   5.535  1.00  0.00     0.021 A 
ATOM     29  C   UNL     1      -3.442   5.956   5.289  1.00  0.00     0.041 A 
ATOM     30  Cl  UNL     1      -5.139   6.169   5.114  1.00  0.00    -0.084 Cl
ENDBRANCH   9  24
ENDBRANCH   4   6
ENDBRANCH   3   4
ENDBRANCH   2   3
ENDBRANCH   1   2
BRANCH   1  31
ATOM     31  O   UNL     1       5.801   5.571  10.222  1.00  0.00    -0.374 OA
BRANCH  31  32
ATOM     32  C   UNL     1       5.065   4.516   9.617  1.00  0.00     0.202 C 
BRANCH  32  33
ATOM     33  C   UNL     1       4.051   3.773  10.472  1.00  0.00     0.261 C 
BRANCH  33  34
ATOM     34  O   UNL     1       3.066   4.632  11.027  1.00  0.00    -0.460 OA
BRANCH  34  35
ATOM     35  C   UNL     1       3.287   4.940  12.327  1.00  0.00     0.338 C 
ATOM     36  O   UNL     1       4.339   4.864  12.937  1.00  0.00    -0.246 OA
BRANCH  35  37
ATOM     37  C   UNL     1       1.988   5.163  12.968  1.00  0.00     0.060 A 
ATOM     38  C   UNL     1       1.997   5.187  14.363  1.00  0.00     0.016 A 
ATOM     39  C   UNL     1       0.802   5.015  12.232  1.00  0.00     0.016 A 
ATOM     40  C   UNL     1       0.848   4.826  15.023  1.00  0.00     0.010 A 
ATOM     41  C   UNL     1      -0.343   4.641  12.892  1.00  0.00     0.010 A 
ATOM     42  C   UNL     1      -0.279   4.468  14.271  1.00  0.00    -0.014 A 
BRANCH  42  43
ATOM     43  C   UNL     1      -1.457   4.055  14.998  1.00  0.00     0.031 A 
ATOM     44  C   UNL     1      -2.067   5.186  15.727  1.00  0.00     0.074 A 
ATOM     45  C   UNL     1      -1.956   2.807  14.953  1.00  0.00     0.049 A 
ATOM     46  N   UNL     1      -2.102   5.351  17.006  1.00  0.00    -0.248 NA
ATOM     47  C   UNL     1      -2.495   6.361  14.951  1.00  0.00     0.031 C 
ATOM     48  C   UNL     1      -1.555   1.695  14.091  1.00  0.00     0.029 A 
ATOM     49  N   UNL     1      -3.011   2.293  15.640  1.00  0.00    -0.354 N 
ATOM     50  C   UNL     1      -2.756   6.560  17.201  1.00  0.00     0.074 A 
ATOM     51  C   UNL     1      -2.785   7.223  15.925  1.00  0.00     0.031 C 
ATOM     52  C   UNL     1      -2.500   0.727  14.145  1.00  0.00     0.029 A 
ATOM     53  C   UNL     1      -3.501   1.096  15.132  1.00  0.00     0.049 A 
ATOM     54  H   UNL     1      -3.395   2.732  16.433  1.00  0.00     0.167 HD
ATOM     55  C   UNL     1      -3.490   6.755  18.327  1.00  0.00     0.037 A 
ATOM     56  C   UNL     1      -4.685   0.516  15.461  1.00  0.00     0.037 A 
ATOM     57  C   UNL     1      -3.067   5.862  19.381  1.00  0.00     0.049 A 
ATOM     58  C   UNL     1      -5.110   1.084  16.768  1.00  0.00     0.074 A 
ATOM     59  C   UNL     1      -1.867   5.626  20.027  1.00  0.00     0.029 A 
ATOM     60  N   UNL     1      -3.851   4.767  19.651  1.00  0.00    -0.354 N 
ATOM     61  N   UNL     1      -4.502   0.830  17.893  1.00  0.00    -0.248 NA
ATOM     62  C   UNL     1      -5.900   2.308  16.749  1.00  0.00     0.031 C 
ATOM     63  C   UNL     1      -1.825   4.215  20.233  1.00  0.00     0.029 A 
ATOM     64  C   UNL     1      -3.025   3.679  19.768  1.00  0.00     0.049 A 
ATOM     65  H   UNL     1      -4.831   4.764  19.743  1.00  0.00     0.167 HD
ATOM     66  C   UNL     1      -4.447   2.053  18.543  1.00  0.00     0.074 A 
ATOM     67  C   UNL     1      -5.392   2.909  17.829  1.00  0.00     0.031 C 
ATOM     68  C   UNL     1      -3.425   2.344  19.400  1.00  0.00     0.037 A 
BRANCH  55  69
ATOM     69  C   UNL     1      -4.857   7.397  18.305  1.00  0.00     0.064 A 
ATOM     70  C   UNL     1      -5.519   7.605  19.529  1.00  0.00     0.173 A 
ATOM     71  C   UNL     1      -5.667   7.505  17.150  1.00  0.00     0.173 A 
ATOM     72  F   UNL     1      -4.851   7.514  20.689  1.00  0.00    -0.203 F 
ATOM     73  C   UNL     1      -6.901   7.795  19.595  1.00  0.00     0.198 A 
ATOM     74  C   UNL     1      -7.035   7.750  17.218  1.00  0.00     0.198 A 
ATOM     75  F   UNL     1      -5.208   7.265  15.918  1.00  0.00    -0.203 F 
ATOM     76  F   UNL     1      -7.507   7.838  20.788  1.00  0.00    -0.200 F 
ATOM     77  C   UNL     1      -7.659   7.856  18.440  1.00  0.00     0.200 A 
ATOM     78  F   UNL     1      -7.752   7.785  16.086  1.00  0.00    -0.200 F 
ATOM     79  F   UNL     1      -8.992   7.963  18.503  1.00  0.00    -0.200 F 
ENDBRANCH  55  69
BRANCH  56  80
ATOM     80  C   UNL     1      -5.623  -0.230  14.585  1.00  0.00     0.064 A 
ATOM     81  C   UNL     1      -6.692  -0.966  15.127  1.00  0.00     0.173 A 
ATOM     82  C   UNL     1      -5.665  -0.006  13.195  1.00  0.00     0.173 A 
ATOM     83  F   UNL     1      -6.759  -1.186  16.448  1.00  0.00    -0.203 F 
ATOM     84  C   UNL     1      -7.749  -1.423  14.331  1.00  0.00     0.198 A 
ATOM     85  C   UNL     1      -6.716  -0.469  12.402  1.00  0.00     0.198 A 
ATOM     86  F   UNL     1      -4.738   0.750  12.590  1.00  0.00    -0.203 F 
ATOM     87  F   UNL     1      -8.783  -2.064  14.895  1.00  0.00    -0.200 F 
ATOM     88  C   UNL     1      -7.765  -1.164  12.971  1.00  0.00     0.200 A 
ATOM     89  F   UNL     1      -6.736  -0.179  11.093  1.00  0.00    -0.200 F 
ATOM     90  F   UNL     1      -8.807  -1.546  12.219  1.00  0.00    -0.200 F 
ENDBRANCH  56  80
BRANCH  68  91
ATOM     91  C   UNL     1      -2.529   1.212  19.822  1.00  0.00     0.064 A 
ATOM     92  C   UNL     1      -1.745   0.449  18.938  1.00  0.00     0.173 A 
ATOM     93  C   UNL     1      -2.384   0.959  21.192  1.00  0.00     0.173 A 
ATOM     94  F   UNL     1      -1.742   0.702  17.622  1.00  0.00    -0.203 F 
ATOM     95  C   UNL     1      -0.909  -0.565  19.404  1.00  0.00     0.198 A 
ATOM     96  C   UNL     1      -1.518  -0.026  21.657  1.00  0.00     0.198 A 
ATOM     97  F   UNL     1      -3.062   1.695  22.087  1.00  0.00    -0.203 F 
ATOM     98  F   UNL     1      -0.194  -1.299  18.538  1.00  0.00    -0.200 F 
ATOM     99  C   UNL     1      -0.795  -0.799  20.764  1.00  0.00     0.200 A 
ATOM    100  F   UNL     1      -1.373  -0.214  22.976  1.00  0.00    -0.200 F 
ATOM    101  F   UNL     1       0.031  -1.753  21.216  1.00  0.00    -0.200 F 
ENDBRANCH  68  91
ENDBRANCH  42  43
ENDBRANCH  35  37
ENDBRANCH  34  35
ENDBRANCH  33  34
ENDBRANCH  32  33
ENDBRANCH  31  32
ENDBRANCH   1  31
TORSDOF 18
