REMARK SMILES O=C(Cc1cccn1-c1ccccc1F)OCCOCCOC(=O)c1ccc(-c2c3nc(c(-c4c(F)c(F)c(F)c(F)c4F)c4ccc([nH]4)c(-c4c(F)c(F)c(F)c(F)c4F)c4nc(c(-c5c(F)c(F)c(F)c(F)c5F)c5ccc2[nH]5)C=C4)C=C3)cc1
REMARK SMILES IDX 19 1 18 2 17 3 16 4 2 5 1 6 3 7 4 8 5 9 8 10 6 11 7 12 9 13
REMARK SMILES IDX 10 14 14 15 11 16 13 17 15 18 12 19 20 20 21 21 22 22 23 23
REMARK SMILES IDX 24 24 25 25 26 26 87 27 27 28 86 29 28 30 29 31 30 32 80 33
REMARK SMILES IDX 31 34 85 35 79 36 81 37 32 38 84 39 78 40 77 41 33 43 65 44
REMARK SMILES IDX 45 45 64 46 46 47 49 48 63 49 82 50 47 51 48 52 62 54 83 55
REMARK SMILES IDX 50 56 34 57 35 58 43 59 36 60 37 61 41 62 44 63 38 64 39 65
REMARK SMILES IDX 42 66 40 67 66 68 67 69 75 70 68 71 69 72 73 73 76 74 70 75
REMARK SMILES IDX 71 76 74 77 72 78 51 79 52 80 60 81 53 82 54 83 58 84 61 85
REMARK SMILES IDX 55 86 56 87 59 88 57 89
REMARK H PARENT 81 42 49 53
REMARK Flexibility Score: inf
ROOT
ATOM      1  O   UNL     1       4.323  -0.728   1.451  1.00  0.00    -0.374 OA
ENDROOT
BRANCH   1   2
ATOM      2  C   UNL     1       4.907   0.418   0.827  1.00  0.00     0.202 C 
BRANCH   2   3
ATOM      3  C   UNL     1       4.642   0.488  -0.669  1.00  0.00     0.261 C 
BRANCH   3   4
ATOM      4  O   UNL     1       3.276   0.845  -0.957  1.00  0.00    -0.463 OA
BRANCH   4   5
ATOM      5  C   UNL     1       2.357   0.008  -1.492  1.00  0.00     0.311 C 
ATOM      6  O   UNL     1       1.350   0.479  -2.021  1.00  0.00    -0.252 OA
BRANCH   5   7
ATOM      7  C   UNL     1       2.518  -1.485  -1.322  1.00  0.00     0.177 C 
BRANCH   7   8
ATOM      8  C   UNL     1       3.488  -2.138  -2.258  1.00  0.00     0.034 A 
ATOM      9  C   UNL     1       4.142  -1.604  -3.357  1.00  0.00     0.024 A 
ATOM     10  N   UNL     1       4.010  -3.412  -2.028  1.00  0.00    -0.318 N 
ATOM     11  C   UNL     1       5.213  -2.462  -3.672  1.00  0.00     0.020 A 
ATOM     12  C   UNL     1       5.143  -3.533  -2.812  1.00  0.00     0.091 A 
BRANCH  10  13
ATOM     13  C   UNL     1       3.541  -4.408  -1.125  1.00  0.00     0.081 A 
ATOM     14  C   UNL     1       4.454  -5.215  -0.430  1.00  0.00     0.030 A 
ATOM     15  C   UNL     1       2.173  -4.636  -0.950  1.00  0.00     0.147 A 
ATOM     16  C   UNL     1       3.992  -6.193   0.459  1.00  0.00     0.002 A 
ATOM     17  C   UNL     1       1.713  -5.608  -0.063  1.00  0.00     0.041 A 
ATOM     18  F   UNL     1       1.257  -4.006  -1.696  1.00  0.00    -0.205 F 
ATOM     19  C   UNL     1       2.623  -6.384   0.649  1.00  0.00     0.003 A 
ENDBRANCH  10  13
ENDBRANCH   7   8
ENDBRANCH   5   7
ENDBRANCH   4   5
ENDBRANCH   3   4
ENDBRANCH   2   3
ENDBRANCH   1   2
BRANCH   1  20
ATOM     20  C   UNL     1       2.994  -0.564   1.948  1.00  0.00     0.202 C 
BRANCH  20  21
ATOM     21  C   UNL     1       2.905  -0.002   3.359  1.00  0.00     0.261 C 
BRANCH  21  22
ATOM     22  O   UNL     1       3.208   1.384   3.391  1.00  0.00    -0.460 OA
BRANCH  22  23
ATOM     23  C   UNL     1       4.482   1.672   3.711  1.00  0.00     0.338 C 
ATOM     24  O   UNL     1       5.441   0.892   3.769  1.00  0.00    -0.246 OA
BRANCH  23  25
ATOM     25  C   UNL     1       4.590   3.079   4.072  1.00  0.00     0.060 A 
ATOM     26  C   UNL     1       5.849   3.674   4.003  1.00  0.00     0.016 A 
ATOM     27  C   UNL     1       3.499   3.711   4.675  1.00  0.00     0.016 A 
ATOM     28  C   UNL     1       6.056   4.876   4.647  1.00  0.00     0.010 A 
ATOM     29  C   UNL     1       3.704   4.894   5.350  1.00  0.00     0.010 A 
ATOM     30  C   UNL     1       4.994   5.444   5.363  1.00  0.00    -0.014 A 
BRANCH  30  31
ATOM     31  C   UNL     1       5.240   6.655   6.148  1.00  0.00     0.031 A 
ATOM     32  C   UNL     1       4.974   7.924   5.365  1.00  0.00     0.074 A 
ATOM     33  C   UNL     1       5.644   6.439   7.432  1.00  0.00     0.049 A 
ATOM     34  N   UNL     1       5.352   9.139   5.612  1.00  0.00    -0.248 NA
ATOM     35  C   UNL     1       4.208   7.830   4.092  1.00  0.00     0.031 C 
ATOM     36  C   UNL     1       5.848   5.096   8.007  1.00  0.00     0.029 A 
ATOM     37  N   UNL     1       5.964   7.253   8.497  1.00  0.00    -0.354 N 
ATOM     38  C   UNL     1       4.709   9.957   4.673  1.00  0.00     0.074 A 
ATOM     39  C   UNL     1       4.121   9.097   3.692  1.00  0.00     0.031 C 
ATOM     40  C   UNL     1       6.318   5.183   9.263  1.00  0.00     0.029 A 
ATOM     41  C   UNL     1       6.428   6.574   9.651  1.00  0.00     0.049 A 
ATOM     42  H   UNL     1       5.877   8.233   8.459  1.00  0.00     0.167 HD
ATOM     43  C   UNL     1       4.559  11.299   4.837  1.00  0.00     0.037 A 
ATOM     44  C   UNL     1       6.898   7.090  10.828  1.00  0.00     0.037 A 
ATOM     45  C   UNL     1       5.253  11.761   5.992  1.00  0.00     0.049 A 
ATOM     46  C   UNL     1       6.666   8.547  10.749  1.00  0.00     0.074 A 
ATOM     47  C   UNL     1       6.583  11.934   6.274  1.00  0.00     0.029 A 
ATOM     48  N   UNL     1       4.548  11.814   7.168  1.00  0.00    -0.354 N 
ATOM     49  N   UNL     1       5.499   9.119  10.829  1.00  0.00    -0.248 NA
ATOM     50  C   UNL     1       7.799   9.433  10.459  1.00  0.00     0.031 C 
ATOM     51  C   UNL     1       6.687  11.733   7.670  1.00  0.00     0.029 A 
ATOM     52  C   UNL     1       5.412  11.506   8.195  1.00  0.00     0.049 A 
ATOM     53  H   UNL     1       3.593  12.034   7.261  1.00  0.00     0.167 HD
ATOM     54  C   UNL     1       5.731  10.362  10.281  1.00  0.00     0.074 A 
ATOM     55  C   UNL     1       7.153  10.591  10.359  1.00  0.00     0.031 C 
ATOM     56  C   UNL     1       4.861  10.873   9.373  1.00  0.00     0.037 A 
BRANCH  43  57
ATOM     57  C   UNL     1       3.622  12.229   4.137  1.00  0.00     0.064 A 
ATOM     58  C   UNL     1       2.307  11.878   3.794  1.00  0.00     0.173 A 
ATOM     59  C   UNL     1       3.940  13.604   4.094  1.00  0.00     0.173 A 
ATOM     60  F   UNL     1       1.886  10.608   3.866  1.00  0.00    -0.203 F 
ATOM     61  C   UNL     1       1.357  12.847   3.468  1.00  0.00     0.198 A 
ATOM     62  C   UNL     1       2.977  14.570   3.813  1.00  0.00     0.198 A 
ATOM     63  F   UNL     1       5.176  14.029   4.395  1.00  0.00    -0.203 F 
ATOM     64  F   UNL     1       0.102  12.474   3.182  1.00  0.00    -0.200 F 
ATOM     65  C   UNL     1       1.683  14.192   3.511  1.00  0.00     0.200 A 
ATOM     66  F   UNL     1       3.293  15.870   3.897  1.00  0.00    -0.200 F 
ATOM     67  F   UNL     1       0.741  15.120   3.298  1.00  0.00    -0.200 F 
ENDBRANCH  43  57
BRANCH  44  68
ATOM     68  C   UNL     1       7.615   6.550  12.051  1.00  0.00     0.064 A 
ATOM     69  C   UNL     1       8.228   7.446  12.971  1.00  0.00     0.173 A 
ATOM     70  C   UNL     1       7.815   5.198  12.368  1.00  0.00     0.173 A 
ATOM     71  F   UNL     1       8.025   8.768  12.906  1.00  0.00    -0.203 F 
ATOM     72  C   UNL     1       9.080   7.035  14.000  1.00  0.00     0.198 A 
ATOM     73  C   UNL     1       8.653   4.781  13.417  1.00  0.00     0.198 A 
ATOM     74  F   UNL     1       7.189   4.221  11.709  1.00  0.00    -0.203 F 
ATOM     75  F   UNL     1       9.683   7.954  14.768  1.00  0.00    -0.200 F 
ATOM     76  C   UNL     1       9.312   5.698  14.210  1.00  0.00     0.200 A 
ATOM     77  F   UNL     1       8.825   3.471  13.646  1.00  0.00    -0.200 F 
ATOM     78  F   UNL     1      10.146   5.298  15.178  1.00  0.00    -0.200 F 
ENDBRANCH  44  68
BRANCH  56  79
ATOM     79  C   UNL     1       3.465  10.308   9.497  1.00  0.00     0.064 A 
ATOM     80  C   UNL     1       2.944   9.351   8.612  1.00  0.00     0.173 A 
ATOM     81  C   UNL     1       2.666  10.639  10.600  1.00  0.00     0.173 A 
ATOM     82  F   UNL     1       3.636   8.978   7.538  1.00  0.00    -0.203 F 
ATOM     83  C   UNL     1       1.700   8.753   8.808  1.00  0.00     0.198 A 
ATOM     84  C   UNL     1       1.422  10.037  10.804  1.00  0.00     0.198 A 
ATOM     85  F   UNL     1       3.093  11.552  11.485  1.00  0.00    -0.203 F 
ATOM     86  F   UNL     1       1.242   7.853   7.924  1.00  0.00    -0.200 F 
ATOM     87  C   UNL     1       0.940   9.093   9.909  1.00  0.00     0.200 A 
ATOM     88  F   UNL     1       0.683  10.376  11.869  1.00  0.00    -0.200 F 
ATOM     89  F   UNL     1      -0.258   8.523  10.102  1.00  0.00    -0.200 F 
ENDBRANCH  56  79
ENDBRANCH  30  31
ENDBRANCH  23  25
ENDBRANCH  22  23
ENDBRANCH  21  22
ENDBRANCH  20  21
ENDBRANCH   1  20
TORSDOF 16
