REMARK SMILES COc1cc(/C=N/c2cccc(F)c2)ccc1OCc1cccc(C(=O)OCCOCCOC(=O)c2ccc(-c3c4nc(c(-c5c(F)c(F)c(F)c(F)c5F)c5ccc([nH]5)c(-c5c(F)c(F)c(F)c(F)c5F)c5nc(c(-c6c(F)c(F)c(F)c(F)c6F)c6ccc3[nH]6)C=C5)C=C4)cc2)c1
REMARK SMILES IDX 28 1 27 2 25 3 26 4 24 5 20 6 21 7 99 8 22 9 23 10 19 11
REMARK SMILES IDX 18 12 17 13 3 14 4 15 5 16 16 17 15 18 2 19 1 20 6 21 7 22
REMARK SMILES IDX 8 23 9 24 14 25 10 26 12 27 11 28 13 29 29 30 30 31 31 32
REMARK SMILES IDX 32 33 33 34 34 35 35 36 36 37 37 38 98 39 38 40 97 41 39 42
REMARK SMILES IDX 40 43 41 44 91 45 42 46 96 47 90 48 92 49 43 50 95 51 89 52
REMARK SMILES IDX 88 53 44 55 76 56 56 57 75 58 57 59 60 60 74 61 93 62 58 63
REMARK SMILES IDX 59 64 73 66 94 67 61 68 45 69 46 70 54 71 47 72 48 73 52 74
REMARK SMILES IDX 55 75 49 76 50 77 53 78 51 79 77 80 78 81 86 82 79 83 80 84
REMARK SMILES IDX 84 85 87 86 81 87 82 88 85 89 83 90 62 91 63 92 71 93 64 94
REMARK SMILES IDX 65 95 69 96 72 97 66 98 67 99 70 100 68 101
REMARK H PARENT 92 54 60 65
REMARK Flexibility Score: inf
ROOT
ATOM      1  C   UNL     1      -2.149  -2.468   3.312  1.00  0.00     0.261 C 
ENDROOT
BRANCH   1   2
ATOM      2  O   UNL     1      -1.045  -1.762   2.722  1.00  0.00    -0.460 OA
BRANCH   2   3
ATOM      3  C   UNL     1      -1.349  -0.517   2.279  1.00  0.00     0.338 C 
ATOM      4  O   UNL     1      -2.460  -0.008   2.237  1.00  0.00    -0.246 OA
BRANCH   3   5
ATOM      5  C   UNL     1      -0.125   0.241   1.942  1.00  0.00     0.060 A 
ATOM      6  C   UNL     1       1.971   0.457   0.754  1.00  0.00    -0.010 A 
ATOM      7  C   UNL     1       1.982   1.829   1.049  1.00  0.00     0.007 A 
ATOM      8  C   UNL     1       0.954  -0.352   1.284  1.00  0.00     0.023 A 
ATOM      9  C   UNL     1       0.941   2.407   1.772  1.00  0.00     0.001 A 
ATOM     10  C   UNL     1      -0.128   1.619   2.191  1.00  0.00     0.016 A 
BRANCH   6  11
ATOM     11  C   UNL     1       2.973  -0.133  -0.219  1.00  0.00     0.265 C 
BRANCH  11  12
ATOM     12  O   UNL     1       3.280   0.726  -1.324  1.00  0.00    -0.485 OA
BRANCH  12  13
ATOM     13  C   UNL     1       2.299   1.126  -2.196  1.00  0.00     0.161 A 
ATOM     14  C   UNL     1       1.037   0.553  -2.421  1.00  0.00     0.161 A 
ATOM     15  C   UNL     1       0.184   1.134  -3.369  1.00  0.00     0.060 A 
ATOM     16  C   UNL     1       0.559   2.284  -4.073  1.00  0.00    -0.003 A 
ATOM     17  C   UNL     1       2.669   2.273  -2.924  1.00  0.00     0.051 A 
ATOM     18  C   UNL     1       1.805   2.859  -3.853  1.00  0.00     0.014 A 
BRANCH  14  19
ATOM     19  O   UNL     1       0.683  -0.601  -1.771  1.00  0.00    -0.493 OA
ATOM     20  C   UNL     1      -0.716  -0.758  -1.518  1.00  0.00     0.278 C 
ENDBRANCH  14  19
BRANCH  16  21
ATOM     21  C   UNL     1      -0.345   2.838  -5.103  1.00  0.00     0.120 C 
ATOM     22  N   UNL     1      -1.507   2.305  -5.308  1.00  0.00    -0.256 NA
BRANCH  22  23
ATOM     23  C   UNL     1      -2.294   2.752  -6.376  1.00  0.00     0.066 A 
ATOM     24  C   UNL     1      -3.646   3.033  -6.148  1.00  0.00     0.028 A 
ATOM     25  C   UNL     1      -1.812   2.767  -7.687  1.00  0.00     0.067 A 
ATOM     26  C   UNL     1      -4.508   3.321  -7.210  1.00  0.00     0.005 A 
ATOM     27  C   UNL     1      -2.674   3.057  -8.739  1.00  0.00     0.125 A 
ATOM     28  C   UNL     1      -4.019   3.329  -8.514  1.00  0.00     0.039 A 
ATOM     29  F   UNL     1      -2.205   3.046  -9.994  1.00  0.00    -0.207 F 
ENDBRANCH  22  23
ENDBRANCH  16  21
ENDBRANCH  12  13
ENDBRANCH  11  12
ENDBRANCH   6  11
ENDBRANCH   3   5
ENDBRANCH   2   3
ENDBRANCH   1   2
BRANCH   1  30
ATOM     30  C   UNL     1      -1.920  -2.789   4.792  1.00  0.00     0.202 C 
BRANCH  30  31
ATOM     31  O   UNL     1      -1.694  -1.714   5.700  1.00  0.00    -0.374 OA
BRANCH  31  32
ATOM     32  C   UNL     1      -0.515  -0.930   5.555  1.00  0.00     0.202 C 
BRANCH  32  33
ATOM     33  C   UNL     1       0.849  -1.566   5.865  1.00  0.00     0.261 C 
BRANCH  33  34
ATOM     34  O   UNL     1       1.076  -2.836   5.237  1.00  0.00    -0.460 OA
BRANCH  34  35
ATOM     35  C   UNL     1       1.022  -3.895   6.082  1.00  0.00     0.338 C 
ATOM     36  O   UNL     1       0.839  -3.877   7.290  1.00  0.00    -0.246 OA
BRANCH  35  37
ATOM     37  C   UNL     1       1.064  -5.152   5.317  1.00  0.00     0.060 A 
ATOM     38  C   UNL     1      -0.023  -6.028   5.438  1.00  0.00     0.016 A 
ATOM     39  C   UNL     1       2.183  -5.505   4.562  1.00  0.00     0.016 A 
ATOM     40  C   UNL     1       0.015  -7.275   4.819  1.00  0.00     0.010 A 
ATOM     41  C   UNL     1       2.225  -6.763   3.953  1.00  0.00     0.010 A 
ATOM     42  C   UNL     1       1.152  -7.662   4.098  1.00  0.00    -0.014 A 
BRANCH  42  43
ATOM     43  C   UNL     1       1.264  -9.048   3.585  1.00  0.00     0.031 A 
ATOM     44  C   UNL     1       2.071 -10.054   4.355  1.00  0.00     0.074 A 
ATOM     45  C   UNL     1       0.642  -9.405   2.449  1.00  0.00     0.049 A 
ATOM     46  N   UNL     1       2.350 -11.298   4.058  1.00  0.00    -0.248 NA
ATOM     47  C   UNL     1       2.640  -9.596   5.631  1.00  0.00     0.031 C 
ATOM     48  C   UNL     1      -0.203  -8.530   1.641  1.00  0.00     0.029 A 
ATOM     49  N   UNL     1       0.635 -10.600   1.774  1.00  0.00    -0.354 N 
ATOM     50  C   UNL     1       3.130 -11.769   5.105  1.00  0.00     0.074 A 
ATOM     51  C   UNL     1       3.305 -10.670   6.031  1.00  0.00     0.031 C 
ATOM     52  C   UNL     1      -0.638  -9.213   0.568  1.00  0.00     0.029 A 
ATOM     53  C   UNL     1      -0.070 -10.560   0.597  1.00  0.00     0.049 A 
ATOM     54  H   UNL     1       1.092 -11.408   2.102  1.00  0.00     0.167 HD
ATOM     55  C   UNL     1       3.647 -13.009   5.280  1.00  0.00     0.037 A 
ATOM     56  C   UNL     1      -0.214 -11.496  -0.361  1.00  0.00     0.037 A 
ATOM     57  C   UNL     1       3.473 -14.097   4.353  1.00  0.00     0.049 A 
ATOM     58  C   UNL     1       0.450 -12.837  -0.188  1.00  0.00     0.074 A 
ATOM     59  C   UNL     1       3.930 -15.399   4.454  1.00  0.00     0.029 A 
ATOM     60  N   UNL     1       2.796 -14.005   3.145  1.00  0.00    -0.354 N 
ATOM     61  N   UNL     1       1.162 -13.286   0.817  1.00  0.00    -0.248 NA
ATOM     62  C   UNL     1       0.292 -13.800  -1.288  1.00  0.00     0.031 C 
ATOM     63  C   UNL     1       3.581 -16.078   3.282  1.00  0.00     0.029 A 
ATOM     64  C   UNL     1       2.858 -15.216   2.474  1.00  0.00     0.049 A 
ATOM     65  H   UNL     1       2.340 -13.198   2.814  1.00  0.00     0.167 HD
ATOM     66  C   UNL     1       1.522 -14.585   0.481  1.00  0.00     0.074 A 
ATOM     67  C   UNL     1       0.933 -14.859  -0.813  1.00  0.00     0.031 C 
ATOM     68  C   UNL     1       2.274 -15.470   1.181  1.00  0.00     0.037 A 
BRANCH  55  69
ATOM     69  C   UNL     1       4.479 -13.245   6.507  1.00  0.00     0.064 A 
ATOM     70  C   UNL     1       3.909 -13.302   7.787  1.00  0.00     0.173 A 
ATOM     71  C   UNL     1       5.864 -13.446   6.396  1.00  0.00     0.173 A 
ATOM     72  F   UNL     1       2.591 -13.105   7.949  1.00  0.00    -0.203 F 
ATOM     73  C   UNL     1       4.697 -13.522   8.914  1.00  0.00     0.198 A 
ATOM     74  C   UNL     1       6.645 -13.694   7.522  1.00  0.00     0.198 A 
ATOM     75  F   UNL     1       6.459 -13.406   5.195  1.00  0.00    -0.203 F 
ATOM     76  F   UNL     1       4.138 -13.524  10.132  1.00  0.00    -0.200 F 
ATOM     77  C   UNL     1       6.063 -13.724   8.780  1.00  0.00     0.200 A 
ATOM     78  F   UNL     1       7.962 -13.901   7.388  1.00  0.00    -0.200 F 
ATOM     79  F   UNL     1       6.820 -13.940   9.864  1.00  0.00    -0.200 F 
ENDBRANCH  55  69
BRANCH  56  80
ATOM     80  C   UNL     1      -1.001 -11.188  -1.583  1.00  0.00     0.064 A 
ATOM     81  C   UNL     1      -2.224 -11.824  -1.834  1.00  0.00     0.173 A 
ATOM     82  C   UNL     1      -0.543 -10.258  -2.528  1.00  0.00     0.173 A 
ATOM     83  F   UNL     1      -2.690 -12.741  -0.973  1.00  0.00    -0.203 F 
ATOM     84  C   UNL     1      -2.954 -11.550  -2.989  1.00  0.00     0.198 A 
ATOM     85  C   UNL     1      -1.286  -9.964  -3.668  1.00  0.00     0.198 A 
ATOM     86  F   UNL     1       0.624  -9.624  -2.336  1.00  0.00    -0.203 F 
ATOM     87  F   UNL     1      -4.100 -12.202  -3.225  1.00  0.00    -0.200 F 
ATOM     88  C   UNL     1      -2.488 -10.615  -3.901  1.00  0.00     0.200 A 
ATOM     89  F   UNL     1      -0.838  -9.051  -4.541  1.00  0.00    -0.200 F 
ATOM     90  F   UNL     1      -3.193 -10.347  -5.009  1.00  0.00    -0.200 F 
ENDBRANCH  56  80
BRANCH  68  91
ATOM     91  C   UNL     1       2.494 -16.823   0.567  1.00  0.00     0.064 A 
ATOM     92  C   UNL     1       3.336 -16.998  -0.541  1.00  0.00     0.173 A 
ATOM     93  C   UNL     1       1.889 -17.964   1.117  1.00  0.00     0.173 A 
ATOM     94  F   UNL     1       3.925 -15.937  -1.115  1.00  0.00    -0.203 F 
ATOM     95  C   UNL     1       3.546 -18.260  -1.090  1.00  0.00     0.198 A 
ATOM     96  C   UNL     1       2.126 -19.229   0.585  1.00  0.00     0.198 A 
ATOM     97  F   UNL     1       1.080 -17.853   2.181  1.00  0.00    -0.203 F 
ATOM     98  F   UNL     1       4.318 -18.397  -2.177  1.00  0.00    -0.200 F 
ATOM     99  C   UNL     1       2.948 -19.375  -0.521  1.00  0.00     0.200 A 
ATOM    100  F   UNL     1       1.557 -20.306   1.144  1.00  0.00    -0.200 F 
ATOM    101  F   UNL     1       3.158 -20.590  -1.045  1.00  0.00    -0.200 F 
ENDBRANCH  68  91
ENDBRANCH  42  43
ENDBRANCH  35  37
ENDBRANCH  34  35
ENDBRANCH  33  34
ENDBRANCH  32  33
ENDBRANCH  31  32
ENDBRANCH  30  31
ENDBRANCH   1  30
TORSDOF 20
