REMARK SMILES COc1ccccc1[C@@H]1C[N@@H+](Cc2cn3cc(C)ccc3n2)C[C@H]1C(=O)OCCOCCOC(=O)c1ccc(-c2c3nc(c(-c4c(F)c(F)c(F)c(F)c4F)c4ccc([nH]4)c(-c4c(F)c(F)c(F)c(F)c4F)c4nc(c(-c5c(F)c(F)c(F)c(F)c5F)c5ccc2[nH]5)C=C4)C=C3)cc1
REMARK SMILES IDX 30 1 29 2 28 3 27 4 25 5 26 6 24 7 9 8 10 9 11 10 23 11 8 13
REMARK SMILES IDX 3 14 4 15 5 16 7 17 6 18 2 19 1 20 12 21 13 22 14 23 22 24
REMARK SMILES IDX 15 25 21 26 16 27 20 28 17 29 19 30 18 31 31 32 32 33 33 34
REMARK SMILES IDX 34 35 35 36 36 37 37 38 98 39 38 40 97 41 39 42 40 43 41 44
REMARK SMILES IDX 91 45 42 46 96 47 90 48 92 49 43 50 95 51 89 52 88 53 44 55
REMARK SMILES IDX 76 56 56 57 75 58 57 59 60 60 74 61 93 62 58 63 59 64 73 66
REMARK SMILES IDX 94 67 61 68 45 69 46 70 54 71 47 72 48 73 52 74 55 75 49 76
REMARK SMILES IDX 50 77 53 78 51 79 77 80 78 81 86 82 79 83 80 84 84 85 87 86
REMARK SMILES IDX 81 87 82 88 85 89 83 90 62 91 63 92 71 93 64 94 65 95 69 96
REMARK SMILES IDX 72 97 66 98 67 99 70 100 68 101
REMARK H PARENT 11 12 92 54 60 65
REMARK Flexibility Score: inf
ROOT
ATOM      1  O   UNL     1       2.508   2.655  -4.902  1.00  0.00    -0.374 OA
ENDROOT
BRANCH   1   2
ATOM      2  C   UNL     1       3.917   2.792  -4.692  1.00  0.00     0.202 C 
BRANCH   2   3
ATOM      3  C   UNL     1       4.363   2.873  -3.233  1.00  0.00     0.261 C 
BRANCH   3   4
ATOM      4  O   UNL     1       4.102   1.650  -2.507  1.00  0.00    -0.463 OA
BRANCH   4   5
ATOM      5  C   UNL     1       3.192   1.784  -1.515  1.00  0.00     0.315 C 
ATOM      6  O   UNL     1       2.620   2.840  -1.244  1.00  0.00    -0.252 OA
BRANCH   5   7
ATOM      7  C   UNL     1       2.921   0.564  -0.674  1.00  0.00     0.167 C 
ATOM      8  C   UNL     1       3.172  -0.890  -1.079  1.00  0.00     0.098 C 
ATOM      9  C   UNL     1       3.514  -1.562   0.267  1.00  0.00     0.272 C 
ATOM     10  N   UNL     1       4.101  -0.536   1.138  1.00  0.00    -0.329 N 
ATOM     11  C   UNL     1       3.693   0.771   0.625  1.00  0.00     0.278 C 
ATOM     12  H   UNL     1       3.730  -0.705   2.073  1.00  0.00     0.348 HD
BRANCH   8  13
ATOM     13  C   UNL     1       2.054  -1.650  -1.806  1.00  0.00     0.004 A 
ATOM     14  C   UNL     1       0.723  -1.787  -1.357  1.00  0.00     0.122 A 
ATOM     15  C   UNL     1      -0.232  -2.474  -2.126  1.00  0.00     0.047 A 
ATOM     16  C   UNL     1       0.134  -3.115  -3.307  1.00  0.00     0.004 A 
ATOM     17  C   UNL     1       2.406  -2.365  -2.972  1.00  0.00     0.008 A 
ATOM     18  C   UNL     1       1.465  -3.100  -3.705  1.00  0.00     0.001 A 
BRANCH  14  19
ATOM     19  O   UNL     1       0.381  -1.592  -0.043  1.00  0.00    -0.496 OA
ATOM     20  C   UNL     1      -0.125  -0.307   0.287  1.00  0.00     0.278 C 
ENDBRANCH  14  19
ENDBRANCH   8  13
BRANCH  10  21
ATOM     21  C   UNL     1       5.548  -0.620   1.393  1.00  0.00     0.321 C 
BRANCH  21  22
ATOM     22  C   UNL     1       6.345  -0.879   0.161  1.00  0.00     0.114 A 
ATOM     23  C   UNL     1       6.873  -2.102  -0.187  1.00  0.00     0.122 A 
ATOM     24  N   UNL     1       6.464   0.024  -0.883  1.00  0.00    -0.228 NA
ATOM     25  N   UNL     1       7.000  -2.030  -1.537  1.00  0.00    -0.306 N 
ATOM     26  C   UNL     1       6.838  -0.707  -1.914  1.00  0.00     0.137 A 
ATOM     27  C   UNL     1       6.955  -3.100  -2.398  1.00  0.00     0.096 A 
ATOM     28  C   UNL     1       6.908  -0.442  -3.310  1.00  0.00     0.048 A 
ATOM     29  C   UNL     1       6.706  -2.877  -3.693  1.00  0.00    -0.034 A 
ATOM     30  C   UNL     1       6.846  -1.485  -4.171  1.00  0.00     0.009 A 
ATOM     31  C   UNL     1       6.084  -4.038  -4.413  1.00  0.00     0.046 C 
ENDBRANCH  21  22
ENDBRANCH  10  21
ENDBRANCH   5   7
ENDBRANCH   4   5
ENDBRANCH   3   4
ENDBRANCH   2   3
ENDBRANCH   1   2
BRANCH   1  32
ATOM     32  C   UNL     1       1.933   1.379  -4.646  1.00  0.00     0.202 C 
BRANCH  32  33
ATOM     33  C   UNL     1       2.218   0.311  -5.690  1.00  0.00     0.261 C 
BRANCH  33  34
ATOM     34  O   UNL     1       3.564   0.345  -6.147  1.00  0.00    -0.460 OA
BRANCH  34  35
ATOM     35  C   UNL     1       3.779   0.490  -7.484  1.00  0.00     0.338 C 
ATOM     36  O   UNL     1       3.197   1.211  -8.253  1.00  0.00    -0.246 OA
BRANCH  35  37
ATOM     37  C   UNL     1       4.776  -0.552  -7.834  1.00  0.00     0.060 A 
ATOM     38  C   UNL     1       5.585  -0.577  -8.983  1.00  0.00     0.016 A 
ATOM     39  C   UNL     1       4.883  -1.581  -6.927  1.00  0.00     0.016 A 
ATOM     40  C   UNL     1       6.389  -1.716  -9.265  1.00  0.00     0.010 A 
ATOM     41  C   UNL     1       5.780  -2.563  -7.173  1.00  0.00     0.010 A 
ATOM     42  C   UNL     1       6.399  -2.777  -8.368  1.00  0.00    -0.014 A 
BRANCH  42  43
ATOM     43  C   UNL     1       7.090  -4.076  -8.326  1.00  0.00     0.031 A 
ATOM     44  C   UNL     1       8.537  -3.967  -7.986  1.00  0.00     0.074 A 
ATOM     45  C   UNL     1       6.427  -5.266  -8.159  1.00  0.00     0.049 A 
ATOM     46  N   UNL     1       9.494  -3.913  -8.847  1.00  0.00    -0.248 NA
ATOM     47  C   UNL     1       9.017  -3.739  -6.608  1.00  0.00     0.031 C 
ATOM     48  C   UNL     1       4.973  -5.488  -7.978  1.00  0.00     0.029 A 
ATOM     49  N   UNL     1       6.910  -6.554  -8.072  1.00  0.00    -0.354 N 
ATOM     50  C   UNL     1      10.666  -4.040  -8.111  1.00  0.00     0.074 A 
ATOM     51  C   UNL     1      10.342  -3.658  -6.772  1.00  0.00     0.031 C 
ATOM     52  C   UNL     1       4.713  -6.793  -7.702  1.00  0.00     0.029 A 
ATOM     53  C   UNL     1       5.941  -7.553  -7.849  1.00  0.00     0.049 A 
ATOM     54  H   UNL     1       7.868  -6.762  -8.160  1.00  0.00     0.167 HD
ATOM     55  C   UNL     1      11.672  -4.816  -8.600  1.00  0.00     0.037 A 
ATOM     56  C   UNL     1       6.106  -8.908  -7.907  1.00  0.00     0.037 A 
ATOM     57  C   UNL     1      11.323  -5.246  -9.935  1.00  0.00     0.049 A 
ATOM     58  C   UNL     1       7.261  -9.133  -8.799  1.00  0.00     0.074 A 
ATOM     59  C   UNL     1      11.194  -4.630 -11.161  1.00  0.00     0.029 A 
ATOM     60  N   UNL     1      10.553  -6.381  -9.960  1.00  0.00    -0.354 N 
ATOM     61  N   UNL     1       7.234  -8.867 -10.073  1.00  0.00    -0.248 NA
ATOM     62  C   UNL     1       8.580  -9.352  -8.222  1.00  0.00     0.031 C 
ATOM     63  C   UNL     1      10.189  -5.356 -11.865  1.00  0.00     0.029 A 
ATOM     64  C   UNL     1       9.798  -6.451 -11.100  1.00  0.00     0.049 A 
ATOM     65  H   UNL     1      10.545  -7.060  -9.247  1.00  0.00     0.167 HD
ATOM     66  C   UNL     1       8.506  -8.409 -10.329  1.00  0.00     0.074 A 
ATOM     67  C   UNL     1       9.329  -8.910  -9.235  1.00  0.00     0.031 C 
ATOM     68  C   UNL     1       8.698  -7.379 -11.198  1.00  0.00     0.037 A 
BRANCH  55  69
ATOM     69  C   UNL     1      12.699  -5.596  -7.814  1.00  0.00     0.064 A 
ATOM     70  C   UNL     1      13.753  -6.198  -8.534  1.00  0.00     0.173 A 
ATOM     71  C   UNL     1      12.546  -6.030  -6.482  1.00  0.00     0.173 A 
ATOM     72  F   UNL     1      13.982  -5.863  -9.813  1.00  0.00    -0.203 F 
ATOM     73  C   UNL     1      14.540  -7.215  -7.989  1.00  0.00     0.198 A 
ATOM     74  C   UNL     1      13.368  -7.014  -5.924  1.00  0.00     0.198 A 
ATOM     75  F   UNL     1      11.541  -5.610  -5.706  1.00  0.00    -0.203 F 
ATOM     76  F   UNL     1      15.446  -7.838  -8.755  1.00  0.00    -0.200 F 
ATOM     77  C   UNL     1      14.342  -7.627  -6.686  1.00  0.00     0.200 A 
ATOM     78  F   UNL     1      13.150  -7.419  -4.665  1.00  0.00    -0.200 F 
ATOM     79  F   UNL     1      15.056  -8.640  -6.178  1.00  0.00    -0.200 F 
ENDBRANCH  55  69
BRANCH  56  80
ATOM     80  C   UNL     1       5.434 -10.096  -7.310  1.00  0.00     0.064 A 
ATOM     81  C   UNL     1       5.483 -11.367  -7.927  1.00  0.00     0.173 A 
ATOM     82  C   UNL     1       5.086 -10.086  -5.950  1.00  0.00     0.173 A 
ATOM     83  F   UNL     1       5.833 -11.480  -9.216  1.00  0.00    -0.203 F 
ATOM     84  C   UNL     1       5.268 -12.553  -7.211  1.00  0.00     0.198 A 
ATOM     85  C   UNL     1       4.875 -11.273  -5.234  1.00  0.00     0.198 A 
ATOM     86  F   UNL     1       5.068  -8.930  -5.271  1.00  0.00    -0.203 F 
ATOM     87  F   UNL     1       5.413 -13.741  -7.817  1.00  0.00    -0.200 F 
ATOM     88  C   UNL     1       4.986 -12.505  -5.858  1.00  0.00     0.200 A 
ATOM     89  F   UNL     1       4.647 -11.221  -3.913  1.00  0.00    -0.200 F 
ATOM     90  F   UNL     1       4.874 -13.638  -5.149  1.00  0.00    -0.200 F 
ENDBRANCH  56  80
BRANCH  68  91
ATOM     91  C   UNL     1       7.645  -7.149 -12.240  1.00  0.00     0.064 A 
ATOM     92  C   UNL     1       6.328  -6.729 -11.993  1.00  0.00     0.173 A 
ATOM     93  C   UNL     1       8.023  -7.318 -13.578  1.00  0.00     0.173 A 
ATOM     94  F   UNL     1       5.897  -6.491 -10.751  1.00  0.00    -0.203 F 
ATOM     95  C   UNL     1       5.428  -6.515 -13.037  1.00  0.00     0.198 A 
ATOM     96  C   UNL     1       7.135  -7.074 -14.619  1.00  0.00     0.198 A 
ATOM     97  F   UNL     1       9.276  -7.695 -13.877  1.00  0.00    -0.203 F 
ATOM     98  F   UNL     1       4.171  -6.127 -12.772  1.00  0.00    -0.200 F 
ATOM     99  C   UNL     1       5.835  -6.682 -14.349  1.00  0.00     0.200 A 
ATOM    100  F   UNL     1       7.549  -7.204 -15.887  1.00  0.00    -0.200 F 
ATOM    101  F   UNL     1       4.981  -6.450 -15.355  1.00  0.00    -0.200 F 
ENDBRANCH  68  91
ENDBRANCH  42  43
ENDBRANCH  35  37
ENDBRANCH  34  35
ENDBRANCH  33  34
ENDBRANCH  32  33
ENDBRANCH   1  32
TORSDOF 18
