REMARK SMILES O=C(OCCOCCOC(=O)[C@@H]1CCCN(C(=O)Nc2ccccc2)C1)c1ccc(-c2c3nc(c(-c4c(F)c(F)c(F)c(F)c4F)c4ccc([nH]4)c(-c4c(F)c(F)c(F)c(F)c4F)c4nc(c(-c5c(F)c(F)c(F)c(F)c5F)c5ccc2[nH]5)C=C4)C=C3)cc1
REMARK SMILES IDX 6 1 5 2 4 3 3 4 2 5 1 6 27 7 28 8 89 9 29 10 88 11 30 12
REMARK SMILES IDX 31 13 32 14 82 15 33 16 87 17 81 18 83 19 34 20 86 21 80 22
REMARK SMILES IDX 79 23 35 25 67 26 47 27 66 28 48 29 51 30 65 31 84 32 49 33
REMARK SMILES IDX 50 34 64 36 85 37 52 38 36 39 37 40 45 41 38 42 39 43 43 44
REMARK SMILES IDX 46 45 40 46 41 47 44 48 42 49 68 50 69 51 77 52 70 53 71 54
REMARK SMILES IDX 75 55 78 56 72 57 73 58 76 59 74 60 53 61 54 62 62 63 55 64
REMARK SMILES IDX 56 65 60 66 63 67 57 68 58 69 61 70 59 71 7 72 8 73 9 74
REMARK SMILES IDX 10 75 11 76 12 77 13 78 26 79 14 80 16 81 15 82 17 83 18 84
REMARK SMILES IDX 19 85 20 87 21 88 25 89 22 90 24 91 23 92
REMARK H PARENT 83 24 51 35 19 86
REMARK Flexibility Score: inf
ROOT
ATOM      1  O   UNL     1       3.481   0.677  -2.795  1.00  0.00    -0.374 OA
ENDROOT
BRANCH   1   2
ATOM      2  C   UNL     1       4.242   0.257  -1.666  1.00  0.00     0.202 C 
BRANCH   2   3
ATOM      3  C   UNL     1       3.526  -0.233  -0.375  1.00  0.00     0.261 C 
BRANCH   3   4
ATOM      4  O   UNL     1       2.116   0.093  -0.183  1.00  0.00    -0.460 OA
BRANCH   4   5
ATOM      5  C   UNL     1       1.637   1.039   0.672  1.00  0.00     0.338 C 
ATOM      6  O   UNL     1       0.615   0.869   1.333  1.00  0.00    -0.246 OA
BRANCH   5   7
ATOM      7  C   UNL     1       2.360   2.323   0.703  1.00  0.00     0.060 A 
ATOM      8  C   UNL     1       3.126   2.632  -0.393  1.00  0.00     0.016 A 
ATOM      9  C   UNL     1       2.309   3.241   1.745  1.00  0.00     0.016 A 
ATOM     10  C   UNL     1       4.176   3.495  -0.283  1.00  0.00     0.010 A 
ATOM     11  C   UNL     1       3.118   4.386   1.672  1.00  0.00     0.010 A 
ATOM     12  C   UNL     1       4.097   4.492   0.667  1.00  0.00    -0.014 A 
BRANCH  12  13
ATOM     13  C   UNL     1       5.050   5.614   0.516  1.00  0.00     0.031 A 
ATOM     14  C   UNL     1       5.905   5.992   1.678  1.00  0.00     0.074 A 
ATOM     15  C   UNL     1       5.208   6.197  -0.695  1.00  0.00     0.049 A 
ATOM     16  N   UNL     1       6.640   7.056   1.844  1.00  0.00    -0.248 NA
ATOM     17  C   UNL     1       5.919   5.062   2.819  1.00  0.00     0.031 C 
ATOM     18  C   UNL     1       4.510   5.812  -1.935  1.00  0.00     0.029 A 
ATOM     19  N   UNL     1       6.039   7.203  -1.111  1.00  0.00    -0.354 N 
ATOM     20  C   UNL     1       7.130   6.967   3.138  1.00  0.00     0.074 A 
ATOM     21  C   UNL     1       6.622   5.742   3.711  1.00  0.00     0.031 C 
ATOM     22  C   UNL     1       5.015   6.490  -2.970  1.00  0.00     0.029 A 
ATOM     23  C   UNL     1       5.923   7.492  -2.452  1.00  0.00     0.049 A 
ATOM     24  H   UNL     1       6.660   7.674  -0.509  1.00  0.00     0.167 HD
ATOM     25  C   UNL     1       7.919   7.860   3.777  1.00  0.00     0.037 A 
ATOM     26  C   UNL     1       6.424   8.512  -3.169  1.00  0.00     0.037 A 
ATOM     27  C   UNL     1       8.431   9.042   3.136  1.00  0.00     0.049 A 
ATOM     28  C   UNL     1       7.231   9.527  -2.418  1.00  0.00     0.074 A 
ATOM     29  C   UNL     1       9.196  10.060   3.669  1.00  0.00     0.029 A 
ATOM     30  N   UNL     1       8.232   9.348   1.792  1.00  0.00    -0.354 N 
ATOM     31  N   UNL     1       7.590   9.522  -1.155  1.00  0.00    -0.248 NA
ATOM     32  C   UNL     1       7.669  10.706  -3.169  1.00  0.00     0.031 C 
ATOM     33  C   UNL     1       9.418  11.005   2.661  1.00  0.00     0.029 A 
ATOM     34  C   UNL     1       8.846  10.547   1.481  1.00  0.00     0.049 A 
ATOM     35  H   UNL     1       7.727   8.791   1.156  1.00  0.00     0.167 HD
ATOM     36  C   UNL     1       8.308  10.688  -0.958  1.00  0.00     0.074 A 
ATOM     37  C   UNL     1       8.353  11.363  -2.243  1.00  0.00     0.031 C 
ATOM     38  C   UNL     1       8.870  11.168   0.178  1.00  0.00     0.037 A 
BRANCH  25  39
ATOM     39  C   UNL     1       8.171   7.625   5.238  1.00  0.00     0.064 A 
ATOM     40  C   UNL     1       8.946   6.555   5.708  1.00  0.00     0.173 A 
ATOM     41  C   UNL     1       7.564   8.459   6.191  1.00  0.00     0.173 A 
ATOM     42  F   UNL     1       9.524   5.708   4.842  1.00  0.00    -0.203 F 
ATOM     43  C   UNL     1       9.067   6.301   7.073  1.00  0.00     0.198 A 
ATOM     44  C   UNL     1       7.715   8.223   7.555  1.00  0.00     0.198 A 
ATOM     45  F   UNL     1       6.803   9.493   5.800  1.00  0.00    -0.203 F 
ATOM     46  F   UNL     1       9.746   5.226   7.496  1.00  0.00    -0.200 F 
ATOM     47  C   UNL     1       8.454   7.137   7.995  1.00  0.00     0.200 A 
ATOM     48  F   UNL     1       7.125   9.035   8.443  1.00  0.00    -0.200 F 
ATOM     49  F   UNL     1       8.561   6.884   9.307  1.00  0.00    -0.200 F 
ENDBRANCH  25  39
BRANCH  26  50
ATOM     50  C   UNL     1       6.092   8.666  -4.614  1.00  0.00     0.064 A 
ATOM     51  C   UNL     1       7.092   8.623  -5.595  1.00  0.00     0.173 A 
ATOM     52  C   UNL     1       4.769   8.856  -5.050  1.00  0.00     0.173 A 
ATOM     53  F   UNL     1       8.374   8.463  -5.236  1.00  0.00    -0.203 F 
ATOM     54  C   UNL     1       6.785   8.779  -6.947  1.00  0.00     0.198 A 
ATOM     55  C   UNL     1       4.459   8.972  -6.404  1.00  0.00     0.198 A 
ATOM     56  F   UNL     1       3.766   8.906  -4.161  1.00  0.00    -0.203 F 
ATOM     57  F   UNL     1       7.769   8.783  -7.857  1.00  0.00    -0.200 F 
ATOM     58  C   UNL     1       5.469   8.945  -7.351  1.00  0.00     0.200 A 
ATOM     59  F   UNL     1       3.183   9.110  -6.788  1.00  0.00    -0.200 F 
ATOM     60  F   UNL     1       5.176   9.089  -8.651  1.00  0.00    -0.200 F 
ENDBRANCH  26  50
BRANCH  38  61
ATOM     61  C   UNL     1       9.620  12.457   0.052  1.00  0.00     0.064 A 
ATOM     62  C   UNL     1       8.959  13.679  -0.129  1.00  0.00     0.173 A 
ATOM     63  C   UNL     1      11.019  12.465   0.155  1.00  0.00     0.173 A 
ATOM     64  F   UNL     1       7.624  13.714  -0.256  1.00  0.00    -0.203 F 
ATOM     65  C   UNL     1       9.677  14.865  -0.228  1.00  0.00     0.198 A 
ATOM     66  C   UNL     1      11.729  13.657   0.094  1.00  0.00     0.198 A 
ATOM     67  F   UNL     1      11.691  11.317   0.332  1.00  0.00    -0.203 F 
ATOM     68  F   UNL     1       9.033  16.018  -0.455  1.00  0.00    -0.200 F 
ATOM     69  C   UNL     1      11.059  14.854  -0.106  1.00  0.00     0.200 A 
ATOM     70  F   UNL     1      13.062  13.646   0.228  1.00  0.00    -0.200 F 
ATOM     71  F   UNL     1      11.748  16.001  -0.187  1.00  0.00    -0.200 F 
ENDBRANCH  38  61
ENDBRANCH  12  13
ENDBRANCH   5   7
ENDBRANCH   4   5
ENDBRANCH   3   4
ENDBRANCH   2   3
ENDBRANCH   1   2
BRANCH   1  72
ATOM     72  C   UNL     1       2.335  -0.080  -3.145  1.00  0.00     0.202 C 
BRANCH  72  73
ATOM     73  C   UNL     1       2.620  -1.457  -3.737  1.00  0.00     0.261 C 
BRANCH  73  74
ATOM     74  O   UNL     1       3.490  -2.273  -2.919  1.00  0.00    -0.463 OA
BRANCH  74  75
ATOM     75  C   UNL     1       4.770  -2.384  -3.374  1.00  0.00     0.310 C 
ATOM     76  O   UNL     1       5.199  -1.810  -4.371  1.00  0.00    -0.252 OA
BRANCH  75  77
ATOM     77  C   UNL     1       5.653  -3.307  -2.545  1.00  0.00     0.119 C 
ATOM     78  C   UNL     1       5.098  -4.729  -2.502  1.00  0.00     0.019 C 
ATOM     79  C   UNL     1       6.166  -2.765  -1.197  1.00  0.00     0.136 C 
ATOM     80  C   UNL     1       4.330  -5.049  -1.231  1.00  0.00     0.023 C 
ATOM     81  N   UNL     1       5.429  -3.214  -0.015  1.00  0.00    -0.324 N 
ATOM     82  C   UNL     1       5.099  -4.634   0.006  1.00  0.00     0.121 C 
BRANCH  81  83
ATOM     83  C   UNL     1       5.440  -2.416   1.135  1.00  0.00     0.321 C 
ATOM     84  O   UNL     1       6.045  -1.347   1.195  1.00  0.00    -0.248 OA
ATOM     85  N   UNL     1       4.552  -2.783   2.119  1.00  0.00    -0.308 N 
ATOM     86  H   UNL     1       3.704  -2.288   2.182  1.00  0.00     0.171 HD
BRANCH  85  87
ATOM     87  C   UNL     1       4.780  -3.822   3.039  1.00  0.00     0.042 A 
ATOM     88  C   UNL     1       3.667  -4.479   3.575  1.00  0.00     0.026 A 
ATOM     89  C   UNL     1       6.066  -4.299   3.296  1.00  0.00     0.026 A 
ATOM     90  C   UNL     1       3.839  -5.681   4.262  1.00  0.00     0.002 A 
ATOM     91  C   UNL     1       6.234  -5.492   3.996  1.00  0.00     0.002 A 
ATOM     92  C   UNL     1       5.121  -6.198   4.452  1.00  0.00     0.000 A 
ENDBRANCH  85  87
ENDBRANCH  81  83
ENDBRANCH  75  77
ENDBRANCH  74  75
ENDBRANCH  73  74
ENDBRANCH  72  73
ENDBRANCH   1  72
TORSDOF 16
