REMARK SMILES Cc1cc(C(=O)OCCOCCOC(=O)c2ccc(-c3c4nc(c(-c5c(F)c(F)c(F)c(F)c5F)c5ccc([nH]5)c(-c5c(F)c(F)c(F)c(F)c5F)c5nc(c(-c6c(F)c(F)c(F)c(F)c6F)c6ccc3[nH]6)C=C5)C=C4)cc2)cc(S(=O)(=O)NNC(=O)c2c[nH]c3ccccc23)c1C
REMARK SMILES IDX 9 1 8 2 7 3 5 4 6 5 4 6 1 7 2 8 3 9 97 10 80 11 98 12 79 13
REMARK SMILES IDX 81 14 82 15 83 16 84 17 85 19 86 20 87 22 88 23 89 24 96 25
REMARK SMILES IDX 90 26 91 27 95 28 92 30 94 31 93 32 10 33 11 34 12 35 13 36
REMARK SMILES IDX 14 37 15 38 16 39 17 40 78 41 18 42 77 43 19 44 20 45 21 46
REMARK SMILES IDX 71 47 22 48 76 49 70 50 72 51 23 52 75 53 69 54 68 55 24 57
REMARK SMILES IDX 56 58 36 59 55 60 37 61 40 62 54 63 73 64 38 65 39 66 53 68
REMARK SMILES IDX 74 69 41 70 25 71 26 72 34 73 27 74 28 75 32 76 35 77 29 78
REMARK SMILES IDX 30 79 33 80 31 81 57 82 58 83 66 84 59 85 60 86 64 87 67 88
REMARK SMILES IDX 61 89 62 90 65 91 63 92 42 93 43 94 51 95 44 96 45 97 49 98
REMARK SMILES IDX 52 99 46 100 47 101 50 102 48 103
REMARK H PARENT 84 18 85 21 90 29 72 56 40 67
REMARK Flexibility Score: inf
ROOT
ATOM      1  C   UNL     1      -5.440   2.797  -0.377  1.00  0.00     0.202 C 
ENDROOT
BRANCH   1   2
ATOM      2  C   UNL     1      -4.560   2.771   0.881  1.00  0.00     0.261 C 
BRANCH   2   3
ATOM      3  O   UNL     1      -3.288   2.143   0.675  1.00  0.00    -0.460 OA
BRANCH   3   4
ATOM      4  C   UNL     1      -3.175   0.900   1.215  1.00  0.00     0.338 C 
ATOM      5  O   UNL     1      -3.990   0.320   1.906  1.00  0.00    -0.246 OA
BRANCH   4   6
ATOM      6  C   UNL     1      -1.946   0.244   0.710  1.00  0.00     0.061 A 
ATOM      7  C   UNL     1       1.666   1.153  -0.010  1.00  0.00     0.044 C 
ATOM      8  C   UNL     1       0.413   0.325   0.126  1.00  0.00    -0.046 A 
ATOM      9  C   UNL     1      -0.762   0.968   0.540  1.00  0.00     0.019 A 
ATOM     10  C   UNL     1       0.392  -1.073  -0.109  1.00  0.00    -0.028 A 
ATOM     11  C   UNL     1      -0.849  -1.771  -0.050  1.00  0.00     0.088 A 
ATOM     12  C   UNL     1       1.681  -1.826  -0.347  1.00  0.00     0.046 C 
ATOM     13  C   UNL     1      -2.005  -1.121   0.388  1.00  0.00     0.037 A 
BRANCH  11  14
ATOM     14  S   UNL     1      -0.926  -3.469  -0.621  1.00  0.00     0.257 S 
ATOM     15  O   UNL     1      -0.480  -3.465  -2.004  1.00  0.00    -0.205 OA
ATOM     16  O   UNL     1      -0.283  -4.278   0.385  1.00  0.00    -0.205 OA
BRANCH  14  17
ATOM     17  N   UNL     1      -2.554  -3.975  -0.631  1.00  0.00    -0.123 NA
ATOM     18  H   UNL     1      -3.010  -3.518   0.159  1.00  0.00     0.167 HD
BRANCH  17  19
ATOM     19  N   UNL     1      -3.393  -3.724  -1.807  1.00  0.00    -0.273 N 
ATOM     20  C   UNL     1      -4.360  -4.625  -2.239  1.00  0.00     0.268 C 
ATOM     21  H   UNL     1      -3.267  -2.886  -2.309  1.00  0.00     0.186 HD
ATOM     22  O   UNL     1      -5.537  -4.280  -2.318  1.00  0.00    -0.268 OA
BRANCH  20  23
ATOM     23  C   UNL     1      -3.846  -5.819  -2.929  1.00  0.00     0.066 A 
ATOM     24  C   UNL     1      -2.532  -6.052  -3.301  1.00  0.00     0.097 A 
ATOM     25  C   UNL     1      -4.558  -6.635  -3.873  1.00  0.00     0.012 A 
ATOM     26  N   UNL     1      -2.571  -6.031  -4.670  1.00  0.00    -0.360 N 
ATOM     27  C   UNL     1      -3.777  -6.587  -5.035  1.00  0.00     0.046 A 
ATOM     28  C   UNL     1      -5.803  -7.290  -3.939  1.00  0.00     0.011 A 
ATOM     29  H   UNL     1      -1.874  -5.687  -5.275  1.00  0.00     0.166 HD
ATOM     30  C   UNL     1      -4.213  -7.050  -6.276  1.00  0.00     0.027 A 
ATOM     31  C   UNL     1      -6.196  -7.882  -5.150  1.00  0.00     0.001 A 
ATOM     32  C   UNL     1      -5.432  -7.726  -6.306  1.00  0.00     0.002 A 
ENDBRANCH  20  23
ENDBRANCH  17  19
ENDBRANCH  14  17
ENDBRANCH  11  14
ENDBRANCH   4   6
ENDBRANCH   3   4
ENDBRANCH   2   3
ENDBRANCH   1   2
BRANCH   1  33
ATOM     33  O   UNL     1      -5.646   1.584  -1.092  1.00  0.00    -0.374 OA
BRANCH  33  34
ATOM     34  C   UNL     1      -4.565   1.040  -1.843  1.00  0.00     0.202 C 
BRANCH  34  35
ATOM     35  C   UNL     1      -4.072   1.783  -3.091  1.00  0.00     0.261 C 
BRANCH  35  36
ATOM     36  O   UNL     1      -3.651   3.132  -2.834  1.00  0.00    -0.460 OA
BRANCH  36  37
ATOM     37  C   UNL     1      -4.436   4.077  -3.410  1.00  0.00     0.338 C 
ATOM     38  O   UNL     1      -5.410   3.905  -4.119  1.00  0.00    -0.246 OA
BRANCH  37  39
ATOM     39  C   UNL     1      -4.036   5.416  -2.949  1.00  0.00     0.060 A 
ATOM     40  C   UNL     1      -4.976   6.168  -2.234  1.00  0.00     0.016 A 
ATOM     41  C   UNL     1      -2.813   5.971  -3.325  1.00  0.00     0.016 A 
ATOM     42  C   UNL     1      -4.708   7.500  -1.923  1.00  0.00     0.010 A 
ATOM     43  C   UNL     1      -2.550   7.310  -3.019  1.00  0.00     0.010 A 
ATOM     44  C   UNL     1      -3.509   8.089  -2.345  1.00  0.00    -0.014 A 
BRANCH  44  45
ATOM     45  C   UNL     1      -3.311   9.550  -2.186  1.00  0.00     0.031 A 
ATOM     46  C   UNL     1      -3.500  10.453  -3.373  1.00  0.00     0.074 A 
ATOM     47  C   UNL     1      -2.986  10.065  -0.987  1.00  0.00     0.049 A 
ATOM     48  N   UNL     1      -3.330  11.747  -3.468  1.00  0.00    -0.248 NA
ATOM     49  C   UNL     1      -3.937   9.810  -4.622  1.00  0.00     0.031 C 
ATOM     50  C   UNL     1      -2.815   9.295   0.243  1.00  0.00     0.029 A 
ATOM     51  N   UNL     1      -2.735  11.361  -0.612  1.00  0.00    -0.354 N 
ATOM     52  C   UNL     1      -3.631  12.072  -4.784  1.00  0.00     0.074 A 
ATOM     53  C   UNL     1      -3.965  10.837  -5.459  1.00  0.00     0.031 C 
ATOM     54  C   UNL     1      -2.475  10.132   1.237  1.00  0.00     0.029 A 
ATOM     55  C   UNL     1      -2.370  11.490   0.705  1.00  0.00     0.049 A 
ATOM     56  H   UNL     1      -2.809  12.125  -1.229  1.00  0.00     0.167 HD
ATOM     57  C   UNL     1      -3.638  13.293  -5.371  1.00  0.00     0.037 A 
ATOM     58  C   UNL     1      -1.971  12.576   1.393  1.00  0.00     0.037 A 
ATOM     59  C   UNL     1      -3.310  14.520  -4.693  1.00  0.00     0.049 A 
ATOM     60  C   UNL     1      -1.916  13.912   0.696  1.00  0.00     0.074 A 
ATOM     61  C   UNL     1      -3.310  15.810  -5.194  1.00  0.00     0.029 A 
ATOM     62  N   UNL     1      -2.914  14.607  -3.366  1.00  0.00    -0.354 N 
ATOM     63  N   UNL     1      -2.229  14.215  -0.540  1.00  0.00    -0.248 NA
ATOM     64  C   UNL     1      -1.452  15.056   1.494  1.00  0.00     0.031 C 
ATOM     65  C   UNL     1      -2.861  16.671  -4.187  1.00  0.00     0.029 A 
ATOM     66  C   UNL     1      -2.638  15.926  -3.040  1.00  0.00     0.049 A 
ATOM     67  H   UNL     1      -2.840  13.845  -2.747  1.00  0.00     0.167 HD
ATOM     68  C   UNL     1      -2.030  15.585  -0.660  1.00  0.00     0.074 A 
ATOM     69  C   UNL     1      -1.583  16.056   0.633  1.00  0.00     0.031 C 
ATOM     70  C   UNL     1      -2.202  16.381  -1.745  1.00  0.00     0.037 A 
BRANCH  57  71
ATOM     71  C   UNL     1      -3.990  13.364  -6.829  1.00  0.00     0.064 A 
ATOM     72  C   UNL     1      -5.298  13.141  -7.285  1.00  0.00     0.173 A 
ATOM     73  C   UNL     1      -3.014  13.704  -7.778  1.00  0.00     0.173 A 
ATOM     74  F   UNL     1      -6.266  12.801  -6.420  1.00  0.00    -0.203 F 
ATOM     75  C   UNL     1      -5.611  13.234  -8.639  1.00  0.00     0.198 A 
ATOM     76  C   UNL     1      -3.337  13.826  -9.127  1.00  0.00     0.198 A 
ATOM     77  F   UNL     1      -1.749  13.932  -7.395  1.00  0.00    -0.203 F 
ATOM     78  F   UNL     1      -6.858  12.976  -9.057  1.00  0.00    -0.200 F 
ATOM     79  C   UNL     1      -4.632  13.584  -9.557  1.00  0.00     0.200 A 
ATOM     80  F   UNL     1      -2.392  14.177 -10.011  1.00  0.00    -0.200 F 
ATOM     81  F   UNL     1      -4.937  13.684 -10.859  1.00  0.00    -0.200 F 
ENDBRANCH  57  71
BRANCH  58  82
ATOM     82  C   UNL     1      -1.575  12.449   2.821  1.00  0.00     0.064 A 
ATOM     83  C   UNL     1      -2.333  13.043   3.839  1.00  0.00     0.173 A 
ATOM     84  C   UNL     1      -0.415  11.752   3.193  1.00  0.00     0.173 A 
ATOM     85  F   UNL     1      -3.436  13.741   3.532  1.00  0.00    -0.203 F 
ATOM     86  C   UNL     1      -1.935  12.964   5.172  1.00  0.00     0.198 A 
ATOM     87  C   UNL     1      -0.035  11.647   4.529  1.00  0.00     0.198 A 
ATOM     88  F   UNL     1       0.347  11.166   2.257  1.00  0.00    -0.203 F 
ATOM     89  F   UNL     1      -2.649  13.585   6.120  1.00  0.00    -0.200 F 
ATOM     90  C   UNL     1      -0.789  12.262   5.516  1.00  0.00     0.200 A 
ATOM     91  F   UNL     1       1.065  10.956   4.858  1.00  0.00    -0.200 F 
ATOM     92  F   UNL     1      -0.408  12.185   6.798  1.00  0.00    -0.200 F 
ENDBRANCH  58  82
BRANCH  70  93
ATOM     93  C   UNL     1      -1.942  17.850  -1.571  1.00  0.00     0.064 A 
ATOM     94  C   UNL     1      -0.643  18.356  -1.411  1.00  0.00     0.173 A 
ATOM     95  C   UNL     1      -3.003  18.768  -1.610  1.00  0.00     0.173 A 
ATOM     96  F   UNL     1       0.404  17.520  -1.352  1.00  0.00    -0.203 F 
ATOM     97  C   UNL     1      -0.420  19.724  -1.270  1.00  0.00     0.198 A 
ATOM     98  C   UNL     1      -2.773  20.137  -1.502  1.00  0.00     0.198 A 
ATOM     99  F   UNL     1      -4.264  18.338  -1.770  1.00  0.00    -0.203 F 
ATOM    100  F   UNL     1       0.823  20.180  -1.068  1.00  0.00    -0.200 F 
ATOM    101  C   UNL     1      -1.484  20.613  -1.323  1.00  0.00     0.200 A 
ATOM    102  F   UNL     1      -3.801  20.995  -1.569  1.00  0.00    -0.200 F 
ATOM    103  F   UNL     1      -1.266  21.929  -1.196  1.00  0.00    -0.200 F 
ENDBRANCH  70  93
ENDBRANCH  44  45
ENDBRANCH  37  39
ENDBRANCH  36  37
ENDBRANCH  35  36
ENDBRANCH  34  35
ENDBRANCH  33  34
ENDBRANCH   1  33
TORSDOF 18
