REMARK SMILES CC(C)[C@H](NC(=O)c1cc2cc(Cl)ccc2n1C)C(=O)N[C@@H](C(=O)OCCOCCOC(=O)c1ccc(-c2c3nc(c(-c4c(F)c(F)c(F)c(F)c4F)c4ccc([nH]4)c(-c4c(F)c(F)c(F)c(F)c4F)c4nc(c(-c5c(F)c(F)c(F)c(F)c5F)c5ccc2[nH]5)C=C4)C=C3)cc1)c1ccccc1
REMARK SMILES IDX 27 1 26 2 25 3 23 4 24 5 22 6 21 7 19 8 20 9 4 11 2 12 1 13
REMARK SMILES IDX 3 14 5 15 6 16 7 18 8 19 9 20 17 21 10 22 16 23 18 24 11 25
REMARK SMILES IDX 15 26 12 27 14 28 13 29 97 30 98 31 102 32 99 33 101 34
REMARK SMILES IDX 100 35 28 36 29 37 30 38 31 39 32 40 33 41 34 42 35 43 96 44
REMARK SMILES IDX 36 45 95 46 37 47 38 48 39 49 89 50 40 51 94 52 88 53 90 54
REMARK SMILES IDX 41 55 93 56 87 57 86 58 42 60 74 61 54 62 73 63 55 64 58 65
REMARK SMILES IDX 72 66 91 67 56 68 57 69 71 71 92 72 59 73 43 74 44 75 52 76
REMARK SMILES IDX 45 77 46 78 50 79 53 80 47 81 48 82 51 83 49 84 75 85 76 86
REMARK SMILES IDX 84 87 77 88 78 89 82 90 85 91 79 92 80 93 83 94 81 95 60 96
REMARK SMILES IDX 61 97 69 98 62 99 63 100 67 101 70 102 64 103 65 104 68 105
REMARK SMILES IDX 66 106
REMARK H PARENT 21 10 5 17 90 59 58 70
REMARK Flexibility Score: inf
ROOT
ATOM      1  C   UNL     1       2.619   5.999  -2.964  1.00  0.00     0.202 C 
ENDROOT
BRANCH   1   2
ATOM      2  C   UNL     1       2.724   4.859  -1.944  1.00  0.00     0.261 C 
BRANCH   2   3
ATOM      3  O   UNL     1       1.461   4.243  -1.683  1.00  0.00    -0.461 OA
BRANCH   3   4
ATOM      4  C   UNL     1       1.064   4.335  -0.388  1.00  0.00     0.333 C 
ATOM      5  O   UNL     1       1.792   4.660   0.545  1.00  0.00    -0.249 OA
BRANCH   4   6
ATOM      6  C   UNL     1      -0.439   4.081  -0.206  1.00  0.00     0.223 C 
BRANCH   6   7
ATOM      7  N   UNL     1      -1.255   3.586  -1.313  1.00  0.00    -0.337 N 
ATOM      8  C   UNL     1      -1.876   2.382  -1.431  1.00  0.00     0.243 C 
ATOM      9  O   UNL     1      -3.005   2.398  -1.936  1.00  0.00    -0.273 OA
ATOM     10  H   UNL     1      -1.369   4.204  -2.071  1.00  0.00     0.164 HD
BRANCH   8  11
ATOM     11  C   UNL     1      -1.269   1.055  -0.932  1.00  0.00     0.174 C 
BRANCH  11  12
ATOM     12  C   UNL     1      -1.661   0.656   0.531  1.00  0.00     0.015 C 
ATOM     13  C   UNL     1      -0.814   1.196   1.692  1.00  0.00     0.010 C 
ATOM     14  C   UNL     1      -3.138   0.946   0.840  1.00  0.00     0.010 C 
ENDBRANCH  11  12
BRANCH  11  15
ATOM     15  N   UNL     1       0.166   0.977  -1.219  1.00  0.00    -0.339 N 
ATOM     16  C   UNL     1       0.863   0.529  -2.317  1.00  0.00     0.268 C 
ATOM     17  H   UNL     1       0.738   1.308  -0.489  1.00  0.00     0.164 HD
ATOM     18  O   UNL     1       2.088   0.487  -2.183  1.00  0.00    -0.268 OA
BRANCH  16  19
ATOM     19  C   UNL     1       0.231   0.077  -3.548  1.00  0.00     0.107 A 
ATOM     20  C   UNL     1       0.622  -1.050  -4.274  1.00  0.00     0.042 A 
ATOM     21  N   UNL     1      -0.650   0.741  -4.381  1.00  0.00    -0.340 N 
ATOM     22  C   UNL     1      -0.109  -1.116  -5.490  1.00  0.00     0.002 A 
ATOM     23  C   UNL     1      -0.974  -0.028  -5.489  1.00  0.00     0.048 A 
ATOM     24  C   UNL     1      -0.978   2.148  -4.346  1.00  0.00     0.150 C 
ATOM     25  C   UNL     1      -0.104  -1.980  -6.606  1.00  0.00     0.030 A 
ATOM     26  C   UNL     1      -1.892   0.205  -6.528  1.00  0.00     0.028 A 
ATOM     27  C   UNL     1      -0.995  -1.736  -7.659  1.00  0.00     0.041 A 
ATOM     28  C   UNL     1      -1.890  -0.673  -7.614  1.00  0.00     0.023 A 
ATOM     29  Cl  UNL     1      -0.977  -2.763  -9.043  1.00  0.00    -0.084 Cl
ENDBRANCH  16  19
ENDBRANCH  11  15
ENDBRANCH   8  11
ENDBRANCH   6   7
BRANCH   6  30
ATOM     30  C   UNL     1      -1.167   5.303   0.352  1.00  0.00    -0.014 A 
ATOM     31  C   UNL     1      -2.344   5.108   1.094  1.00  0.00     0.006 A 
ATOM     32  C   UNL     1      -0.772   6.618   0.058  1.00  0.00     0.006 A 
ATOM     33  C   UNL     1      -3.096   6.193   1.541  1.00  0.00     0.000 A 
ATOM     34  C   UNL     1      -1.522   7.703   0.514  1.00  0.00     0.000 A 
ATOM     35  C   UNL     1      -2.682   7.490   1.254  1.00  0.00     0.000 A 
ENDBRANCH   6  30
ENDBRANCH   4   6
ENDBRANCH   3   4
ENDBRANCH   2   3
ENDBRANCH   1   2
BRANCH   1  36
ATOM     36  O   UNL     1       1.433   6.788  -2.966  1.00  0.00    -0.374 OA
BRANCH  36  37
ATOM     37  C   UNL     1       0.236   6.201  -3.492  1.00  0.00     0.202 C 
BRANCH  37  38
ATOM     38  C   UNL     1       0.238   5.671  -4.935  1.00  0.00     0.261 C 
BRANCH  38  39
ATOM     39  O   UNL     1       1.069   4.506  -5.042  1.00  0.00    -0.460 OA
BRANCH  39  40
ATOM     40  C   UNL     1       1.764   4.398  -6.208  1.00  0.00     0.338 C 
ATOM     41  O   UNL     1       1.496   4.908  -7.279  1.00  0.00    -0.246 OA
BRANCH  40  42
ATOM     42  C   UNL     1       3.096   3.913  -5.803  1.00  0.00     0.060 A 
ATOM     43  C   UNL     1       3.219   2.779  -4.999  1.00  0.00     0.016 A 
ATOM     44  C   UNL     1       4.157   4.822  -5.950  1.00  0.00     0.016 A 
ATOM     45  C   UNL     1       4.383   2.614  -4.261  1.00  0.00     0.010 A 
ATOM     46  C   UNL     1       5.303   4.673  -5.177  1.00  0.00     0.010 A 
ATOM     47  C   UNL     1       5.398   3.590  -4.302  1.00  0.00    -0.014 A 
BRANCH  47  48
ATOM     48  C   UNL     1       6.628   3.304  -3.561  1.00  0.00     0.031 A 
ATOM     49  C   UNL     1       7.355   2.126  -4.106  1.00  0.00     0.074 A 
ATOM     50  C   UNL     1       7.188   4.034  -2.574  1.00  0.00     0.049 A 
ATOM     51  N   UNL     1       7.669   1.026  -3.505  1.00  0.00    -0.248 NA
ATOM     52  C   UNL     1       7.671   2.148  -5.543  1.00  0.00     0.031 C 
ATOM     53  C   UNL     1       6.818   5.366  -2.096  1.00  0.00     0.029 A 
ATOM     54  N   UNL     1       8.302   3.739  -1.834  1.00  0.00    -0.354 N 
ATOM     55  C   UNL     1       8.338   0.260  -4.453  1.00  0.00     0.074 A 
ATOM     56  C   UNL     1       8.207   0.943  -5.714  1.00  0.00     0.031 C 
ATOM     57  C   UNL     1       7.801   5.840  -1.292  1.00  0.00     0.029 A 
ATOM     58  C   UNL     1       8.809   4.806  -1.105  1.00  0.00     0.049 A 
ATOM     59  H   UNL     1       8.710   2.843  -1.819  1.00  0.00     0.167 HD
ATOM     60  C   UNL     1       9.123  -0.791  -4.107  1.00  0.00     0.037 A 
ATOM     61  C   UNL     1       9.998   4.851  -0.453  1.00  0.00     0.037 A 
ATOM     62  C   UNL     1       8.806  -1.298  -2.802  1.00  0.00     0.049 A 
ATOM     63  C   UNL     1      10.455   3.459  -0.234  1.00  0.00     0.074 A 
ATOM     64  C   UNL     1       7.688  -1.867  -2.225  1.00  0.00     0.029 A 
ATOM     65  N   UNL     1       9.638  -0.976  -1.762  1.00  0.00    -0.354 N 
ATOM     66  N   UNL     1       9.921   2.627   0.613  1.00  0.00    -0.248 NA
ATOM     67  C   UNL     1      11.344   2.864  -1.221  1.00  0.00     0.031 C 
ATOM     68  C   UNL     1       7.709  -1.444  -0.865  1.00  0.00     0.029 A 
ATOM     69  C   UNL     1       8.847  -0.656  -0.691  1.00  0.00     0.049 A 
ATOM     70  H   UNL     1      10.622  -0.975  -1.781  1.00  0.00     0.167 HD
ATOM     71  C   UNL     1      10.062   1.386   0.016  1.00  0.00     0.074 A 
ATOM     72  C   UNL     1      11.054   1.576  -1.034  1.00  0.00     0.031 C 
ATOM     73  C   UNL     1       9.157   0.394   0.249  1.00  0.00     0.037 A 
BRANCH  60  74
ATOM     74  C   UNL     1      10.398  -1.133  -4.829  1.00  0.00     0.064 A 
ATOM     75  C   UNL     1      11.046  -2.352  -4.559  1.00  0.00     0.173 A 
ATOM     76  C   UNL     1      11.151  -0.185  -5.557  1.00  0.00     0.173 A 
ATOM     77  F   UNL     1      10.436  -3.305  -3.839  1.00  0.00    -0.203 F 
ATOM     78  C   UNL     1      12.370  -2.580  -4.943  1.00  0.00     0.198 A 
ATOM     79  C   UNL     1      12.449  -0.439  -5.990  1.00  0.00     0.198 A 
ATOM     80  F   UNL     1      10.705   1.059  -5.777  1.00  0.00    -0.203 F 
ATOM     81  F   UNL     1      12.988  -3.705  -4.561  1.00  0.00    -0.200 F 
ATOM     82  C   UNL     1      13.069  -1.624  -5.658  1.00  0.00     0.200 A 
ATOM     83  F   UNL     1      13.118   0.511  -6.660  1.00  0.00    -0.200 F 
ATOM     84  F   UNL     1      14.354  -1.819  -5.980  1.00  0.00    -0.200 F 
ENDBRANCH  60  74
BRANCH  61  85
ATOM     85  C   UNL     1      10.913   5.996  -0.213  1.00  0.00     0.064 A 
ATOM     86  C   UNL     1      11.955   5.906   0.729  1.00  0.00     0.173 A 
ATOM     87  C   UNL     1      10.977   7.077  -1.110  1.00  0.00     0.173 A 
ATOM     88  F   UNL     1      11.996   4.885   1.599  1.00  0.00    -0.203 F 
ATOM     89  C   UNL     1      13.017   6.816   0.742  1.00  0.00     0.198 A 
ATOM     90  C   UNL     1      12.033   7.991  -1.090  1.00  0.00     0.198 A 
ATOM     91  F   UNL     1      10.072   7.211  -2.090  1.00  0.00    -0.203 F 
ATOM     92  F   UNL     1      14.030   6.651   1.605  1.00  0.00    -0.200 F 
ATOM     93  C   UNL     1      13.062   7.851  -0.176  1.00  0.00     0.200 A 
ATOM     94  F   UNL     1      12.082   8.968  -2.006  1.00  0.00    -0.200 F 
ATOM     95  F   UNL     1      14.112   8.682  -0.211  1.00  0.00    -0.200 F 
ENDBRANCH  61  85
BRANCH  73  96
ATOM     96  C   UNL     1       8.229   0.554   1.417  1.00  0.00     0.064 A 
ATOM     97  C   UNL     1       7.274   1.580   1.529  1.00  0.00     0.173 A 
ATOM     98  C   UNL     1       8.217  -0.453   2.392  1.00  0.00     0.173 A 
ATOM     99  F   UNL     1       7.164   2.527   0.587  1.00  0.00    -0.203 F 
ATOM    100  C   UNL     1       6.375   1.610   2.593  1.00  0.00     0.198 A 
ATOM    101  C   UNL     1       7.292  -0.440   3.431  1.00  0.00     0.198 A 
ATOM    102  F   UNL     1       9.076  -1.482   2.307  1.00  0.00    -0.203 F 
ATOM    103  F   UNL     1       5.480   2.604   2.689  1.00  0.00    -0.200 F 
ATOM    104  C   UNL     1       6.378   0.595   3.536  1.00  0.00     0.200 A 
ATOM    105  F   UNL     1       7.268  -1.448   4.315  1.00  0.00    -0.200 F 
ATOM    106  F   UNL     1       5.481   0.600   4.533  1.00  0.00    -0.200 F 
ENDBRANCH  73  96
ENDBRANCH  47  48
ENDBRANCH  40  42
ENDBRANCH  39  40
ENDBRANCH  38  39
ENDBRANCH  37  38
ENDBRANCH  36  37
ENDBRANCH   1  36
TORSDOF 20
