REMARK SMILES Cc1ccc(Cl)c(Nc2ccccc2C(=O)N[C@@H](C)C(=O)OCCOCCOC(=O)c2ccc(-c3c4nc(c(-c5c(F)c(F)c(F)c(F)c5F)c5ccc([nH]5)c(-c5c(F)c(F)c(F)c(F)c5F)c5nc(c(-c6c(F)c(F)c(F)c(F)c6F)c6ccc3[nH]6)C=C5)C=C4)cc2)c1Cl
REMARK SMILES IDX 24 1 23 2 22 3 20 4 21 5 18 6 19 7 17 8 15 9 16 10 14 12
REMARK SMILES IDX 9 13 10 14 11 15 13 16 12 17 8 18 7 20 1 21 2 22 3 23 94 24
REMARK SMILES IDX 4 25 95 26 5 27 6 28 25 29 26 30 27 31 28 32 29 33 30 34
REMARK SMILES IDX 31 35 32 36 93 37 33 38 92 39 34 40 35 41 36 42 86 43 37 44
REMARK SMILES IDX 91 45 85 46 87 47 38 48 90 49 84 50 83 51 39 53 71 54 51 55
REMARK SMILES IDX 70 56 52 57 55 58 69 59 88 60 53 61 54 62 68 64 89 65 56 66
REMARK SMILES IDX 40 67 41 68 49 69 42 70 43 71 47 72 50 73 44 74 45 75 48 76
REMARK SMILES IDX 46 77 72 78 73 79 81 80 74 81 75 82 79 83 82 84 76 85 77 86
REMARK SMILES IDX 80 87 78 88 57 89 58 90 66 91 59 92 60 93 64 94 67 95 61 96
REMARK SMILES IDX 62 97 65 98 63 99
REMARK H PARENT 17 11 8 19 87 52 55 63
REMARK Flexibility Score: inf
ROOT
ATOM      1  C   UNL     1       0.535   3.674  -0.957  1.00  0.00     0.202 C 
ENDROOT
BRANCH   1   2
ATOM      2  C   UNL     1      -0.586   3.201   0.067  1.00  0.00     0.261 C 
BRANCH   2   3
ATOM      3  O   UNL     1      -0.416   1.962   0.836  1.00  0.00    -0.462 OA
BRANCH   3   4
ATOM      4  C   UNL     1      -1.570   1.259   1.129  1.00  0.00     0.328 C 
ATOM      5  O   UNL     1      -2.689   1.730   0.922  1.00  0.00    -0.250 OA
BRANCH   4   6
ATOM      6  C   UNL     1      -1.377  -0.265   1.548  1.00  0.00     0.189 C 
ATOM      7  C   UNL     1      -2.562  -0.725   2.405  1.00  0.00     0.043 C 
BRANCH   6   8
ATOM      8  N   UNL     1      -0.142  -0.681   2.207  1.00  0.00    -0.339 N 
ATOM      9  C   UNL     1       0.651  -1.806   2.264  1.00  0.00     0.254 C 
ATOM     10  O   UNL     1       1.471  -1.699   3.195  1.00  0.00    -0.269 OA
ATOM     11  H   UNL     1       0.225   0.042   2.765  1.00  0.00     0.164 HD
BRANCH   9  12
ATOM     12  C   UNL     1       0.752  -3.078   1.405  1.00  0.00     0.063 A 
ATOM     13  C   UNL     1      -0.046  -3.673   0.390  1.00  0.00     0.051 A 
ATOM     14  C   UNL     1       0.384  -4.889  -0.234  1.00  0.00     0.027 A 
ATOM     15  C   UNL     1       1.599  -5.496   0.056  1.00  0.00     0.002 A 
ATOM     16  C   UNL     1       1.964  -3.782   1.700  1.00  0.00     0.016 A 
ATOM     17  C   UNL     1       2.393  -4.940   1.034  1.00  0.00     0.001 A 
BRANCH  13  18
ATOM     18  N   UNL     1      -1.126  -3.086  -0.311  1.00  0.00    -0.352 N 
ATOM     19  H   UNL     1      -2.041  -3.297  -0.016  1.00  0.00     0.167 HD
BRANCH  18  20
ATOM     20  C   UNL     1      -0.960  -2.196  -1.433  1.00  0.00     0.077 A 
ATOM     21  C   UNL     1       1.412   0.234  -0.609  1.00  0.00     0.046 C 
ATOM     22  C   UNL     1       0.315  -0.239  -1.512  1.00  0.00    -0.030 A 
ATOM     23  C   UNL     1      -0.795   0.491  -1.949  1.00  0.00     0.006 A 
ATOM     24  C   UNL     1       0.274  -1.603  -1.646  1.00  0.00     0.069 A 
ATOM     25  C   UNL     1      -1.984  -0.170  -2.260  1.00  0.00     0.023 A 
ATOM     26  Cl  UNL     1       1.758  -2.468  -1.849  1.00  0.00    -0.082 Cl
ATOM     27  C   UNL     1      -2.088  -1.514  -1.917  1.00  0.00     0.066 A 
ATOM     28  Cl  UNL     1      -3.635  -2.272  -1.926  1.00  0.00    -0.082 Cl
ENDBRANCH  18  20
ENDBRANCH  13  18
ENDBRANCH   9  12
ENDBRANCH   6   8
ENDBRANCH   4   6
ENDBRANCH   3   4
ENDBRANCH   2   3
ENDBRANCH   1   2
BRANCH   1  29
ATOM     29  O   UNL     1       1.307   2.709  -1.675  1.00  0.00    -0.374 OA
BRANCH  29  30
ATOM     30  C   UNL     1       2.731   2.940  -1.785  1.00  0.00     0.202 C 
BRANCH  30  31
ATOM     31  C   UNL     1       3.595   2.526  -0.568  1.00  0.00     0.261 C 
BRANCH  31  32
ATOM     32  O   UNL     1       2.917   2.929   0.622  1.00  0.00    -0.460 OA
BRANCH  32  33
ATOM     33  C   UNL     1       3.639   3.457   1.606  1.00  0.00     0.338 C 
ATOM     34  O   UNL     1       4.870   3.420   1.773  1.00  0.00    -0.246 OA
BRANCH  33  35
ATOM     35  C   UNL     1       2.726   4.333   2.328  1.00  0.00     0.060 A 
ATOM     36  C   UNL     1       2.186   5.401   1.598  1.00  0.00     0.016 A 
ATOM     37  C   UNL     1       2.465   4.192   3.689  1.00  0.00     0.016 A 
ATOM     38  C   UNL     1       1.389   6.345   2.213  1.00  0.00     0.010 A 
ATOM     39  C   UNL     1       1.707   5.177   4.328  1.00  0.00     0.010 A 
ATOM     40  C   UNL     1       1.223   6.283   3.599  1.00  0.00    -0.014 A 
BRANCH  40  41
ATOM     41  C   UNL     1       0.890   7.557   4.273  1.00  0.00     0.031 A 
ATOM     42  C   UNL     1       2.036   8.404   4.761  1.00  0.00     0.074 A 
ATOM     43  C   UNL     1      -0.363   8.035   4.312  1.00  0.00     0.049 A 
ATOM     44  N   UNL     1       2.016   9.562   5.369  1.00  0.00    -0.248 NA
ATOM     45  C   UNL     1       3.391   7.879   4.513  1.00  0.00     0.031 C 
ATOM     46  C   UNL     1      -1.545   7.374   3.768  1.00  0.00     0.029 A 
ATOM     47  N   UNL     1      -0.837   9.212   4.833  1.00  0.00    -0.354 N 
ATOM     48  C   UNL     1       3.346   9.889   5.592  1.00  0.00     0.074 A 
ATOM     49  C   UNL     1       4.150   8.807   5.071  1.00  0.00     0.031 C 
ATOM     50  C   UNL     1      -2.618   8.152   3.999  1.00  0.00     0.029 A 
ATOM     51  C   UNL     1      -2.197   9.345   4.736  1.00  0.00     0.049 A 
ATOM     52  H   UNL     1      -0.255   9.896   5.237  1.00  0.00     0.167 HD
ATOM     53  C   UNL     1       3.857  10.996   6.176  1.00  0.00     0.037 A 
ATOM     54  C   UNL     1      -3.008  10.307   5.216  1.00  0.00     0.037 A 
ATOM     55  C   UNL     1       3.070  12.085   6.686  1.00  0.00     0.049 A 
ATOM     56  C   UNL     1      -2.421  11.485   5.954  1.00  0.00     0.074 A 
ATOM     57  C   UNL     1       3.502  13.242   7.309  1.00  0.00     0.029 A 
ATOM     58  N   UNL     1       1.687  12.151   6.632  1.00  0.00    -0.354 N 
ATOM     59  N   UNL     1      -1.166  11.779   6.190  1.00  0.00    -0.248 NA
ATOM     60  C   UNL     1      -3.374  12.468   6.491  1.00  0.00     0.031 C 
ATOM     61  C   UNL     1       2.378  13.986   7.677  1.00  0.00     0.029 A 
ATOM     62  C   UNL     1       1.248  13.322   7.229  1.00  0.00     0.049 A 
ATOM     63  H   UNL     1       1.103  11.469   6.229  1.00  0.00     0.167 HD
ATOM     64  C   UNL     1      -1.177  12.993   6.867  1.00  0.00     0.074 A 
ATOM     65  C   UNL     1      -2.563  13.387   6.995  1.00  0.00     0.031 C 
ATOM     66  C   UNL     1      -0.132  13.718   7.338  1.00  0.00     0.037 A 
BRANCH  53  67
ATOM     67  C   UNL     1       5.346  11.062   6.338  1.00  0.00     0.064 A 
ATOM     68  C   UNL     1       6.202  11.276   5.248  1.00  0.00     0.173 A 
ATOM     69  C   UNL     1       5.918  10.938   7.612  1.00  0.00     0.173 A 
ATOM     70  F   UNL     1       5.704  11.377   4.006  1.00  0.00    -0.203 F 
ATOM     71  C   UNL     1       7.580  11.346   5.428  1.00  0.00     0.198 A 
ATOM     72  C   UNL     1       7.293  11.040   7.792  1.00  0.00     0.198 A 
ATOM     73  F   UNL     1       5.140  10.729   8.685  1.00  0.00    -0.203 F 
ATOM     74  F   UNL     1       8.385  11.508   4.368  1.00  0.00    -0.200 F 
ATOM     75  C   UNL     1       8.124  11.238   6.700  1.00  0.00     0.200 A 
ATOM     76  F   UNL     1       7.814  10.947   9.023  1.00  0.00    -0.200 F 
ATOM     77  F   UNL     1       9.450  11.319   6.872  1.00  0.00    -0.200 F 
ENDBRANCH  53  67
BRANCH  54  78
ATOM     78  C   UNL     1      -4.478  10.187   5.047  1.00  0.00     0.064 A 
ATOM     79  C   UNL     1      -5.192  11.087   4.244  1.00  0.00     0.173 A 
ATOM     80  C   UNL     1      -5.204   9.197   5.725  1.00  0.00     0.173 A 
ATOM     81  F   UNL     1      -4.544  12.070   3.601  1.00  0.00    -0.203 F 
ATOM     82  C   UNL     1      -6.580  11.015   4.146  1.00  0.00     0.198 A 
ATOM     83  C   UNL     1      -6.587   9.107   5.601  1.00  0.00     0.198 A 
ATOM     84  F   UNL     1      -4.567   8.317   6.512  1.00  0.00    -0.203 F 
ATOM     85  F   UNL     1      -7.244  11.924   3.419  1.00  0.00    -0.200 F 
ATOM     86  C   UNL     1      -7.275  10.023   4.820  1.00  0.00     0.200 A 
ATOM     87  F   UNL     1      -7.254   8.141   6.248  1.00  0.00    -0.200 F 
ATOM     88  F   UNL     1      -8.610   9.957   4.728  1.00  0.00    -0.200 F 
ENDBRANCH  54  78
BRANCH  66  89
ATOM     89  C   UNL     1      -0.434  15.042   7.982  1.00  0.00     0.064 A 
ATOM     90  C   UNL     1      -1.059  15.133   9.235  1.00  0.00     0.173 A 
ATOM     91  C   UNL     1      -0.061  16.238   7.349  1.00  0.00     0.173 A 
ATOM     92  F   UNL     1      -1.446  14.022   9.879  1.00  0.00    -0.203 F 
ATOM     93  C   UNL     1      -1.331  16.372   9.811  1.00  0.00     0.198 A 
ATOM     94  C   UNL     1      -0.306  17.474   7.943  1.00  0.00     0.198 A 
ATOM     95  F   UNL     1       0.550  16.210   6.155  1.00  0.00    -0.203 F 
ATOM     96  F   UNL     1      -1.979  16.435  10.983  1.00  0.00    -0.200 F 
ATOM     97  C   UNL     1      -0.950  17.540   9.168  1.00  0.00     0.200 A 
ATOM     98  F   UNL     1       0.078  18.600   7.327  1.00  0.00    -0.200 F 
ATOM     99  F   UNL     1      -1.210  18.730   9.726  1.00  0.00    -0.200 F 
ENDBRANCH  66  89
ENDBRANCH  40  41
ENDBRANCH  33  35
ENDBRANCH  32  33
ENDBRANCH  31  32
ENDBRANCH  30  31
ENDBRANCH  29  30
ENDBRANCH   1  29
TORSDOF 18
