REMARK SMILES O=C(OCCOCCOC(=O)c1ccc(-c2c3nc(c(-c4c(F)c(F)c(F)c(F)c4F)c4ccc([nH]4)c(-c4c(F)c(F)c(F)c(F)c4F)c4nc(c(-c5c(F)c(F)c(F)c(F)c5F)c5ccc2[nH]5)C=C4)C=C3)cc1)C1=Cc2c(ccc(Cl)c2-c2ccccc2)O[C@H]1C(F)(F)F
REMARK SMILES IDX 7 1 6 2 5 3 4 4 3 5 2 6 1 7 75 8 76 9 91 10 77 11 90 12
REMARK SMILES IDX 78 13 83 14 79 15 81 16 80 17 82 18 92 19 93 20 94 21 95 22
REMARK SMILES IDX 84 23 85 24 89 25 86 26 88 27 87 28 8 29 9 30 10 31 11 32
REMARK SMILES IDX 12 33 13 34 74 35 14 36 73 37 15 38 16 39 17 40 67 41 18 42
REMARK SMILES IDX 72 43 66 44 68 45 19 46 71 47 65 48 64 49 20 51 52 52 32 53
REMARK SMILES IDX 51 54 33 55 36 56 50 57 69 58 34 59 35 60 49 62 70 63 37 64
REMARK SMILES IDX 21 65 22 66 30 67 23 68 24 69 28 70 31 71 25 72 26 73 29 74
REMARK SMILES IDX 27 75 53 76 54 77 62 78 55 79 56 80 60 81 63 82 57 83 58 84
REMARK SMILES IDX 61 85 59 86 38 87 39 88 47 89 40 90 41 91 45 92 48 93 42 94
REMARK SMILES IDX 43 95 46 96 44 97
REMARK H PARENT 68 50 36 61
REMARK Flexibility Score: inf
ROOT
ATOM      1  C   UNL     1       0.851  -2.574   1.216  1.00  0.00     0.202 C 
ENDROOT
BRANCH   1   2
ATOM      2  O   UNL     1       1.077  -2.941  -0.143  1.00  0.00    -0.374 OA
BRANCH   2   3
ATOM      3  C   UNL     1       1.831  -2.084  -0.973  1.00  0.00     0.202 C 
BRANCH   3   4
ATOM      4  C   UNL     1       1.477  -0.584  -1.003  1.00  0.00     0.261 C 
BRANCH   4   5
ATOM      5  O   UNL     1       1.593  -0.034  -2.325  1.00  0.00    -0.460 OA
BRANCH   5   6
ATOM      6  C   UNL     1       2.760   0.315  -2.910  1.00  0.00     0.338 C 
ATOM      7  O   UNL     1       2.749   0.970  -3.949  1.00  0.00    -0.246 OA
BRANCH   6   8
ATOM      8  C   UNL     1       4.064  -0.127  -2.366  1.00  0.00     0.087 C 
ATOM      9  C   UNL     1       4.320  -0.808  -1.237  1.00  0.00     0.028 C 
ATOM     10  C   UNL     1       5.243   0.101  -3.274  1.00  0.00     0.316 C 
ATOM     11  C   UNL     1       5.260  -0.065  -0.394  1.00  0.00     0.027 A 
ATOM     12  O   UNL     1       6.480   0.297  -2.506  1.00  0.00    -0.475 OA
ATOM     13  C   UNL     1       6.323   0.517  -1.147  1.00  0.00     0.128 A 
ATOM     14  C   UNL     1       5.038   0.155   0.999  1.00  0.00     0.011 A 
ATOM     15  C   UNL     1       7.231   1.345  -0.531  1.00  0.00     0.049 A 
ATOM     16  C   UNL     1       5.893   1.151   1.520  1.00  0.00     0.049 A 
ATOM     17  C   UNL     1       6.988   1.690   0.792  1.00  0.00     0.025 A 
ATOM     18  Cl  UNL     1       5.621   1.939   3.024  1.00  0.00    -0.084 Cl
BRANCH  10  19
ATOM     19  C   UNL     1       5.329  -1.102  -4.243  1.00  0.00     0.430 C 
ATOM     20  F   UNL     1       4.144  -1.763  -4.340  1.00  0.00    -0.167 F 
ATOM     21  F   UNL     1       5.676  -0.732  -5.493  1.00  0.00    -0.167 F 
ATOM     22  F   UNL     1       6.231  -2.019  -3.815  1.00  0.00    -0.167 F 
ENDBRANCH  10  19
BRANCH  14  23
ATOM     23  C   UNL     1       3.985  -0.610   1.832  1.00  0.00    -0.016 A 
ATOM     24  C   UNL     1       2.911   0.230   3.029  1.00  0.00     0.009 A 
ATOM     25  C   UNL     1       3.817  -2.408   1.669  1.00  0.00     0.009 A 
ATOM     26  C   UNL     1       1.769  -0.686   4.104  1.00  0.00     0.001 A 
ATOM     27  C   UNL     1       2.662  -3.354   2.712  1.00  0.00     0.001 A 
ATOM     28  C   UNL     1       1.627  -2.483   3.934  1.00  0.00     0.000 A 
ENDBRANCH  14  23
ENDBRANCH   6   8
ENDBRANCH   5   6
ENDBRANCH   4   5
ENDBRANCH   3   4
ENDBRANCH   2   3
ENDBRANCH   1   2
BRANCH   1  29
ATOM     29  C   UNL     1       1.806  -1.476   1.978  1.00  0.00     0.261 C 
BRANCH  29  30
ATOM     30  O   UNL     1       3.271  -1.642   3.363  1.00  0.00    -0.460 OA
BRANCH  30  31
ATOM     31  C   UNL     1       4.205  -2.175   4.266  1.00  0.00     0.338 C 
ATOM     32  O   UNL     1       4.506  -3.343   4.501  1.00  0.00    -0.246 OA
BRANCH  31  33
ATOM     33  C   UNL     1       4.848  -1.106   5.021  1.00  0.00     0.060 A 
ATOM     34  C   UNL     1       6.185  -0.823   4.751  1.00  0.00     0.016 A 
ATOM     35  C   UNL     1       4.129  -0.434   6.017  1.00  0.00     0.016 A 
ATOM     36  C   UNL     1       6.811   0.173   5.480  1.00  0.00     0.010 A 
ATOM     37  C   UNL     1       4.729   0.603   6.702  1.00  0.00     0.010 A 
ATOM     38  C   UNL     1       6.083   0.865   6.461  1.00  0.00    -0.014 A 
BRANCH  38  39
ATOM     39  C   UNL     1       6.819   1.595   7.495  1.00  0.00     0.031 A 
ATOM     40  C   UNL     1       7.235   0.786   8.683  1.00  0.00     0.074 A 
ATOM     41  C   UNL     1       7.063   2.905   7.367  1.00  0.00     0.049 A 
ATOM     42  N   UNL     1       7.877   1.156   9.754  1.00  0.00    -0.248 NA
ATOM     43  C   UNL     1       6.860  -0.643   8.668  1.00  0.00     0.031 C 
ATOM     44  C   UNL     1       6.668   3.736   6.233  1.00  0.00     0.029 A 
ATOM     45  N   UNL     1       7.699   3.767   8.213  1.00  0.00    -0.354 N 
ATOM     46  C   UNL     1       7.985   0.010  10.528  1.00  0.00     0.074 A 
ATOM     47  C   UNL     1       7.309  -1.059   9.837  1.00  0.00     0.031 C 
ATOM     48  C   UNL     1       7.082   4.996   6.448  1.00  0.00     0.029 A 
ATOM     49  C   UNL     1       7.736   5.057   7.750  1.00  0.00     0.049 A 
ATOM     50  H   UNL     1       8.092   3.489   9.072  1.00  0.00     0.167 HD
ATOM     51  C   UNL     1       8.608  -0.128  11.717  1.00  0.00     0.037 A 
ATOM     52  C   UNL     1       8.240   6.152   8.344  1.00  0.00     0.037 A 
ATOM     53  C   UNL     1       9.231   0.972  12.393  1.00  0.00     0.049 A 
ATOM     54  C   UNL     1       8.881   5.980   9.696  1.00  0.00     0.074 A 
ATOM     55  C   UNL     1       9.886   0.985  13.607  1.00  0.00     0.029 A 
ATOM     56  N   UNL     1       9.252   2.273  11.902  1.00  0.00    -0.354 N 
ATOM     57  N   UNL     1       9.030   4.888  10.412  1.00  0.00    -0.248 NA
ATOM     58  C   UNL     1       9.432   7.186  10.320  1.00  0.00     0.031 C 
ATOM     59  C   UNL     1      10.255   2.308  13.877  1.00  0.00     0.029 A 
ATOM     60  C   UNL     1       9.891   3.105  12.800  1.00  0.00     0.049 A 
ATOM     61  H   UNL     1       8.868   2.558  11.041  1.00  0.00     0.167 HD
ATOM     62  C   UNL     1       9.723   5.266  11.552  1.00  0.00     0.074 A 
ATOM     63  C   UNL     1       9.973   6.689  11.423  1.00  0.00     0.031 C 
ATOM     64  C   UNL     1      10.122   4.516  12.611  1.00  0.00     0.037 A 
BRANCH  51  65
ATOM     65  C   UNL     1       8.579  -1.488  12.348  1.00  0.00     0.064 A 
ATOM     66  C   UNL     1       9.273  -2.576  11.793  1.00  0.00     0.173 A 
ATOM     67  C   UNL     1       7.807  -1.719  13.494  1.00  0.00     0.173 A 
ATOM     68  F   UNL     1       9.996  -2.418  10.674  1.00  0.00    -0.203 F 
ATOM     69  C   UNL     1       9.171  -3.849  12.348  1.00  0.00     0.198 A 
ATOM     70  C   UNL     1       7.733  -2.986  14.065  1.00  0.00     0.198 A 
ATOM     71  F   UNL     1       7.108  -0.719  14.052  1.00  0.00    -0.203 F 
ATOM     72  F   UNL     1       9.790  -4.885  11.764  1.00  0.00    -0.200 F 
ATOM     73  C   UNL     1       8.407  -4.052  13.487  1.00  0.00     0.200 A 
ATOM     74  F   UNL     1       6.995  -3.180  15.167  1.00  0.00    -0.200 F 
ATOM     75  F   UNL     1       8.308  -5.277  14.020  1.00  0.00    -0.200 F 
ENDBRANCH  51  65
BRANCH  52  76
ATOM     76  C   UNL     1       8.177   7.473   7.667  1.00  0.00     0.064 A 
ATOM     77  C   UNL     1       9.343   8.114   7.228  1.00  0.00     0.173 A 
ATOM     78  C   UNL     1       6.954   8.124   7.444  1.00  0.00     0.173 A 
ATOM     79  F   UNL     1      10.538   7.538   7.427  1.00  0.00    -0.203 F 
ATOM     80  C   UNL     1       9.293   9.367   6.619  1.00  0.00     0.198 A 
ATOM     81  C   UNL     1       6.903   9.364   6.808  1.00  0.00     0.198 A 
ATOM     82  F   UNL     1       5.806   7.552   7.834  1.00  0.00    -0.203 F 
ATOM     83  F   UNL     1      10.429   9.977   6.254  1.00  0.00    -0.200 F 
ATOM     84  C   UNL     1       8.073   9.989   6.406  1.00  0.00     0.200 A 
ATOM     85  F   UNL     1       5.720   9.954   6.588  1.00  0.00    -0.200 F 
ATOM     86  F   UNL     1       8.025  11.192   5.819  1.00  0.00    -0.200 F 
ENDBRANCH  52  76
BRANCH  64  87
ATOM     87  C   UNL     1      10.917   5.218  13.671  1.00  0.00     0.064 A 
ATOM     88  C   UNL     1      10.333   6.151  14.538  1.00  0.00     0.173 A 
ATOM     89  C   UNL     1      12.277   4.918  13.838  1.00  0.00     0.173 A 
ATOM     90  F   UNL     1       9.038   6.477  14.408  1.00  0.00    -0.203 F 
ATOM     91  C   UNL     1      11.094   6.789  15.512  1.00  0.00     0.198 A 
ATOM     92  C   UNL     1      13.025   5.528  14.838  1.00  0.00     0.198 A 
ATOM     93  F   UNL     1      12.876   4.021  13.040  1.00  0.00    -0.203 F 
ATOM     94  F   UNL     1      10.533   7.724  16.290  1.00  0.00    -0.200 F 
ATOM     95  C   UNL     1      12.436   6.471  15.666  1.00  0.00     0.200 A 
ATOM     96  F   UNL     1      14.315   5.205  14.998  1.00  0.00    -0.200 F 
ATOM     97  F   UNL     1      13.165   7.083  16.609  1.00  0.00    -0.200 F 
ENDBRANCH  64  87
ENDBRANCH  38  39
ENDBRANCH  31  33
ENDBRANCH  30  31
ENDBRANCH  29  30
ENDBRANCH   1  29
TORSDOF 16
