REMARK SMILES CC[N@H+](CC(C)(C)C(=O)OCCOCCOC(=O)c1ccc(-c2c3nc(c(-c4c(F)c(F)c(F)c(F)c4F)c4ccc([nH]4)c(-c4c(F)c(F)c(F)c(F)c4F)c4nc(c(-c5c(F)c(F)c(F)c(F)c5F)c5ccc2[nH]5)C=C4)C=C3)cc1)[C@H]1CC[NH2+]C1
REMARK SMILES IDX 12 1 11 2 10 3 8 4 9 5 5 6 6 7 7 8 4 9 3 10 2 12 1 13 82 14
REMARK SMILES IDX 83 15 86 16 84 17 85 18 13 21 14 22 15 23 16 24 17 25 18 26
REMARK SMILES IDX 19 27 20 28 81 29 21 30 80 31 22 32 23 33 24 34 74 35 25 36
REMARK SMILES IDX 79 37 73 38 75 39 26 40 78 41 72 42 71 43 27 45 59 46 39 47
REMARK SMILES IDX 58 48 40 49 43 50 57 51 76 52 41 53 42 54 56 56 77 57 44 58
REMARK SMILES IDX 28 59 29 60 37 61 30 62 31 63 35 64 38 65 32 66 33 67 36 68
REMARK SMILES IDX 34 69 60 70 61 71 69 72 62 73 63 74 67 75 70 76 64 77 65 78
REMARK SMILES IDX 68 79 66 80 45 81 46 82 54 83 47 84 48 85 52 86 55 87 49 88
REMARK SMILES IDX 50 89 53 90 51 91
REMARK H PARENT 3 11 85 19 85 20 75 44 43 55
REMARK Flexibility Score: inf
ROOT
ATOM      1  C   UNL     1       6.036  -0.660   6.359  1.00  0.00     0.202 C 
ENDROOT
BRANCH   1   2
ATOM      2  C   UNL     1       5.469   0.607   7.022  1.00  0.00     0.261 C 
BRANCH   2   3
ATOM      3  O   UNL     1       4.137   0.917   6.594  1.00  0.00    -0.463 OA
BRANCH   3   4
ATOM      4  C   UNL     1       3.984   2.063   5.880  1.00  0.00     0.317 C 
ATOM      5  O   UNL     1       4.879   2.889   5.750  1.00  0.00    -0.251 OA
BRANCH   4   6
ATOM      6  C   UNL     1       2.564   2.221   5.297  1.00  0.00     0.111 C 
ATOM      7  C   UNL     1       2.193   3.706   5.429  1.00  0.00     0.029 C 
ATOM      8  C   UNL     1       1.553   1.423   6.167  1.00  0.00     0.029 C 
BRANCH   6   9
ATOM      9  C   UNL     1       2.393   1.728   3.814  1.00  0.00     0.280 C 
BRANCH   9  10
ATOM     10  N   UNL     1       3.050   2.418   2.662  1.00  0.00    -0.327 N 
ATOM     11  H   UNL     1       2.863   3.421   2.674  1.00  0.00     0.348 HD
BRANCH  10  12
ATOM     12  C   UNL     1       4.519   2.310   2.781  1.00  0.00     0.259 C 
ATOM     13  C   UNL     1       5.448   2.642   1.619  1.00  0.00     0.071 C 
ENDBRANCH  10  12
BRANCH  10  14
ATOM     14  C   UNL     1       2.462   1.943   1.382  1.00  0.00     0.245 C 
ATOM     15  C   UNL     1       2.610   2.909   0.203  1.00  0.00     0.132 C 
ATOM     16  C   UNL     1       2.875   0.567   0.820  1.00  0.00     0.326 C 
ATOM     17  C   UNL     1       2.610   2.007  -1.019  1.00  0.00     0.267 C 
ATOM     18  N   UNL     1       3.225   0.745  -0.598  1.00  0.00    -0.341 N 
ATOM     19  H   UNL     1       4.238   0.793  -0.708  1.00  0.00     0.346 HD
ATOM     20  H   UNL     1       2.893  -0.036  -1.163  1.00  0.00     0.346 HD
ENDBRANCH  10  14
ENDBRANCH   9  10
ENDBRANCH   6   9
ENDBRANCH   4   6
ENDBRANCH   3   4
ENDBRANCH   2   3
ENDBRANCH   1   2
BRANCH   1  21
ATOM     21  O   UNL     1       5.435  -1.140   5.163  1.00  0.00    -0.374 OA
BRANCH  21  22
ATOM     22  C   UNL     1       4.062  -1.523   5.186  1.00  0.00     0.202 C 
BRANCH  22  23
ATOM     23  C   UNL     1       3.568  -2.512   6.246  1.00  0.00     0.261 C 
BRANCH  23  24
ATOM     24  O   UNL     1       3.771  -2.040   7.589  1.00  0.00    -0.460 OA
BRANCH  24  25
ATOM     25  C   UNL     1       4.432  -2.912   8.387  1.00  0.00     0.338 C 
ATOM     26  O   UNL     1       4.781  -4.048   8.116  1.00  0.00    -0.246 OA
BRANCH  25  27
ATOM     27  C   UNL     1       4.879  -2.241   9.618  1.00  0.00     0.060 A 
ATOM     28  C   UNL     1       6.260  -2.184   9.843  1.00  0.00     0.016 A 
ATOM     29  C   UNL     1       3.977  -1.802  10.589  1.00  0.00     0.016 A 
ATOM     30  C   UNL     1       6.744  -1.746  11.069  1.00  0.00     0.010 A 
ATOM     31  C   UNL     1       4.467  -1.371  11.828  1.00  0.00     0.010 A 
ATOM     32  C   UNL     1       5.849  -1.388  12.086  1.00  0.00    -0.014 A 
BRANCH  32  33
ATOM     33  C   UNL     1       6.389  -1.221  13.457  1.00  0.00     0.031 A 
ATOM     34  C   UNL     1       6.320  -2.382  14.411  1.00  0.00     0.074 A 
ATOM     35  C   UNL     1       7.036  -0.095  13.802  1.00  0.00     0.049 A 
ATOM     36  N   UNL     1       6.829  -2.505  15.611  1.00  0.00    -0.248 NA
ATOM     37  C   UNL     1       5.585  -3.570  13.946  1.00  0.00     0.031 C 
ATOM     38  C   UNL     1       7.200   1.077  12.945  1.00  0.00     0.029 A 
ATOM     39  N   UNL     1       7.694   0.236  14.959  1.00  0.00    -0.354 N 
ATOM     40  C   UNL     1       6.483  -3.781  16.039  1.00  0.00     0.074 A 
ATOM     41  C   UNL     1       5.687  -4.379  14.990  1.00  0.00     0.031 C 
ATOM     42  C   UNL     1       7.924   1.999  13.603  1.00  0.00     0.029 A 
ATOM     43  C   UNL     1       8.257   1.487  14.931  1.00  0.00     0.049 A 
ATOM     44  H   UNL     1       7.756  -0.366  15.735  1.00  0.00     0.167 HD
ATOM     45  C   UNL     1       6.812  -4.402  17.197  1.00  0.00     0.037 A 
ATOM     46  C   UNL     1       8.962   2.142  15.873  1.00  0.00     0.037 A 
ATOM     47  C   UNL     1       7.602  -3.801  18.239  1.00  0.00     0.049 A 
ATOM     48  C   UNL     1       9.271   1.446  17.174  1.00  0.00     0.074 A 
ATOM     49  C   UNL     1       7.994  -4.344  19.450  1.00  0.00     0.029 A 
ATOM     50  N   UNL     1       8.117  -2.513  18.194  1.00  0.00    -0.354 N 
ATOM     51  N   UNL     1       8.963   0.232  17.560  1.00  0.00    -0.248 NA
ATOM     52  C   UNL     1      10.041   2.211  18.164  1.00  0.00     0.031 C 
ATOM     53  C   UNL     1       8.703  -3.368  20.159  1.00  0.00     0.029 A 
ATOM     54  C   UNL     1       8.805  -2.237  19.365  1.00  0.00     0.049 A 
ATOM     55  H   UNL     1       8.010  -1.888  17.441  1.00  0.00     0.167 HD
ATOM     56  C   UNL     1       9.526   0.075  18.820  1.00  0.00     0.074 A 
ATOM     57  C   UNL     1      10.210   1.315  19.125  1.00  0.00     0.031 C 
ATOM     58  C   UNL     1       9.484  -0.998  19.649  1.00  0.00     0.037 A 
BRANCH  45  59
ATOM     59  C   UNL     1       6.294  -5.796  17.406  1.00  0.00     0.064 A 
ATOM     60  C   UNL     1       6.788  -6.887  16.674  1.00  0.00     0.173 A 
ATOM     61  C   UNL     1       5.306  -6.048  18.369  1.00  0.00     0.173 A 
ATOM     62  F   UNL     1       7.722  -6.698  15.729  1.00  0.00    -0.203 F 
ATOM     63  C   UNL     1       6.294  -8.172  16.880  1.00  0.00     0.198 A 
ATOM     64  C   UNL     1       4.835  -7.339  18.594  1.00  0.00     0.198 A 
ATOM     65  F   UNL     1       4.799  -5.042  19.098  1.00  0.00    -0.203 F 
ATOM     66  F   UNL     1       6.746  -9.191  16.135  1.00  0.00    -0.200 F 
ATOM     67  C   UNL     1       5.323  -8.399  17.845  1.00  0.00     0.200 A 
ATOM     68  F   UNL     1       3.904  -7.557  19.534  1.00  0.00    -0.200 F 
ATOM     69  F   UNL     1       4.852  -9.637  18.046  1.00  0.00    -0.200 F 
ENDBRANCH  45  59
BRANCH  46  70
ATOM     70  C   UNL     1       9.434   3.528  15.618  1.00  0.00     0.064 A 
ATOM     71  C   UNL     1      10.799   3.819  15.482  1.00  0.00     0.173 A 
ATOM     72  C   UNL     1       8.527   4.593  15.520  1.00  0.00     0.173 A 
ATOM     73  F   UNL     1      11.707   2.838  15.591  1.00  0.00    -0.203 F 
ATOM     74  C   UNL     1      11.239   5.125  15.278  1.00  0.00     0.198 A 
ATOM     75  C   UNL     1       8.966   5.894  15.286  1.00  0.00     0.198 A 
ATOM     76  F   UNL     1       7.211   4.368  15.643  1.00  0.00    -0.203 F 
ATOM     77  F   UNL     1      12.552   5.383  15.201  1.00  0.00    -0.200 F 
ATOM     78  C   UNL     1      10.322   6.161  15.174  1.00  0.00     0.200 A 
ATOM     79  F   UNL     1       8.076   6.889  15.174  1.00  0.00    -0.200 F 
ATOM     80  F   UNL     1      10.746   7.417  14.975  1.00  0.00    -0.200 F 
ENDBRANCH  46  70
BRANCH  58  81
ATOM     81  C   UNL     1      10.233  -0.889  20.947  1.00  0.00     0.064 A 
ATOM     82  C   UNL     1       9.805  -0.044  21.982  1.00  0.00     0.173 A 
ATOM     83  C   UNL     1      11.390  -1.655  21.163  1.00  0.00     0.173 A 
ATOM     84  F   UNL     1       8.712   0.717  21.822  1.00  0.00    -0.203 F 
ATOM     85  C   UNL     1      10.530   0.062  23.166  1.00  0.00     0.198 A 
ATOM     86  C   UNL     1      12.093  -1.571  22.362  1.00  0.00     0.198 A 
ATOM     87  F   UNL     1      11.838  -2.487  20.211  1.00  0.00    -0.203 F 
ATOM     88  F   UNL     1      10.137   0.924  24.114  1.00  0.00    -0.200 F 
ATOM     89  C   UNL     1      11.669  -0.704  23.357  1.00  0.00     0.200 A 
ATOM     90  F   UNL     1      13.185  -2.325  22.550  1.00  0.00    -0.200 F 
ATOM     91  F   UNL     1      12.366  -0.599  24.497  1.00  0.00    -0.200 F 
ENDBRANCH  58  81
ENDBRANCH  32  33
ENDBRANCH  25  27
ENDBRANCH  24  25
ENDBRANCH  23  24
ENDBRANCH  22  23
ENDBRANCH  21  22
ENDBRANCH   1  21
TORSDOF 18
