REMARK SMILES O=C(Cc1c(C(=O)c2cc3c(cn2)CCCC3)[nH]c2cc(Cl)ccc12)OCCOCCOC(=O)c1ccc(-c2c3nc(c(-c4c(F)c(F)c(F)c(F)c4F)c4ccc([nH]4)c(-c4c(F)c(F)c(F)c(F)c4F)c4nc(c(-c5c(F)c(F)c(F)c(F)c5F)c5ccc2[nH]5)C=C4)C=C3)cc1
REMARK SMILES IDX 28 1 27 2 26 3 2 4 1 5 3 6 4 7 5 8 25 9 18 10 19 11 24 12
REMARK SMILES IDX 20 14 23 15 21 16 22 17 6 18 7 19 8 20 9 21 13 22 10 23
REMARK SMILES IDX 12 24 11 25 17 26 14 27 16 28 15 29 29 30 30 31 31 32 32 33
REMARK SMILES IDX 33 34 34 35 35 36 36 37 97 38 37 39 96 40 38 41 39 42 40 43
REMARK SMILES IDX 90 44 41 45 95 46 89 47 91 48 42 49 94 50 88 51 87 52 43 54
REMARK SMILES IDX 75 55 55 56 74 57 56 58 59 59 73 60 92 61 57 62 58 63 72 65
REMARK SMILES IDX 93 66 60 67 44 68 45 69 53 70 46 71 47 72 51 73 54 74 48 75
REMARK SMILES IDX 49 76 52 77 50 78 76 79 77 80 85 81 78 82 79 83 83 84 86 85
REMARK SMILES IDX 80 86 81 87 84 88 82 89 61 90 62 91 70 92 63 93 64 94 68 95
REMARK SMILES IDX 71 96 65 97 66 98 69 99 67 100
REMARK H PARENT 18 13 91 53 59 64
REMARK Flexibility Score: inf
ROOT
ATOM      1  C   UNL     1       4.912  -0.697   1.015  1.00  0.00     0.202 C 
ENDROOT
BRANCH   1   2
ATOM      2  C   UNL     1       4.133   0.507   0.482  1.00  0.00     0.261 C 
BRANCH   2   3
ATOM      3  O   UNL     1       2.707   0.426   0.553  1.00  0.00    -0.463 OA
BRANCH   3   4
ATOM      4  C   UNL     1       1.888  -0.177  -0.343  1.00  0.00     0.310 C 
ATOM      5  O   UNL     1       0.685  -0.261  -0.076  1.00  0.00    -0.252 OA
BRANCH   4   6
ATOM      6  C   UNL     1       2.444  -0.936  -1.530  1.00  0.00     0.161 C 
BRANCH   6   7
ATOM      7  C   UNL     1       3.446  -0.288  -2.439  1.00  0.00     0.000 A 
ATOM      8  C   UNL     1       3.527   1.051  -2.813  1.00  0.00     0.093 A 
ATOM      9  C   UNL     1       4.484  -0.990  -3.138  1.00  0.00     0.004 A 
ATOM     10  N   UNL     1       4.625   1.173  -3.636  1.00  0.00    -0.351 N 
ATOM     11  C   UNL     1       5.175  -0.057  -3.907  1.00  0.00     0.048 A 
ATOM     12  C   UNL     1       4.882  -2.343  -3.202  1.00  0.00     0.012 A 
ATOM     13  H   UNL     1       4.970   2.027  -3.985  1.00  0.00     0.167 HD
ATOM     14  C   UNL     1       6.221  -0.410  -4.769  1.00  0.00     0.047 A 
ATOM     15  C   UNL     1       5.922  -2.718  -4.062  1.00  0.00     0.021 A 
ATOM     16  C   UNL     1       6.569  -1.763  -4.839  1.00  0.00     0.043 A 
ATOM     17  Cl  UNL     1       7.819  -2.254  -5.918  1.00  0.00    -0.084 Cl
BRANCH   8  18
ATOM     18  C   UNL     1       2.648   2.135  -2.413  1.00  0.00     0.227 C 
ATOM     19  O   UNL     1       1.552   1.972  -1.887  1.00  0.00    -0.285 OA
BRANCH  18  20
ATOM     20  C   UNL     1       3.015   3.514  -2.747  1.00  0.00     0.113 A 
ATOM     21  C   UNL     1       2.641   3.953  -4.002  1.00  0.00     0.036 A 
ATOM     22  N   UNL     1       3.601   4.271  -1.788  1.00  0.00    -0.252 NA
ATOM     23  C   UNL     1       2.840   5.291  -4.302  1.00  0.00    -0.041 A 
ATOM     24  C   UNL     1       3.759   5.575  -2.099  1.00  0.00     0.115 A 
ATOM     25  C   UNL     1       3.409   6.130  -3.331  1.00  0.00    -0.026 A 
ATOM     26  C   UNL     1       2.453   5.779  -5.669  1.00  0.00     0.036 C 
ATOM     27  C   UNL     1       3.551   7.609  -3.567  1.00  0.00     0.037 C 
ATOM     28  C   UNL     1       2.318   7.294  -5.732  1.00  0.00     0.005 C 
ATOM     29  C   UNL     1       3.509   7.964  -5.054  1.00  0.00     0.005 C 
ENDBRANCH  18  20
ENDBRANCH   8  18
ENDBRANCH   6   7
ENDBRANCH   4   6
ENDBRANCH   3   4
ENDBRANCH   2   3
ENDBRANCH   1   2
BRANCH   1  30
ATOM     30  O   UNL     1       4.355  -1.998   0.933  1.00  0.00    -0.374 OA
BRANCH  30  31
ATOM     31  C   UNL     1       3.171  -2.325   1.657  1.00  0.00     0.202 C 
BRANCH  31  32
ATOM     32  C   UNL     1       3.090  -2.147   3.173  1.00  0.00     0.261 C 
BRANCH  32  33
ATOM     33  O   UNL     1       3.359  -0.814   3.615  1.00  0.00    -0.460 OA
BRANCH  33  34
ATOM     34  C   UNL     1       4.537  -0.662   4.261  1.00  0.00     0.338 C 
ATOM     35  O   UNL     1       5.397  -1.508   4.456  1.00  0.00    -0.246 OA
BRANCH  34  36
ATOM     36  C   UNL     1       4.730   0.760   4.576  1.00  0.00     0.060 A 
ATOM     37  C   UNL     1       3.742   1.468   5.260  1.00  0.00     0.016 A 
ATOM     38  C   UNL     1       5.953   1.358   4.247  1.00  0.00     0.016 A 
ATOM     39  C   UNL     1       4.003   2.775   5.659  1.00  0.00     0.010 A 
ATOM     40  C   UNL     1       6.216   2.663   4.657  1.00  0.00     0.010 A 
ATOM     41  C   UNL     1       5.254   3.364   5.394  1.00  0.00    -0.014 A 
BRANCH  41  42
ATOM     42  C   UNL     1       5.587   4.651   6.043  1.00  0.00     0.031 A 
ATOM     43  C   UNL     1       5.626   5.928   5.272  1.00  0.00     0.074 A 
ATOM     44  C   UNL     1       5.822   4.638   7.368  1.00  0.00     0.049 A 
ATOM     45  N   UNL     1       5.729   7.152   5.722  1.00  0.00    -0.248 NA
ATOM     46  C   UNL     1       5.553   5.824   3.808  1.00  0.00     0.031 C 
ATOM     47  C   UNL     1       5.859   3.430   8.196  1.00  0.00     0.029 A 
ATOM     48  N   UNL     1       6.037   5.659   8.255  1.00  0.00    -0.354 N 
ATOM     49  C   UNL     1       5.701   7.968   4.602  1.00  0.00     0.074 A 
ATOM     50  C   UNL     1       5.642   7.098   3.446  1.00  0.00     0.031 C 
ATOM     51  C   UNL     1       6.019   3.784   9.479  1.00  0.00     0.029 A 
ATOM     52  C   UNL     1       6.125   5.237   9.559  1.00  0.00     0.049 A 
ATOM     53  H   UNL     1       6.122   6.602   7.985  1.00  0.00     0.167 HD
ATOM     54  C   UNL     1       5.697   9.322   4.557  1.00  0.00     0.037 A 
ATOM     55  C   UNL     1       6.252   5.946  10.696  1.00  0.00     0.037 A 
ATOM     56  C   UNL     1       5.774  10.166   5.722  1.00  0.00     0.049 A 
ATOM     57  C   UNL     1       6.283   7.446  10.614  1.00  0.00     0.074 A 
ATOM     58  C   UNL     1       5.737  11.548   5.789  1.00  0.00     0.029 A 
ATOM     59  N   UNL     1       5.919   9.707   7.025  1.00  0.00    -0.354 N 
ATOM     60  N   UNL     1       6.157   8.216   9.561  1.00  0.00    -0.248 NA
ATOM     61  C   UNL     1       6.470   8.176  11.874  1.00  0.00     0.031 C 
ATOM     62  C   UNL     1       5.925  11.925   7.122  1.00  0.00     0.029 A 
ATOM     63  C   UNL     1       6.015  10.780   7.897  1.00  0.00     0.049 A 
ATOM     64  H   UNL     1       5.949   8.760   7.290  1.00  0.00     0.167 HD
ATOM     65  C   UNL     1       6.235   9.520  10.028  1.00  0.00     0.074 A 
ATOM     66  C   UNL     1       6.397   9.437  11.466  1.00  0.00     0.031 C 
ATOM     67  C   UNL     1       6.184  10.679   9.327  1.00  0.00     0.037 A 
BRANCH  54  68
ATOM     68  C   UNL     1       5.599   9.974   3.208  1.00  0.00     0.064 A 
ATOM     69  C   UNL     1       4.426   9.897   2.441  1.00  0.00     0.173 A 
ATOM     70  C   UNL     1       6.667  10.729   2.697  1.00  0.00     0.173 A 
ATOM     71  F   UNL     1       3.378   9.183   2.878  1.00  0.00    -0.203 F 
ATOM     72  C   UNL     1       4.337  10.526   1.202  1.00  0.00     0.198 A 
ATOM     73  C   UNL     1       6.561  11.384   1.473  1.00  0.00     0.198 A 
ATOM     74  F   UNL     1       7.809  10.841   3.391  1.00  0.00    -0.203 F 
ATOM     75  F   UNL     1       3.226  10.393   0.463  1.00  0.00    -0.200 F 
ATOM     76  C   UNL     1       5.400  11.275   0.723  1.00  0.00     0.200 A 
ATOM     77  F   UNL     1       7.585  12.119   1.017  1.00  0.00    -0.200 F 
ATOM     78  F   UNL     1       5.309  11.885  -0.468  1.00  0.00    -0.200 F 
ENDBRANCH  54  68
BRANCH  55  79
ATOM     79  C   UNL     1       6.302   5.233  11.998  1.00  0.00     0.064 A 
ATOM     80  C   UNL     1       5.237   5.313  12.905  1.00  0.00     0.173 A 
ATOM     81  C   UNL     1       7.388   4.412  12.337  1.00  0.00     0.173 A 
ATOM     82  F   UNL     1       4.183   6.095  12.633  1.00  0.00    -0.203 F 
ATOM     83  C   UNL     1       5.258   4.601  14.103  1.00  0.00     0.198 A 
ATOM     84  C   UNL     1       7.395   3.678  13.522  1.00  0.00     0.198 A 
ATOM     85  F   UNL     1       8.429   4.295  11.499  1.00  0.00    -0.203 F 
ATOM     86  F   UNL     1       4.238   4.715  14.965  1.00  0.00    -0.200 F 
ATOM     87  C   UNL     1       6.331   3.777  14.405  1.00  0.00     0.200 A 
ATOM     88  F   UNL     1       8.425   2.868  13.800  1.00  0.00    -0.200 F 
ATOM     89  F   UNL     1       6.341   3.078  15.549  1.00  0.00    -0.200 F 
ENDBRANCH  55  79
BRANCH  67  90
ATOM     90  C   UNL     1       6.311  11.963  10.096  1.00  0.00     0.064 A 
ATOM     91  C   UNL     1       7.538  12.366  10.643  1.00  0.00     0.173 A 
ATOM     92  C   UNL     1       5.223  12.842  10.202  1.00  0.00     0.173 A 
ATOM     93  F   UNL     1       8.605  11.555  10.580  1.00  0.00    -0.203 F 
ATOM     94  C   UNL     1       7.670  13.602  11.270  1.00  0.00     0.198 A 
ATOM     95  C   UNL     1       5.366  14.090  10.802  1.00  0.00     0.198 A 
ATOM     96  F   UNL     1       4.029  12.507   9.690  1.00  0.00    -0.203 F 
ATOM     97  F   UNL     1       8.845  13.956  11.808  1.00  0.00    -0.200 F 
ATOM     98  C   UNL     1       6.588  14.468  11.337  1.00  0.00     0.200 A 
ATOM     99  F   UNL     1       4.325  14.933  10.848  1.00  0.00    -0.200 F 
ATOM    100  F   UNL     1       6.725  15.668  11.916  1.00  0.00    -0.200 F 
ENDBRANCH  67  90
ENDBRANCH  41  42
ENDBRANCH  34  36
ENDBRANCH  33  34
ENDBRANCH  32  33
ENDBRANCH  31  32
ENDBRANCH  30  31
ENDBRANCH   1  30
TORSDOF 17
