REMARK SMILES CN1C(=O)C[C@@H](C(=O)OCCOCCOC(=O)c2ccc(-c3c4nc(c(-c5c(F)c(F)c(F)c(F)c5F)c5ccc([nH]5)c(-c5c(F)c(F)c(F)c(F)c5F)c5nc(c(-c6c(F)c(F)c(F)c(F)c6F)c6ccc3[nH]6)C=C5)C=C4)cc2)C12CCN(c1ccc(Cl)cn1)CC2
REMARK SMILES IDX 13 1 12 2 11 3 10 4 9 5 7 6 8 7 6 8 1 9 2 10 3 11 81 12 4 13
REMARK SMILES IDX 5 14 82 15 93 16 83 17 92 18 84 19 85 20 86 21 91 22 87 23
REMARK SMILES IDX 90 24 88 25 89 26 14 27 15 28 16 29 17 30 18 31 19 32 80 33
REMARK SMILES IDX 20 34 79 35 21 36 22 37 23 38 73 39 24 40 78 41 72 42 74 43
REMARK SMILES IDX 25 44 77 45 71 46 70 47 26 49 58 50 38 51 57 52 39 53 42 54
REMARK SMILES IDX 56 55 75 56 40 57 41 58 55 60 76 61 43 62 27 63 28 64 36 65
REMARK SMILES IDX 29 66 30 67 34 68 37 69 31 70 32 71 35 72 33 73 59 74 60 75
REMARK SMILES IDX 68 76 61 77 62 78 66 79 69 80 63 81 64 82 67 83 65 84 44 85
REMARK SMILES IDX 45 86 53 87 46 88 47 89 51 90 54 91 48 92 49 93 52 94 50 95
REMARK H PARENT 74 48 42 59
REMARK Flexibility Score: inf
ROOT
ATOM      1  C   UNL     1      -4.841  -1.932   3.112  1.00  0.00     0.202 C 
ENDROOT
BRANCH   1   2
ATOM      2  O   UNL     1      -5.025  -1.094   4.249  1.00  0.00    -0.374 OA
BRANCH   2   3
ATOM      3  C   UNL     1      -4.323   0.145   4.292  1.00  0.00     0.202 C 
BRANCH   3   4
ATOM      4  C   UNL     1      -2.801   0.102   4.486  1.00  0.00     0.261 C 
BRANCH   4   5
ATOM      5  O   UNL     1      -2.037  -0.457   3.392  1.00  0.00    -0.463 OA
BRANCH   5   6
ATOM      6  C   UNL     1      -1.507  -1.679   3.640  1.00  0.00     0.311 C 
ATOM      7  O   UNL     1      -1.818  -2.376   4.604  1.00  0.00    -0.252 OA
BRANCH   6   8
ATOM      8  C   UNL     1      -0.376  -2.113   2.730  1.00  0.00     0.134 C 
ATOM      9  C   UNL     1       1.066   0.294   0.220  1.00  0.00     0.147 C 
ATOM     10  N   UNL     1       0.738  -0.582   1.333  1.00  0.00    -0.339 N 
ATOM     11  C   UNL     1       1.385  -0.499   2.551  1.00  0.00     0.223 C 
ATOM     12  C   UNL     1      -0.211  -1.706   1.241  1.00  0.00     0.060 C 
ATOM     13  O   UNL     1       2.227   0.321   2.875  1.00  0.00    -0.275 OA
ATOM     14  C   UNL     1       0.917  -1.637   3.411  1.00  0.00     0.118 C 
ATOM     15  C   UNL     1      -1.483  -1.291   0.474  1.00  0.00     0.051 C 
ATOM     16  C   UNL     1       0.492  -2.889   0.487  1.00  0.00     0.051 C 
ATOM     17  C   UNL     1      -2.368  -2.463   0.082  1.00  0.00     0.120 C 
ATOM     18  C   UNL     1      -0.465  -4.015   0.071  1.00  0.00     0.120 C 
ATOM     19  N   UNL     1      -1.563  -3.414  -0.670  1.00  0.00    -0.356 N 
BRANCH  19  20
ATOM     20  C   UNL     1      -2.279  -4.231  -1.538  1.00  0.00     0.128 A 
ATOM     21  C   UNL     1      -2.845  -3.664  -2.685  1.00  0.00     0.048 A 
ATOM     22  N   UNL     1      -2.433  -5.541  -1.257  1.00  0.00    -0.238 NA
ATOM     23  C   UNL     1      -3.612  -4.443  -3.549  1.00  0.00     0.026 A 
ATOM     24  C   UNL     1      -3.195  -6.281  -2.106  1.00  0.00     0.134 A 
ATOM     25  C   UNL     1      -3.803  -5.780  -3.245  1.00  0.00     0.059 A 
ATOM     26  Cl  UNL     1      -4.770  -6.776  -4.252  1.00  0.00    -0.083 Cl
ENDBRANCH  19  20
ENDBRANCH   6   8
ENDBRANCH   5   6
ENDBRANCH   4   5
ENDBRANCH   3   4
ENDBRANCH   2   3
ENDBRANCH   1   2
BRANCH   1  27
ATOM     27  C   UNL     1      -5.416  -1.411   1.792  1.00  0.00     0.261 C 
BRANCH  27  28
ATOM     28  O   UNL     1      -4.814  -0.160   1.417  1.00  0.00    -0.460 OA
BRANCH  28  29
ATOM     29  C   UNL     1      -5.681   0.700   0.831  1.00  0.00     0.338 C 
ATOM     30  O   UNL     1      -6.777   0.442   0.368  1.00  0.00    -0.246 OA
BRANCH  29  31
ATOM     31  C   UNL     1      -5.195   2.083   0.976  1.00  0.00     0.060 A 
ATOM     32  C   UNL     1      -5.831   2.902   1.916  1.00  0.00     0.016 A 
ATOM     33  C   UNL     1      -4.236   2.606   0.108  1.00  0.00     0.016 A 
ATOM     34  C   UNL     1      -5.551   4.267   1.950  1.00  0.00     0.010 A 
ATOM     35  C   UNL     1      -3.957   3.978   0.143  1.00  0.00     0.010 A 
ATOM     36  C   UNL     1      -4.646   4.822   1.034  1.00  0.00    -0.014 A 
BRANCH  36  37
ATOM     37  C   UNL     1      -4.546   6.299   0.920  1.00  0.00     0.031 A 
ATOM     38  C   UNL     1      -5.322   7.007  -0.158  1.00  0.00     0.074 A 
ATOM     39  C   UNL     1      -3.818   7.009   1.800  1.00  0.00     0.049 A 
ATOM     40  N   UNL     1      -5.425   8.289  -0.405  1.00  0.00    -0.248 NA
ATOM     41  C   UNL     1      -6.088   6.155  -1.081  1.00  0.00     0.031 C 
ATOM     42  C   UNL     1      -3.040   6.443   2.900  1.00  0.00     0.029 A 
ATOM     43  N   UNL     1      -3.621   8.363   1.909  1.00  0.00    -0.354 N 
ATOM     44  C   UNL     1      -6.268   8.397  -1.503  1.00  0.00     0.074 A 
ATOM     45  C   UNL     1      -6.620   7.051  -1.900  1.00  0.00     0.031 C 
ATOM     46  C   UNL     1      -2.450   7.443   3.576  1.00  0.00     0.029 A 
ATOM     47  C   UNL     1      -2.793   8.717   2.946  1.00  0.00     0.049 A 
ATOM     48  H   UNL     1      -4.034   9.019   1.301  1.00  0.00     0.167 HD
ATOM     49  C   UNL     1      -6.722   9.517  -2.115  1.00  0.00     0.037 A 
ATOM     50  C   UNL     1      -2.360   9.931   3.337  1.00  0.00     0.037 A 
ATOM     51  C   UNL     1      -6.372  10.857  -1.722  1.00  0.00     0.049 A 
ATOM     52  C   UNL     1      -2.836  11.159   2.605  1.00  0.00     0.074 A 
ATOM     53  C   UNL     1      -6.797  12.056  -2.267  1.00  0.00     0.029 A 
ATOM     54  N   UNL     1      -5.504  11.172  -0.688  1.00  0.00    -0.354 N 
ATOM     55  N   UNL     1      -3.669  11.252   1.597  1.00  0.00    -0.248 NA
ATOM     56  C   UNL     1      -2.316  12.453   3.072  1.00  0.00     0.031 C 
ATOM     57  C   UNL     1      -6.150  13.097  -1.591  1.00  0.00     0.029 A 
ATOM     58  C   UNL     1      -5.359  12.547  -0.595  1.00  0.00     0.049 A 
ATOM     59  H   UNL     1      -5.056  10.517  -0.106  1.00  0.00     0.167 HD
ATOM     60  C   UNL     1      -3.792  12.609   1.326  1.00  0.00     0.074 A 
ATOM     61  C   UNL     1      -2.959  13.304   2.285  1.00  0.00     0.031 C 
ATOM     62  C   UNL     1      -4.530  13.224   0.369  1.00  0.00     0.037 A 
BRANCH  49  63
ATOM     63  C   UNL     1      -7.638   9.340  -3.290  1.00  0.00     0.064 A 
ATOM     64  C   UNL     1      -8.966   8.916  -3.129  1.00  0.00     0.173 A 
ATOM     65  C   UNL     1      -7.194   9.630  -4.589  1.00  0.00     0.173 A 
ATOM     66  F   UNL     1      -9.434   8.614  -1.909  1.00  0.00    -0.203 F 
ATOM     67  C   UNL     1      -9.808   8.765  -4.228  1.00  0.00     0.198 A 
ATOM     68  C   UNL     1      -8.046   9.503  -5.683  1.00  0.00     0.198 A 
ATOM     69  F   UNL     1      -5.935  10.043  -4.797  1.00  0.00    -0.203 F 
ATOM     70  F   UNL     1     -11.059   8.318  -4.056  1.00  0.00    -0.200 F 
ATOM     71  C   UNL     1      -9.350   9.064  -5.503  1.00  0.00     0.200 A 
ATOM     72  F   UNL     1      -7.605   9.802  -6.913  1.00  0.00    -0.200 F 
ATOM     73  F   UNL     1     -10.162   8.923  -6.559  1.00  0.00    -0.200 F 
ENDBRANCH  49  63
BRANCH  50  74
ATOM     74  C   UNL     1      -1.426  10.049   4.487  1.00  0.00     0.064 A 
ATOM     75  C   UNL     1      -1.838  10.618   5.700  1.00  0.00     0.173 A 
ATOM     76  C   UNL     1      -0.099   9.607   4.391  1.00  0.00     0.173 A 
ATOM     77  F   UNL     1      -3.090  11.080   5.832  1.00  0.00    -0.203 F 
ATOM     78  C   UNL     1      -0.952  10.754   6.768  1.00  0.00     0.198 A 
ATOM     79  C   UNL     1       0.778   9.719   5.467  1.00  0.00     0.198 A 
ATOM     80  F   UNL     1       0.344   9.058   3.250  1.00  0.00    -0.203 F 
ATOM     81  F   UNL     1      -1.359  11.341   7.902  1.00  0.00    -0.200 F 
ATOM     82  C   UNL     1       0.353  10.299   6.653  1.00  0.00     0.200 A 
ATOM     83  F   UNL     1       2.035   9.270   5.355  1.00  0.00    -0.200 F 
ATOM     84  F   UNL     1       1.202  10.428   7.681  1.00  0.00    -0.200 F 
ENDBRANCH  50  74
BRANCH  62  85
ATOM     85  C   UNL     1      -4.492  14.724   0.326  1.00  0.00     0.064 A 
ATOM     86  C   UNL     1      -3.366  15.416  -0.142  1.00  0.00     0.173 A 
ATOM     87  C   UNL     1      -5.612  15.475   0.714  1.00  0.00     0.173 A 
ATOM     88  F   UNL     1      -2.265  14.744  -0.511  1.00  0.00    -0.203 F 
ATOM     89  C   UNL     1      -3.354  16.808  -0.198  1.00  0.00     0.198 A 
ATOM     90  C   UNL     1      -5.607  16.864   0.632  1.00  0.00     0.198 A 
ATOM     91  F   UNL     1      -6.716  14.859   1.162  1.00  0.00    -0.203 F 
ATOM     92  F   UNL     1      -2.252  17.451  -0.608  1.00  0.00    -0.200 F 
ATOM     93  C   UNL     1      -4.476  17.530   0.182  1.00  0.00     0.200 A 
ATOM     94  F   UNL     1      -6.696  17.559   0.987  1.00  0.00    -0.200 F 
ATOM     95  F   UNL     1      -4.466  18.868   0.120  1.00  0.00    -0.200 F 
ENDBRANCH  62  85
ENDBRANCH  36  37
ENDBRANCH  29  31
ENDBRANCH  28  29
ENDBRANCH  27  28
ENDBRANCH   1  27
TORSDOF 15
