REMARK SMILES C[C@@H]1CN(S(=O)(=O)N[C@H](C(=O)OCCOCCOC(=O)c2ccc(-c3c4nc(c(-c5c(F)c(F)c(F)c(F)c5F)c5ccc([nH]5)c(-c5c(F)c(F)c(F)c(F)c5F)c5nc(c(-c6c(F)c(F)c(F)c(F)c6F)c6ccc3[nH]6)C=C5)C=C4)cc2)[C@@H](C)O)C[C@@H](C)O1
REMARK SMILES IDX 14 1 13 2 12 3 10 4 11 5 9 6 8 7 5 9 6 10 7 11 4 12 1 13
REMARK SMILES IDX 2 14 3 15 90 16 88 17 87 18 89 19 84 20 85 21 86 22 15 24
REMARK SMILES IDX 16 25 17 26 18 27 19 28 20 29 21 30 22 31 83 32 23 33 82 34
REMARK SMILES IDX 24 35 25 36 26 37 76 38 27 39 81 40 75 41 77 42 28 43 80 44
REMARK SMILES IDX 74 45 73 46 29 48 61 49 41 50 60 51 42 52 45 53 59 54 78 55
REMARK SMILES IDX 43 56 44 57 58 59 79 60 46 61 30 62 31 63 39 64 32 65 33 66
REMARK SMILES IDX 37 67 40 68 34 69 35 70 38 71 36 72 62 73 63 74 71 75 64 76
REMARK SMILES IDX 65 77 69 78 72 79 66 80 67 81 70 82 68 83 47 84 48 85 56 86
REMARK SMILES IDX 49 87 50 88 54 89 57 90 51 91 52 92 55 93 53 94
REMARK H PARENT 8 8 86 23 77 47 45 58
REMARK Flexibility Score: inf
ROOT
ATOM      1  C   UNL     1       0.364  -2.774   5.453  1.00  0.00     0.202 C 
ENDROOT
BRANCH   1   2
ATOM      2  C   UNL     1       0.859  -2.566   4.025  1.00  0.00     0.261 C 
BRANCH   2   3
ATOM      3  O   UNL     1      -0.109  -2.150   3.051  1.00  0.00    -0.462 OA
BRANCH   3   4
ATOM      4  C   UNL     1      -1.159  -2.962   2.785  1.00  0.00     0.326 C 
ATOM      5  O   UNL     1      -1.522  -3.935   3.430  1.00  0.00    -0.250 OA
BRANCH   4   6
ATOM      6  C   UNL     1      -1.896  -2.552   1.562  1.00  0.00     0.208 C 
BRANCH   6   7
ATOM      7  N   UNL     1      -2.235  -3.847   0.846  1.00  0.00    -0.185 NA
ATOM      8  H   UNL     1      -2.635  -4.479   1.540  1.00  0.00     0.143 HD
BRANCH   7   9
ATOM      9  S   UNL     1      -0.992  -4.682   0.069  1.00  0.00     0.280 S 
ATOM     10  O   UNL     1       0.063  -3.738  -0.212  1.00  0.00    -0.195 OA
ATOM     11  O   UNL     1      -1.667  -5.382  -1.001  1.00  0.00    -0.195 OA
BRANCH   9  12
ATOM     12  N   UNL     1      -0.365  -5.882   1.133  1.00  0.00    -0.184 NA
ATOM     13  C   UNL     1       0.137  -7.036   4.039  1.00  0.00     0.040 C 
ATOM     14  C   UNL     1       1.175  -6.491   3.057  1.00  0.00     0.130 C 
ATOM     15  C   UNL     1       0.675  -5.410   2.097  1.00  0.00     0.135 C 
ATOM     16  O   UNL     1       1.807  -7.518   2.303  1.00  0.00    -0.373 OA
ATOM     17  C   UNL     1       0.944  -8.076   1.302  1.00  0.00     0.130 C 
ATOM     18  C   UNL     1       0.285  -7.021   0.369  1.00  0.00     0.135 C 
ATOM     19  C   UNL     1       1.862  -8.995   0.506  1.00  0.00     0.040 C 
ENDBRANCH   9  12
ENDBRANCH   7   9
ENDBRANCH   6   7
BRANCH   6  20
ATOM     20  C   UNL     1      -3.156  -1.811   2.084  1.00  0.00     0.140 C 
ATOM     21  C   UNL     1      -2.840  -0.657   3.059  1.00  0.00     0.040 C 
BRANCH  20  22
ATOM     22  O   UNL     1      -3.873  -1.279   0.963  1.00  0.00    -0.391 OA
ATOM     23  H   UNL     1      -3.316  -0.634   0.499  1.00  0.00     0.211 HD
ENDBRANCH  20  22
ENDBRANCH   6  20
ENDBRANCH   4   6
ENDBRANCH   3   4
ENDBRANCH   2   3
ENDBRANCH   1   2
BRANCH   1  24
ATOM     24  O   UNL     1      -0.467  -3.897   5.740  1.00  0.00    -0.374 OA
BRANCH  24  25
ATOM     25  C   UNL     1      -1.856  -3.582   5.956  1.00  0.00     0.202 C 
BRANCH  25  26
ATOM     26  C   UNL     1      -2.234  -3.268   7.400  1.00  0.00     0.261 C 
BRANCH  26  27
ATOM     27  O   UNL     1      -1.410  -2.206   7.890  1.00  0.00    -0.460 OA
BRANCH  27  28
ATOM     28  C   UNL     1      -0.306  -2.636   8.548  1.00  0.00     0.338 C 
ATOM     29  O   UNL     1      -0.128  -3.736   9.046  1.00  0.00    -0.246 OA
BRANCH  28  30
ATOM     30  C   UNL     1       0.777  -1.642   8.368  1.00  0.00     0.060 A 
ATOM     31  C   UNL     1       2.088  -2.136   8.292  1.00  0.00     0.016 A 
ATOM     32  C   UNL     1       0.521  -0.282   8.157  1.00  0.00     0.016 A 
ATOM     33  C   UNL     1       3.151  -1.270   8.063  1.00  0.00     0.010 A 
ATOM     34  C   UNL     1       1.588   0.591   7.944  1.00  0.00     0.010 A 
ATOM     35  C   UNL     1       2.906   0.102   7.950  1.00  0.00    -0.014 A 
BRANCH  35  36
ATOM     36  C   UNL     1       4.027   1.044   8.146  1.00  0.00     0.031 A 
ATOM     37  C   UNL     1       4.234   1.574   9.538  1.00  0.00     0.074 A 
ATOM     38  C   UNL     1       4.847   1.392   7.142  1.00  0.00     0.049 A 
ATOM     39  N   UNL     1       5.096   2.452   9.976  1.00  0.00    -0.248 NA
ATOM     40  C   UNL     1       3.335   1.042  10.578  1.00  0.00     0.031 C 
ATOM     41  C   UNL     1       4.769   0.894   5.772  1.00  0.00     0.029 A 
ATOM     42  N   UNL     1       5.908   2.259   7.130  1.00  0.00    -0.354 N 
ATOM     43  C   UNL     1       4.836   2.581  11.334  1.00  0.00     0.074 A 
ATOM     44  C   UNL     1       3.716   1.724  11.644  1.00  0.00     0.031 C 
ATOM     45  C   UNL     1       5.737   1.478   5.043  1.00  0.00     0.029 A 
ATOM     46  C   UNL     1       6.477   2.413   5.891  1.00  0.00     0.049 A 
ATOM     47  H   UNL     1       6.232   2.727   7.934  1.00  0.00     0.167 HD
ATOM     48  C   UNL     1       5.485   3.341  12.245  1.00  0.00     0.037 A 
ATOM     49  C   UNL     1       7.465   3.238   5.493  1.00  0.00     0.037 A 
ATOM     50  C   UNL     1       6.599   4.189  11.925  1.00  0.00     0.049 A 
ATOM     51  C   UNL     1       8.116   4.143   6.511  1.00  0.00     0.074 A 
ATOM     52  C   UNL     1       7.343   4.990  12.771  1.00  0.00     0.029 A 
ATOM     53  N   UNL     1       7.123   4.350  10.651  1.00  0.00    -0.354 N 
ATOM     54  N   UNL     1       7.884   4.246   7.798  1.00  0.00    -0.248 NA
ATOM     55  C   UNL     1       9.164   5.047   6.019  1.00  0.00     0.031 C 
ATOM     56  C   UNL     1       8.280   5.682  11.998  1.00  0.00     0.029 A 
ATOM     57  C   UNL     1       8.160   5.265  10.681  1.00  0.00     0.049 A 
ATOM     58  H   UNL     1       6.804   3.883   9.845  1.00  0.00     0.167 HD
ATOM     59  C   UNL     1       8.774   5.201   8.274  1.00  0.00     0.074 A 
ATOM     60  C   UNL     1       9.560   5.638   7.138  1.00  0.00     0.031 C 
ATOM     61  C   UNL     1       8.931   5.676   9.535  1.00  0.00     0.037 A 
BRANCH  48  62
ATOM     62  C   UNL     1       4.979   3.313  13.656  1.00  0.00     0.064 A 
ATOM     63  C   UNL     1       5.125   2.182  14.474  1.00  0.00     0.173 A 
ATOM     64  C   UNL     1       4.348   4.441  14.202  1.00  0.00     0.173 A 
ATOM     65  F   UNL     1       5.698   1.069  13.991  1.00  0.00    -0.203 F 
ATOM     66  C   UNL     1       4.637   2.174  15.778  1.00  0.00     0.198 A 
ATOM     67  C   UNL     1       3.890   4.441  15.516  1.00  0.00     0.198 A 
ATOM     68  F   UNL     1       4.177   5.546  13.460  1.00  0.00    -0.203 F 
ATOM     69  F   UNL     1       4.741   1.065  16.523  1.00  0.00    -0.200 F 
ATOM     70  C   UNL     1       4.029   3.306  16.301  1.00  0.00     0.200 A 
ATOM     71  F   UNL     1       3.310   5.538  16.022  1.00  0.00    -0.200 F 
ATOM     72  F   UNL     1       3.566   3.299  17.558  1.00  0.00    -0.200 F 
ENDBRANCH  48  62
BRANCH  49  73
ATOM     73  C   UNL     1       7.889   3.264   4.069  1.00  0.00     0.064 A 
ATOM     74  C   UNL     1       9.165   2.828   3.684  1.00  0.00     0.173 A 
ATOM     75  C   UNL     1       7.037   3.748   3.064  1.00  0.00     0.173 A 
ATOM     76  F   UNL     1      10.026   2.381   4.610  1.00  0.00    -0.203 F 
ATOM     77  C   UNL     1       9.579   2.894   2.355  1.00  0.00     0.198 A 
ATOM     78  C   UNL     1       7.441   3.785   1.731  1.00  0.00     0.198 A 
ATOM     79  F   UNL     1       5.807   4.180   3.377  1.00  0.00    -0.203 F 
ATOM     80  F   UNL     1      10.822   2.518   2.023  1.00  0.00    -0.200 F 
ATOM     81  C   UNL     1       8.715   3.366   1.379  1.00  0.00     0.200 A 
ATOM     82  F   UNL     1       6.598   4.232   0.790  1.00  0.00    -0.200 F 
ATOM     83  F   UNL     1       9.113   3.428   0.101  1.00  0.00    -0.200 F 
ENDBRANCH  49  73
BRANCH  61  84
ATOM     84  C   UNL     1      10.011   6.695   9.762  1.00  0.00     0.064 A 
ATOM     85  C   UNL     1       9.891   8.012   9.295  1.00  0.00     0.173 A 
ATOM     86  C   UNL     1      11.151   6.363  10.510  1.00  0.00     0.173 A 
ATOM     87  F   UNL     1       8.825   8.375   8.566  1.00  0.00    -0.203 F 
ATOM     88  C   UNL     1      10.884   8.953   9.550  1.00  0.00     0.198 A 
ATOM     89  C   UNL     1      12.126   7.316  10.791  1.00  0.00     0.198 A 
ATOM     90  F   UNL     1      11.308   5.120  10.989  1.00  0.00    -0.203 F 
ATOM     91  F   UNL     1      10.771  10.194   9.056  1.00  0.00    -0.200 F 
ATOM     92  C   UNL     1      11.996   8.607  10.304  1.00  0.00     0.200 A 
ATOM     93  F   UNL     1      13.189   6.984  11.536  1.00  0.00    -0.200 F 
ATOM     94  F   UNL     1      12.944   9.519  10.559  1.00  0.00    -0.200 F 
ENDBRANCH  61  84
ENDBRANCH  35  36
ENDBRANCH  28  30
ENDBRANCH  27  28
ENDBRANCH  26  27
ENDBRANCH  25  26
ENDBRANCH  24  25
ENDBRANCH   1  24
TORSDOF 19
