REMARK SMILES Cc1ccccc1C(=O)Nc1ccc(OCC(=O)OCCOCCOC(=O)c2ccc(-c3c4nc(c(-c5c(F)c(F)c(F)c(F)c5F)c5ccc([nH]5)c(-c5c(F)c(F)c(F)c(F)c5F)c5nc(c(-c6c(F)c(F)c(F)c(F)c6F)c6ccc3[nH]6)C=C5)C=C4)cc2)c(-c2nc3ccccc3s2)c1
REMARK SMILES IDX 21 1 20 2 19 3 17 4 18 5 16 6 15 7 14 8 11 9 12 10 101 11
REMARK SMILES IDX 13 12 91 13 10 14 8 15 9 16 7 18 1 19 2 20 3 21 4 22 6 23
REMARK SMILES IDX 5 24 92 25 93 26 100 27 94 28 99 29 95 30 98 31 96 32 97 33
REMARK SMILES IDX 22 34 23 35 24 36 25 37 26 38 27 39 28 40 29 41 90 42 30 43
REMARK SMILES IDX 89 44 31 45 32 46 33 47 83 48 34 49 88 50 82 51 84 52 35 53
REMARK SMILES IDX 87 54 81 55 80 56 36 58 68 59 48 60 67 61 49 62 52 63 66 64
REMARK SMILES IDX 85 65 50 66 51 67 65 69 86 70 53 71 37 72 38 73 46 74 39 75
REMARK SMILES IDX 40 76 44 77 47 78 41 79 42 80 45 81 43 82 69 83 70 84 78 85
REMARK SMILES IDX 71 86 72 87 76 88 79 89 73 90 74 91 77 92 75 93 54 94 55 95
REMARK SMILES IDX 63 96 56 97 57 98 61 99 64 100 58 101 59 102 62 103 60 104
REMARK H PARENT 10 17 84 57 52 68
REMARK Flexibility Score: inf
ROOT
ATOM      1  C   UNL     1       3.207  -3.368   1.395  1.00  0.00     0.202 C 
ENDROOT
BRANCH   1   2
ATOM      2  C   UNL     1       4.450  -3.662   0.590  1.00  0.00     0.261 C 
BRANCH   2   3
ATOM      3  O   UNL     1       5.158  -2.537   0.106  1.00  0.00    -0.461 OA
BRANCH   3   4
ATOM      4  C   UNL     1       6.017  -3.016  -0.855  1.00  0.00     0.344 C 
ATOM      5  O   UNL     1       6.210  -4.184  -1.093  1.00  0.00    -0.248 OA
BRANCH   4   6
ATOM      6  C   UNL     1       6.748  -1.912  -1.599  1.00  0.00     0.352 C 
BRANCH   6   7
ATOM      7  O   UNL     1       6.198  -0.742  -2.162  1.00  0.00    -0.481 OA
BRANCH   7   8
ATOM      8  C   UNL     1       5.140  -0.090  -1.592  1.00  0.00     0.130 A 
ATOM      9  C   UNL     1       3.290   1.960  -0.925  1.00  0.00     0.042 A 
ATOM     10  C   UNL     1       4.483   1.790  -0.207  1.00  0.00     0.030 A 
ATOM     11  C   UNL     1       2.991   1.038  -1.928  1.00  0.00     0.041 A 
ATOM     12  C   UNL     1       5.391   0.765  -0.516  1.00  0.00     0.049 A 
ATOM     13  C   UNL     1       3.912   0.002  -2.290  1.00  0.00     0.055 A 
BRANCH   9  14
ATOM     14  N   UNL     1       2.563   3.147  -0.678  1.00  0.00    -0.322 N 
ATOM     15  C   UNL     1       1.244   3.536  -0.829  1.00  0.00     0.255 C 
ATOM     16  O   UNL     1       0.980   4.730  -0.969  1.00  0.00    -0.269 OA
ATOM     17  H   UNL     1       3.128   3.866  -0.313  1.00  0.00     0.170 HD
BRANCH  15  18
ATOM     18  C   UNL     1       0.116   2.591  -0.644  1.00  0.00     0.043 A 
ATOM     19  C   UNL     1       0.862   2.000   1.706  1.00  0.00     0.045 C 
ATOM     20  C   UNL     1       0.036   1.746   0.466  1.00  0.00    -0.038 A 
ATOM     21  C   UNL     1      -0.978   0.771   0.498  1.00  0.00     0.004 A 
ATOM     22  C   UNL     1      -2.011   0.771  -0.430  1.00  0.00     0.000 A 
ATOM     23  C   UNL     1      -1.022   2.716  -1.454  1.00  0.00     0.014 A 
ATOM     24  C   UNL     1      -2.089   1.818  -1.335  1.00  0.00     0.001 A 
ENDBRANCH  15  18
ENDBRANCH   9  14
BRANCH  13  25
ATOM     25  C   UNL     1       3.466  -0.959  -3.337  1.00  0.00     0.128 A 
ATOM     26  N   UNL     1       2.459  -0.721  -4.154  1.00  0.00    -0.236 NA
ATOM     27  S   UNL     1       4.040  -2.583  -3.414  1.00  0.00    -0.114 S 
ATOM     28  C   UNL     1       2.007  -1.898  -4.731  1.00  0.00     0.082 A 
ATOM     29  C   UNL     1       2.720  -3.045  -4.393  1.00  0.00     0.055 A 
ATOM     30  C   UNL     1       0.880  -2.028  -5.563  1.00  0.00     0.030 A 
ATOM     31  C   UNL     1       2.333  -4.326  -4.819  1.00  0.00     0.021 A 
ATOM     32  C   UNL     1       0.471  -3.298  -5.985  1.00  0.00     0.002 A 
ATOM     33  C   UNL     1       1.184  -4.432  -5.608  1.00  0.00     0.002 A 
ENDBRANCH  13  25
ENDBRANCH   7   8
ENDBRANCH   6   7
ENDBRANCH   4   6
ENDBRANCH   3   4
ENDBRANCH   2   3
ENDBRANCH   1   2
BRANCH   1  34
ATOM     34  O   UNL     1       2.169  -3.181   0.456  1.00  0.00    -0.374 OA
BRANCH  34  35
ATOM     35  C   UNL     1       2.003  -1.853   0.047  1.00  0.00     0.202 C 
BRANCH  35  36
ATOM     36  C   UNL     1       1.803  -0.974   1.245  1.00  0.00     0.261 C 
BRANCH  36  37
ATOM     37  O   UNL     1       0.734  -1.235   2.217  1.00  0.00    -0.460 OA
BRANCH  37  38
ATOM     38  C   UNL     1      -0.201  -2.160   2.545  1.00  0.00     0.338 C 
ATOM     39  O   UNL     1      -0.916  -2.001   3.528  1.00  0.00    -0.246 OA
BRANCH  38  40
ATOM     40  C   UNL     1      -0.361  -3.397   1.771  1.00  0.00     0.060 A 
ATOM     41  C   UNL     1      -0.121  -4.628   2.394  1.00  0.00     0.016 A 
ATOM     42  C   UNL     1      -0.611  -3.337   0.412  1.00  0.00     0.016 A 
ATOM     43  C   UNL     1       0.194  -5.743   1.615  1.00  0.00     0.010 A 
ATOM     44  C   UNL     1      -0.197  -4.414  -0.358  1.00  0.00     0.010 A 
ATOM     45  C   UNL     1       0.294  -5.592   0.230  1.00  0.00    -0.014 A 
BRANCH  45  46
ATOM     46  C   UNL     1       1.081  -6.511  -0.612  1.00  0.00     0.031 A 
ATOM     47  C   UNL     1       0.488  -7.157  -1.779  1.00  0.00     0.074 A 
ATOM     48  C   UNL     1       2.391  -6.759  -0.377  1.00  0.00     0.049 A 
ATOM     49  N   UNL     1       0.642  -8.416  -2.019  1.00  0.00    -0.248 NA
ATOM     50  C   UNL     1      -0.337  -6.469  -2.761  1.00  0.00     0.031 C 
ATOM     51  C   UNL     1       3.413  -7.370  -1.218  1.00  0.00     0.029 A 
ATOM     52  N   UNL     1       3.094  -6.392   0.757  1.00  0.00    -0.354 N 
ATOM     53  C   UNL     1       0.235  -8.603  -3.314  1.00  0.00     0.074 A 
ATOM     54  C   UNL     1      -0.543  -7.437  -3.653  1.00  0.00     0.031 C 
ATOM     55  C   UNL     1       4.552  -7.521  -0.510  1.00  0.00     0.029 A 
ATOM     56  C   UNL     1       4.319  -7.048   0.849  1.00  0.00     0.049 A 
ATOM     57  H   UNL     1       2.766  -5.744   1.421  1.00  0.00     0.167 HD
ATOM     58  C   UNL     1       0.821  -9.557  -4.090  1.00  0.00     0.037 A 
ATOM     59  C   UNL     1       4.664  -7.654   2.020  1.00  0.00     0.037 A 
ATOM     60  C   UNL     1       2.018 -10.104  -3.432  1.00  0.00     0.049 A 
ATOM     61  C   UNL     1       4.444  -9.122   1.828  1.00  0.00     0.074 A 
ATOM     62  C   UNL     1       3.372  -9.907  -3.665  1.00  0.00     0.029 A 
ATOM     63  N   UNL     1       1.936 -10.681  -2.161  1.00  0.00    -0.354 N 
ATOM     64  N   UNL     1       3.692  -9.562   0.857  1.00  0.00    -0.248 NA
ATOM     65  C   UNL     1       5.101 -10.196   2.563  1.00  0.00     0.031 C 
ATOM     66  C   UNL     1       4.097 -10.366  -2.534  1.00  0.00     0.029 A 
ATOM     67  C   UNL     1       3.192 -10.846  -1.602  1.00  0.00     0.049 A 
ATOM     68  H   UNL     1       1.094 -10.938  -1.720  1.00  0.00     0.167 HD
ATOM     69  C   UNL     1       3.880 -10.892   0.715  1.00  0.00     0.074 A 
ATOM     70  C   UNL     1       4.703 -11.270   1.852  1.00  0.00     0.031 C 
ATOM     71  C   UNL     1       3.380 -11.570  -0.351  1.00  0.00     0.037 A 
BRANCH  58  72
ATOM     72  C   UNL     1       0.505  -9.669  -5.568  1.00  0.00     0.064 A 
ATOM     73  C   UNL     1       1.447 -10.140  -6.502  1.00  0.00     0.173 A 
ATOM     74  C   UNL     1      -0.749  -9.328  -6.122  1.00  0.00     0.173 A 
ATOM     75  F   UNL     1       2.635 -10.620  -6.118  1.00  0.00    -0.203 F 
ATOM     76  C   UNL     1       1.198 -10.152  -7.878  1.00  0.00     0.198 A 
ATOM     77  C   UNL     1      -0.977  -9.274  -7.500  1.00  0.00     0.198 A 
ATOM     78  F   UNL     1      -1.807  -9.070  -5.338  1.00  0.00    -0.203 F 
ATOM     79  F   UNL     1       2.133 -10.620  -8.716  1.00  0.00    -0.200 F 
ATOM     80  C   UNL     1       0.000  -9.685  -8.380  1.00  0.00     0.200 A 
ATOM     81  F   UNL     1      -2.153  -8.827  -7.965  1.00  0.00    -0.200 F 
ATOM     82  F   UNL     1      -0.222  -9.665  -9.701  1.00  0.00    -0.200 F 
ENDBRANCH  58  72
BRANCH  59  83
ATOM     83  C   UNL     1       4.420  -6.798   3.222  1.00  0.00     0.064 A 
ATOM     84  C   UNL     1       5.314  -5.720   3.412  1.00  0.00     0.173 A 
ATOM     85  C   UNL     1       3.183  -6.707   3.877  1.00  0.00     0.173 A 
ATOM     86  F   UNL     1       6.501  -5.722   2.784  1.00  0.00    -0.203 F 
ATOM     87  C   UNL     1       4.939  -4.555   4.088  1.00  0.00     0.198 A 
ATOM     88  C   UNL     1       2.816  -5.541   4.571  1.00  0.00     0.198 A 
ATOM     89  F   UNL     1       2.272  -7.679   3.738  1.00  0.00    -0.203 F 
ATOM     90  F   UNL     1       5.740  -3.479   4.057  1.00  0.00    -0.200 F 
ATOM     91  C   UNL     1       3.675  -4.453   4.639  1.00  0.00     0.200 A 
ATOM     92  F   UNL     1       1.579  -5.424   5.076  1.00  0.00    -0.200 F 
ATOM     93  F   UNL     1       3.252  -3.279   5.130  1.00  0.00    -0.200 F 
ENDBRANCH  59  83
BRANCH  71  94
ATOM     94  C   UNL     1       3.102 -13.030  -0.314  1.00  0.00     0.064 A 
ATOM     95  C   UNL     1       2.714 -13.679   0.869  1.00  0.00     0.173 A 
ATOM     96  C   UNL     1       2.984 -13.764  -1.511  1.00  0.00     0.173 A 
ATOM     97  F   UNL     1       2.693 -13.037   2.046  1.00  0.00    -0.203 F 
ATOM     98  C   UNL     1       2.272 -14.996   0.858  1.00  0.00     0.198 A 
ATOM     99  C   UNL     1       2.477 -15.055  -1.524  1.00  0.00     0.198 A 
ATOM    100  F   UNL     1       3.310 -13.234  -2.699  1.00  0.00    -0.203 F 
ATOM    101  F   UNL     1       1.940 -15.589   2.012  1.00  0.00    -0.200 F 
ATOM    102  C   UNL     1       2.134 -15.675  -0.339  1.00  0.00     0.200 A 
ATOM    103  F   UNL     1       2.291 -15.681  -2.694  1.00  0.00    -0.200 F 
ATOM    104  F   UNL     1       1.650 -16.922  -0.351  1.00  0.00    -0.200 F 
ENDBRANCH  71  94
ENDBRANCH  45  46
ENDBRANCH  38  40
ENDBRANCH  37  38
ENDBRANCH  36  37
ENDBRANCH  35  36
ENDBRANCH  34  35
ENDBRANCH   1  34
TORSDOF 19
