REMARK SMILES O=C(OCCOCCOC(=O)c1cc([C@@H]2C=NN=C2c2ccc(F)cc2)c2c(ccc3ccccc32)n1)c1ccc(-c2c3nc(c(-c4c(F)c(F)c(F)c(F)c4F)c4ccc([nH]4)c(-c4c(F)c(F)c(F)c(F)c4F)c4nc(c(-c5c(F)c(F)c(F)c(F)c5F)c5ccc2[nH]5)C=C4)C=C3)cc1
REMARK SMILES IDX 6 1 5 2 4 3 3 4 2 5 1 6 38 7 39 8 100 9 40 10 99 11 41 12
REMARK SMILES IDX 42 13 43 14 93 15 44 16 98 17 92 18 94 19 45 20 97 21 91 22
REMARK SMILES IDX 90 23 46 25 78 26 58 27 77 28 59 29 62 30 76 31 95 32 60 33
REMARK SMILES IDX 61 34 75 36 96 37 63 38 47 39 48 40 56 41 49 42 50 43 54 44
REMARK SMILES IDX 57 45 51 46 52 47 55 48 53 49 79 50 80 51 88 52 81 53 82 54
REMARK SMILES IDX 86 55 89 56 83 57 84 58 87 59 85 60 64 61 65 62 73 63 66 64
REMARK SMILES IDX 67 65 71 66 74 67 68 68 69 69 72 70 70 71 7 72 8 73 9 74
REMARK SMILES IDX 10 75 11 76 12 77 13 78 37 79 14 80 28 81 27 82 29 83 36 84
REMARK SMILES IDX 30 85 31 86 35 87 32 88 34 89 33 90 15 91 16 92 19 93 17 94
REMARK SMILES IDX 18 95 20 96 21 97 26 98 22 99 25 100 23 101 24 102
REMARK H PARENT 94 24 62 35
REMARK Flexibility Score: inf
ROOT
ATOM      1  O   UNL     1       4.364   1.113   0.723  1.00  0.00    -0.374 OA
ENDROOT
BRANCH   1   2
ATOM      2  C   UNL     1       4.847   0.990  -0.617  1.00  0.00     0.202 C 
BRANCH   2   3
ATOM      3  C   UNL     1       4.659  -0.329  -1.371  1.00  0.00     0.261 C 
BRANCH   3   4
ATOM      4  O   UNL     1       3.292  -0.555  -1.769  1.00  0.00    -0.460 OA
BRANCH   4   5
ATOM      5  C   UNL     1       2.245  -0.382  -0.932  1.00  0.00     0.338 C 
ATOM      6  O   UNL     1       1.235   0.217  -1.286  1.00  0.00    -0.246 OA
BRANCH   5   7
ATOM      7  C   UNL     1       2.242  -1.187   0.316  1.00  0.00     0.060 A 
ATOM      8  C   UNL     1       3.389  -1.730   0.900  1.00  0.00     0.016 A 
ATOM      9  C   UNL     1       0.981  -1.546   0.799  1.00  0.00     0.016 A 
ATOM     10  C   UNL     1       3.298  -2.886   1.620  1.00  0.00     0.010 A 
ATOM     11  C   UNL     1       0.876  -2.646   1.615  1.00  0.00     0.010 A 
ATOM     12  C   UNL     1       2.031  -3.381   1.870  1.00  0.00    -0.014 A 
BRANCH  12  13
ATOM     13  C   UNL     1       1.945  -4.700   2.445  1.00  0.00     0.031 A 
ATOM     14  C   UNL     1       2.505  -4.784   3.820  1.00  0.00     0.074 A 
ATOM     15  C   UNL     1       1.305  -5.644   1.729  1.00  0.00     0.049 A 
ATOM     16  N   UNL     1       3.333  -5.648   4.310  1.00  0.00    -0.248 NA
ATOM     17  C   UNL     1       2.221  -3.653   4.729  1.00  0.00     0.031 C 
ATOM     18  C   UNL     1       0.621  -5.498   0.434  1.00  0.00     0.029 A 
ATOM     19  N   UNL     1       0.998  -6.915   2.087  1.00  0.00    -0.354 N 
ATOM     20  C   UNL     1       3.508  -5.283   5.643  1.00  0.00     0.074 A 
ATOM     21  C   UNL     1       2.940  -3.973   5.802  1.00  0.00     0.031 C 
ATOM     22  C   UNL     1      -0.236  -6.527   0.261  1.00  0.00     0.029 A 
ATOM     23  C   UNL     1      -0.054  -7.459   1.352  1.00  0.00     0.049 A 
ATOM     24  H   UNL     1       1.471  -7.405   2.797  1.00  0.00     0.167 HD
ATOM     25  C   UNL     1       3.869  -6.194   6.584  1.00  0.00     0.037 A 
ATOM     26  C   UNL     1      -0.796  -8.513   1.770  1.00  0.00     0.037 A 
ATOM     27  C   UNL     1       4.582  -7.296   6.005  1.00  0.00     0.049 A 
ATOM     28  C   UNL     1       0.029  -9.218   2.795  1.00  0.00     0.074 A 
ATOM     29  C   UNL     1       5.795  -7.405   5.353  1.00  0.00     0.029 A 
ATOM     30  N   UNL     1       3.884  -8.434   5.688  1.00  0.00    -0.354 N 
ATOM     31  N   UNL     1       1.175  -9.788   2.522  1.00  0.00    -0.248 NA
ATOM     32  C   UNL     1      -0.161  -8.820   4.185  1.00  0.00     0.031 C 
ATOM     33  C   UNL     1       5.560  -8.331   4.296  1.00  0.00     0.029 A 
ATOM     34  C   UNL     1       4.248  -8.790   4.412  1.00  0.00     0.049 A 
ATOM     35  H   UNL     1       3.242  -8.907   6.266  1.00  0.00     0.167 HD
ATOM     36  C   UNL     1       1.996  -9.473   3.598  1.00  0.00     0.074 A 
ATOM     37  C   UNL     1       1.106  -8.896   4.604  1.00  0.00     0.031 C 
ATOM     38  C   UNL     1       3.355  -9.428   3.473  1.00  0.00     0.037 A 
BRANCH  25  39
ATOM     39  C   UNL     1       3.239  -6.235   7.950  1.00  0.00     0.064 A 
ATOM     40  C   UNL     1       1.959  -5.701   8.228  1.00  0.00     0.173 A 
ATOM     41  C   UNL     1       3.778  -7.073   8.941  1.00  0.00     0.173 A 
ATOM     42  F   UNL     1       1.275  -4.982   7.330  1.00  0.00    -0.203 F 
ATOM     43  C   UNL     1       1.273  -5.981   9.405  1.00  0.00     0.198 A 
ATOM     44  C   UNL     1       3.062  -7.395  10.098  1.00  0.00     0.198 A 
ATOM     45  F   UNL     1       4.972  -7.658   8.763  1.00  0.00    -0.203 F 
ATOM     46  F   UNL     1       0.052  -5.461   9.595  1.00  0.00    -0.200 F 
ATOM     47  C   UNL     1       1.810  -6.851  10.327  1.00  0.00     0.200 A 
ATOM     48  F   UNL     1       3.564  -8.287  10.963  1.00  0.00    -0.200 F 
ATOM     49  F   UNL     1       1.101  -7.202  11.407  1.00  0.00    -0.200 F 
ENDBRANCH  25  39
BRANCH  26  50
ATOM     50  C   UNL     1      -2.278  -8.610   1.709  1.00  0.00     0.064 A 
ATOM     51  C   UNL     1      -3.098  -7.461   1.711  1.00  0.00     0.173 A 
ATOM     52  C   UNL     1      -2.928  -9.836   1.911  1.00  0.00     0.173 A 
ATOM     53  F   UNL     1      -2.570  -6.232   1.616  1.00  0.00    -0.203 F 
ATOM     54  C   UNL     1      -4.477  -7.534   1.908  1.00  0.00     0.198 A 
ATOM     55  C   UNL     1      -4.312  -9.908   2.116  1.00  0.00     0.198 A 
ATOM     56  F   UNL     1      -2.216 -10.970   1.974  1.00  0.00    -0.203 F 
ATOM     57  F   UNL     1      -5.204  -6.408   1.949  1.00  0.00    -0.200 F 
ATOM     58  C   UNL     1      -5.083  -8.756   2.123  1.00  0.00     0.200 A 
ATOM     59  F   UNL     1      -4.891 -11.091   2.361  1.00  0.00    -0.200 F 
ATOM     60  F   UNL     1      -6.398  -8.819   2.377  1.00  0.00    -0.200 F 
ENDBRANCH  26  50
BRANCH  38  61
ATOM     61  C   UNL     1       3.965  -9.855   2.165  1.00  0.00     0.064 A 
ATOM     62  C   UNL     1       4.891 -10.903   2.170  1.00  0.00     0.173 A 
ATOM     63  C   UNL     1       3.831  -9.121   0.972  1.00  0.00     0.173 A 
ATOM     64  F   UNL     1       5.108 -11.598   3.297  1.00  0.00    -0.203 F 
ATOM     65  C   UNL     1       5.659 -11.195   1.045  1.00  0.00     0.198 A 
ATOM     66  C   UNL     1       4.577  -9.435  -0.165  1.00  0.00     0.198 A 
ATOM     67  F   UNL     1       3.043  -8.042   0.915  1.00  0.00    -0.203 F 
ATOM     68  F   UNL     1       6.591 -12.156   1.108  1.00  0.00    -0.200 F 
ATOM     69  C   UNL     1       5.500 -10.465  -0.122  1.00  0.00     0.200 A 
ATOM     70  F   UNL     1       4.440  -8.706  -1.283  1.00  0.00    -0.200 F 
ATOM     71  F   UNL     1       6.263 -10.729  -1.192  1.00  0.00    -0.200 F 
ENDBRANCH  38  61
ENDBRANCH  12  13
ENDBRANCH   5   7
ENDBRANCH   4   5
ENDBRANCH   3   4
ENDBRANCH   2   3
ENDBRANCH   1   2
BRANCH   1  72
ATOM     72  C   UNL     1       3.208   1.939   0.948  1.00  0.00     0.202 C 
BRANCH  72  73
ATOM     73  C   UNL     1       3.277   3.451   0.686  1.00  0.00     0.261 C 
BRANCH  73  74
ATOM     74  O   UNL     1       3.546   3.752  -0.688  1.00  0.00    -0.459 OA
BRANCH  74  75
ATOM     75  C   UNL     1       4.865   3.928  -0.977  1.00  0.00     0.357 C 
ATOM     76  O   UNL     1       5.772   4.067  -0.186  1.00  0.00    -0.244 OA
BRANCH  75  77
ATOM     77  C   UNL     1       5.037   3.732  -2.445  1.00  0.00     0.149 A 
ATOM     78  C   UNL     1       4.255   4.437  -3.311  1.00  0.00     0.041 A 
ATOM     79  N   UNL     1       6.047   2.943  -2.850  1.00  0.00    -0.241 NA
ATOM     80  C   UNL     1       4.678   4.567  -4.653  1.00  0.00    -0.021 A 
ATOM     81  C   UNL     1       6.384   2.940  -4.143  1.00  0.00     0.072 A 
ATOM     82  C   UNL     1       5.827   3.801  -5.134  1.00  0.00     0.012 A 
ATOM     83  C   UNL     1       7.419   2.076  -4.432  1.00  0.00     0.029 A 
ATOM     84  C   UNL     1       6.557   3.840  -6.419  1.00  0.00    -0.009 A 
ATOM     85  C   UNL     1       8.040   2.061  -5.669  1.00  0.00     0.011 A 
ATOM     86  C   UNL     1       7.656   2.962  -6.648  1.00  0.00    -0.018 A 
ATOM     87  C   UNL     1       6.319   4.734  -7.486  1.00  0.00     0.009 A 
ATOM     88  C   UNL     1       8.411   2.998  -7.836  1.00  0.00     0.009 A 
ATOM     89  C   UNL     1       7.078   4.786  -8.661  1.00  0.00     0.001 A 
ATOM     90  C   UNL     1       8.130   3.914  -8.838  1.00  0.00     0.001 A 
BRANCH  80  91
ATOM     91  C   UNL     1       3.979   5.746  -5.284  1.00  0.00     0.115 C 
ATOM     92  C   UNL     1       3.343   5.651  -6.612  1.00  0.00     0.123 C 
ATOM     93  C   UNL     1       4.760   7.012  -5.477  1.00  0.00     0.083 C 
ATOM     94  N   UNL     1       3.546   6.712  -7.327  1.00  0.00    -0.162 NA
ATOM     95  N   UNL     1       4.447   7.583  -6.606  1.00  0.00    -0.154 NA
BRANCH  93  96
ATOM     96  C   UNL     1       5.640   7.621  -4.442  1.00  0.00    -0.001 A 
ATOM     97  C   UNL     1       5.576   9.005  -4.258  1.00  0.00     0.013 A 
ATOM     98  C   UNL     1       6.501   6.875  -3.623  1.00  0.00     0.013 A 
ATOM     99  C   UNL     1       6.311   9.614  -3.234  1.00  0.00     0.040 A 
ATOM    100  C   UNL     1       7.212   7.475  -2.582  1.00  0.00     0.040 A 
ATOM    101  C   UNL     1       7.106   8.842  -2.393  1.00  0.00     0.123 A 
ATOM    102  F   UNL     1       7.785   9.424  -1.398  1.00  0.00    -0.207 F 
ENDBRANCH  93  96
ENDBRANCH  80  91
ENDBRANCH  75  77
ENDBRANCH  74  75
ENDBRANCH  73  74
ENDBRANCH  72  73
ENDBRANCH   1  72
TORSDOF 16
