REMARK SMILES CC1(C)O[C@@H]2C[C@@H]3[C@H]4CCC5=CC(=O)C=C[C@@]5(C)[C@]4(F)[C@H](O)C[C@]3(C)[C@]2(C(=O)OCCOCCOC(=O)c2ccc(-c3c4nc(c(-c5c(F)c(F)c(F)c(F)c5F)c5ccc([nH]5)c(-c5c(F)c(F)c(F)c(F)c5F)c5nc(c(-c6c(F)c(F)c(F)c(F)c6F)c6ccc3[nH]6)C=C5)C=C4)cc2)O1
REMARK SMILES IDX 33 1 32 2 31 3 30 4 29 5 27 6 28 7 26 8 1 9 2 10 4 11 101 12
REMARK SMILES IDX 3 13 5 14 6 15 24 16 7 17 23 18 25 19 8 20 21 21 9 22 19 23
REMARK SMILES IDX 10 24 17 25 20 26 11 27 16 28 18 29 12 30 15 31 13 32 14 33
REMARK SMILES IDX 22 34 34 36 35 37 36 38 37 39 38 40 39 41 100 42 40 43 99 44
REMARK SMILES IDX 41 45 42 46 43 47 93 48 44 49 98 50 92 51 94 52 45 53 97 54
REMARK SMILES IDX 91 55 90 56 46 58 78 59 58 60 77 61 59 62 62 63 76 64 95 65
REMARK SMILES IDX 60 66 61 67 75 69 96 70 63 71 47 72 48 73 56 74 49 75 50 76
REMARK SMILES IDX 54 77 57 78 51 79 52 80 55 81 53 82 79 83 80 84 88 85 81 86
REMARK SMILES IDX 82 87 86 88 89 89 83 90 84 91 87 92 85 93 64 94 65 95 73 96
REMARK SMILES IDX 66 97 67 98 71 99 74 100 68 101 69 102 72 103 70 104
REMARK H PARENT 22 35 94 57 62 68
REMARK Flexibility Score: inf
ROOT
ATOM      1  C   UNL     1      -2.523  -1.945   0.977  1.00  0.00     0.202 C 
ENDROOT
BRANCH   1   2
ATOM      2  O   UNL     1      -3.943  -1.997   1.017  1.00  0.00    -0.374 OA
BRANCH   2   3
ATOM      3  C   UNL     1      -4.700  -1.758  -0.156  1.00  0.00     0.202 C 
BRANCH   3   4
ATOM      4  C   UNL     1      -4.704  -0.383  -0.873  1.00  0.00     0.261 C 
BRANCH   4   5
ATOM      5  O   UNL     1      -3.471   0.364  -0.940  1.00  0.00    -0.461 OA
BRANCH   5   6
ATOM      6  C   UNL     1      -3.295   1.056   0.205  1.00  0.00     0.341 C 
ATOM      7  O   UNL     1      -4.024   0.869   1.179  1.00  0.00    -0.249 OA
BRANCH   6   8
ATOM      8  C   UNL     1      -2.115   2.023   0.296  1.00  0.00     0.200 C 
ATOM      9  C   UNL     1       0.358   0.041  -0.806  1.00  0.00     0.075 C 
ATOM     10  C   UNL     1       0.124   1.319  -0.015  1.00  0.00     0.165 C 
ATOM     11  O   UNL     1      -0.088   2.312  -1.012  1.00  0.00    -0.344 OA
ATOM     12  O   UNL     1      -1.006   1.270   0.889  1.00  0.00    -0.329 OA
ATOM     13  C   UNL     1       1.424   1.547   0.780  1.00  0.00     0.075 C 
ATOM     14  C   UNL     1      -1.427   2.814  -0.870  1.00  0.00     0.166 C 
ATOM     15  C   UNL     1      -1.203   4.319  -0.345  1.00  0.00     0.040 C 
ATOM     16  C   UNL     1      -2.669   3.250   1.179  1.00  0.00     0.016 C 
ATOM     17  C   UNL     1      -1.380   4.108   1.179  1.00  0.00     0.008 C 
ATOM     18  C   UNL     1      -3.273   3.146   2.596  1.00  0.00     0.046 C 
ATOM     19  C   UNL     1      -3.869   3.893   0.369  1.00  0.00     0.015 C 
ATOM     20  C   UNL     1      -0.546   4.162   2.512  1.00  0.00     0.035 C 
ATOM     21  C   UNL     1      -2.328   2.816   3.717  1.00  0.00     0.154 C 
ATOM     22  C   UNL     1       0.494   5.273   2.571  1.00  0.00     0.012 C 
ATOM     23  C   UNL     1      -1.269   3.943   3.852  1.00  0.00     0.152 C 
ATOM     24  C   UNL     1       1.575   4.889   3.589  1.00  0.00     0.032 C 
ATOM     25  C   UNL     1      -0.237   3.663   5.025  1.00  0.00     0.044 C 
ATOM     26  F   UNL     1      -1.934   5.114   4.121  1.00  0.00    -0.239 F 
ATOM     27  C   UNL     1       1.026   4.535   4.950  1.00  0.00    -0.053 C 
ATOM     28  C   UNL     1      -0.910   3.861   6.382  1.00  0.00    -0.009 C 
ATOM     29  C   UNL     1       0.283   2.189   5.038  1.00  0.00     0.024 C 
ATOM     30  C   UNL     1       1.705   4.847   6.072  1.00  0.00     0.052 C 
ATOM     31  C   UNL     1      -0.197   4.009   7.507  1.00  0.00     0.048 C 
ATOM     32  C   UNL     1       1.231   4.382   7.404  1.00  0.00     0.178 C 
ATOM     33  O   UNL     1       1.963   4.395   8.385  1.00  0.00    -0.290 OA
BRANCH  21  34
ATOM     34  O   UNL     1      -1.828   1.499   3.521  1.00  0.00    -0.390 OA
ATOM     35  H   UNL     1      -1.373   1.450   2.666  1.00  0.00     0.211 HD
ENDBRANCH  21  34
ENDBRANCH   6   8
ENDBRANCH   5   6
ENDBRANCH   4   5
ENDBRANCH   3   4
ENDBRANCH   2   3
ENDBRANCH   1   2
BRANCH   1  36
ATOM     36  C   UNL     1      -1.767  -2.656  -0.151  1.00  0.00     0.261 C 
BRANCH  36  37
ATOM     37  O   UNL     1      -2.203  -2.277  -1.467  1.00  0.00    -0.460 OA
BRANCH  37  38
ATOM     38  C   UNL     1      -2.578  -3.321  -2.247  1.00  0.00     0.338 C 
ATOM     39  O   UNL     1      -2.495  -4.507  -1.994  1.00  0.00    -0.246 OA
BRANCH  38  40
ATOM     40  C   UNL     1      -3.306  -2.830  -3.428  1.00  0.00     0.060 A 
ATOM     41  C   UNL     1      -4.681  -3.092  -3.508  1.00  0.00     0.016 A 
ATOM     42  C   UNL     1      -2.625  -2.243  -4.492  1.00  0.00     0.016 A 
ATOM     43  C   UNL     1      -5.382  -2.784  -4.668  1.00  0.00     0.010 A 
ATOM     44  C   UNL     1      -3.326  -1.958  -5.667  1.00  0.00     0.010 A 
ATOM     45  C   UNL     1      -4.698  -2.253  -5.767  1.00  0.00    -0.014 A 
BRANCH  45  46
ATOM     46  C   UNL     1      -5.389  -2.144  -7.070  1.00  0.00     0.031 A 
ATOM     47  C   UNL     1      -5.168  -3.213  -8.100  1.00  0.00     0.074 A 
ATOM     48  C   UNL     1      -6.212  -1.111  -7.317  1.00  0.00     0.049 A 
ATOM     49  N   UNL     1      -5.596  -3.279  -9.334  1.00  0.00    -0.248 NA
ATOM     50  C   UNL     1      -4.351  -4.364  -7.681  1.00  0.00     0.031 C 
ATOM     51  C   UNL     1      -6.541  -0.051  -6.366  1.00  0.00     0.029 A 
ATOM     52  N   UNL     1      -6.908  -0.779  -8.450  1.00  0.00    -0.354 N 
ATOM     53  C   UNL     1      -5.092  -4.469  -9.843  1.00  0.00     0.074 A 
ATOM     54  C   UNL     1      -4.306  -5.082  -8.794  1.00  0.00     0.031 C 
ATOM     55  C   UNL     1      -7.362   0.829  -6.963  1.00  0.00     0.029 A 
ATOM     56  C   UNL     1      -7.578   0.414  -8.348  1.00  0.00     0.049 A 
ATOM     57  H   UNL     1      -6.926  -1.341  -9.258  1.00  0.00     0.167 HD
ATOM     58  C   UNL     1      -5.274  -4.998 -11.076  1.00  0.00     0.037 A 
ATOM     59  C   UNL     1      -8.258   1.107  -9.282  1.00  0.00     0.037 A 
ATOM     60  C   UNL     1      -6.058  -4.374 -12.110  1.00  0.00     0.049 A 
ATOM     61  C   UNL     1      -8.371   0.539 -10.674  1.00  0.00     0.074 A 
ATOM     62  C   UNL     1      -6.324  -4.833 -13.387  1.00  0.00     0.029 A 
ATOM     63  N   UNL     1      -6.694  -3.147 -11.984  1.00  0.00    -0.354 N 
ATOM     64  N   UNL     1      -7.908  -0.593 -11.147  1.00  0.00    -0.248 NA
ATOM     65  C   UNL     1      -9.099   1.347 -11.661  1.00  0.00     0.031 C 
ATOM     66  C   UNL     1      -7.068  -3.855 -14.055  1.00  0.00     0.029 A 
ATOM     67  C   UNL     1      -7.322  -2.816 -13.173  1.00  0.00     0.049 A 
ATOM     68  H   UNL     1      -6.698  -2.593 -11.170  1.00  0.00     0.167 HD
ATOM     69  C   UNL     1      -8.311  -0.647 -12.475  1.00  0.00     0.074 A 
ATOM     70  C   UNL     1      -9.069   0.561 -12.728  1.00  0.00     0.031 C 
ATOM     71  C   UNL     1      -8.076  -1.609 -13.402  1.00  0.00     0.037 A 
BRANCH  58  72
ATOM     72  C   UNL     1      -4.586  -6.296 -11.386  1.00  0.00     0.064 A 
ATOM     73  C   UNL     1      -4.983  -7.506 -10.796  1.00  0.00     0.173 A 
ATOM     74  C   UNL     1      -3.532  -6.334 -12.312  1.00  0.00     0.173 A 
ATOM     75  F   UNL     1      -5.976  -7.523  -9.894  1.00  0.00    -0.203 F 
ATOM     76  C   UNL     1      -4.334  -8.700 -11.103  1.00  0.00     0.198 A 
ATOM     77  C   UNL     1      -2.906  -7.534 -12.639  1.00  0.00     0.198 A 
ATOM     78  F   UNL     1      -3.113  -5.207 -12.907  1.00  0.00    -0.203 F 
ATOM     79  F   UNL     1      -4.699  -9.835 -10.491  1.00  0.00    -0.200 F 
ATOM     80  C   UNL     1      -3.302  -8.714 -12.030  1.00  0.00     0.200 A 
ATOM     81  F   UNL     1      -1.918  -7.547 -13.545  1.00  0.00    -0.200 F 
ATOM     82  F   UNL     1      -2.685  -9.865 -12.329  1.00  0.00    -0.200 F 
ENDBRANCH  58  72
BRANCH  59  83
ATOM     83  C   UNL     1      -8.858   2.423  -8.941  1.00  0.00     0.064 A 
ATOM     84  C   UNL     1     -10.248   2.601  -8.920  1.00  0.00     0.173 A 
ATOM     85  C   UNL     1      -8.054   3.534  -8.640  1.00  0.00     0.173 A 
ATOM     86  F   UNL     1     -11.058   1.576  -9.221  1.00  0.00    -0.203 F 
ATOM     87  C   UNL     1     -10.810   3.843  -8.630  1.00  0.00     0.198 A 
ATOM     88  C   UNL     1      -8.618   4.766  -8.320  1.00  0.00     0.198 A 
ATOM     89  F   UNL     1      -6.718   3.418  -8.646  1.00  0.00    -0.203 F 
ATOM     90  F   UNL     1     -12.141   3.997  -8.663  1.00  0.00    -0.200 F 
ATOM     91  C   UNL     1      -9.996   4.923  -8.324  1.00  0.00     0.200 A 
ATOM     92  F   UNL     1      -7.827   5.802  -8.009  1.00  0.00    -0.200 F 
ATOM     93  F   UNL     1     -10.537   6.115  -8.040  1.00  0.00    -0.200 F 
ENDBRANCH  59  83
BRANCH  71  94
ATOM     94  C   UNL     1      -8.672  -1.412 -14.767  1.00  0.00     0.064 A 
ATOM     95  C   UNL     1      -8.179  -0.444 -15.654  1.00  0.00     0.173 A 
ATOM     96  C   UNL     1      -9.716  -2.238 -15.210  1.00  0.00     0.173 A 
ATOM     97  F   UNL     1      -7.192   0.381 -15.272  1.00  0.00    -0.203 F 
ATOM     98  C   UNL     1      -8.724  -0.296 -16.926  1.00  0.00     0.198 A 
ATOM     99  C   UNL     1     -10.236  -2.109 -16.495  1.00  0.00     0.198 A 
ATOM    100  F   UNL     1     -10.219  -3.184 -14.404  1.00  0.00    -0.203 F 
ATOM    101  F   UNL     1      -8.269   0.667 -17.740  1.00  0.00    -0.200 F 
ATOM    102  C   UNL     1      -9.745  -1.134 -17.349  1.00  0.00     0.200 A 
ATOM    103  F   UNL     1     -11.211  -2.932 -16.907  1.00  0.00    -0.200 F 
ATOM    104  F   UNL     1     -10.260  -0.998 -18.578  1.00  0.00    -0.200 F 
ENDBRANCH  71  94
ENDBRANCH  45  46
ENDBRANCH  38  40
ENDBRANCH  37  38
ENDBRANCH  36  37
ENDBRANCH   1  36
TORSDOF 15
