REMARK SMILES CCn1nc(C)c(NS(=O)(=O)c2cc(C(=O)OCCOCCOC(=O)c3ccc(-c4c5nc(c(-c6c(F)c(F)c(F)c(F)c6F)c6ccc([nH]6)c(-c6c(F)c(F)c(F)c(F)c6F)c6nc(c(-c7c(F)c(F)c(F)c(F)c7F)c7ccc4[nH]7)C=C6)C=C5)cc3)cc(F)c2C)c1C
REMARK SMILES IDX 19 1 18 2 17 3 15 4 16 5 14 6 12 7 13 8 92 9 90 10 93 11
REMARK SMILES IDX 89 12 91 13 9 14 10 15 11 16 8 17 7 19 3 20 4 21 94 22 5 23
REMARK SMILES IDX 95 24 6 25 2 26 1 27 20 28 21 29 22 30 23 31 24 32 25 33
REMARK SMILES IDX 26 34 27 35 88 36 28 37 87 38 29 39 30 40 31 41 81 42 32 43
REMARK SMILES IDX 86 44 80 45 82 46 33 47 85 48 79 49 78 50 34 52 66 53 46 54
REMARK SMILES IDX 65 55 47 56 50 57 64 58 83 59 48 60 49 61 63 63 84 64 51 65
REMARK SMILES IDX 35 66 36 67 44 68 37 69 38 70 42 71 45 72 39 73 40 74 43 75
REMARK SMILES IDX 41 76 67 77 68 78 76 79 69 80 70 81 74 82 77 83 71 84 72 85
REMARK SMILES IDX 75 86 73 87 52 88 53 89 61 90 54 91 55 92 59 93 62 94 56 95
REMARK SMILES IDX 57 96 60 97 58 98
REMARK H PARENT 8 18 82 51 50 62
REMARK Flexibility Score: inf
ROOT
ATOM      1  C   UNL     1       5.163  -7.084   9.505  1.00  0.00     0.202 C 
ENDROOT
BRANCH   1   2
ATOM      2  C   UNL     1       4.053  -7.947   8.862  1.00  0.00     0.261 C 
BRANCH   2   3
ATOM      3  O   UNL     1       3.514  -7.497   7.615  1.00  0.00    -0.460 OA
BRANCH   3   4
ATOM      4  C   UNL     1       2.584  -6.533   7.761  1.00  0.00     0.338 C 
ATOM      5  O   UNL     1       2.170  -6.089   8.820  1.00  0.00    -0.246 OA
BRANCH   4   6
ATOM      6  C   UNL     1       2.190  -5.942   6.461  1.00  0.00     0.064 A 
ATOM      7  C   UNL     1       1.395  -6.057   4.161  1.00  0.00     0.094 A 
ATOM      8  C   UNL     1       2.044  -6.658   5.269  1.00  0.00     0.038 A 
ATOM      9  C   UNL     1       0.850  -4.771   4.293  1.00  0.00     0.005 A 
ATOM     10  C   UNL     1       1.215  -4.022   5.418  1.00  0.00     0.128 A 
ATOM     11  C   UNL     1      -0.176  -4.140   3.405  1.00  0.00     0.049 C 
ATOM     12  C   UNL     1       1.876  -4.587   6.490  1.00  0.00     0.055 A 
ATOM     13  F   UNL     1       0.854  -2.734   5.505  1.00  0.00    -0.207 F 
BRANCH   7  14
ATOM     14  S   UNL     1       1.341  -7.053   2.682  1.00  0.00     0.262 S 
ATOM     15  O   UNL     1       0.158  -7.874   2.820  1.00  0.00    -0.201 OA
ATOM     16  O   UNL     1       2.650  -7.663   2.540  1.00  0.00    -0.201 OA
BRANCH  14  17
ATOM     17  N   UNL     1       1.069  -6.131   1.318  1.00  0.00    -0.276 N 
ATOM     18  H   UNL     1       0.468  -6.552   0.662  1.00  0.00     0.180 HD
BRANCH  17  19
ATOM     19  C   UNL     1       1.536  -4.872   0.936  1.00  0.00     0.093 A 
ATOM     20  N   UNL     1       1.438  -2.855   0.065  1.00  0.00    -0.268 N 
ATOM     21  N   UNL     1       2.530  -2.821   0.847  1.00  0.00    -0.176 NA
ATOM     22  C   UNL     1       0.900  -4.114  -0.035  1.00  0.00     0.060 A 
ATOM     23  C   UNL     1       2.612  -4.053   1.373  1.00  0.00     0.084 A 
ATOM     24  C   UNL     1      -0.191  -4.473  -0.980  1.00  0.00     0.069 C 
ATOM     25  C   UNL     1       3.730  -4.333   2.305  1.00  0.00     0.071 C 
BRANCH  20  26
ATOM     26  C   UNL     1       0.921  -1.640  -0.546  1.00  0.00     0.141 C 
ATOM     27  C   UNL     1       1.321  -0.334   0.124  1.00  0.00     0.029 C 
ENDBRANCH  20  26
ENDBRANCH  17  19
ENDBRANCH  14  17
ENDBRANCH   7  14
ENDBRANCH   4   6
ENDBRANCH   3   4
ENDBRANCH   2   3
ENDBRANCH   1   2
BRANCH   1  28
ATOM     28  O   UNL     1       5.537  -5.789   9.063  1.00  0.00    -0.374 OA
BRANCH  28  29
ATOM     29  C   UNL     1       5.548  -5.360   7.716  1.00  0.00     0.202 C 
BRANCH  29  30
ATOM     30  C   UNL     1       6.331  -6.105   6.653  1.00  0.00     0.261 C 
BRANCH  30  31
ATOM     31  O   UNL     1       5.848  -7.404   6.315  1.00  0.00    -0.460 OA
BRANCH  31  32
ATOM     32  C   UNL     1       6.459  -8.418   6.966  1.00  0.00     0.338 C 
ATOM     33  O   UNL     1       7.111  -8.338   7.993  1.00  0.00    -0.246 OA
BRANCH  32  34
ATOM     34  C   UNL     1       6.510  -9.642   6.151  1.00  0.00     0.060 A 
ATOM     35  C   UNL     1       7.291 -10.649   6.741  1.00  0.00     0.016 A 
ATOM     36  C   UNL     1       6.476  -9.447   4.770  1.00  0.00     0.016 A 
ATOM     37  C   UNL     1       8.341 -11.160   6.011  1.00  0.00     0.010 A 
ATOM     38  C   UNL     1       7.524  -9.955   4.045  1.00  0.00     0.010 A 
ATOM     39  C   UNL     1       8.501 -10.709   4.705  1.00  0.00    -0.014 A 
BRANCH  39  40
ATOM     40  C   UNL     1       9.635 -11.101   3.909  1.00  0.00     0.031 A 
ATOM     41  C   UNL     1       9.619 -12.486   3.425  1.00  0.00     0.074 A 
ATOM     42  C   UNL     1      10.624 -10.226   3.632  1.00  0.00     0.049 A 
ATOM     43  N   UNL     1      10.675 -13.173   3.182  1.00  0.00    -0.248 NA
ATOM     44  C   UNL     1       8.381 -13.254   3.297  1.00  0.00     0.031 C 
ATOM     45  C   UNL     1      11.640 -10.354   2.601  1.00  0.00     0.029 A 
ATOM     46  N   UNL     1      10.976  -9.054   4.324  1.00  0.00    -0.354 N 
ATOM     47  C   UNL     1      10.260 -14.328   2.561  1.00  0.00     0.074 A 
ATOM     48  C   UNL     1       8.841 -14.407   2.805  1.00  0.00     0.031 C 
ATOM     49  C   UNL     1      12.622  -9.470   2.841  1.00  0.00     0.029 A 
ATOM     50  C   UNL     1      12.368  -8.859   4.134  1.00  0.00     0.049 A 
ATOM     51  H   UNL     1      10.370  -8.477   4.843  1.00  0.00     0.167 HD
ATOM     52  C   UNL     1      11.145 -14.973   1.752  1.00  0.00     0.037 A 
ATOM     53  C   UNL     1      13.254  -8.871   5.184  1.00  0.00     0.037 A 
ATOM     54  C   UNL     1      12.428 -14.271   1.749  1.00  0.00     0.049 A 
ATOM     55  C   UNL     1      14.155 -10.076   5.201  1.00  0.00     0.074 A 
ATOM     56  C   UNL     1      12.981 -13.308   0.920  1.00  0.00     0.029 A 
ATOM     57  N   UNL     1      13.167 -14.230   2.916  1.00  0.00    -0.354 N 
ATOM     58  N   UNL     1      14.102 -11.040   4.330  1.00  0.00    -0.248 NA
ATOM     59  C   UNL     1      15.103 -10.337   6.280  1.00  0.00     0.031 C 
ATOM     60  C   UNL     1      14.083 -12.715   1.599  1.00  0.00     0.029 A 
ATOM     61  C   UNL     1      14.212 -13.332   2.830  1.00  0.00     0.049 A 
ATOM     62  H   UNL     1      12.971 -14.774   3.713  1.00  0.00     0.167 HD
ATOM     63  C   UNL     1      14.951 -12.039   4.708  1.00  0.00     0.074 A 
ATOM     64  C   UNL     1      15.531 -11.567   5.955  1.00  0.00     0.031 C 
ATOM     65  C   UNL     1      15.092 -13.183   3.977  1.00  0.00     0.037 A 
BRANCH  52  66
ATOM     66  C   UNL     1      10.769 -16.029   0.742  1.00  0.00     0.064 A 
ATOM     67  C   UNL     1      11.550 -16.200  -0.421  1.00  0.00     0.173 A 
ATOM     68  C   UNL     1       9.650 -16.880   0.830  1.00  0.00     0.173 A 
ATOM     69  F   UNL     1      12.696 -15.530  -0.601  1.00  0.00    -0.203 F 
ATOM     70  C   UNL     1      11.187 -17.069  -1.451  1.00  0.00     0.198 A 
ATOM     71  C   UNL     1       9.260 -17.717  -0.222  1.00  0.00     0.198 A 
ATOM     72  F   UNL     1       8.929 -16.976   1.953  1.00  0.00    -0.203 F 
ATOM     73  F   UNL     1      11.971 -17.177  -2.533  1.00  0.00    -0.200 F 
ATOM     74  C   UNL     1      10.025 -17.805  -1.366  1.00  0.00     0.200 A 
ATOM     75  F   UNL     1       8.139 -18.445  -0.112  1.00  0.00    -0.200 F 
ATOM     76  F   UNL     1       9.661 -18.616  -2.368  1.00  0.00    -0.200 F 
ENDBRANCH  52  66
BRANCH  53  77
ATOM     77  C   UNL     1      12.751  -8.221   6.435  1.00  0.00     0.064 A 
ATOM     78  C   UNL     1      12.406  -6.870   6.267  1.00  0.00     0.173 A 
ATOM     79  C   UNL     1      11.959  -9.018   7.271  1.00  0.00     0.173 A 
ATOM     80  F   UNL     1      13.221  -6.041   5.597  1.00  0.00    -0.203 F 
ATOM     81  C   UNL     1      11.097  -6.494   6.476  1.00  0.00     0.198 A 
ATOM     82  C   UNL     1      10.656  -8.632   7.512  1.00  0.00     0.198 A 
ATOM     83  F   UNL     1      12.347 -10.256   7.609  1.00  0.00    -0.203 F 
ATOM     84  F   UNL     1      10.637  -5.335   5.983  1.00  0.00    -0.200 F 
ATOM     85  C   UNL     1      10.215  -7.433   6.978  1.00  0.00     0.200 A 
ATOM     86  F   UNL     1       9.800  -9.492   8.077  1.00  0.00    -0.200 F 
ATOM     87  F   UNL     1       8.928  -7.272   6.706  1.00  0.00    -0.200 F 
ENDBRANCH  53  77
BRANCH  65  88
ATOM     88  C   UNL     1      16.065 -14.278   4.320  1.00  0.00     0.064 A 
ATOM     89  C   UNL     1      17.320 -14.020   4.892  1.00  0.00     0.173 A 
ATOM     90  C   UNL     1      15.809 -15.632   4.003  1.00  0.00     0.173 A 
ATOM     91  F   UNL     1      17.755 -12.764   5.072  1.00  0.00    -0.203 F 
ATOM     92  C   UNL     1      18.184 -15.049   5.264  1.00  0.00     0.198 A 
ATOM     93  C   UNL     1      16.700 -16.652   4.318  1.00  0.00     0.198 A 
ATOM     94  F   UNL     1      14.687 -16.027   3.390  1.00  0.00    -0.203 F 
ATOM     95  F   UNL     1      19.329 -14.756   5.894  1.00  0.00    -0.200 F 
ATOM     96  C   UNL     1      17.871 -16.366   4.983  1.00  0.00     0.200 A 
ATOM     97  F   UNL     1      16.403 -17.915   3.980  1.00  0.00    -0.200 F 
ATOM     98  F   UNL     1      18.701 -17.354   5.338  1.00  0.00    -0.200 F 
ENDBRANCH  65  88
ENDBRANCH  39  40
ENDBRANCH  32  34
ENDBRANCH  31  32
ENDBRANCH  30  31
ENDBRANCH  29  30
ENDBRANCH  28  29
ENDBRANCH   1  28
TORSDOF 18
