REMARK SMILES COc1ncccc1NS(=O)(=O)c1ccc(Br)c(C(=O)OCCOCCOC(=O)c2ccc(-c3c4nc(c(-c5c(F)c(F)c(F)c(F)c5F)c5ccc([nH]5)c(-c5c(F)c(F)c(F)c(F)c5F)c5nc(c(-c6c(F)c(F)c(F)c(F)c6F)c6ccc3[nH]6)C=C5)C=C4)cc2)c1
REMARK SMILES IDX 23 1 22 2 21 3 19 4 20 5 18 6 13 7 14 8 93 9 15 10 16 11
REMARK SMILES IDX 17 12 10 13 11 14 12 15 9 16 8 18 3 19 4 20 5 21 7 22 6 23
REMARK SMILES IDX 2 24 1 25 24 26 25 27 26 28 27 29 28 30 29 31 30 32 31 33
REMARK SMILES IDX 92 34 32 35 91 36 33 37 34 38 35 39 85 40 36 41 90 42 84 43
REMARK SMILES IDX 86 44 37 45 89 46 83 47 82 48 38 50 70 51 50 52 69 53 51 54
REMARK SMILES IDX 54 55 68 56 87 57 52 58 53 59 67 61 88 62 55 63 39 64 40 65
REMARK SMILES IDX 48 66 41 67 42 68 46 69 49 70 43 71 44 72 47 73 45 74 71 75
REMARK SMILES IDX 72 76 80 77 73 78 74 79 78 80 81 81 75 82 76 83 79 84 77 85
REMARK SMILES IDX 56 86 57 87 65 88 58 89 59 90 63 91 66 92 60 93 61 94 64 95
REMARK SMILES IDX 62 96
REMARK H PARENT 9 17 86 49 54 60
REMARK Flexibility Score: inf
ROOT
ATOM      1  C   UNL     1      -4.431   2.682   0.572  1.00  0.00     0.202 C 
ENDROOT
BRANCH   1   2
ATOM      2  C   UNL     1      -4.264   1.685  -0.577  1.00  0.00     0.261 C 
BRANCH   2   3
ATOM      3  O   UNL     1      -3.516   0.521  -0.182  1.00  0.00    -0.460 OA
BRANCH   3   4
ATOM      4  C   UNL     1      -2.685   0.063  -1.147  1.00  0.00     0.339 C 
ATOM      5  O   UNL     1      -2.611   0.444  -2.303  1.00  0.00    -0.246 OA
BRANCH   4   6
ATOM      6  C   UNL     1      -1.754  -0.947  -0.622  1.00  0.00     0.075 A 
ATOM      7  C   UNL     1       0.584  -1.508  -0.315  1.00  0.00     0.088 A 
ATOM      8  C   UNL     1       0.235  -2.864  -0.274  1.00  0.00     0.023 A 
ATOM      9  C   UNL     1      -0.417  -0.549  -0.442  1.00  0.00     0.039 A 
ATOM     10  C   UNL     1      -1.107  -3.252  -0.363  1.00  0.00     0.018 A 
ATOM     11  C   UNL     1      -2.106  -2.295  -0.557  1.00  0.00     0.032 A 
ATOM     12  Br  UNL     1      -3.893  -2.890  -0.761  1.00  0.00    -0.050 Br
BRANCH   7  13
ATOM     13  S   UNL     1       2.321  -1.116  -0.294  1.00  0.00     0.262 S 
ATOM     14  O   UNL     1       2.995  -2.109  -1.101  1.00  0.00    -0.201 OA
ATOM     15  O   UNL     1       2.665  -0.929   1.102  1.00  0.00    -0.201 OA
BRANCH  13  16
ATOM     16  N   UNL     1       2.591   0.368  -0.991  1.00  0.00    -0.274 N 
ATOM     17  H   UNL     1       3.189   0.986  -0.511  1.00  0.00     0.180 HD
BRANCH  16  18
ATOM     18  C   UNL     1       2.038   0.828  -2.216  1.00  0.00     0.111 A 
ATOM     19  C   UNL     1       1.135   1.908  -2.249  1.00  0.00     0.238 A 
ATOM     20  N   UNL     1       0.540   2.340  -3.380  1.00  0.00    -0.220 NA
ATOM     21  C   UNL     1       0.882   1.728  -4.530  1.00  0.00     0.115 A 
ATOM     22  C   UNL     1       2.400   0.246  -3.428  1.00  0.00     0.034 A 
ATOM     23  C   UNL     1       1.816   0.708  -4.609  1.00  0.00     0.023 A 
BRANCH  19  24
ATOM     24  O   UNL     1       0.645   2.536  -1.133  1.00  0.00    -0.480 OA
ATOM     25  C   UNL     1       1.613   2.995  -0.203  1.00  0.00     0.280 C 
ENDBRANCH  19  24
ENDBRANCH  16  18
ENDBRANCH  13  16
ENDBRANCH   7  13
ENDBRANCH   4   6
ENDBRANCH   3   4
ENDBRANCH   2   3
ENDBRANCH   1   2
BRANCH   1  26
ATOM     26  O   UNL     1      -3.236   3.207   1.146  1.00  0.00    -0.374 OA
BRANCH  26  27
ATOM     27  C   UNL     1      -2.383   2.307   1.852  1.00  0.00     0.202 C 
BRANCH  27  28
ATOM     28  C   UNL     1      -2.902   1.765   3.191  1.00  0.00     0.261 C 
BRANCH  28  29
ATOM     29  O   UNL     1      -4.093   0.967   3.060  1.00  0.00    -0.460 OA
BRANCH  29  30
ATOM     30  C   UNL     1      -5.185   1.467   3.692  1.00  0.00     0.338 C 
ATOM     31  O   UNL     1      -5.248   2.466   4.388  1.00  0.00    -0.246 OA
BRANCH  30  32
ATOM     32  C   UNL     1      -6.392   0.717   3.296  1.00  0.00     0.060 A 
ATOM     33  C   UNL     1      -7.452   1.437   2.729  1.00  0.00     0.016 A 
ATOM     34  C   UNL     1      -6.526  -0.646   3.567  1.00  0.00     0.016 A 
ATOM     35  C   UNL     1      -8.665   0.803   2.464  1.00  0.00     0.010 A 
ATOM     36  C   UNL     1      -7.748  -1.277   3.312  1.00  0.00     0.010 A 
ATOM     37  C   UNL     1      -8.832  -0.549   2.788  1.00  0.00    -0.014 A 
BRANCH  37  38
ATOM     38  C   UNL     1     -10.178  -1.164   2.700  1.00  0.00     0.031 A 
ATOM     39  C   UNL     1     -11.021  -1.268   3.940  1.00  0.00     0.074 A 
ATOM     40  C   UNL     1     -10.655  -1.606   1.523  1.00  0.00     0.049 A 
ATOM     41  N   UNL     1     -12.211  -1.789   4.097  1.00  0.00    -0.248 NA
ATOM     42  C   UNL     1     -10.441  -0.709   5.171  1.00  0.00     0.031 C 
ATOM     43  C   UNL     1      -9.950  -1.528   0.246  1.00  0.00     0.029 A 
ATOM     44  N   UNL     1     -11.846  -2.215   1.217  1.00  0.00    -0.354 N 
ATOM     45  C   UNL     1     -12.521  -1.626   5.440  1.00  0.00     0.074 A 
ATOM     46  C   UNL     1     -11.383  -0.982   6.062  1.00  0.00     0.031 C 
ATOM     47  C   UNL     1     -10.720  -2.077  -0.709  1.00  0.00     0.029 A 
ATOM     48  C   UNL     1     -11.957  -2.570  -0.104  1.00  0.00     0.049 A 
ATOM     49  H   UNL     1     -12.554  -2.381   1.881  1.00  0.00     0.167 HD
ATOM     50  C   UNL     1     -13.655  -1.974   6.095  1.00  0.00     0.037 A 
ATOM     51  C   UNL     1     -12.938  -3.234  -0.746  1.00  0.00     0.037 A 
ATOM     52  C   UNL     1     -14.786  -2.615   5.477  1.00  0.00     0.049 A 
ATOM     53  C   UNL     1     -14.159  -3.674   0.018  1.00  0.00     0.074 A 
ATOM     54  C   UNL     1     -15.991  -2.982   6.050  1.00  0.00     0.029 A 
ATOM     55  N   UNL     1     -14.846  -2.994   4.144  1.00  0.00    -0.354 N 
ATOM     56  N   UNL     1     -14.458  -3.489   1.281  1.00  0.00    -0.248 NA
ATOM     57  C   UNL     1     -15.179  -4.417  -0.735  1.00  0.00     0.031 C 
ATOM     58  C   UNL     1     -16.761  -3.627   5.075  1.00  0.00     0.029 A 
ATOM     59  C   UNL     1     -16.055  -3.618   3.882  1.00  0.00     0.049 A 
ATOM     60  H   UNL     1     -14.134  -2.842   3.481  1.00  0.00     0.167 HD
ATOM     61  C   UNL     1     -15.707  -4.066   1.468  1.00  0.00     0.074 A 
ATOM     62  C   UNL     1     -16.116  -4.600   0.185  1.00  0.00     0.031 C 
ATOM     63  C   UNL     1     -16.450  -4.143   2.600  1.00  0.00     0.037 A 
BRANCH  50  64
ATOM     64  C   UNL     1     -13.714  -1.692   7.567  1.00  0.00     0.064 A 
ATOM     65  C   UNL     1     -13.844  -0.387   8.064  1.00  0.00     0.173 A 
ATOM     66  C   UNL     1     -13.662  -2.745   8.493  1.00  0.00     0.173 A 
ATOM     67  F   UNL     1     -13.885   0.655   7.220  1.00  0.00    -0.203 F 
ATOM     68  C   UNL     1     -13.889  -0.143   9.434  1.00  0.00     0.198 A 
ATOM     69  C   UNL     1     -13.734  -2.500   9.862  1.00  0.00     0.198 A 
ATOM     70  F   UNL     1     -13.543  -4.013   8.070  1.00  0.00    -0.203 F 
ATOM     71  F   UNL     1     -13.964   1.116   9.888  1.00  0.00    -0.200 F 
ATOM     72  C   UNL     1     -13.840  -1.200  10.331  1.00  0.00     0.200 A 
ATOM     73  F   UNL     1     -13.697  -3.523  10.727  1.00  0.00    -0.200 F 
ATOM     74  F   UNL     1     -13.885  -0.964  11.650  1.00  0.00    -0.200 F 
ENDBRANCH  50  64
BRANCH  51  75
ATOM     75  C   UNL     1     -12.803  -3.527  -2.195  1.00  0.00     0.064 A 
ATOM     76  C   UNL     1     -13.610  -2.880  -3.140  1.00  0.00     0.173 A 
ATOM     77  C   UNL     1     -11.869  -4.463  -2.664  1.00  0.00     0.173 A 
ATOM     78  F   UNL     1     -14.537  -1.998  -2.737  1.00  0.00    -0.203 F 
ATOM     79  C   UNL     1     -13.496  -3.165  -4.499  1.00  0.00     0.198 A 
ATOM     80  C   UNL     1     -11.738  -4.729  -4.025  1.00  0.00     0.198 A 
ATOM     81  F   UNL     1     -11.078  -5.113  -1.798  1.00  0.00    -0.203 F 
ATOM     82  F   UNL     1     -14.306  -2.561  -5.379  1.00  0.00    -0.200 F 
ATOM     83  C   UNL     1     -12.555  -4.084  -4.941  1.00  0.00     0.200 A 
ATOM     84  F   UNL     1     -10.823  -5.612  -4.448  1.00  0.00    -0.200 F 
ATOM     85  F   UNL     1     -12.443  -4.355  -6.248  1.00  0.00    -0.200 F 
ENDBRANCH  51  75
BRANCH  63  86
ATOM     86  C   UNL     1     -17.794  -4.803   2.499  1.00  0.00     0.064 A 
ATOM     87  C   UNL     1     -17.923  -6.193   2.357  1.00  0.00     0.173 A 
ATOM     88  C   UNL     1     -18.969  -4.040   2.587  1.00  0.00     0.173 A 
ATOM     89  F   UNL     1     -16.831  -6.964   2.253  1.00  0.00    -0.203 F 
ATOM     90  C   UNL     1     -19.178  -6.791   2.287  1.00  0.00     0.198 A 
ATOM     91  C   UNL     1     -20.222  -4.645   2.544  1.00  0.00     0.198 A 
ATOM     92  F   UNL     1     -18.900  -2.708   2.730  1.00  0.00    -0.203 F 
ATOM     93  F   UNL     1     -19.278  -8.116   2.108  1.00  0.00    -0.200 F 
ATOM     94  C   UNL     1     -20.326  -6.019   2.387  1.00  0.00     0.200 A 
ATOM     95  F   UNL     1     -21.329  -3.898   2.653  1.00  0.00    -0.200 F 
ATOM     96  F   UNL     1     -21.533  -6.598   2.325  1.00  0.00    -0.200 F 
ENDBRANCH  63  86
ENDBRANCH  37  38
ENDBRANCH  30  32
ENDBRANCH  29  30
ENDBRANCH  28  29
ENDBRANCH  27  28
ENDBRANCH  26  27
ENDBRANCH   1  26
TORSDOF 18
