REMARK SMILES CC(C)(C)OC(=O)N[C@@H](CC(=O)OCCOCCOC(=O)c1ccc(-c2c3nc(c(-c4c(F)c(F)c(F)c(F)c4F)c4ccc([nH]4)c(-c4c(F)c(F)c(F)c(F)c4F)c4nc(c(-c5c(F)c(F)c(F)c(F)c5F)c5ccc2[nH]5)C=C4)C=C3)cc1)c1cccnc1
REMARK SMILES IDX 15 1 14 2 13 3 11 4 12 5 10 6 9 7 8 8 6 9 7 10 5 12 2 13
REMARK SMILES IDX 1 14 3 15 4 16 85 17 86 18 90 19 87 20 89 21 88 22 16 23
REMARK SMILES IDX 17 24 18 25 19 26 20 27 21 28 22 29 23 30 84 31 24 32 83 33
REMARK SMILES IDX 25 34 26 35 27 36 77 37 28 38 82 39 76 40 78 41 29 42 81 43
REMARK SMILES IDX 75 44 74 45 30 47 62 48 42 49 61 50 43 51 46 52 60 53 79 54
REMARK SMILES IDX 44 55 45 56 59 58 80 59 47 60 31 61 32 62 40 63 33 64 34 65
REMARK SMILES IDX 38 66 41 67 35 68 36 69 39 70 37 71 63 72 64 73 72 74 65 75
REMARK SMILES IDX 66 76 70 77 73 78 67 79 68 80 71 81 69 82 48 83 49 84 57 85
REMARK SMILES IDX 50 86 51 87 55 88 58 89 52 90 53 91 56 92 54 93
REMARK H PARENT 8 11 78 46 46 57
REMARK Flexibility Score: inf
ROOT
ATOM      1  C   UNL     1       2.209  -7.072   6.225  1.00  0.00     0.202 C 
ENDROOT
BRANCH   1   2
ATOM      2  C   UNL     1       3.204  -5.937   5.952  1.00  0.00     0.261 C 
BRANCH   2   3
ATOM      3  O   UNL     1       2.926  -5.222   4.726  1.00  0.00    -0.463 OA
BRANCH   3   4
ATOM      4  C   UNL     1       3.892  -5.277   3.769  1.00  0.00     0.308 C 
ATOM      5  O   UNL     1       4.912  -5.953   3.842  1.00  0.00    -0.252 OA
BRANCH   4   6
ATOM      6  C   UNL     1       3.643  -4.335   2.616  1.00  0.00     0.152 C 
BRANCH   6   7
ATOM      7  C   UNL     1       2.251  -4.330   1.971  1.00  0.00     0.128 C 
BRANCH   7   8
ATOM      8  N   UNL     1       1.262  -3.804   2.907  1.00  0.00    -0.314 N 
ATOM      9  C   UNL     1       0.661  -2.584   2.846  1.00  0.00     0.408 C 
ATOM     10  O   UNL     1      -0.110  -2.211   3.723  1.00  0.00    -0.225 OA
ATOM     11  H   UNL     1       1.004  -4.389   3.655  1.00  0.00     0.167 HD
BRANCH   9  12
ATOM     12  O   UNL     1       1.008  -1.891   1.741  1.00  0.00    -0.444 OA
BRANCH  12  13
ATOM     13  C   UNL     1       0.495  -0.560   1.481  1.00  0.00     0.106 C 
ATOM     14  C   UNL     1       1.076  -0.182   0.110  1.00  0.00     0.056 C 
ATOM     15  C   UNL     1       1.015   0.430   2.528  1.00  0.00     0.056 C 
ATOM     16  C   UNL     1      -1.033  -0.548   1.383  1.00  0.00     0.056 C 
ENDBRANCH  12  13
ENDBRANCH   9  12
ENDBRANCH   7   8
BRANCH   7  17
ATOM     17  C   UNL     1       1.747  -5.583   1.279  1.00  0.00    -0.007 A 
ATOM     18  C   UNL     1       2.541  -6.695   0.978  1.00  0.00     0.009 A 
ATOM     19  C   UNL     1       0.432  -5.622   0.802  1.00  0.00     0.116 A 
ATOM     20  C   UNL     1       1.996  -7.782   0.290  1.00  0.00     0.020 A 
ATOM     21  N   UNL     1      -0.122  -6.660   0.134  1.00  0.00    -0.264 NA
ATOM     22  C   UNL     1       0.672  -7.721  -0.106  1.00  0.00     0.111 A 
ENDBRANCH   7  17
ENDBRANCH   6   7
ENDBRANCH   4   6
ENDBRANCH   3   4
ENDBRANCH   2   3
ENDBRANCH   1   2
BRANCH   1  23
ATOM     23  O   UNL     1       2.359  -8.246   5.426  1.00  0.00    -0.374 OA
BRANCH  23  24
ATOM     24  C   UNL     1       1.972  -8.144   4.058  1.00  0.00     0.202 C 
BRANCH  24  25
ATOM     25  C   UNL     1       0.474  -8.285   3.781  1.00  0.00     0.261 C 
BRANCH  25  26
ATOM     26  O   UNL     1      -0.289  -7.310   4.504  1.00  0.00    -0.460 OA
BRANCH  26  27
ATOM     27  C   UNL     1      -1.194  -7.853   5.350  1.00  0.00     0.338 C 
ATOM     28  O   UNL     1      -1.517  -9.025   5.447  1.00  0.00    -0.246 OA
BRANCH  27  29
ATOM     29  C   UNL     1      -1.652  -6.842   6.312  1.00  0.00     0.060 A 
ATOM     30  C   UNL     1      -1.515  -7.165   7.666  1.00  0.00     0.016 A 
ATOM     31  C   UNL     1      -2.290  -5.665   5.912  1.00  0.00     0.016 A 
ATOM     32  C   UNL     1      -2.092  -6.349   8.629  1.00  0.00     0.010 A 
ATOM     33  C   UNL     1      -2.870  -4.844   6.884  1.00  0.00     0.010 A 
ATOM     34  C   UNL     1      -2.814  -5.212   8.239  1.00  0.00    -0.014 A 
BRANCH  34  35
ATOM     35  C   UNL     1      -3.623  -4.519   9.267  1.00  0.00     0.031 A 
ATOM     36  C   UNL     1      -5.082  -4.852   9.394  1.00  0.00     0.074 A 
ATOM     37  C   UNL     1      -3.028  -3.687  10.138  1.00  0.00     0.049 A 
ATOM     38  N   UNL     1      -5.946  -4.469  10.299  1.00  0.00    -0.248 NA
ATOM     39  C   UNL     1      -5.645  -5.744   8.367  1.00  0.00     0.031 C 
ATOM     40  C   UNL     1      -1.615  -3.314  10.112  1.00  0.00     0.029 A 
ATOM     41  N   UNL     1      -3.534  -3.021  11.224  1.00  0.00    -0.354 N 
ATOM     42  C   UNL     1      -7.147  -5.076   9.956  1.00  0.00     0.074 A 
ATOM     43  C   UNL     1      -6.913  -5.825   8.741  1.00  0.00     0.031 C 
ATOM     44  C   UNL     1      -1.363  -2.492  11.144  1.00  0.00     0.029 A 
ATOM     45  C   UNL     1      -2.599  -2.271  11.891  1.00  0.00     0.049 A 
ATOM     46  H   UNL     1      -4.478  -3.076  11.499  1.00  0.00     0.167 HD
ATOM     47  C   UNL     1      -8.333  -5.023  10.608  1.00  0.00     0.037 A 
ATOM     48  C   UNL     1      -2.732  -1.496  12.984  1.00  0.00     0.037 A 
ATOM     49  C   UNL     1      -8.553  -4.273  11.816  1.00  0.00     0.049 A 
ATOM     50  C   UNL     1      -4.069  -1.430  13.671  1.00  0.00     0.074 A 
ATOM     51  C   UNL     1      -9.709  -4.163  12.568  1.00  0.00     0.029 A 
ATOM     52  N   UNL     1      -7.591  -3.495  12.444  1.00  0.00    -0.354 N 
ATOM     53  N   UNL     1      -5.188  -2.044  13.366  1.00  0.00    -0.248 NA
ATOM     54  C   UNL     1      -4.159  -0.576  14.862  1.00  0.00     0.031 C 
ATOM     55  C   UNL     1      -9.459  -3.282  13.626  1.00  0.00     0.029 A 
ATOM     56  C   UNL     1      -8.133  -2.882  13.562  1.00  0.00     0.049 A 
ATOM     57  H   UNL     1      -6.660  -3.395  12.141  1.00  0.00     0.167 HD
ATOM     58  C   UNL     1      -6.108  -1.665  14.333  1.00  0.00     0.074 A 
ATOM     59  C   UNL     1      -5.409  -0.787  15.250  1.00  0.00     0.031 C 
ATOM     60  C   UNL     1      -7.415  -2.007  14.454  1.00  0.00     0.037 A 
BRANCH  47  61
ATOM     61  C   UNL     1      -9.486  -5.779  10.013  1.00  0.00     0.064 A 
ATOM     62  C   UNL     1      -9.547  -7.180  10.050  1.00  0.00     0.173 A 
ATOM     63  C   UNL     1     -10.557  -5.091   9.425  1.00  0.00     0.173 A 
ATOM     64  F   UNL     1      -8.541  -7.886  10.588  1.00  0.00    -0.203 F 
ATOM     65  C   UNL     1     -10.628  -7.865   9.498  1.00  0.00     0.198 A 
ATOM     66  C   UNL     1     -11.648  -5.777   8.898  1.00  0.00     0.198 A 
ATOM     67  F   UNL     1     -10.550  -3.751   9.366  1.00  0.00    -0.203 F 
ATOM     68  F   UNL     1     -10.646  -9.205   9.508  1.00  0.00    -0.200 F 
ATOM     69  C   UNL     1     -11.680  -7.163   8.929  1.00  0.00     0.200 A 
ATOM     70  F   UNL     1     -12.669  -5.098   8.357  1.00  0.00    -0.200 F 
ATOM     71  F   UNL     1     -12.722  -7.823   8.405  1.00  0.00    -0.200 F 
ENDBRANCH  47  61
BRANCH  48  72
ATOM     72  C   UNL     1      -1.564  -0.734  13.496  1.00  0.00     0.064 A 
ATOM     73  C   UNL     1      -0.958  -1.060  14.717  1.00  0.00     0.173 A 
ATOM     74  C   UNL     1      -1.028   0.340  12.769  1.00  0.00     0.173 A 
ATOM     75  F   UNL     1      -1.446  -2.065  15.459  1.00  0.00    -0.203 F 
ATOM     76  C   UNL     1       0.128  -0.331  15.199  1.00  0.00     0.198 A 
ATOM     77  C   UNL     1       0.074   1.050  13.238  1.00  0.00     0.198 A 
ATOM     78  F   UNL     1      -1.570   0.692  11.594  1.00  0.00    -0.203 F 
ATOM     79  F   UNL     1       0.662  -0.638  16.389  1.00  0.00    -0.200 F 
ATOM     80  C   UNL     1       0.647   0.719  14.456  1.00  0.00     0.200 A 
ATOM     81  F   UNL     1       0.581   2.055  12.511  1.00  0.00    -0.200 F 
ATOM     82  F   UNL     1       1.695   1.415  14.918  1.00  0.00    -0.200 F 
ENDBRANCH  48  72
BRANCH  60  83
ATOM     83  C   UNL     1      -8.162  -1.440  15.625  1.00  0.00     0.064 A 
ATOM     84  C   UNL     1      -8.514  -0.083  15.681  1.00  0.00     0.173 A 
ATOM     85  C   UNL     1      -8.549  -2.266  16.691  1.00  0.00     0.173 A 
ATOM     86  F   UNL     1      -8.153   0.750  14.693  1.00  0.00    -0.203 F 
ATOM     87  C   UNL     1      -9.198   0.432  16.779  1.00  0.00     0.198 A 
ATOM     88  C   UNL     1      -9.259  -1.753  17.772  1.00  0.00     0.198 A 
ATOM     89  F   UNL     1      -8.243  -3.572  16.680  1.00  0.00    -0.203 F 
ATOM     90  F   UNL     1      -9.477   1.742  16.837  1.00  0.00    -0.200 F 
ATOM     91  C   UNL     1      -9.575  -0.403  17.819  1.00  0.00     0.200 A 
ATOM     92  F   UNL     1      -9.634  -2.564  18.771  1.00  0.00    -0.200 F 
ATOM     93  F   UNL     1     -10.234   0.095  18.874  1.00  0.00    -0.200 F 
ENDBRANCH  60  83
ENDBRANCH  34  35
ENDBRANCH  27  29
ENDBRANCH  26  27
ENDBRANCH  25  26
ENDBRANCH  24  25
ENDBRANCH  23  24
ENDBRANCH   1  23
TORSDOF 19
