REMARK SMILES Cc1cc(C(=O)N2CCC[C@@H]2C(C)C)sc1/C=C/C(=O)OCCOCCOC(=O)c1ccc(-c2c3nc(c(-c4c(F)c(F)c(F)c(F)c4F)c4ccc([nH]4)c(-c4c(F)c(F)c(F)c(F)c4F)c4nc(c(-c5c(F)c(F)c(F)c(F)c5F)c5ccc2[nH]5)C=C4)C=C3)cc1
REMARK SMILES IDX 23 1 22 2 21 3 19 4 20 5 18 6 17 7 16 8 1 9 2 10 3 11 4 12
REMARK SMILES IDX 15 13 5 14 6 15 7 16 8 17 11 18 9 19 10 20 12 21 13 22 14 23
REMARK SMILES IDX 24 24 25 25 26 26 27 27 28 28 29 29 30 30 31 31 92 32 32 33
REMARK SMILES IDX 91 34 33 35 34 36 35 37 85 38 36 39 90 40 84 41 86 42 37 43
REMARK SMILES IDX 89 44 83 45 82 46 38 48 70 49 50 50 69 51 51 52 54 53 68 54
REMARK SMILES IDX 87 55 52 56 53 57 67 59 88 60 55 61 39 62 40 63 48 64 41 65
REMARK SMILES IDX 42 66 46 67 49 68 43 69 44 70 47 71 45 72 71 73 72 74 80 75
REMARK SMILES IDX 73 76 74 77 78 78 81 79 75 80 76 81 79 82 77 83 56 84 57 85
REMARK SMILES IDX 65 86 58 87 59 88 63 89 66 90 60 91 61 92 64 93 62 94
REMARK H PARENT 86 47 54 58
REMARK Flexibility Score: inf
ROOT
ATOM      1  C   UNL     1       0.548  -7.303   0.458  1.00  0.00     0.202 C 
ENDROOT
BRANCH   1   2
ATOM      2  C   UNL     1       0.705  -6.673  -0.927  1.00  0.00     0.261 C 
BRANCH   2   3
ATOM      3  O   UNL     1       0.691  -5.238  -0.846  1.00  0.00    -0.460 OA
BRANCH   3   4
ATOM      4  C   UNL     1      -0.360  -4.642  -1.455  1.00  0.00     0.330 C 
ATOM      5  O   UNL     1      -1.214  -5.191  -2.136  1.00  0.00    -0.247 OA
BRANCH   4   6
ATOM      6  C   UNL     1      -0.449  -3.203  -1.146  1.00  0.00     0.095 C 
ATOM      7  C   UNL     1       0.466  -2.458  -0.501  1.00  0.00     0.027 C 
BRANCH   7   8
ATOM      8  C   UNL     1       0.261  -1.063  -0.221  1.00  0.00     0.031 A 
ATOM      9  C   UNL     1       2.684  -0.228   0.090  1.00  0.00     0.046 C 
ATOM     10  C   UNL     1       1.196  -0.067   0.059  1.00  0.00    -0.032 A 
ATOM     11  C   UNL     1       0.567   1.215   0.263  1.00  0.00     0.029 A 
ATOM     12  C   UNL     1      -0.806   1.187   0.125  1.00  0.00     0.093 A 
ATOM     13  S   UNL     1      -1.329  -0.402  -0.178  1.00  0.00    -0.130 S 
BRANCH  12  14
ATOM     14  C   UNL     1      -1.716   2.336   0.101  1.00  0.00     0.264 C 
ATOM     15  O   UNL     1      -1.311   3.498   0.129  1.00  0.00    -0.268 OA
BRANCH  14  16
ATOM     16  N   UNL     1      -3.060   2.057  -0.101  1.00  0.00    -0.335 N 
ATOM     17  C   UNL     1      -3.857   1.481   0.964  1.00  0.00     0.120 C 
ATOM     18  C   UNL     1      -3.909   2.809  -1.035  1.00  0.00     0.088 C 
ATOM     19  C   UNL     1      -5.154   1.148   0.271  1.00  0.00     0.024 C 
ATOM     20  C   UNL     1      -5.340   2.330  -0.678  1.00  0.00     0.027 C 
BRANCH  18  21
ATOM     21  C   UNL     1      -3.530   2.593  -2.532  1.00  0.00     0.005 C 
ATOM     22  C   UNL     1      -4.571   3.188  -3.492  1.00  0.00     0.009 C 
ATOM     23  C   UNL     1      -2.174   3.220  -2.890  1.00  0.00     0.009 C 
ENDBRANCH  18  21
ENDBRANCH  14  16
ENDBRANCH  12  14
ENDBRANCH   7   8
ENDBRANCH   4   6
ENDBRANCH   3   4
ENDBRANCH   2   3
ENDBRANCH   1   2
BRANCH   1  24
ATOM     24  O   UNL     1      -0.710  -7.077   1.093  1.00  0.00    -0.374 OA
BRANCH  24  25
ATOM     25  C   UNL     1      -0.864  -5.841   1.794  1.00  0.00     0.202 C 
BRANCH  25  26
ATOM     26  C   UNL     1      -0.255  -5.803   3.201  1.00  0.00     0.261 C 
BRANCH  26  27
ATOM     27  O   UNL     1       1.185  -5.831   3.159  1.00  0.00    -0.460 OA
BRANCH  27  28
ATOM     28  C   UNL     1       1.750  -6.970   3.618  1.00  0.00     0.338 C 
ATOM     29  O   UNL     1       1.187  -7.922   4.142  1.00  0.00    -0.246 OA
BRANCH  28  30
ATOM     30  C   UNL     1       3.177  -7.010   3.245  1.00  0.00     0.060 A 
ATOM     31  C   UNL     1       3.649  -8.166   2.611  1.00  0.00     0.016 A 
ATOM     32  C   UNL     1       4.053  -5.969   3.564  1.00  0.00     0.016 A 
ATOM     33  C   UNL     1       5.008  -8.307   2.335  1.00  0.00     0.010 A 
ATOM     34  C   UNL     1       5.418  -6.115   3.293  1.00  0.00     0.010 A 
ATOM     35  C   UNL     1       5.906  -7.298   2.708  1.00  0.00    -0.014 A 
BRANCH  35  36
ATOM     36  C   UNL     1       7.365  -7.543   2.611  1.00  0.00     0.031 A 
ATOM     37  C   UNL     1       8.122  -7.949   3.845  1.00  0.00     0.074 A 
ATOM     38  C   UNL     1       8.005  -7.429   1.434  1.00  0.00     0.049 A 
ATOM     39  N   UNL     1       9.401  -8.181   3.998  1.00  0.00    -0.248 NA
ATOM     40  C   UNL     1       7.329  -8.115   5.073  1.00  0.00     0.031 C 
ATOM     41  C   UNL     1       7.377  -7.077   0.163  1.00  0.00     0.029 A 
ATOM     42  N   UNL     1       9.332  -7.592   1.122  1.00  0.00    -0.354 N 
ATOM     43  C   UNL     1       9.566  -8.516   5.335  1.00  0.00     0.074 A 
ATOM     44  C   UNL     1       8.263  -8.427   5.959  1.00  0.00     0.031 C 
ATOM     45  C   UNL     1       8.322  -7.040  -0.793  1.00  0.00     0.029 A 
ATOM     46  C   UNL     1       9.623  -7.335  -0.195  1.00  0.00     0.049 A 
ATOM     47  H   UNL     1      10.011  -7.867   1.780  1.00  0.00     0.167 HD
ATOM     48  C   UNL     1      10.701  -8.875   5.982  1.00  0.00     0.037 A 
ATOM     49  C   UNL     1      10.807  -7.321  -0.837  1.00  0.00     0.037 A 
ATOM     50  C   UNL     1      11.996  -8.965   5.362  1.00  0.00     0.049 A 
ATOM     51  C   UNL     1      12.065  -7.659  -0.079  1.00  0.00     0.074 A 
ATOM     52  C   UNL     1      13.202  -9.339   5.930  1.00  0.00     0.029 A 
ATOM     53  N   UNL     1      12.255  -8.670   4.032  1.00  0.00    -0.354 N 
ATOM     54  N   UNL     1      12.208  -8.000   1.179  1.00  0.00    -0.248 NA
ATOM     55  C   UNL     1      13.326  -7.612  -0.833  1.00  0.00     0.031 C 
ATOM     56  C   UNL     1      14.199  -9.224   4.955  1.00  0.00     0.029 A 
ATOM     57  C   UNL     1      13.606  -8.829   3.767  1.00  0.00     0.049 A 
ATOM     58  H   UNL     1      11.579  -8.389   3.373  1.00  0.00     0.167 HD
ATOM     59  C   UNL     1      13.565  -8.236   1.359  1.00  0.00     0.074 A 
ATOM     60  C   UNL     1      14.202  -8.010   0.079  1.00  0.00     0.031 C 
ATOM     61  C   UNL     1      14.225  -8.607   2.484  1.00  0.00     0.037 A 
BRANCH  48  62
ATOM     62  C   UNL     1      10.594  -9.178   7.448  1.00  0.00     0.064 A 
ATOM     63  C   UNL     1       9.973 -10.345   7.916  1.00  0.00     0.173 A 
ATOM     64  C   UNL     1      11.151  -8.305   8.396  1.00  0.00     0.173 A 
ATOM     65  F   UNL     1       9.413 -11.205   7.051  1.00  0.00    -0.203 F 
ATOM     66  C   UNL     1       9.891 -10.616   9.280  1.00  0.00     0.198 A 
ATOM     67  C   UNL     1      11.091  -8.592   9.756  1.00  0.00     0.198 A 
ATOM     68  F   UNL     1      11.759  -7.177   8.000  1.00  0.00    -0.203 F 
ATOM     69  F   UNL     1       9.254 -11.715   9.706  1.00  0.00    -0.200 F 
ATOM     70  C   UNL     1      10.456  -9.743  10.198  1.00  0.00     0.200 A 
ATOM     71  F   UNL     1      11.647  -7.753  10.642  1.00  0.00    -0.200 F 
ATOM     72  F   UNL     1      10.382 -10.008  11.509  1.00  0.00    -0.200 F 
ENDBRANCH  48  62
BRANCH  49  73
ATOM     73  C   UNL     1      10.864  -6.963  -2.278  1.00  0.00     0.064 A 
ATOM     74  C   UNL     1      11.196  -7.917  -3.248  1.00  0.00     0.173 A 
ATOM     75  C   UNL     1      10.605  -5.654  -2.711  1.00  0.00     0.173 A 
ATOM     76  F   UNL     1      11.478  -9.176  -2.881  1.00  0.00    -0.203 F 
ATOM     77  C   UNL     1      11.282  -7.573  -4.596  1.00  0.00     0.198 A 
ATOM     78  C   UNL     1      10.665  -5.317  -4.061  1.00  0.00     0.198 A 
ATOM     79  F   UNL     1      10.285  -4.703  -1.821  1.00  0.00    -0.203 F 
ATOM     80  F   UNL     1      11.646  -8.494  -5.498  1.00  0.00    -0.200 F 
ATOM     81  C   UNL     1      11.011  -6.275  -5.002  1.00  0.00     0.200 A 
ATOM     82  F   UNL     1      10.391  -4.064  -4.449  1.00  0.00    -0.200 F 
ATOM     83  F   UNL     1      11.091  -5.945  -6.298  1.00  0.00    -0.200 F 
ENDBRANCH  49  73
BRANCH  61  84
ATOM     84  C   UNL     1      15.706  -8.829   2.376  1.00  0.00     0.064 A 
ATOM     85  C   UNL     1      16.602  -7.760   2.234  1.00  0.00     0.173 A 
ATOM     86  C   UNL     1      16.237 -10.126   2.460  1.00  0.00     0.173 A 
ATOM     87  F   UNL     1      16.143  -6.503   2.134  1.00  0.00    -0.203 F 
ATOM     88  C   UNL     1      17.975  -7.983   2.155  1.00  0.00     0.198 A 
ATOM     89  C   UNL     1      17.611 -10.342   2.411  1.00  0.00     0.198 A 
ATOM     90  F   UNL     1      15.423 -11.182   2.604  1.00  0.00    -0.203 F 
ATOM     91  F   UNL     1      18.810  -6.951   1.974  1.00  0.00    -0.200 F 
ATOM     92  C   UNL     1      18.478  -9.272   2.252  1.00  0.00     0.200 A 
ATOM     93  F   UNL     1      18.096 -11.587   2.517  1.00  0.00    -0.200 F 
ATOM     94  F   UNL     1      19.800  -9.483   2.184  1.00  0.00    -0.200 F 
ENDBRANCH  61  84
ENDBRANCH  35  36
ENDBRANCH  28  30
ENDBRANCH  27  28
ENDBRANCH  26  27
ENDBRANCH  25  26
ENDBRANCH  24  25
ENDBRANCH   1  24
TORSDOF 18
