REMARK SMILES C[C@H]1CCC[C@]1(C(=O)OCCOCCOC(=O)c1ccc(-c2c3nc(c(-c4c(F)c(F)c(F)c(F)c4F)c4ccc([nH]4)c(-c4c(F)c(F)c(F)c(F)c4F)c4nc(c(-c5c(F)c(F)c(F)c(F)c5F)c5ccc2[nH]5)C=C4)C=C3)cc1)c1ccc2c(c1)OCO2
REMARK SMILES IDX 13 1 12 2 11 3 10 4 9 5 7 6 8 7 6 8 1 9 2 10 3 11 4 12 5 13
REMARK SMILES IDX 81 14 82 15 86 16 83 17 85 18 84 19 87 20 89 21 88 22 14 23
REMARK SMILES IDX 15 24 16 25 17 26 18 27 19 28 80 29 20 30 79 31 21 32 22 33
REMARK SMILES IDX 23 34 73 35 24 36 78 37 72 38 74 39 25 40 77 41 71 42 70 43
REMARK SMILES IDX 26 45 58 46 38 47 57 48 39 49 42 50 56 51 75 52 40 53 41 54
REMARK SMILES IDX 55 56 76 57 43 58 27 59 28 60 36 61 29 62 30 63 34 64 37 65
REMARK SMILES IDX 31 66 32 67 35 68 33 69 59 70 60 71 68 72 61 73 62 74 66 75
REMARK SMILES IDX 69 76 63 77 64 78 67 79 65 80 44 81 45 82 53 83 46 84 47 85
REMARK SMILES IDX 51 86 54 87 48 88 49 89 52 90 50 91
REMARK H PARENT 74 44 42 55
REMARK Flexibility Score: inf
ROOT
ATOM      1  C   UNL     1       1.142   2.048   3.972  1.00  0.00     0.202 C 
ENDROOT
BRANCH   1   2
ATOM      2  O   UNL     1      -0.034   2.501   4.642  1.00  0.00    -0.374 OA
BRANCH   2   3
ATOM      3  C   UNL     1      -1.062   1.547   4.880  1.00  0.00     0.202 C 
BRANCH   3   4
ATOM      4  C   UNL     1      -1.931   1.125   3.690  1.00  0.00     0.261 C 
BRANCH   4   5
ATOM      5  O   UNL     1      -1.193   0.744   2.514  1.00  0.00    -0.463 OA
BRANCH   5   6
ATOM      6  C   UNL     1      -1.277   1.627   1.482  1.00  0.00     0.316 C 
ATOM      7  O   UNL     1      -1.905   2.682   1.550  1.00  0.00    -0.251 OA
BRANCH   6   8
ATOM      8  C   UNL     1      -0.606   1.149   0.168  1.00  0.00     0.096 C 
ATOM      9  C   UNL     1       1.572  -0.030   1.121  1.00  0.00     0.009 C 
ATOM     10  C   UNL     1       0.382  -0.058   0.178  1.00  0.00     0.008 C 
ATOM     11  C   UNL     1      -0.491  -1.290   0.351  1.00  0.00     0.005 C 
ATOM     12  C   UNL     1      -1.714  -0.985  -0.500  1.00  0.00     0.002 C 
ATOM     13  C   UNL     1      -1.807   0.545  -0.629  1.00  0.00     0.024 C 
BRANCH   8  14
ATOM     14  C   UNL     1       0.133   2.320  -0.532  1.00  0.00    -0.027 A 
ATOM     15  C   UNL     1       0.705   3.378   0.230  1.00  0.00     0.009 A 
ATOM     16  C   UNL     1       0.415   2.276  -1.912  1.00  0.00     0.055 A 
ATOM     17  C   UNL     1       1.551   4.335  -0.344  1.00  0.00     0.051 A 
ATOM     18  C   UNL     1       1.277   3.214  -2.444  1.00  0.00     0.166 A 
ATOM     19  C   UNL     1       1.837   4.208  -1.680  1.00  0.00     0.165 A 
ATOM     20  O   UNL     1       1.721   3.238  -3.730  1.00  0.00    -0.454 OA
ATOM     21  O   UNL     1       2.705   4.979  -2.387  1.00  0.00    -0.454 OA
ATOM     22  C   UNL     1       2.732   4.263  -3.638  1.00  0.00     0.468 C 
ENDBRANCH   8  14
ENDBRANCH   6   8
ENDBRANCH   5   6
ENDBRANCH   4   5
ENDBRANCH   3   4
ENDBRANCH   2   3
ENDBRANCH   1   2
BRANCH   1  23
ATOM     23  C   UNL     1       2.001   1.010   4.705  1.00  0.00     0.261 C 
BRANCH  23  24
ATOM     24  O   UNL     1       1.353  -0.279   4.747  1.00  0.00    -0.460 OA
BRANCH  24  25
ATOM     25  C   UNL     1       1.266  -0.824   5.982  1.00  0.00     0.338 C 
ATOM     26  O   UNL     1       1.767  -0.408   7.012  1.00  0.00    -0.246 OA
BRANCH  25  27
ATOM     27  C   UNL     1       0.299  -1.938   5.986  1.00  0.00     0.060 A 
ATOM     28  C   UNL     1      -0.761  -1.856   6.896  1.00  0.00     0.016 A 
ATOM     29  C   UNL     1       0.504  -3.098   5.235  1.00  0.00     0.016 A 
ATOM     30  C   UNL     1      -1.565  -2.967   7.132  1.00  0.00     0.010 A 
ATOM     31  C   UNL     1      -0.302  -4.218   5.477  1.00  0.00     0.010 A 
ATOM     32  C   UNL     1      -1.297  -4.173   6.472  1.00  0.00    -0.014 A 
BRANCH  32  33
ATOM     33  C   UNL     1      -1.903  -5.418   7.008  1.00  0.00     0.031 A 
ATOM     34  C   UNL     1      -1.089  -6.264   7.954  1.00  0.00     0.074 A 
ATOM     35  C   UNL     1      -3.180  -5.742   6.743  1.00  0.00     0.049 A 
ATOM     36  N   UNL     1      -1.421  -7.358   8.591  1.00  0.00    -0.248 NA
ATOM     37  C   UNL     1       0.285  -5.809   8.221  1.00  0.00     0.031 C 
ATOM     38  C   UNL     1      -4.082  -4.979   5.884  1.00  0.00     0.029 A 
ATOM     39  N   UNL     1      -3.941  -6.795   7.184  1.00  0.00    -0.354 N 
ATOM     40  C   UNL     1      -0.301  -7.721   9.329  1.00  0.00     0.074 A 
ATOM     41  C   UNL     1       0.733  -6.753   9.035  1.00  0.00     0.031 C 
ATOM     42  C   UNL     1      -5.280  -5.590   5.863  1.00  0.00     0.029 A 
ATOM     43  C   UNL     1      -5.221  -6.795   6.689  1.00  0.00     0.049 A 
ATOM     44  H   UNL     1      -3.601  -7.486   7.798  1.00  0.00     0.167 HD
ATOM     45  C   UNL     1      -0.149  -8.758  10.186  1.00  0.00     0.037 A 
ATOM     46  C   UNL     1      -6.226  -7.671   6.881  1.00  0.00     0.037 A 
ATOM     47  C   UNL     1      -1.178  -9.718  10.486  1.00  0.00     0.049 A 
ATOM     48  C   UNL     1      -6.018  -8.845   7.803  1.00  0.00     0.074 A 
ATOM     49  C   UNL     1      -1.123 -10.808  11.335  1.00  0.00     0.029 A 
ATOM     50  N   UNL     1      -2.454  -9.698   9.941  1.00  0.00    -0.354 N 
ATOM     51  N   UNL     1      -4.959  -9.172   8.504  1.00  0.00    -0.248 NA
ATOM     52  C   UNL     1      -7.153  -9.764   7.970  1.00  0.00     0.031 C 
ATOM     53  C   UNL     1      -2.354 -11.472  11.275  1.00  0.00     0.029 A 
ATOM     54  C   UNL     1      -3.191 -10.766  10.426  1.00  0.00     0.049 A 
ATOM     55  H   UNL     1      -2.786  -9.025   9.303  1.00  0.00     0.167 HD
ATOM     56  C   UNL     1      -5.309 -10.311   9.218  1.00  0.00     0.074 A 
ATOM     57  C   UNL     1      -6.683 -10.613   8.873  1.00  0.00     0.031 C 
ATOM     58  C   UNL     1      -4.563 -11.040  10.084  1.00  0.00     0.037 A 
BRANCH  45  59
ATOM     59  C   UNL     1       1.191  -8.921  10.842  1.00  0.00     0.064 A 
ATOM     60  C   UNL     1       1.632  -8.045  11.845  1.00  0.00     0.173 A 
ATOM     61  C   UNL     1       2.037  -9.978  10.475  1.00  0.00     0.173 A 
ATOM     62  F   UNL     1       0.869  -7.007  12.219  1.00  0.00    -0.203 F 
ATOM     63  C   UNL     1       2.882  -8.206  12.438  1.00  0.00     0.198 A 
ATOM     64  C   UNL     1       3.274 -10.153  11.089  1.00  0.00     0.198 A 
ATOM     65  F   UNL     1       1.661 -10.845   9.522  1.00  0.00    -0.203 F 
ATOM     66  F   UNL     1       3.304  -7.329  13.360  1.00  0.00    -0.200 F 
ATOM     67  C   UNL     1       3.699  -9.263  12.064  1.00  0.00     0.200 A 
ATOM     68  F   UNL     1       4.057 -11.181  10.734  1.00  0.00    -0.200 F 
ATOM     69  F   UNL     1       4.900  -9.420  12.638  1.00  0.00    -0.200 F 
ENDBRANCH  45  59
BRANCH  46  70
ATOM     70  C   UNL     1      -7.526  -7.470   6.191  1.00  0.00     0.064 A 
ATOM     71  C   UNL     1      -8.683  -7.128   6.905  1.00  0.00     0.173 A 
ATOM     72  C   UNL     1      -7.641  -7.632   4.803  1.00  0.00     0.173 A 
ATOM     73  F   UNL     1      -8.629  -6.987   8.238  1.00  0.00    -0.203 F 
ATOM     74  C   UNL     1      -9.909  -6.975   6.260  1.00  0.00     0.198 A 
ATOM     75  C   UNL     1      -8.861  -7.452   4.155  1.00  0.00     0.198 A 
ATOM     76  F   UNL     1      -6.565  -7.961   4.073  1.00  0.00    -0.203 F 
ATOM     77  F   UNL     1     -11.008  -6.694   6.973  1.00  0.00    -0.200 F 
ATOM     78  C   UNL     1      -9.996  -7.131   4.885  1.00  0.00     0.200 A 
ATOM     79  F   UNL     1      -8.938  -7.594   2.825  1.00  0.00    -0.200 F 
ATOM     80  F   UNL     1     -11.174  -6.981   4.265  1.00  0.00    -0.200 F 
ENDBRANCH  46  70
BRANCH  58  81
ATOM     81  C   UNL     1      -5.230 -12.204  10.759  1.00  0.00     0.064 A 
ATOM     82  C   UNL     1      -5.543 -13.381  10.064  1.00  0.00     0.173 A 
ATOM     83  C   UNL     1      -5.533 -12.148  12.128  1.00  0.00     0.173 A 
ATOM     84  F   UNL     1      -5.285 -13.479   8.752  1.00  0.00    -0.203 F 
ATOM     85  C   UNL     1      -6.162 -14.448  10.709  1.00  0.00     0.198 A 
ATOM     86  C   UNL     1      -6.125 -13.228  12.776  1.00  0.00     0.198 A 
ATOM     87  F   UNL     1      -5.246 -11.048  12.840  1.00  0.00    -0.203 F 
ATOM     88  F   UNL     1      -6.499 -15.544  10.015  1.00  0.00    -0.200 F 
ATOM     89  C   UNL     1      -6.448 -14.373  12.065  1.00  0.00     0.200 A 
ATOM     90  F   UNL     1      -6.388 -13.158  14.088  1.00  0.00    -0.200 F 
ATOM     91  F   UNL     1      -7.043 -15.402  12.684  1.00  0.00    -0.200 F 
ENDBRANCH  58  81
ENDBRANCH  32  33
ENDBRANCH  25  27
ENDBRANCH  24  25
ENDBRANCH  23  24
ENDBRANCH   1  23
TORSDOF 15
