REMARK SMILES O=C(NC[C@@H]1CC[C@@H](C(=O)OCCOCCOC(=O)c2ccc(-c3c4nc(c(-c5c(F)c(F)c(F)c(F)c5F)c5ccc([nH]5)c(-c5c(F)c(F)c(F)c(F)c5F)c5nc(c(-c6c(F)c(F)c(F)c(F)c6F)c6ccc3[nH]6)C=C5)C=C4)cc2)O1)NC1CC1
REMARK SMILES IDX 13 1 12 2 11 3 9 4 10 5 8 6 5 7 6 8 83 9 7 10 4 11 3 12 1 13
REMARK SMILES IDX 2 14 84 15 85 18 86 19 87 20 14 21 15 22 16 23 17 24 18 25
REMARK SMILES IDX 19 26 20 27 21 28 82 29 22 30 81 31 23 32 24 33 25 34 75 35
REMARK SMILES IDX 26 36 80 37 74 38 76 39 27 40 79 41 73 42 72 43 28 45 60 46
REMARK SMILES IDX 40 47 59 48 41 49 44 50 58 51 77 52 42 53 43 54 57 56 78 57
REMARK SMILES IDX 45 58 29 59 30 60 38 61 31 62 32 63 36 64 39 65 33 66 34 67
REMARK SMILES IDX 37 68 35 69 61 70 62 71 70 72 63 73 64 74 68 75 71 76 65 77
REMARK SMILES IDX 66 78 69 79 67 80 46 81 47 82 55 83 48 84 49 85 53 86 56 87
REMARK SMILES IDX 50 88 51 89 54 90 52 91
REMARK H PARENT 3 16 84 17 76 44 44 55
REMARK Flexibility Score: inf
ROOT
ATOM      1  C   UNL     1       4.498  -0.697  -7.295  1.00  0.00     0.202 C 
ENDROOT
BRANCH   1   2
ATOM      2  C   UNL     1       5.331   0.555  -7.013  1.00  0.00     0.261 C 
BRANCH   2   3
ATOM      3  O   UNL     1       5.255   0.888  -5.619  1.00  0.00    -0.461 OA
BRANCH   3   4
ATOM      4  C   UNL     1       4.777   2.128  -5.327  1.00  0.00     0.335 C 
ATOM      5  O   UNL     1       4.634   3.036  -6.137  1.00  0.00    -0.249 OA
BRANCH   4   6
ATOM      6  C   UNL     1       4.345   2.235  -3.860  1.00  0.00     0.228 C 
ATOM      7  C   UNL     1       5.206   1.811  -1.729  1.00  0.00     0.138 C 
ATOM      8  C   UNL     1       4.775   3.268  -1.786  1.00  0.00     0.037 C 
ATOM      9  O   UNL     1       4.779   1.203  -2.962  1.00  0.00    -0.361 OA
ATOM     10  C   UNL     1       4.828   3.546  -3.266  1.00  0.00     0.047 C 
BRANCH   7  11
ATOM     11  C   UNL     1       4.696   1.022  -0.513  1.00  0.00     0.149 C 
BRANCH  11  12
ATOM     12  N   UNL     1       3.242   0.987  -0.402  1.00  0.00    -0.336 N 
ATOM     13  O   UNL     1       1.187   0.241  -0.013  1.00  0.00    -0.249 OA
ATOM     14  C   UNL     1       2.386  -0.016  -0.091  1.00  0.00     0.315 C 
ATOM     15  N   UNL     1       2.912  -1.252   0.128  1.00  0.00    -0.335 N 
ATOM     16  H   UNL     1       2.803   1.849  -0.586  1.00  0.00     0.165 HD
ATOM     17  H   UNL     1       3.884  -1.379   0.036  1.00  0.00     0.165 HD
BRANCH  15  18
ATOM     18  C   UNL     1       2.100  -2.371   0.486  1.00  0.00     0.084 C 
ATOM     19  C   UNL     1       1.288  -3.095  -0.552  1.00  0.00     0.027 C 
ATOM     20  C   UNL     1       2.479  -3.765   0.065  1.00  0.00     0.027 C 
ENDBRANCH  15  18
ENDBRANCH  11  12
ENDBRANCH   7  11
ENDBRANCH   4   6
ENDBRANCH   3   4
ENDBRANCH   2   3
ENDBRANCH   1   2
BRANCH   1  21
ATOM     21  O   UNL     1       3.089  -0.543  -7.114  1.00  0.00    -0.374 OA
BRANCH  21  22
ATOM     22  C   UNL     1       2.596  -0.613  -5.773  1.00  0.00     0.202 C 
BRANCH  22  23
ATOM     23  C   UNL     1       2.395  -2.023  -5.208  1.00  0.00     0.261 C 
BRANCH  23  24
ATOM     24  O   UNL     1       3.642  -2.727  -5.065  1.00  0.00    -0.460 OA
BRANCH  24  25
ATOM     25  C   UNL     1       3.816  -3.750  -5.931  1.00  0.00     0.338 C 
ATOM     26  O   UNL     1       3.002  -4.194  -6.731  1.00  0.00    -0.246 OA
BRANCH  25  27
ATOM     27  C   UNL     1       5.221  -4.198  -5.921  1.00  0.00     0.060 A 
ATOM     28  C   UNL     1       5.851  -4.346  -7.162  1.00  0.00     0.016 A 
ATOM     29  C   UNL     1       5.888  -4.543  -4.742  1.00  0.00     0.016 A 
ATOM     30  C   UNL     1       7.125  -4.900  -7.236  1.00  0.00     0.010 A 
ATOM     31  C   UNL     1       7.170  -5.105  -4.819  1.00  0.00     0.010 A 
ATOM     32  C   UNL     1       7.774  -5.324  -6.069  1.00  0.00    -0.014 A 
BRANCH  32  33
ATOM     33  C   UNL     1       9.014  -6.130  -6.200  1.00  0.00     0.031 A 
ATOM     34  C   UNL     1       8.923  -7.630  -6.122  1.00  0.00     0.074 A 
ATOM     35  C   UNL     1      10.190  -5.538  -6.469  1.00  0.00     0.049 A 
ATOM     36  N   UNL     1       9.860  -8.529  -6.289  1.00  0.00    -0.248 NA
ATOM     37  C   UNL     1       7.597  -8.192  -5.821  1.00  0.00     0.031 C 
ATOM     38  C   UNL     1      10.401  -4.098  -6.589  1.00  0.00     0.029 A 
ATOM     39  N   UNL     1      11.429  -6.082  -6.700  1.00  0.00    -0.354 N 
ATOM     40  C   UNL     1       9.236  -9.759  -6.129  1.00  0.00     0.074 A 
ATOM     41  C   UNL     1       7.851  -9.492  -5.805  1.00  0.00     0.031 C 
ATOM     42  C   UNL     1      11.696  -3.869  -6.870  1.00  0.00     0.029 A 
ATOM     43  C   UNL     1      12.404  -5.146  -6.938  1.00  0.00     0.049 A 
ATOM     44  H   UNL     1      11.602  -7.052  -6.695  1.00  0.00     0.167 HD
ATOM     45  C   UNL     1       9.763 -11.000  -6.262  1.00  0.00     0.037 A 
ATOM     46  C   UNL     1      13.720  -5.305  -7.179  1.00  0.00     0.037 A 
ATOM     47  C   UNL     1      11.142 -11.268  -6.574  1.00  0.00     0.049 A 
ATOM     48  C   UNL     1      14.293  -6.696  -7.274  1.00  0.00     0.074 A 
ATOM     49  C   UNL     1      11.774 -12.491  -6.720  1.00  0.00     0.029 A 
ATOM     50  N   UNL     1      12.106 -10.293  -6.785  1.00  0.00    -0.354 N 
ATOM     51  N   UNL     1      13.687  -7.852  -7.150  1.00  0.00    -0.248 NA
ATOM     52  C   UNL     1      15.731  -6.801  -7.559  1.00  0.00     0.031 C 
ATOM     53  C   UNL     1      13.129 -12.255  -6.982  1.00  0.00     0.029 A 
ATOM     54  C   UNL     1      13.331 -10.886  -7.045  1.00  0.00     0.049 A 
ATOM     55  H   UNL     1      11.944  -9.322  -6.754  1.00  0.00     0.167 HD
ATOM     56  C   UNL     1      14.662  -8.819  -7.363  1.00  0.00     0.074 A 
ATOM     57  C   UNL     1      15.894  -8.113  -7.646  1.00  0.00     0.031 C 
ATOM     58  C   UNL     1      14.548 -10.169  -7.325  1.00  0.00     0.037 A 
BRANCH  45  59
ATOM     59  C   UNL     1       8.841 -12.166  -6.061  1.00  0.00     0.064 A 
ATOM     60  C   UNL     1       7.861 -12.495  -7.010  1.00  0.00     0.173 A 
ATOM     61  C   UNL     1       8.957 -12.982  -4.927  1.00  0.00     0.173 A 
ATOM     62  F   UNL     1       7.699 -11.736  -8.104  1.00  0.00    -0.203 F 
ATOM     63  C   UNL     1       7.017 -13.587  -6.820  1.00  0.00     0.198 A 
ATOM     64  C   UNL     1       8.130 -14.089  -4.752  1.00  0.00     0.198 A 
ATOM     65  F   UNL     1       9.880 -12.712  -3.991  1.00  0.00    -0.203 F 
ATOM     66  F   UNL     1       6.061 -13.858  -7.719  1.00  0.00    -0.200 F 
ATOM     67  C   UNL     1       7.157 -14.386  -5.695  1.00  0.00     0.200 A 
ATOM     68  F   UNL     1       8.272 -14.866  -3.670  1.00  0.00    -0.200 F 
ATOM     69  F   UNL     1       6.349 -15.441  -5.516  1.00  0.00    -0.200 F 
ENDBRANCH  45  59
BRANCH  46  70
ATOM     70  C   UNL     1      14.591  -4.113  -7.348  1.00  0.00     0.064 A 
ATOM     71  C   UNL     1      15.166  -3.801  -8.587  1.00  0.00     0.173 A 
ATOM     72  C   UNL     1      14.885  -3.275  -6.262  1.00  0.00     0.173 A 
ATOM     73  F   UNL     1      14.936  -4.587  -9.650  1.00  0.00    -0.203 F 
ATOM     74  C   UNL     1      16.020  -2.708  -8.729  1.00  0.00     0.198 A 
ATOM     75  C   UNL     1      15.715  -2.167  -6.412  1.00  0.00     0.198 A 
ATOM     76  F   UNL     1      14.360  -3.532  -5.055  1.00  0.00    -0.203 F 
ATOM     77  F   UNL     1      16.596  -2.461  -9.913  1.00  0.00    -0.200 F 
ATOM     78  C   UNL     1      16.289  -1.889  -7.643  1.00  0.00     0.200 A 
ATOM     79  F   UNL     1      15.963  -1.373  -5.362  1.00  0.00    -0.200 F 
ATOM     80  F   UNL     1      17.109  -0.839  -7.779  1.00  0.00    -0.200 F 
ENDBRANCH  46  70
BRANCH  58  81
ATOM     81  C   UNL     1      15.784 -10.970  -7.620  1.00  0.00     0.064 A 
ATOM     82  C   UNL     1      16.851 -11.036  -6.712  1.00  0.00     0.173 A 
ATOM     83  C   UNL     1      15.893 -11.696  -8.816  1.00  0.00     0.173 A 
ATOM     84  F   UNL     1      16.800 -10.348  -5.561  1.00  0.00    -0.203 F 
ATOM     85  C   UNL     1      17.996 -11.772  -7.005  1.00  0.00     0.198 A 
ATOM     86  C   UNL     1      17.027 -12.454  -9.093  1.00  0.00     0.198 A 
ATOM     87  F   UNL     1      14.898 -11.673  -9.715  1.00  0.00    -0.203 F 
ATOM     88  F   UNL     1      19.025 -11.776  -6.146  1.00  0.00    -0.200 F 
ATOM     89  C   UNL     1      18.081 -12.484  -8.192  1.00  0.00     0.200 A 
ATOM     90  F   UNL     1      17.103 -13.152 -10.235  1.00  0.00    -0.200 F 
ATOM     91  F   UNL     1      19.184 -13.192  -8.472  1.00  0.00    -0.200 F 
ENDBRANCH  58  81
ENDBRANCH  32  33
ENDBRANCH  25  27
ENDBRANCH  24  25
ENDBRANCH  23  24
ENDBRANCH  22  23
ENDBRANCH  21  22
ENDBRANCH   1  21
TORSDOF 17
