REMARK SMILES CC[NH2+][C@@]1(C(=O)OCCOCCOC(=O)c2ccc(-c3c4nc(c(-c5c(F)c(F)c(F)c(F)c5F)c5ccc([nH]5)c(-c5c(F)c(F)c(F)c(F)c5F)c5nc(c(-c6c(F)c(F)c(F)c(F)c6F)c6ccc3[nH]6)C=C5)C=C4)cc2)CC[C@@H](OCCOC)C1
REMARK SMILES IDX 9 1 8 2 7 3 5 4 6 5 4 6 79 7 87 8 80 9 81 10 3 11 2 14 1 15
REMARK SMILES IDX 82 16 83 17 84 18 85 19 86 20 10 21 11 22 12 23 13 24 14 25
REMARK SMILES IDX 15 26 16 27 17 28 78 29 18 30 77 31 19 32 20 33 21 34 71 35
REMARK SMILES IDX 22 36 76 37 70 38 72 39 23 40 75 41 69 42 68 43 24 45 56 46
REMARK SMILES IDX 36 47 55 48 37 49 40 50 54 51 73 52 38 53 39 54 53 56 74 57
REMARK SMILES IDX 41 58 25 59 26 60 34 61 27 62 28 63 32 64 35 65 29 66 30 67
REMARK SMILES IDX 33 68 31 69 57 70 58 71 66 72 59 73 60 74 64 75 67 76 61 77
REMARK SMILES IDX 62 78 65 79 63 80 42 81 43 82 51 83 44 84 45 85 49 86 52 87
REMARK SMILES IDX 46 88 47 89 50 90 48 91
REMARK H PARENT 3 12 3 13 72 44 40 55
REMARK Flexibility Score: inf
ROOT
ATOM      1  C   UNL     1      -0.049   2.963   4.725  1.00  0.00     0.202 C 
ENDROOT
BRANCH   1   2
ATOM      2  C   UNL     1       1.175   3.520   3.993  1.00  0.00     0.261 C 
BRANCH   2   3
ATOM      3  O   UNL     1       0.868   3.719   2.602  1.00  0.00    -0.459 OA
BRANCH   3   4
ATOM      4  C   UNL     1       1.723   3.152   1.711  1.00  0.00     0.368 C 
ATOM      5  O   UNL     1       2.791   2.625   2.009  1.00  0.00    -0.245 OA
BRANCH   4   6
ATOM      6  C   UNL     1       1.206   3.243   0.244  1.00  0.00     0.196 C 
ATOM      7  C   UNL     1       1.972   4.397  -0.419  1.00  0.00     0.084 C 
ATOM      8  C   UNL     1      -0.249   3.688   0.026  1.00  0.00     0.113 C 
ATOM      9  C   UNL     1       1.222   5.652   0.032  1.00  0.00     0.039 C 
ATOM     10  C   UNL     1      -0.238   5.210   0.222  1.00  0.00     0.125 C 
BRANCH   6  11
ATOM     11  N   UNL     1       1.516   1.969  -0.461  1.00  0.00    -0.332 N 
ATOM     12  H   UNL     1       1.242   2.067  -1.439  1.00  0.00     0.347 HD
ATOM     13  H   UNL     1       2.517   1.804  -0.351  1.00  0.00     0.347 HD
BRANCH  11  14
ATOM     14  C   UNL     1       0.825   0.803   0.098  1.00  0.00     0.257 C 
ATOM     15  C   UNL     1       1.221  -0.453  -0.664  1.00  0.00     0.071 C 
ENDBRANCH  11  14
ENDBRANCH   6  11
BRANCH  10  16
ATOM     16  O   UNL     1      -1.228   5.864  -0.571  1.00  0.00    -0.376 OA
BRANCH  16  17
ATOM     17  C   UNL     1      -0.914   6.056  -1.947  1.00  0.00     0.189 C 
BRANCH  17  18
ATOM     18  C   UNL     1      -0.686   7.534  -2.316  1.00  0.00     0.188 C 
BRANCH  18  19
ATOM     19  O   UNL     1      -0.031   8.329  -1.327  1.00  0.00    -0.382 OA
ATOM     20  C   UNL     1      -0.884   8.704  -0.249  1.00  0.00     0.195 C 
ENDBRANCH  18  19
ENDBRANCH  17  18
ENDBRANCH  16  17
ENDBRANCH  10  16
ENDBRANCH   4   6
ENDBRANCH   3   4
ENDBRANCH   2   3
ENDBRANCH   1   2
BRANCH   1  21
ATOM     21  O   UNL     1      -0.382   1.605   4.415  1.00  0.00    -0.374 OA
BRANCH  21  22
ATOM     22  C   UNL     1      -1.029   1.376   3.166  1.00  0.00     0.202 C 
BRANCH  22  23
ATOM     23  C   UNL     1      -2.550   1.561   3.145  1.00  0.00     0.261 C 
BRANCH  23  24
ATOM     24  O   UNL     1      -2.943   2.856   3.624  1.00  0.00    -0.460 OA
BRANCH  24  25
ATOM     25  C   UNL     1      -3.467   2.836   4.873  1.00  0.00     0.338 C 
ATOM     26  O   UNL     1      -3.750   1.857   5.542  1.00  0.00    -0.246 OA
BRANCH  25  27
ATOM     27  C   UNL     1      -3.520   4.199   5.431  1.00  0.00     0.060 A 
ATOM     28  C   UNL     1      -2.998   4.367   6.718  1.00  0.00     0.016 A 
ATOM     29  C   UNL     1      -4.142   5.261   4.769  1.00  0.00     0.016 A 
ATOM     30  C   UNL     1      -3.165   5.577   7.381  1.00  0.00     0.010 A 
ATOM     31  C   UNL     1      -4.312   6.479   5.440  1.00  0.00     0.010 A 
ATOM     32  C   UNL     1      -3.866   6.623   6.766  1.00  0.00    -0.014 A 
BRANCH  32  33
ATOM     33  C   UNL     1      -4.248   7.787   7.600  1.00  0.00     0.031 A 
ATOM     34  C   UNL     1      -5.614   7.821   8.227  1.00  0.00     0.074 A 
ATOM     35  C   UNL     1      -3.345   8.741   7.887  1.00  0.00     0.049 A 
ATOM     36  N   UNL     1      -6.104   8.656   9.108  1.00  0.00    -0.248 NA
ATOM     37  C   UNL     1      -6.553   6.766   7.813  1.00  0.00     0.031 C 
ATOM     38  C   UNL     1      -1.985   8.800   7.356  1.00  0.00     0.029 A 
ATOM     39  N   UNL     1      -3.433   9.829   8.718  1.00  0.00    -0.354 N 
ATOM     40  C   UNL     1      -7.398   8.221   9.362  1.00  0.00     0.074 A 
ATOM     41  C   UNL     1      -7.634   7.074   8.513  1.00  0.00     0.031 C 
ATOM     42  C   UNL     1      -1.357   9.864   7.886  1.00  0.00     0.029 A 
ATOM     43  C   UNL     1      -2.274  10.561   8.785  1.00  0.00     0.049 A 
ATOM     44  H   UNL     1      -4.248  10.062   9.217  1.00  0.00     0.167 HD
ATOM     45  C   UNL     1      -8.301   8.723  10.238  1.00  0.00     0.037 A 
ATOM     46  C   UNL     1      -1.986  11.664   9.502  1.00  0.00     0.037 A 
ATOM     47  C   UNL     1      -8.067   9.868  11.078  1.00  0.00     0.049 A 
ATOM     48  C   UNL     1      -3.021  12.222  10.444  1.00  0.00     0.074 A 
ATOM     49  C   UNL     1      -8.916  10.453  12.001  1.00  0.00     0.029 A 
ATOM     50  N   UNL     1      -6.893  10.607  11.090  1.00  0.00    -0.354 N 
ATOM     51  N   UNL     1      -4.227  11.780  10.707  1.00  0.00    -0.248 NA
ATOM     52  C   UNL     1      -2.644  13.423  11.202  1.00  0.00     0.031 C 
ATOM     53  C   UNL     1      -8.270  11.571  12.543  1.00  0.00     0.029 A 
ATOM     54  C   UNL     1      -7.002  11.654  11.992  1.00  0.00     0.049 A 
ATOM     55  H   UNL     1      -6.099  10.416  10.540  1.00  0.00     0.167 HD
ATOM     56  C   UNL     1      -4.744  12.632  11.674  1.00  0.00     0.074 A 
ATOM     57  C   UNL     1      -3.711  13.604  11.967  1.00  0.00     0.031 C 
ATOM     58  C   UNL     1      -5.963  12.613  12.268  1.00  0.00     0.037 A 
BRANCH  45  59
ATOM     59  C   UNL     1      -9.636   8.043  10.317  1.00  0.00     0.064 A 
ATOM     60  C   UNL     1      -9.785   6.783  10.917  1.00  0.00     0.173 A 
ATOM     61  C   UNL     1     -10.785   8.669   9.811  1.00  0.00     0.173 A 
ATOM     62  F   UNL     1      -8.715   6.136  11.402  1.00  0.00    -0.203 F 
ATOM     63  C   UNL     1     -11.032   6.167  10.988  1.00  0.00     0.198 A 
ATOM     64  C   UNL     1     -12.034   8.061   9.907  1.00  0.00     0.198 A 
ATOM     65  F   UNL     1     -10.697   9.874   9.229  1.00  0.00    -0.203 F 
ATOM     66  F   UNL     1     -11.144   4.945  11.528  1.00  0.00    -0.200 F 
ATOM     67  C   UNL     1     -12.156   6.808  10.489  1.00  0.00     0.200 A 
ATOM     68  F   UNL     1     -13.120   8.686   9.431  1.00  0.00    -0.200 F 
ATOM     69  F   UNL     1     -13.356   6.216  10.562  1.00  0.00    -0.200 F 
ENDBRANCH  45  59
BRANCH  46  70
ATOM     70  C   UNL     1      -0.651  12.301   9.374  1.00  0.00     0.064 A 
ATOM     71  C   UNL     1       0.275  12.265  10.425  1.00  0.00     0.173 A 
ATOM     72  C   UNL     1      -0.278  12.967   8.197  1.00  0.00     0.173 A 
ATOM     73  F   UNL     1      -0.044  11.660  11.579  1.00  0.00    -0.203 F 
ATOM     74  C   UNL     1       1.517  12.887  10.311  1.00  0.00     0.198 A 
ATOM     75  C   UNL     1       0.974  13.566   8.075  1.00  0.00     0.198 A 
ATOM     76  F   UNL     1      -1.129  13.029   7.163  1.00  0.00    -0.203 F 
ATOM     77  F   UNL     1       2.367  12.876  11.347  1.00  0.00    -0.200 F 
ATOM     78  C   UNL     1       1.867  13.532   9.134  1.00  0.00     0.200 A 
ATOM     79  F   UNL     1       1.312  14.177   6.932  1.00  0.00    -0.200 F 
ATOM     80  F   UNL     1       3.063  14.126   9.023  1.00  0.00    -0.200 F 
ENDBRANCH  46  70
BRANCH  58  81
ATOM     81  C   UNL     1      -6.231  13.662  13.307  1.00  0.00     0.064 A 
ATOM     82  C   UNL     1      -6.419  15.008  12.962  1.00  0.00     0.173 A 
ATOM     83  C   UNL     1      -6.314  13.313  14.664  1.00  0.00     0.173 A 
ATOM     84  F   UNL     1      -6.337  15.393  11.679  1.00  0.00    -0.203 F 
ATOM     85  C   UNL     1      -6.642  15.973  13.940  1.00  0.00     0.198 A 
ATOM     86  C   UNL     1      -6.566  14.277  15.637  1.00  0.00     0.198 A 
ATOM     87  F   UNL     1      -6.150  12.038  15.046  1.00  0.00    -0.203 F 
ATOM     88  F   UNL     1      -6.760  17.262  13.592  1.00  0.00    -0.200 F 
ATOM     89  C   UNL     1      -6.719  15.607  15.275  1.00  0.00     0.200 A 
ATOM     90  F   UNL     1      -6.651  13.919  16.926  1.00  0.00    -0.200 F 
ATOM     91  F   UNL     1      -6.929  16.538  16.216  1.00  0.00    -0.200 F 
ENDBRANCH  58  81
ENDBRANCH  32  33
ENDBRANCH  25  27
ENDBRANCH  24  25
ENDBRANCH  23  24
ENDBRANCH  22  23
ENDBRANCH  21  22
ENDBRANCH   1  21
TORSDOF 20
