REMARK SMILES CCOc1cc(OCC)cc(-c2ccc([C@@H](C)C(=O)OCCOCCOC(=O)c3ccc(-c4c5nc(c(-c6c(F)c(F)c(F)c(F)c6F)c6ccc([nH]6)c(-c6c(F)c(F)c(F)c(F)c6F)c6nc(c(-c7c(F)c(F)c(F)c(F)c7F)c7ccc4[nH]7)C=C6)C=C5)cc3)cc2F)c1
REMARK SMILES IDX 22 1 21 2 20 3 18 4 19 5 16 6 17 7 15 8 12 9 13 10 93 11
REMARK SMILES IDX 14 12 92 13 94 14 11 15 4 16 5 17 95 18 6 19 10 20 3 21 2 22
REMARK SMILES IDX 1 23 7 24 8 25 9 26 23 27 24 28 25 29 26 30 27 31 28 32
REMARK SMILES IDX 29 33 30 34 91 35 31 36 90 37 32 38 33 39 34 40 84 41 35 42
REMARK SMILES IDX 89 43 83 44 85 45 36 46 88 47 82 48 81 49 37 51 69 52 49 53
REMARK SMILES IDX 68 54 50 55 53 56 67 57 86 58 51 59 52 60 66 62 87 63 54 64
REMARK SMILES IDX 38 65 39 66 47 67 40 68 41 69 45 70 48 71 42 72 43 73 46 74
REMARK SMILES IDX 44 75 70 76 71 77 79 78 72 79 73 80 77 81 80 82 74 83 75 84
REMARK SMILES IDX 78 85 76 86 55 87 56 88 64 89 57 90 58 91 62 92 65 93 59 94
REMARK SMILES IDX 60 95 63 96 61 97
REMARK H PARENT 85 50 53 61
REMARK Flexibility Score: inf
ROOT
ATOM      1  C   UNL     1       7.321  -4.548  -2.189  1.00  0.00     0.202 C 
ENDROOT
BRANCH   1   2
ATOM      2  C   UNL     1       8.638  -3.925  -2.659  1.00  0.00     0.261 C 
BRANCH   2   3
ATOM      3  O   UNL     1       8.570  -2.488  -2.608  1.00  0.00    -0.463 OA
BRANCH   3   4
ATOM      4  C   UNL     1       8.756  -1.836  -3.785  1.00  0.00     0.313 C 
ATOM      5  O   UNL     1       9.114  -2.377  -4.827  1.00  0.00    -0.252 OA
BRANCH   4   6
ATOM      6  C   UNL     1       8.525  -0.335  -3.698  1.00  0.00     0.126 C 
ATOM      7  C   UNL     1       9.867   0.374  -3.537  1.00  0.00     0.025 C 
BRANCH   6   8
ATOM      8  C   UNL     1       7.500   0.162  -2.685  1.00  0.00    -0.031 A 
ATOM      9  C   UNL     1       5.631   1.296  -0.853  1.00  0.00     0.018 A 
ATOM     10  C   UNL     1       6.789   0.640  -0.402  1.00  0.00     0.012 A 
ATOM     11  C   UNL     1       5.412   1.332  -2.234  1.00  0.00     0.131 A 
ATOM     12  C   UNL     1       7.709   0.085  -1.301  1.00  0.00     0.005 A 
ATOM     13  C   UNL     1       6.322   0.779  -3.137  1.00  0.00     0.044 A 
ATOM     14  F   UNL     1       4.323   1.938  -2.732  1.00  0.00    -0.206 F 
BRANCH   9  15
ATOM     15  C   UNL     1       4.716   1.946   0.100  1.00  0.00    -0.008 A 
ATOM     16  C   UNL     1       2.497   2.278   1.030  1.00  0.00     0.123 A 
ATOM     17  C   UNL     1       3.001   3.202   1.944  1.00  0.00     0.092 A 
ATOM     18  C   UNL     1       3.342   1.675   0.100  1.00  0.00     0.055 A 
ATOM     19  C   UNL     1       4.360   3.518   1.942  1.00  0.00     0.123 A 
ATOM     20  C   UNL     1       5.207   2.882   1.030  1.00  0.00     0.055 A 
BRANCH  16  21
ATOM     21  O   UNL     1       1.143   2.085   0.991  1.00  0.00    -0.494 OA
BRANCH  21  22
ATOM     22  C   UNL     1       0.741   0.766   1.380  1.00  0.00     0.226 C 
ATOM     23  C   UNL     1       0.566  -0.146   0.175  1.00  0.00     0.049 C 
ENDBRANCH  21  22
ENDBRANCH  16  21
BRANCH  19  24
ATOM     24  O   UNL     1       4.753   4.433   2.880  1.00  0.00    -0.494 OA
BRANCH  24  25
ATOM     25  C   UNL     1       5.982   5.128   2.659  1.00  0.00     0.226 C 
ATOM     26  C   UNL     1       7.136   4.434   3.364  1.00  0.00     0.049 C 
ENDBRANCH  24  25
ENDBRANCH  19  24
ENDBRANCH   9  15
ENDBRANCH   6   8
ENDBRANCH   4   6
ENDBRANCH   3   4
ENDBRANCH   2   3
ENDBRANCH   1   2
BRANCH   1  27
ATOM     27  O   UNL     1       6.207  -4.365  -3.063  1.00  0.00    -0.374 OA
BRANCH  27  28
ATOM     28  C   UNL     1       5.564  -3.091  -3.041  1.00  0.00     0.202 C 
BRANCH  28  29
ATOM     29  C   UNL     1       4.587  -2.855  -1.884  1.00  0.00     0.261 C 
BRANCH  29  30
ATOM     30  O   UNL     1       5.258  -2.814  -0.611  1.00  0.00    -0.460 OA
BRANCH  30  31
ATOM     31  C   UNL     1       4.967  -3.840   0.218  1.00  0.00     0.338 C 
ATOM     32  O   UNL     1       4.139  -4.727   0.044  1.00  0.00    -0.246 OA
BRANCH  31  33
ATOM     33  C   UNL     1       5.914  -3.873   1.347  1.00  0.00     0.060 A 
ATOM     34  C   UNL     1       6.556  -5.090   1.611  1.00  0.00     0.016 A 
ATOM     35  C   UNL     1       6.106  -2.773   2.187  1.00  0.00     0.016 A 
ATOM     36  C   UNL     1       7.347  -5.230   2.749  1.00  0.00     0.010 A 
ATOM     37  C   UNL     1       6.896  -2.919   3.335  1.00  0.00     0.010 A 
ATOM     38  C   UNL     1       7.486  -4.159   3.641  1.00  0.00    -0.014 A 
BRANCH  38  39
ATOM     39  C   UNL     1       8.119  -4.398   4.962  1.00  0.00     0.031 A 
ATOM     40  C   UNL     1       7.241  -4.642   6.159  1.00  0.00     0.074 A 
ATOM     41  C   UNL     1       9.456  -4.455   5.087  1.00  0.00     0.049 A 
ATOM     42  N   UNL     1       7.576  -4.887   7.401  1.00  0.00    -0.248 NA
ATOM     43  C   UNL     1       5.789  -4.608   5.924  1.00  0.00     0.031 C 
ATOM     44  C   UNL     1      10.413  -4.276   3.998  1.00  0.00     0.029 A 
ATOM     45  N   UNL     1      10.239  -4.683   6.191  1.00  0.00    -0.354 N 
ATOM     46  C   UNL     1       6.381  -5.035   8.093  1.00  0.00     0.074 A 
ATOM     47  C   UNL     1       5.311  -4.821   7.141  1.00  0.00     0.031 C 
ATOM     48  C   UNL     1      11.659  -4.396   4.489  1.00  0.00     0.029 A 
ATOM     49  C   UNL     1      11.586  -4.635   5.930  1.00  0.00     0.049 A 
ATOM     50  H   UNL     1       9.870  -4.863   7.086  1.00  0.00     0.167 HD
ATOM     51  C   UNL     1       6.191  -5.335   9.400  1.00  0.00     0.037 A 
ATOM     52  C   UNL     1      12.638  -4.757   6.763  1.00  0.00     0.037 A 
ATOM     53  C   UNL     1       7.252  -5.552  10.348  1.00  0.00     0.049 A 
ATOM     54  C   UNL     1      12.399  -5.027   8.226  1.00  0.00     0.074 A 
ATOM     55  C   UNL     1       7.159  -5.878  11.690  1.00  0.00     0.029 A 
ATOM     56  N   UNL     1       8.604  -5.458  10.053  1.00  0.00    -0.354 N 
ATOM     57  N   UNL     1      11.267  -5.192   8.864  1.00  0.00    -0.248 NA
ATOM     58  C   UNL     1      13.589  -5.132   9.083  1.00  0.00     0.031 C 
ATOM     59  C   UNL     1       8.453  -5.936  12.217  1.00  0.00     0.029 A 
ATOM     60  C   UNL     1       9.354  -5.695  11.193  1.00  0.00     0.049 A 
ATOM     61  H   UNL     1       8.975  -5.253   9.164  1.00  0.00     0.167 HD
ATOM     62  C   UNL     1      11.606  -5.447  10.187  1.00  0.00     0.074 A 
ATOM     63  C   UNL     1      13.052  -5.428  10.258  1.00  0.00     0.031 C 
ATOM     64  C   UNL     1      10.793  -5.678  11.248  1.00  0.00     0.037 A 
BRANCH  51  65
ATOM     65  C   UNL     1       4.775  -5.425   9.889  1.00  0.00     0.064 A 
ATOM     66  C   UNL     1       3.944  -6.501   9.546  1.00  0.00     0.173 A 
ATOM     67  C   UNL     1       4.255  -4.438  10.740  1.00  0.00     0.173 A 
ATOM     68  F   UNL     1       4.391  -7.463   8.723  1.00  0.00    -0.203 F 
ATOM     69  C   UNL     1       2.636  -6.575  10.018  1.00  0.00     0.198 A 
ATOM     70  C   UNL     1       2.955  -4.528  11.232  1.00  0.00     0.198 A 
ATOM     71  F   UNL     1       5.010  -3.390  11.102  1.00  0.00    -0.203 F 
ATOM     72  F   UNL     1       1.846  -7.590   9.642  1.00  0.00    -0.200 F 
ATOM     73  C   UNL     1       2.145  -5.592  10.865  1.00  0.00     0.200 A 
ATOM     74  F   UNL     1       2.486  -3.584  12.059  1.00  0.00    -0.200 F 
ATOM     75  F   UNL     1       0.888  -5.668  11.323  1.00  0.00    -0.200 F 
ENDBRANCH  51  65
BRANCH  52  76
ATOM     76  C   UNL     1      14.020  -4.620   6.235  1.00  0.00     0.064 A 
ATOM     77  C   UNL     1      14.887  -5.720   6.179  1.00  0.00     0.173 A 
ATOM     78  C   UNL     1      14.507  -3.381   5.795  1.00  0.00     0.173 A 
ATOM     79  F   UNL     1      14.475  -6.920   6.613  1.00  0.00    -0.203 F 
ATOM     80  C   UNL     1      16.195  -5.582   5.718  1.00  0.00     0.198 A 
ATOM     81  C   UNL     1      15.806  -3.249   5.310  1.00  0.00     0.198 A 
ATOM     82  F   UNL     1      13.718  -2.297   5.832  1.00  0.00    -0.203 F 
ATOM     83  F   UNL     1      17.018  -6.639   5.717  1.00  0.00    -0.200 F 
ATOM     84  C   UNL     1      16.652  -4.348   5.279  1.00  0.00     0.200 A 
ATOM     85  F   UNL     1      16.240  -2.057   4.877  1.00  0.00    -0.200 F 
ATOM     86  F   UNL     1      17.909  -4.216   4.834  1.00  0.00    -0.200 F 
ENDBRANCH  52  76
BRANCH  64  87
ATOM     87  C   UNL     1      11.447  -5.960  12.569  1.00  0.00     0.064 A 
ATOM     88  C   UNL     1      12.086  -4.952  13.305  1.00  0.00     0.173 A 
ATOM     89  C   UNL     1      11.403  -7.249  13.123  1.00  0.00     0.173 A 
ATOM     90  F   UNL     1      12.169  -3.706  12.813  1.00  0.00    -0.203 F 
ATOM     91  C   UNL     1      12.679  -5.229  14.534  1.00  0.00     0.198 A 
ATOM     92  C   UNL     1      11.971  -7.516  14.365  1.00  0.00     0.198 A 
ATOM     93  F   UNL     1      10.797  -8.248  12.463  1.00  0.00    -0.203 F 
ATOM     94  F   UNL     1      13.325  -4.260  15.198  1.00  0.00    -0.200 F 
ATOM     95  C   UNL     1      12.615  -6.508  15.066  1.00  0.00     0.200 A 
ATOM     96  F   UNL     1      11.898  -8.750  14.883  1.00  0.00    -0.200 F 
ATOM     97  F   UNL     1      13.182  -6.772  16.251  1.00  0.00    -0.200 F 
ENDBRANCH  64  87
ENDBRANCH  38  39
ENDBRANCH  31  33
ENDBRANCH  30  31
ENDBRANCH  29  30
ENDBRANCH  28  29
ENDBRANCH  27  28
ENDBRANCH   1  27
TORSDOF 20
