REMARK SMILES O=C(N[C@@H](CS)C(=O)N[C@@H](CO)C(=O)OCCOCCOC(=O)c1ccc(-c2c3nc(c(-c4c(F)c(F)c(F)c(F)c4F)c4ccc([nH]4)c(-c4c(F)c(F)c(F)c(F)c4F)c4nc(c(-c5c(F)c(F)c(F)c(F)c5F)c5ccc2[nH]5)C=C4)C=C3)cc1)c1ccc(F)cc1
REMARK SMILES IDX 17 1 16 2 15 3 13 4 14 5 10 6 9 7 7 8 8 9 4 11 3 12 1 13
REMARK SMILES IDX 2 14 87 16 88 17 93 18 89 19 92 20 90 21 91 22 5 23 6 24
REMARK SMILES IDX 11 26 12 27 18 29 19 30 20 31 21 32 22 33 23 34 24 35 25 36
REMARK SMILES IDX 86 37 26 38 85 39 27 40 28 41 29 42 79 43 30 44 84 45 78 46
REMARK SMILES IDX 80 47 31 48 83 49 77 50 76 51 32 53 64 54 44 55 63 56 45 57
REMARK SMILES IDX 48 58 62 59 81 60 46 61 47 62 61 64 82 65 49 66 33 67 34 68
REMARK SMILES IDX 42 69 35 70 36 71 40 72 43 73 37 74 38 75 41 76 39 77 65 78
REMARK SMILES IDX 66 79 74 80 67 81 68 82 72 83 75 84 69 85 70 86 73 87 71 88
REMARK SMILES IDX 50 89 51 90 59 91 52 92 53 93 57 94 60 95 54 96 55 97 58 98
REMARK SMILES IDX 56 99
REMARK H PARENT 9 10 3 15 6 25 12 28 80 52 48 63
REMARK Flexibility Score: inf
ROOT
ATOM      1  C   UNL     1       6.444   7.432  -0.672  1.00  0.00     0.202 C 
ENDROOT
BRANCH   1   2
ATOM      2  C   UNL     1       4.961   7.501  -0.301  1.00  0.00     0.261 C 
BRANCH   2   3
ATOM      3  O   UNL     1       4.562   6.317   0.411  1.00  0.00    -0.462 OA
BRANCH   3   4
ATOM      4  C   UNL     1       3.292   5.891   0.162  1.00  0.00     0.331 C 
ATOM      5  O   UNL     1       2.449   6.530  -0.456  1.00  0.00    -0.250 OA
BRANCH   4   6
ATOM      6  C   UNL     1       3.019   4.502   0.763  1.00  0.00     0.218 C 
BRANCH   6   7
ATOM      7  N   UNL     1       4.221   3.830   1.288  1.00  0.00    -0.339 N 
ATOM      8  C   UNL     1       4.824   2.647   1.020  1.00  0.00     0.244 C 
ATOM      9  O   UNL     1       5.938   2.481   1.534  1.00  0.00    -0.273 OA
ATOM     10  H   UNL     1       4.684   4.353   1.982  1.00  0.00     0.164 HD
BRANCH   8  11
ATOM     11  C   UNL     1       4.289   1.574   0.047  1.00  0.00     0.181 C 
BRANCH  11  12
ATOM     12  N   UNL     1       2.872   1.238   0.191  1.00  0.00    -0.339 N 
ATOM     13  O   UNL     1       1.022  -0.017   0.046  1.00  0.00    -0.269 OA
ATOM     14  C   UNL     1       2.248   0.020   0.090  1.00  0.00     0.251 C 
ATOM     15  H   UNL     1       2.279   1.998   0.391  1.00  0.00     0.164 HD
BRANCH  14  16
ATOM     16  C   UNL     1       3.019  -1.240  -0.009  1.00  0.00     0.040 A 
ATOM     17  C   UNL     1       4.009  -1.575   0.924  1.00  0.00     0.017 A 
ATOM     18  C   UNL     1       2.683  -2.143  -1.026  1.00  0.00     0.017 A 
ATOM     19  C   UNL     1       4.716  -2.772   0.789  1.00  0.00     0.040 A 
ATOM     20  C   UNL     1       3.380  -3.347  -1.148  1.00  0.00     0.040 A 
ATOM     21  C   UNL     1       4.398  -3.644  -0.248  1.00  0.00     0.123 A 
ATOM     22  F   UNL     1       5.075  -4.792  -0.373  1.00  0.00    -0.207 F 
ENDBRANCH  14  16
ENDBRANCH  11  12
BRANCH  11  23
ATOM     23  C   UNL     1       4.739   1.804  -1.408  1.00  0.00     0.101 C 
BRANCH  23  24
ATOM     24  S   UNL     1       3.732   2.958  -2.390  1.00  0.00    -0.177 SA
ATOM     25  H   UNL     1       2.474   2.457  -2.528  1.00  0.00     0.102 HD
ENDBRANCH  23  24
ENDBRANCH  11  23
ENDBRANCH   8  11
ENDBRANCH   6   7
BRANCH   6  26
ATOM     26  C   UNL     1       1.970   4.663   1.866  1.00  0.00     0.193 C 
BRANCH  26  27
ATOM     27  O   UNL     1       2.534   5.277   3.025  1.00  0.00    -0.394 OA
ATOM     28  H   UNL     1       3.250   4.721   3.370  1.00  0.00     0.210 HD
ENDBRANCH  26  27
ENDBRANCH   6  26
ENDBRANCH   4   6
ENDBRANCH   3   4
ENDBRANCH   2   3
ENDBRANCH   1   2
BRANCH   1  29
ATOM     29  O   UNL     1       6.804   6.431  -1.625  1.00  0.00    -0.374 OA
BRANCH  29  30
ATOM     30  C   UNL     1       6.742   5.068  -1.207  1.00  0.00     0.202 C 
BRANCH  30  31
ATOM     31  C   UNL     1       7.892   4.575  -0.323  1.00  0.00     0.261 C 
BRANCH  31  32
ATOM     32  O   UNL     1       8.002   5.322   0.900  1.00  0.00    -0.460 OA
BRANCH  32  33
ATOM     33  C   UNL     1       9.153   6.019   1.016  1.00  0.00     0.338 C 
ATOM     34  O   UNL     1      10.121   5.992   0.264  1.00  0.00    -0.246 OA
BRANCH  33  35
ATOM     35  C   UNL     1       9.066   6.994   2.113  1.00  0.00     0.060 A 
ATOM     36  C   UNL     1       9.311   8.333   1.786  1.00  0.00     0.016 A 
ATOM     37  C   UNL     1       8.898   6.601   3.442  1.00  0.00     0.016 A 
ATOM     38  C   UNL     1       9.478   9.273   2.796  1.00  0.00     0.010 A 
ATOM     39  C   UNL     1       9.071   7.549   4.459  1.00  0.00     0.010 A 
ATOM     40  C   UNL     1       9.421   8.873   4.138  1.00  0.00    -0.014 A 
BRANCH  40  41
ATOM     41  C   UNL     1       9.947   9.805   5.165  1.00  0.00     0.031 A 
ATOM     42  C   UNL     1      11.375   9.649   5.616  1.00  0.00     0.074 A 
ATOM     43  C   UNL     1       9.205  10.836   5.605  1.00  0.00     0.049 A 
ATOM     44  N   UNL     1      12.081  10.402   6.421  1.00  0.00    -0.248 NA
ATOM     45  C   UNL     1      12.108   8.490   5.081  1.00  0.00     0.031 C 
ATOM     46  C   UNL     1       7.826  11.111   5.213  1.00  0.00     0.029 A 
ATOM     47  N   UNL     1       9.522  11.853   6.470  1.00  0.00    -0.354 N 
ATOM     48  C   UNL     1      13.337   9.812   6.484  1.00  0.00     0.074 A 
ATOM     49  C   UNL     1      13.287   8.618   5.669  1.00  0.00     0.031 C 
ATOM     50  C   UNL     1       7.413  12.231   5.831  1.00  0.00     0.029 A 
ATOM     51  C   UNL     1       8.495  12.742   6.670  1.00  0.00     0.049 A 
ATOM     52  H   UNL     1      10.401  11.938   6.905  1.00  0.00     0.167 HD
ATOM     53  C   UNL     1      14.439  10.235   7.147  1.00  0.00     0.037 A 
ATOM     54  C   UNL     1       8.442  13.844   7.443  1.00  0.00     0.037 A 
ATOM     55  C   UNL     1      14.490  11.424   7.956  1.00  0.00     0.049 A 
ATOM     56  C   UNL     1       9.670  14.273   8.203  1.00  0.00     0.074 A 
ATOM     57  C   UNL     1      15.555  11.938   8.674  1.00  0.00     0.029 A 
ATOM     58  N   UNL     1      13.421  12.285   8.155  1.00  0.00    -0.354 N 
ATOM     59  N   UNL     1      10.860  13.723   8.235  1.00  0.00    -0.248 NA
ATOM     60  C   UNL     1       9.551  15.489   9.020  1.00  0.00     0.031 C 
ATOM     61  C   UNL     1      15.120  13.090   9.338  1.00  0.00     0.029 A 
ATOM     62  C   UNL     1      13.797  13.321   8.994  1.00  0.00     0.049 A 
ATOM     63  H   UNL     1      12.526  12.176   7.758  1.00  0.00     0.167 HD
ATOM     64  C   UNL     1      11.639  14.542   9.044  1.00  0.00     0.074 A 
ATOM     65  C   UNL     1      10.788  15.633   9.474  1.00  0.00     0.031 C 
ATOM     66  C   UNL     1      12.941  14.406   9.396  1.00  0.00     0.037 A 
BRANCH  53  67
ATOM     67  C   UNL     1      15.675   9.391   7.041  1.00  0.00     0.064 A 
ATOM     68  C   UNL     1      16.427   9.332   5.857  1.00  0.00     0.173 A 
ATOM     69  C   UNL     1      16.123   8.646   8.141  1.00  0.00     0.173 A 
ATOM     70  F   UNL     1      16.030  10.013   4.771  1.00  0.00    -0.203 F 
ATOM     71  C   UNL     1      17.568   8.539   5.772  1.00  0.00     0.198 A 
ATOM     72  C   UNL     1      17.280   7.875   8.061  1.00  0.00     0.198 A 
ATOM     73  F   UNL     1      15.442   8.668   9.296  1.00  0.00    -0.203 F 
ATOM     74  F   UNL     1      18.245   8.461   4.618  1.00  0.00    -0.200 F 
ATOM     75  C   UNL     1      17.997   7.816   6.875  1.00  0.00     0.200 A 
ATOM     76  F   UNL     1      17.698   7.184   9.131  1.00  0.00    -0.200 F 
ATOM     77  F   UNL     1      19.097   7.055   6.794  1.00  0.00    -0.200 F 
ENDBRANCH  53  67
BRANCH  54  78
ATOM     78  C   UNL     1       7.185  14.632   7.524  1.00  0.00     0.064 A 
ATOM     79  C   UNL     1       7.095  15.916   6.970  1.00  0.00     0.173 A 
ATOM     80  C   UNL     1       6.052  14.120   8.175  1.00  0.00     0.173 A 
ATOM     81  F   UNL     1       8.159  16.457   6.359  1.00  0.00    -0.203 F 
ATOM     82  C   UNL     1       5.927  16.667   7.082  1.00  0.00     0.198 A 
ATOM     83  C   UNL     1       4.876  14.862   8.262  1.00  0.00     0.198 A 
ATOM     84  F   UNL     1       6.087  12.897   8.722  1.00  0.00    -0.203 F 
ATOM     85  F   UNL     1       5.883  17.911   6.585  1.00  0.00    -0.200 F 
ATOM     86  C   UNL     1       4.817  16.138   7.723  1.00  0.00     0.200 A 
ATOM     87  F   UNL     1       3.803  14.342   8.873  1.00  0.00    -0.200 F 
ATOM     88  F   UNL     1       3.693  16.861   7.829  1.00  0.00    -0.200 F 
ENDBRANCH  54  78
BRANCH  66  89
ATOM     89  C   UNL     1      13.539  15.488  10.248  1.00  0.00     0.064 A 
ATOM     90  C   UNL     1      13.203  15.635  11.602  1.00  0.00     0.173 A 
ATOM     91  C   UNL     1      14.486  16.372   9.706  1.00  0.00     0.173 A 
ATOM     92  F   UNL     1      12.294  14.823  12.163  1.00  0.00    -0.203 F 
ATOM     93  C   UNL     1      13.767  16.647  12.373  1.00  0.00     0.198 A 
ATOM     94  C   UNL     1      15.070  17.364  10.488  1.00  0.00     0.198 A 
ATOM     95  F   UNL     1      14.849  16.268   8.419  1.00  0.00    -0.203 F 
ATOM     96  F   UNL     1      13.392  16.802  13.650  1.00  0.00    -0.200 F 
ATOM     97  C   UNL     1      14.704  17.507  11.817  1.00  0.00     0.200 A 
ATOM     98  F   UNL     1      15.984  18.185   9.953  1.00  0.00    -0.200 F 
ATOM     99  F   UNL     1      15.246  18.480  12.562  1.00  0.00    -0.200 F 
ENDBRANCH  66  89
ENDBRANCH  40  41
ENDBRANCH  33  35
ENDBRANCH  32  33
ENDBRANCH  31  32
ENDBRANCH  30  31
ENDBRANCH  29  30
ENDBRANCH   1  29
TORSDOF 22
