REMARK SMILES COc1ccc2c(c1C)OC(=O)[C@@H](CC(=O)N[C@@H](CC1=c3ccccc3=NC1)C(=O)OCCOCCOC(=O)c1ccc(-c3c4nc(c(-c5c(F)c(F)c(F)c(F)c5F)c5ccc([nH]5)c(-c5c(F)c(F)c(F)c(F)c5F)c5nc(c(-c6c(F)c(F)c(F)c(F)c6F)c6ccc3[nH]6)C=C5)C=C4)cc1)[C@H]2C
REMARK SMILES IDX 33 1 32 2 31 3 29 4 30 5 18 6 17 7 15 8 16 9 14 11 13 12
REMARK SMILES IDX 3 13 4 14 8 15 5 16 7 17 9 18 6 19 10 20 103 21 11 22 104 23
REMARK SMILES IDX 12 24 2 25 1 26 19 27 20 28 21 29 28 30 22 31 26 32 27 33
REMARK SMILES IDX 23 34 25 35 24 36 34 37 35 38 36 39 37 40 38 41 39 42 40 43
REMARK SMILES IDX 41 44 102 45 42 46 101 47 43 48 44 49 45 50 95 51 46 52
REMARK SMILES IDX 100 53 94 54 96 55 47 56 99 57 93 58 92 59 48 61 80 62 60 63
REMARK SMILES IDX 79 64 61 65 64 66 78 67 97 68 62 69 63 70 77 72 98 73 65 74
REMARK SMILES IDX 49 75 50 76 58 77 51 78 52 79 56 80 59 81 53 82 54 83 57 84
REMARK SMILES IDX 55 85 81 86 82 87 90 88 83 89 84 90 88 91 91 92 85 93 86 94
REMARK SMILES IDX 89 95 87 96 66 97 67 98 75 99 68 100 69 101 73 102 76 103
REMARK SMILES IDX 70 104 71 105 74 106 72 107
REMARK H PARENT 17 10 96 60 64 71
REMARK Flexibility Score: inf
ROOT
ATOM      1  C   UNL     1       8.187   8.117   3.432  1.00  0.00     0.202 C 
ENDROOT
BRANCH   1   2
ATOM      2  C   UNL     1       7.746   7.641   2.045  1.00  0.00     0.261 C 
BRANCH   2   3
ATOM      3  O   UNL     1       6.386   8.007   1.768  1.00  0.00    -0.462 OA
BRANCH   3   4
ATOM      4  C   UNL     1       5.630   7.028   1.205  1.00  0.00     0.329 C 
ATOM      5  O   UNL     1       6.067   5.980   0.742  1.00  0.00    -0.250 OA
BRANCH   4   6
ATOM      6  C   UNL     1       4.135   7.369   1.192  1.00  0.00     0.196 C 
BRANCH   6   7
ATOM      7  N   UNL     1       3.736   8.572   1.945  1.00  0.00    -0.342 N 
ATOM      8  C   UNL     1       2.776   8.842   2.866  1.00  0.00     0.221 C 
ATOM      9  O   UNL     1       2.598  10.033   3.139  1.00  0.00    -0.275 OA
ATOM     10  H   UNL     1       4.290   9.357   1.731  1.00  0.00     0.164 HD
BRANCH   8  11
ATOM     11  C   UNL     1       2.056   7.777   3.679  1.00  0.00     0.116 C 
BRANCH  11  12
ATOM     12  C   UNL     1       1.493   6.575   2.924  1.00  0.00     0.116 C 
ATOM     13  C   UNL     1       0.875   2.309   0.558  1.00  0.00     0.125 A 
ATOM     14  C   UNL     1       2.203   2.315   1.006  1.00  0.00     0.047 A 
ATOM     15  C   UNL     1      -0.035   3.279   1.011  1.00  0.00     0.034 A 
ATOM     16  C   UNL     1       2.631   3.253   1.943  1.00  0.00     0.012 A 
ATOM     17  C   UNL     1       0.425   4.226   1.935  1.00  0.00     0.140 A 
ATOM     18  C   UNL     1      -1.451   3.338   0.512  1.00  0.00     0.052 C 
ATOM     19  C   UNL     1       1.737   4.211   2.418  1.00  0.00    -0.001 A 
ATOM     20  O   UNL     1      -0.472   5.223   2.395  1.00  0.00    -0.426 OA
ATOM     21  C   UNL     1       2.160   5.267   3.396  1.00  0.00     0.035 C 
ATOM     22  C   UNL     1      -0.013   6.393   3.015  1.00  0.00     0.315 C 
ATOM     23  C   UNL     1       1.828   4.850   4.834  1.00  0.00     0.014 C 
ATOM     24  O   UNL     1      -0.785   7.210   3.499  1.00  0.00    -0.251 OA
BRANCH  13  25
ATOM     25  O   UNL     1       0.431   1.408  -0.377  1.00  0.00    -0.496 OA
ATOM     26  C   UNL     1       0.883   0.073  -0.157  1.00  0.00     0.278 C 
ENDBRANCH  13  25
ENDBRANCH  11  12
ENDBRANCH   8  11
ENDBRANCH   6   7
BRANCH   6  27
ATOM     27  C   UNL     1       3.634   7.443  -0.269  1.00  0.00     0.070 C 
BRANCH  27  28
ATOM     28  C   UNL     1       4.192   8.617  -1.017  1.00  0.00    -0.037 C 
ATOM     29  C   UNL     1       3.753   9.873  -1.004  1.00  0.00     0.001 A 
ATOM     30  C   UNL     1       5.435   8.504  -1.849  1.00  0.00     0.174 C 
ATOM     31  C   UNL     1       2.662  10.553  -0.385  1.00  0.00     0.010 A 
ATOM     32  C   UNL     1       4.813  10.595  -1.725  1.00  0.00     0.065 A 
ATOM     33  N   UNL     1       5.781   9.894  -2.232  1.00  0.00    -0.280 NA
ATOM     34  C   UNL     1       2.627  11.894  -0.437  1.00  0.00     0.001 A 
ATOM     35  C   UNL     1       4.698  12.069  -1.750  1.00  0.00     0.028 A 
ATOM     36  C   UNL     1       3.663  12.651  -1.120  1.00  0.00     0.002 A 
ENDBRANCH  27  28
ENDBRANCH   6  27
ENDBRANCH   4   6
ENDBRANCH   3   4
ENDBRANCH   2   3
ENDBRANCH   1   2
BRANCH   1  37
ATOM     37  O   UNL     1       7.357   7.723   4.523  1.00  0.00    -0.374 OA
BRANCH  37  38
ATOM     38  C   UNL     1       6.086   8.365   4.655  1.00  0.00     0.202 C 
BRANCH  38  39
ATOM     39  C   UNL     1       6.086   9.887   4.849  1.00  0.00     0.261 C 
BRANCH  39  40
ATOM     40  O   UNL     1       6.486  10.592   3.657  1.00  0.00    -0.460 OA
BRANCH  40  41
ATOM     41  C   UNL     1       7.442  11.530   3.850  1.00  0.00     0.338 C 
ATOM     42  O   UNL     1       7.968  11.856   4.904  1.00  0.00    -0.246 OA
BRANCH  41  43
ATOM     43  C   UNL     1       7.906  12.065   2.563  1.00  0.00     0.060 A 
ATOM     44  C   UNL     1       9.154  11.652   2.082  1.00  0.00     0.016 A 
ATOM     45  C   UNL     1       7.210  13.106   1.948  1.00  0.00     0.016 A 
ATOM     46  C   UNL     1       9.732  12.312   1.000  1.00  0.00     0.010 A 
ATOM     47  C   UNL     1       7.799  13.777   0.872  1.00  0.00     0.010 A 
ATOM     48  C   UNL     1       9.079  13.409   0.422  1.00  0.00    -0.014 A 
BRANCH  48  49
ATOM     49  C   UNL     1       9.815  14.271  -0.531  1.00  0.00     0.031 A 
ATOM     50  C   UNL     1      10.574  15.457  -0.004  1.00  0.00     0.074 A 
ATOM     51  C   UNL     1       9.844  13.975  -1.841  1.00  0.00     0.049 A 
ATOM     52  N   UNL     1      11.291  16.340  -0.652  1.00  0.00    -0.248 NA
ATOM     53  C   UNL     1      10.524  15.673   1.451  1.00  0.00     0.031 C 
ATOM     54  C   UNL     1       9.195  12.822  -2.459  1.00  0.00     0.029 A 
ATOM     55  N   UNL     1      10.452  14.626  -2.884  1.00  0.00    -0.354 N 
ATOM     56  C   UNL     1      11.790  17.203   0.314  1.00  0.00     0.074 A 
ATOM     57  C   UNL     1      11.267  16.762   1.589  1.00  0.00     0.031 C 
ATOM     58  C   UNL     1       9.440  12.845  -3.780  1.00  0.00     0.029 A 
ATOM     59  C   UNL     1      10.239  14.028  -4.100  1.00  0.00     0.049 A 
ATOM     60  H   UNL     1      10.990  15.443  -2.771  1.00  0.00     0.167 HD
ATOM     61  C   UNL     1      12.618  18.262   0.153  1.00  0.00     0.037 A 
ATOM     62  C   UNL     1      10.636  14.403  -5.331  1.00  0.00     0.037 A 
ATOM     63  C   UNL     1      13.119  18.715  -1.117  1.00  0.00     0.049 A 
ATOM     64  C   UNL     1      11.463  15.650  -5.498  1.00  0.00     0.074 A 
ATOM     65  C   UNL     1      13.959  19.782  -1.383  1.00  0.00     0.029 A 
ATOM     66  N   UNL     1      12.815  18.130  -2.337  1.00  0.00    -0.354 N 
ATOM     67  N   UNL     1      11.937  16.458  -4.581  1.00  0.00    -0.248 NA
ATOM     68  C   UNL     1      11.806  16.041  -6.874  1.00  0.00     0.031 C 
ATOM     69  C   UNL     1      14.126  19.871  -2.769  1.00  0.00     0.029 A 
ATOM     70  C   UNL     1      13.427  18.831  -3.362  1.00  0.00     0.049 A 
ATOM     71  H   UNL     1      12.249  17.333  -2.456  1.00  0.00     0.167 HD
ATOM     72  C   UNL     1      12.646  17.439  -5.262  1.00  0.00     0.074 A 
ATOM     73  C   UNL     1      12.549  17.121  -6.671  1.00  0.00     0.031 C 
ATOM     74  C   UNL     1      13.317  18.506  -4.762  1.00  0.00     0.037 A 
BRANCH  61  75
ATOM     75  C   UNL     1      13.020  19.017   1.385  1.00  0.00     0.064 A 
ATOM     76  C   UNL     1      13.941  18.484   2.300  1.00  0.00     0.173 A 
ATOM     77  C   UNL     1      12.509  20.298   1.636  1.00  0.00     0.173 A 
ATOM     78  F   UNL     1      14.448  17.257   2.110  1.00  0.00    -0.203 F 
ATOM     79  C   UNL     1      14.320  19.201   3.432  1.00  0.00     0.198 A 
ATOM     80  C   UNL     1      12.908  21.021   2.756  1.00  0.00     0.198 A 
ATOM     81  F   UNL     1      11.628  20.852   0.789  1.00  0.00    -0.203 F 
ATOM     82  F   UNL     1      15.174  18.659   4.311  1.00  0.00    -0.200 F 
ATOM     83  C   UNL     1      13.809  20.471   3.655  1.00  0.00     0.200 A 
ATOM     84  F   UNL     1      12.421  22.252   2.967  1.00  0.00    -0.200 F 
ATOM     85  F   UNL     1      14.181  21.162   4.742  1.00  0.00    -0.200 F 
ENDBRANCH  61  75
BRANCH  62  86
ATOM     86  C   UNL     1      10.254  13.578  -6.504  1.00  0.00     0.064 A 
ATOM     87  C   UNL     1      11.207  12.806  -7.180  1.00  0.00     0.173 A 
ATOM     88  C   UNL     1       8.928  13.527  -6.956  1.00  0.00     0.173 A 
ATOM     89  F   UNL     1      12.493  12.845  -6.799  1.00  0.00    -0.203 F 
ATOM     90  C   UNL     1      10.848  12.011  -8.266  1.00  0.00     0.198 A 
ATOM     91  C   UNL     1       8.565  12.716  -8.029  1.00  0.00     0.198 A 
ATOM     92  F   UNL     1       7.982  14.255  -6.346  1.00  0.00    -0.203 F 
ATOM     93  F   UNL     1      11.782  11.301  -8.913  1.00  0.00    -0.200 F 
ATOM     94  C   UNL     1       9.526  11.960  -8.684  1.00  0.00     0.200 A 
ATOM     95  F   UNL     1       7.287  12.666  -8.427  1.00  0.00    -0.200 F 
ATOM     96  F   UNL     1       9.179  11.188  -9.723  1.00  0.00    -0.200 F 
ENDBRANCH  62  86
BRANCH  74  97
ATOM     97  C   UNL     1      14.012  19.410  -5.737  1.00  0.00     0.064 A 
ATOM     98  C   UNL     1      13.295  20.317  -6.530  1.00  0.00     0.173 A 
ATOM     99  C   UNL     1      15.413  19.426  -5.820  1.00  0.00     0.173 A 
ATOM    100  F   UNL     1      11.954  20.331  -6.495  1.00  0.00    -0.203 F 
ATOM    101  C   UNL     1      13.955  21.201  -7.379  1.00  0.00     0.198 A 
ATOM    102  C   UNL     1      16.070  20.328  -6.652  1.00  0.00     0.198 A 
ATOM    103  F   UNL     1      16.144  18.584  -5.075  1.00  0.00    -0.203 F 
ATOM    104  F   UNL     1      13.250  22.041  -8.149  1.00  0.00    -0.200 F 
ATOM    105  C   UNL     1      15.342  21.212  -7.432  1.00  0.00     0.200 A 
ATOM    106  F   UNL     1      17.410  20.347  -6.691  1.00  0.00    -0.200 F 
ATOM    107  F   UNL     1      15.976  22.076  -8.238  1.00  0.00    -0.200 F 
ENDBRANCH  74  97
ENDBRANCH  48  49
ENDBRANCH  41  43
ENDBRANCH  40  41
ENDBRANCH  39  40
ENDBRANCH  38  39
ENDBRANCH  37  38
ENDBRANCH   1  37
TORSDOF 20
