REMARK SMILES Cc1c(CC(=O)N[C@@H](CCO)C(=O)OCCOCCOC(=O)c2ccc(-c3c4nc(c(-c5c(F)c(F)c(F)c(F)c5F)c5ccc([nH]5)c(-c5c(F)c(F)c(F)c(F)c5F)c5nc(c(-c6c(F)c(F)c(F)c(F)c6F)c6ccc3[nH]6)C=C5)C=C4)cc2)cc(-c2ccc(S(C)(=O)=O)cc2)n1-c1ccc(F)cc1
REMARK SMILES IDX 15 1 14 2 12 3 13 4 8 5 7 6 5 7 6 8 4 10 3 11 1 12 2 13
REMARK SMILES IDX 98 14 86 15 87 16 99 17 100 18 105 19 101 20 104 21 102 22
REMARK SMILES IDX 103 23 88 24 89 25 97 26 90 27 96 28 91 29 92 30 93 31 94 32
REMARK SMILES IDX 95 33 9 34 10 35 11 36 16 38 17 39 18 40 19 41 20 42 21 43
REMARK SMILES IDX 22 44 23 45 24 46 85 47 25 48 84 49 26 50 27 51 28 52 78 53
REMARK SMILES IDX 29 54 83 55 77 56 79 57 30 58 82 59 76 60 75 61 31 63 63 64
REMARK SMILES IDX 43 65 62 66 44 67 47 68 61 69 80 70 45 71 46 72 60 74 81 75
REMARK SMILES IDX 48 76 32 77 33 78 41 79 34 80 35 81 39 82 42 83 36 84 37 85
REMARK SMILES IDX 40 86 38 87 64 88 65 89 73 90 66 91 67 92 71 93 74 94 68 95
REMARK SMILES IDX 69 96 72 97 70 98 49 99 50 100 58 101 51 102 52 103 56 104
REMARK SMILES IDX 59 105 53 106 54 107 57 108 55 109
REMARK H PARENT 7 9 11 37 79 62 47 73
REMARK Flexibility Score: inf
ROOT
ATOM      1  C   UNL     1       2.383   0.029  -7.961  1.00  0.00     0.261 C 
ENDROOT
BRANCH   1   2
ATOM      2  O   UNL     1       2.446   0.020  -6.525  1.00  0.00    -0.462 OA
BRANCH   2   3
ATOM      3  C   UNL     1       2.034   1.168  -5.913  1.00  0.00     0.328 C 
ATOM      4  O   UNL     1       1.857   2.242  -6.474  1.00  0.00    -0.250 OA
BRANCH   3   5
ATOM      5  C   UNL     1       1.917   0.988  -4.391  1.00  0.00     0.194 C 
BRANCH   5   6
ATOM      6  N   UNL     1       1.665  -0.385  -3.925  1.00  0.00    -0.342 N 
ATOM      7  C   UNL     1       0.634  -0.878  -3.177  1.00  0.00     0.225 C 
ATOM      8  O   UNL     1       0.614  -2.095  -2.967  1.00  0.00    -0.275 OA
ATOM      9  H   UNL     1       2.342  -1.048  -4.192  1.00  0.00     0.164 HD
BRANCH   7  10
ATOM     10  C   UNL     1      -0.503   0.015  -2.697  1.00  0.00     0.137 C 
BRANCH  10  11
ATOM     11  C   UNL     1      -0.055   1.160  -1.843  1.00  0.00    -0.017 A 
ATOM     12  C   UNL     1       1.050  -0.089   0.141  1.00  0.00     0.065 C 
ATOM     13  C   UNL     1       0.673   1.113  -0.662  1.00  0.00     0.024 A 
ATOM     14  N   UNL     1       0.968   2.420  -0.281  1.00  0.00    -0.314 N 
ATOM     15  C   UNL     1      -0.312   2.529  -2.113  1.00  0.00     0.033 A 
ATOM     16  C   UNL     1       0.389   3.295  -1.202  1.00  0.00     0.053 A 
BRANCH  14  17
ATOM     17  C   UNL     1       1.759   2.812   0.834  1.00  0.00     0.046 A 
ATOM     18  C   UNL     1       1.304   3.834   1.680  1.00  0.00     0.029 A 
ATOM     19  C   UNL     1       3.022   2.237   1.031  1.00  0.00     0.029 A 
ATOM     20  C   UNL     1       2.115   4.281   2.721  1.00  0.00     0.041 A 
ATOM     21  C   UNL     1       3.832   2.701   2.068  1.00  0.00     0.041 A 
ATOM     22  C   UNL     1       3.372   3.716   2.901  1.00  0.00     0.123 A 
ATOM     23  F   UNL     1       4.160   4.166   3.886  1.00  0.00    -0.207 F 
ENDBRANCH  14  17
BRANCH  16  24
ATOM     24  C   UNL     1       0.627   4.742  -1.268  1.00  0.00    -0.001 A 
ATOM     25  C   UNL     1       1.936   5.245  -1.346  1.00  0.00     0.011 A 
ATOM     26  C   UNL     1      -0.450   5.637  -1.290  1.00  0.00     0.011 A 
ATOM     27  C   UNL     1       2.171   6.620  -1.394  1.00  0.00     0.021 A 
ATOM     28  C   UNL     1      -0.224   7.016  -1.339  1.00  0.00     0.021 A 
ATOM     29  C   UNL     1       1.086   7.499  -1.373  1.00  0.00     0.067 A 
BRANCH  29  30
ATOM     30  S   UNL     1       1.399   9.247  -1.438  1.00  0.00     0.175 S 
ATOM     31  C   UNL     1       2.218   9.595   0.097  1.00  0.00     0.163 C 
ATOM     32  O   UNL     1       2.325   9.476  -2.516  1.00  0.00    -0.224 OA
ATOM     33  O   UNL     1       0.105   9.924  -1.399  1.00  0.00    -0.224 OA
ENDBRANCH  29  30
ENDBRANCH  16  24
ENDBRANCH  10  11
ENDBRANCH   7  10
ENDBRANCH   5   6
BRANCH   5  34
ATOM     34  C   UNL     1       3.158   1.560  -3.696  1.00  0.00     0.065 C 
BRANCH  34  35
ATOM     35  C   UNL     1       4.443   0.768  -3.938  1.00  0.00     0.159 C 
BRANCH  35  36
ATOM     36  O   UNL     1       4.862   0.845  -5.291  1.00  0.00    -0.396 OA
ATOM     37  H   UNL     1       4.177   0.468  -5.864  1.00  0.00     0.210 HD
ENDBRANCH  35  36
ENDBRANCH  34  35
ENDBRANCH   5  34
ENDBRANCH   3   5
ENDBRANCH   2   3
ENDBRANCH   1   2
BRANCH   1  38
ATOM     38  C   UNL     1       1.608  -1.192  -8.477  1.00  0.00     0.202 C 
BRANCH  38  39
ATOM     39  O   UNL     1       0.292  -1.342  -7.950  1.00  0.00    -0.374 OA
BRANCH  39  40
ATOM     40  C   UNL     1       0.175  -1.892  -6.631  1.00  0.00     0.202 C 
BRANCH  40  41
ATOM     41  C   UNL     1       0.398  -3.420  -6.453  1.00  0.00     0.261 C 
BRANCH  41  42
ATOM     42  O   UNL     1       1.649  -3.911  -5.838  1.00  0.00    -0.460 OA
BRANCH  42  43
ATOM     43  C   UNL     1       2.217  -5.015  -6.434  1.00  0.00     0.338 C 
ATOM     44  O   UNL     1       2.045  -5.290  -7.617  1.00  0.00    -0.246 OA
BRANCH  43  45
ATOM     45  C   UNL     1       3.132  -5.911  -5.584  1.00  0.00     0.060 A 
ATOM     46  C   UNL     1       4.470  -6.022  -5.940  1.00  0.00     0.016 A 
ATOM     47  C   UNL     1       2.694  -6.894  -4.666  1.00  0.00     0.016 A 
ATOM     48  C   UNL     1       5.322  -7.032  -5.368  1.00  0.00     0.010 A 
ATOM     49  C   UNL     1       3.560  -7.974  -4.138  1.00  0.00     0.010 A 
ATOM     50  C   UNL     1       4.919  -8.099  -4.479  1.00  0.00    -0.014 A 
BRANCH  50  51
ATOM     51  C   UNL     1       5.914  -9.405  -4.375  1.00  0.00     0.031 A 
ATOM     52  C   UNL     1       6.425  -9.534  -5.773  1.00  0.00     0.074 A 
ATOM     53  C   UNL     1       6.366 -10.444  -3.543  1.00  0.00     0.049 A 
ATOM     54  N   UNL     1       5.596  -9.680  -6.772  1.00  0.00    -0.248 NA
ATOM     55  C   UNL     1       7.778  -9.116  -6.151  1.00  0.00     0.031 C 
ATOM     56  C   UNL     1       5.944 -10.766  -2.168  1.00  0.00     0.029 A 
ATOM     57  N   UNL     1       7.347 -11.493  -3.725  1.00  0.00    -0.354 N 
ATOM     58  C   UNL     1       6.364  -9.644  -7.908  1.00  0.00     0.074 A 
ATOM     59  C   UNL     1       7.633  -9.073  -7.479  1.00  0.00     0.031 C 
ATOM     60  C   UNL     1       6.697 -11.765  -1.613  1.00  0.00     0.029 A 
ATOM     61  C   UNL     1       7.682 -12.289  -2.560  1.00  0.00     0.049 A 
ATOM     62  H   UNL     1       7.767 -11.659  -4.600  1.00  0.00     0.167 HD
ATOM     63  C   UNL     1       6.156 -10.651  -8.803  1.00  0.00     0.037 A 
ATOM     64  C   UNL     1       8.606 -13.323  -2.362  1.00  0.00     0.037 A 
ATOM     65  C   UNL     1       7.181 -11.653  -8.724  1.00  0.00     0.049 A 
ATOM     66  C   UNL     1       8.895 -13.900  -3.679  1.00  0.00     0.074 A 
ATOM     67  C   UNL     1       8.556 -11.582  -8.639  1.00  0.00     0.029 A 
ATOM     68  N   UNL     1       6.817 -12.882  -8.218  1.00  0.00    -0.354 N 
ATOM     69  N   UNL     1       8.085 -14.739  -4.246  1.00  0.00    -0.248 NA
ATOM     70  C   UNL     1      10.160 -13.680  -4.373  1.00  0.00     0.031 C 
ATOM     71  C   UNL     1       8.883 -12.476  -7.596  1.00  0.00     0.029 A 
ATOM     72  C   UNL     1       7.813 -13.335  -7.384  1.00  0.00     0.049 A 
ATOM     73  H   UNL     1       5.979 -13.359  -8.420  1.00  0.00     0.167 HD
ATOM     74  C   UNL     1       8.474 -14.695  -5.544  1.00  0.00     0.074 A 
ATOM     75  C   UNL     1       9.868 -14.299  -5.519  1.00  0.00     0.031 C 
ATOM     76  C   UNL     1       7.503 -14.365  -6.428  1.00  0.00     0.037 A 
BRANCH  63  77
ATOM     77  C   UNL     1       4.713 -10.941  -9.085  1.00  0.00     0.064 A 
ATOM     78  C   UNL     1       4.193 -10.613 -10.341  1.00  0.00     0.173 A 
ATOM     79  C   UNL     1       3.811 -11.414  -8.112  1.00  0.00     0.173 A 
ATOM     80  F   UNL     1       5.014 -10.228 -11.329  1.00  0.00    -0.203 F 
ATOM     81  C   UNL     1       2.822 -10.680 -10.587  1.00  0.00     0.198 A 
ATOM     82  C   UNL     1       2.439 -11.414  -8.337  1.00  0.00     0.198 A 
ATOM     83  F   UNL     1       4.258 -11.903  -6.943  1.00  0.00    -0.203 F 
ATOM     84  F   UNL     1       2.348 -10.389 -11.806  1.00  0.00    -0.200 F 
ATOM     85  C   UNL     1       1.944 -11.040  -9.574  1.00  0.00     0.200 A 
ATOM     86  F   UNL     1       1.602 -11.781  -7.357  1.00  0.00    -0.200 F 
ATOM     87  F   UNL     1       0.623 -11.054  -9.798  1.00  0.00    -0.200 F 
ENDBRANCH  63  77
BRANCH  64  88
ATOM     88  C   UNL     1       9.322 -14.202  -1.286  1.00  0.00     0.064 A 
ATOM     89  C   UNL     1       9.758 -15.547  -1.580  1.00  0.00     0.173 A 
ATOM     90  C   UNL     1       9.954 -13.655  -0.162  1.00  0.00     0.173 A 
ATOM     91  F   UNL     1       9.232 -16.250  -2.592  1.00  0.00    -0.203 F 
ATOM     92  C   UNL     1      10.801 -16.208  -0.905  1.00  0.00     0.198 A 
ATOM     93  C   UNL     1      10.981 -14.341   0.543  1.00  0.00     0.198 A 
ATOM     94  F   UNL     1       9.660 -12.408   0.225  1.00  0.00    -0.203 F 
ATOM     95  F   UNL     1      11.232 -17.407  -1.333  1.00  0.00    -0.200 F 
ATOM     96  C   UNL     1      11.428 -15.594   0.150  1.00  0.00     0.200 A 
ATOM     97  F   UNL     1      11.594 -13.744   1.576  1.00  0.00    -0.200 F 
ATOM     98  F   UNL     1      12.469 -16.186   0.757  1.00  0.00    -0.200 F 
ENDBRANCH  64  88
BRANCH  76  99
ATOM     99  C   UNL     1       6.139 -14.995  -6.204  1.00  0.00     0.064 A 
ATOM    100  C   UNL     1       5.382 -14.990  -5.006  1.00  0.00     0.173 A 
ATOM    101  C   UNL     1       5.602 -15.735  -7.266  1.00  0.00     0.173 A 
ATOM    102  F   UNL     1       5.718 -14.233  -3.953  1.00  0.00    -0.203 F 
ATOM    103  C   UNL     1       4.221 -15.757  -4.866  1.00  0.00     0.198 A 
ATOM    104  C   UNL     1       4.413 -16.451  -7.142  1.00  0.00     0.198 A 
ATOM    105  F   UNL     1       6.230 -15.751  -8.451  1.00  0.00    -0.203 F 
ATOM    106  F   UNL     1       3.570 -15.786  -3.693  1.00  0.00    -0.200 F 
ATOM    107  C   UNL     1       3.737 -16.486  -5.935  1.00  0.00     0.200 A 
ATOM    108  F   UNL     1       3.925 -17.110  -8.201  1.00  0.00    -0.200 F 
ATOM    109  F   UNL     1       2.612 -17.204  -5.812  1.00  0.00    -0.200 F 
ENDBRANCH  76  99
ENDBRANCH  50  51
ENDBRANCH  43  45
ENDBRANCH  42  43
ENDBRANCH  41  42
ENDBRANCH  40  41
ENDBRANCH  39  40
ENDBRANCH  38  39
ENDBRANCH   1  38
TORSDOF 23
