REMARK SMILES CSC[C@H](C(=O)OCCOCCOC(=O)c1ccc(-c2c3nc(c(-c4c(F)c(F)c(F)c(F)c4F)c4ccc([nH]4)c(-c4c(F)c(F)c(F)c(F)c4F)c4nc(c(-c5c(F)c(F)c(F)c(F)c5F)c5ccc2[nH]5)C=C4)C=C3)cc1)c1ccccc1
REMARK SMILES IDX 10 1 9 2 8 3 7 4 5 5 6 6 4 7 3 8 2 9 1 10 79 11 80 12 84 13
REMARK SMILES IDX 81 14 83 15 82 16 11 17 12 18 13 19 14 20 15 21 16 22 17 23
REMARK SMILES IDX 78 24 18 25 77 26 19 27 20 28 21 29 71 30 22 31 76 32 70 33
REMARK SMILES IDX 72 34 23 35 75 36 69 37 68 38 24 40 56 41 36 42 55 43 37 44
REMARK SMILES IDX 40 45 54 46 73 47 38 48 39 49 53 51 74 52 41 53 25 54 26 55
REMARK SMILES IDX 34 56 27 57 28 58 32 59 35 60 29 61 30 62 33 63 31 64 57 65
REMARK SMILES IDX 58 66 66 67 59 68 60 69 64 70 67 71 61 72 62 73 65 74 63 75
REMARK SMILES IDX 42 76 43 77 51 78 44 79 45 80 49 81 52 82 46 83 47 84 50 85
REMARK SMILES IDX 48 86
REMARK H PARENT 72 39 40 50
REMARK Flexibility Score: inf
ROOT
ATOM      1  O   UNL     1       2.485   1.851   1.646  1.00  0.00    -0.374 OA
ENDROOT
BRANCH   1   2
ATOM      2  C   UNL     1       3.327   1.143   2.551  1.00  0.00     0.202 C 
BRANCH   2   3
ATOM      3  C   UNL     1       2.612   0.340   3.641  1.00  0.00     0.261 C 
BRANCH   3   4
ATOM      4  O   UNL     1       2.046  -0.890   3.142  1.00  0.00    -0.463 OA
BRANCH   4   5
ATOM      5  C   UNL     1       0.697  -1.040   3.294  1.00  0.00     0.314 C 
ATOM      6  O   UNL     1      -0.059  -0.173   3.720  1.00  0.00    -0.252 OA
BRANCH   5   7
ATOM      7  C   UNL     1       0.232  -2.462   2.982  1.00  0.00     0.139 C 
BRANCH   7   8
ATOM      8  C   UNL     1       0.585  -2.821   1.524  1.00  0.00     0.089 C 
BRANCH   8   9
ATOM      9  S   UNL     1      -0.377  -1.924   0.239  1.00  0.00    -0.164 SA
ATOM     10  C   UNL     1      -2.035  -2.580   0.560  1.00  0.00     0.085 C 
ENDBRANCH   8   9
ENDBRANCH   7   8
BRANCH   7  11
ATOM     11  C   UNL     1       0.700  -3.473   4.039  1.00  0.00    -0.033 A 
ATOM     12  C   UNL     1       0.696  -4.856   3.788  1.00  0.00     0.004 A 
ATOM     13  C   UNL     1       1.032  -3.055   5.343  1.00  0.00     0.004 A 
ATOM     14  C   UNL     1       1.062  -5.774   4.778  1.00  0.00     0.000 A 
ATOM     15  C   UNL     1       1.399  -3.971   6.331  1.00  0.00     0.000 A 
ATOM     16  C   UNL     1       1.421  -5.331   6.047  1.00  0.00     0.000 A 
ENDBRANCH   7  11
ENDBRANCH   5   7
ENDBRANCH   4   5
ENDBRANCH   3   4
ENDBRANCH   2   3
ENDBRANCH   1   2
BRANCH   1  17
ATOM     17  C   UNL     1       1.750   1.075   0.700  1.00  0.00     0.202 C 
BRANCH  17  18
ATOM     18  C   UNL     1       2.570   0.522  -0.472  1.00  0.00     0.261 C 
BRANCH  18  19
ATOM     19  O   UNL     1       3.469  -0.524  -0.050  1.00  0.00    -0.460 OA
BRANCH  19  20
ATOM     20  C   UNL     1       4.774  -0.306  -0.332  1.00  0.00     0.338 C 
ATOM     21  O   UNL     1       5.260   0.625  -0.958  1.00  0.00    -0.246 OA
BRANCH  20  22
ATOM     22  C   UNL     1       5.611  -1.292   0.372  1.00  0.00     0.060 A 
ATOM     23  C   UNL     1       6.535  -0.813   1.309  1.00  0.00     0.016 A 
ATOM     24  C   UNL     1       5.562  -2.650   0.052  1.00  0.00     0.016 A 
ATOM     25  C   UNL     1       7.436  -1.689   1.912  1.00  0.00     0.010 A 
ATOM     26  C   UNL     1       6.476  -3.526   0.650  1.00  0.00     0.010 A 
ATOM     27  C   UNL     1       7.432  -3.047   1.564  1.00  0.00    -0.014 A 
BRANCH  27  28
ATOM     28  C   UNL     1       8.489  -3.945   2.089  1.00  0.00     0.031 A 
ATOM     29  C   UNL     1       9.688  -4.255   1.238  1.00  0.00     0.074 A 
ATOM     30  C   UNL     1       8.386  -4.466   3.324  1.00  0.00     0.049 A 
ATOM     31  N   UNL     1      10.699  -5.049   1.487  1.00  0.00    -0.248 NA
ATOM     32  C   UNL     1       9.759  -3.579  -0.066  1.00  0.00     0.031 C 
ATOM     33  C   UNL     1       7.293  -4.207   4.258  1.00  0.00     0.029 A 
ATOM     34  N   UNL     1       9.211  -5.332   3.999  1.00  0.00    -0.354 N 
ATOM     35  C   UNL     1      11.524  -4.970   0.374  1.00  0.00     0.074 A 
ATOM     36  C   UNL     1      10.886  -4.070  -0.563  1.00  0.00     0.031 C 
ATOM     37  C   UNL     1       7.505  -4.914   5.381  1.00  0.00     0.029 A 
ATOM     38  C   UNL     1       8.729  -5.700   5.230  1.00  0.00     0.049 A 
ATOM     39  H   UNL     1      10.066  -5.657   3.635  1.00  0.00     0.167 HD
ATOM     40  C   UNL     1      12.710  -5.589   0.157  1.00  0.00     0.037 A 
ATOM     41  C   UNL     1       9.204  -6.593   6.119  1.00  0.00     0.037 A 
ATOM     42  C   UNL     1      13.344  -6.483   1.090  1.00  0.00     0.049 A 
ATOM     43  C   UNL     1      10.477  -7.338   5.813  1.00  0.00     0.074 A 
ATOM     44  C   UNL     1      14.566  -7.122   0.978  1.00  0.00     0.029 A 
ATOM     45  N   UNL     1      12.798  -6.874   2.303  1.00  0.00    -0.354 N 
ATOM     46  N   UNL     1      11.270  -7.232   4.775  1.00  0.00    -0.248 NA
ATOM     47  C   UNL     1      10.918  -8.335   6.801  1.00  0.00     0.031 C 
ATOM     48  C   UNL     1      14.735  -7.944   2.098  1.00  0.00     0.029 A 
ATOM     49  C   UNL     1      13.639  -7.780   2.930  1.00  0.00     0.049 A 
ATOM     50  H   UNL     1      11.940  -6.556   2.666  1.00  0.00     0.167 HD
ATOM     51  C   UNL     1      12.305  -8.132   4.989  1.00  0.00     0.074 A 
ATOM     52  C   UNL     1      12.052  -8.765   6.266  1.00  0.00     0.031 C 
ATOM     53  C   UNL     1      13.370  -8.411   4.197  1.00  0.00     0.037 A 
BRANCH  40  54
ATOM     54  C   UNL     1      13.394  -5.342  -1.154  1.00  0.00     0.064 A 
ATOM     55  C   UNL     1      14.029  -4.123  -1.436  1.00  0.00     0.173 A 
ATOM     56  C   UNL     1      13.460  -6.357  -2.120  1.00  0.00     0.173 A 
ATOM     57  F   UNL     1      13.985  -3.119  -0.548  1.00  0.00    -0.203 F 
ATOM     58  C   UNL     1      14.689  -3.924  -2.646  1.00  0.00     0.198 A 
ATOM     59  C   UNL     1      14.141  -6.162  -3.319  1.00  0.00     0.198 A 
ATOM     60  F   UNL     1      12.873  -7.543  -1.897  1.00  0.00    -0.203 F 
ATOM     61  F   UNL     1      15.260  -2.740  -2.909  1.00  0.00    -0.200 F 
ATOM     62  C   UNL     1      14.751  -4.945  -3.583  1.00  0.00     0.200 A 
ATOM     63  F   UNL     1      14.210  -7.154  -4.218  1.00  0.00    -0.200 F 
ATOM     64  F   UNL     1      15.395  -4.755  -4.742  1.00  0.00    -0.200 F 
ENDBRANCH  40  54
BRANCH  41  65
ATOM     65  C   UNL     1       8.452  -6.862   7.371  1.00  0.00     0.064 A 
ATOM     66  C   UNL     1       8.962  -6.482   8.620  1.00  0.00     0.173 A 
ATOM     67  C   UNL     1       7.211  -7.517   7.344  1.00  0.00     0.173 A 
ATOM     68  F   UNL     1      10.157  -5.879   8.699  1.00  0.00    -0.203 F 
ATOM     69  C   UNL     1       8.266  -6.759   9.795  1.00  0.00     0.198 A 
ATOM     70  C   UNL     1       6.503  -7.768   8.517  1.00  0.00     0.198 A 
ATOM     71  F   UNL     1       6.682  -7.907   6.174  1.00  0.00    -0.203 F 
ATOM     72  F   UNL     1       8.796  -6.424  10.979  1.00  0.00    -0.200 F 
ATOM     73  C   UNL     1       7.035  -7.395   9.742  1.00  0.00     0.200 A 
ATOM     74  F   UNL     1       5.309  -8.373   8.459  1.00  0.00    -0.200 F 
ATOM     75  F   UNL     1       6.364  -7.657  10.872  1.00  0.00    -0.200 F 
ENDBRANCH  41  65
BRANCH  53  76
ATOM     76  C   UNL     1      14.344  -9.442   4.686  1.00  0.00     0.064 A 
ATOM     77  C   UNL     1      14.026 -10.808   4.678  1.00  0.00     0.173 A 
ATOM     78  C   UNL     1      15.624  -9.067   5.120  1.00  0.00     0.173 A 
ATOM     79  F   UNL     1      12.809 -11.215   4.288  1.00  0.00    -0.203 F 
ATOM     80  C   UNL     1      14.950 -11.760   5.102  1.00  0.00     0.198 A 
ATOM     81  C   UNL     1      16.555 -10.023   5.517  1.00  0.00     0.198 A 
ATOM     82  F   UNL     1      15.979  -7.773   5.141  1.00  0.00    -0.203 F 
ATOM     83  F   UNL     1      14.612 -13.056   5.122  1.00  0.00    -0.200 F 
ATOM     84  C   UNL     1      16.215 -11.368   5.513  1.00  0.00     0.200 A 
ATOM     85  F   UNL     1      17.781  -9.644   5.903  1.00  0.00    -0.200 F 
ATOM     86  F   UNL     1      17.106 -12.286   5.911  1.00  0.00    -0.200 F 
ENDBRANCH  53  76
ENDBRANCH  27  28
ENDBRANCH  20  22
ENDBRANCH  19  20
ENDBRANCH  18  19
ENDBRANCH  17  18
ENDBRANCH   1  17
TORSDOF 17
