REMARK SMILES C[C@@H](C(=O)OCCOCCOC(=O)c1ccc(-c2c3nc(c(-c4c(F)c(F)c(F)c(F)c4F)c4ccc([nH]4)c(-c4c(F)c(F)c(F)c(F)c4F)c4nc(c(-c5c(F)c(F)c(F)c(F)c5F)c5ccc2[nH]5)C=C4)C=C3)cc1)c1ccc(OC2CCCC2)cc1F
REMARK SMILES IDX 7 1 6 2 5 3 3 4 4 5 2 6 1 7 77 8 78 9 88 10 79 11 87 12
REMARK SMILES IDX 89 13 80 14 81 15 82 16 83 17 86 18 84 19 85 20 8 21 9 22
REMARK SMILES IDX 10 23 11 24 12 25 13 26 14 27 15 28 76 29 16 30 75 31 17 32
REMARK SMILES IDX 18 33 19 34 69 35 20 36 74 37 68 38 70 39 21 40 73 41 67 42
REMARK SMILES IDX 66 43 22 45 54 46 34 47 53 48 35 49 38 50 52 51 71 52 36 53
REMARK SMILES IDX 37 54 51 56 72 57 39 58 23 59 24 60 32 61 25 62 26 63 30 64
REMARK SMILES IDX 33 65 27 66 28 67 31 68 29 69 55 70 56 71 64 72 57 73 58 74
REMARK SMILES IDX 62 75 65 76 59 77 60 78 63 79 61 80 40 81 41 82 49 83 42 84
REMARK SMILES IDX 43 85 47 86 50 87 44 88 45 89 48 90 46 91
REMARK H PARENT 70 44 38 55
REMARK Flexibility Score: inf
ROOT
ATOM      1  C   UNL     1       2.170  -1.283   4.536  1.00  0.00     0.202 C 
ENDROOT
BRANCH   1   2
ATOM      2  C   UNL     1       2.445  -2.320   3.445  1.00  0.00     0.261 C 
BRANCH   2   3
ATOM      3  O   UNL     1       2.121  -1.823   2.136  1.00  0.00    -0.463 OA
BRANCH   3   4
ATOM      4  C   UNL     1       1.247  -2.595   1.431  1.00  0.00     0.313 C 
ATOM      5  O   UNL     1       0.903  -3.718   1.786  1.00  0.00    -0.252 OA
BRANCH   4   6
ATOM      6  C   UNL     1       0.695  -1.897   0.174  1.00  0.00     0.129 C 
ATOM      7  C   UNL     1       1.425  -0.598  -0.188  1.00  0.00     0.025 C 
BRANCH   6   8
ATOM      8  C   UNL     1      -0.823  -1.772   0.263  1.00  0.00     0.002 A 
ATOM      9  C   UNL     1      -1.515  -0.566   0.435  1.00  0.00     0.011 A 
ATOM     10  C   UNL     1      -1.586  -2.946   0.225  1.00  0.00     0.130 A 
ATOM     11  C   UNL     1      -2.912  -0.562   0.579  1.00  0.00     0.047 A 
ATOM     12  C   UNL     1      -2.964  -2.948   0.416  1.00  0.00     0.086 A 
ATOM     13  F   UNL     1      -0.989  -4.123  -0.013  1.00  0.00    -0.207 F 
ATOM     14  C   UNL     1      -3.647  -1.752   0.572  1.00  0.00     0.122 A 
BRANCH  14  15
ATOM     15  O   UNL     1      -4.995  -1.597   0.714  1.00  0.00    -0.490 OA
BRANCH  15  16
ATOM     16  C   UNL     1      -5.907  -2.688   0.615  1.00  0.00     0.173 C 
ATOM     17  C   UNL     1      -5.892  -3.481  -0.690  1.00  0.00     0.045 C 
ATOM     18  C   UNL     1      -5.846  -3.694   1.765  1.00  0.00     0.045 C 
ATOM     19  C   UNL     1      -6.496  -4.826  -0.321  1.00  0.00     0.004 C 
ATOM     20  C   UNL     1      -6.186  -5.051   1.156  1.00  0.00     0.004 C 
ENDBRANCH  15  16
ENDBRANCH  14  15
ENDBRANCH   6   8
ENDBRANCH   4   6
ENDBRANCH   3   4
ENDBRANCH   2   3
ENDBRANCH   1   2
BRANCH   1  21
ATOM     21  O   UNL     1       0.850  -0.752   4.607  1.00  0.00    -0.374 OA
BRANCH  21  22
ATOM     22  C   UNL     1       0.446   0.171   3.595  1.00  0.00     0.202 C 
BRANCH  22  23
ATOM     23  C   UNL     1       1.117   1.551   3.603  1.00  0.00     0.261 C 
BRANCH  23  24
ATOM     24  O   UNL     1       2.520   1.481   3.283  1.00  0.00    -0.460 OA
BRANCH  24  25
ATOM     25  C   UNL     1       3.346   1.959   4.245  1.00  0.00     0.338 C 
ATOM     26  O   UNL     1       3.028   2.523   5.283  1.00  0.00    -0.246 OA
BRANCH  25  27
ATOM     27  C   UNL     1       4.735   1.545   3.980  1.00  0.00     0.060 A 
ATOM     28  C   UNL     1       5.388   0.802   4.973  1.00  0.00     0.016 A 
ATOM     29  C   UNL     1       5.420   1.956   2.836  1.00  0.00     0.016 A 
ATOM     30  C   UNL     1       6.744   0.508   4.849  1.00  0.00     0.010 A 
ATOM     31  C   UNL     1       6.786   1.671   2.719  1.00  0.00     0.010 A 
ATOM     32  C   UNL     1       7.461   0.979   3.741  1.00  0.00    -0.014 A 
BRANCH  32  33
ATOM     33  C   UNL     1       8.941   0.884   3.744  1.00  0.00     0.031 A 
ATOM     34  C   UNL     1       9.746   2.076   4.184  1.00  0.00     0.074 A 
ATOM     35  C   UNL     1       9.560  -0.259   3.403  1.00  0.00     0.049 A 
ATOM     36  N   UNL     1      11.044   2.223   4.256  1.00  0.00    -0.248 NA
ATOM     37  C   UNL     1       8.982   3.262   4.602  1.00  0.00     0.031 C 
ATOM     38  C   UNL     1       8.890  -1.493   2.999  1.00  0.00     0.029 A 
ATOM     39  N   UNL     1      10.897  -0.563   3.340  1.00  0.00    -0.354 N 
ATOM     40  C   UNL     1      11.253   3.513   4.726  1.00  0.00     0.074 A 
ATOM     41  C   UNL     1       9.950   4.119   4.893  1.00  0.00     0.031 C 
ATOM     42  C   UNL     1       9.821  -2.421   2.718  1.00  0.00     0.029 A 
ATOM     43  C   UNL     1      11.150  -1.837   2.897  1.00  0.00     0.049 A 
ATOM     44  H   UNL     1      11.607   0.073   3.589  1.00  0.00     0.167 HD
ATOM     45  C   UNL     1      12.425   4.132   5.004  1.00  0.00     0.037 A 
ATOM     46  C   UNL     1      12.322  -2.453   2.648  1.00  0.00     0.037 A 
ATOM     47  C   UNL     1      13.721   3.530   4.838  1.00  0.00     0.049 A 
ATOM     48  C   UNL     1      13.613  -1.719   2.900  1.00  0.00     0.074 A 
ATOM     49  C   UNL     1      14.966   4.073   5.102  1.00  0.00     0.029 A 
ATOM     50  N   UNL     1      13.938   2.248   4.355  1.00  0.00    -0.354 N 
ATOM     51  N   UNL     1      13.801  -0.508   3.363  1.00  0.00    -0.248 NA
ATOM     52  C   UNL     1      14.857  -2.442   2.596  1.00  0.00     0.031 C 
ATOM     53  C   UNL     1      15.938   3.135   4.738  1.00  0.00     0.029 A 
ATOM     54  C   UNL     1      15.298   1.990   4.292  1.00  0.00     0.049 A 
ATOM     55  H   UNL     1      13.230   1.615   4.096  1.00  0.00     0.167 HD
ATOM     56  C   UNL     1      15.177  -0.332   3.431  1.00  0.00     0.074 A 
ATOM     57  C   UNL     1      15.779  -1.566   2.972  1.00  0.00     0.031 C 
ATOM     58  C   UNL     1      15.880   0.754   3.837  1.00  0.00     0.037 A 
BRANCH  45  59
ATOM     59  C   UNL     1      12.357   5.546   5.499  1.00  0.00     0.064 A 
ATOM     60  C   UNL     1      11.914   5.852   6.795  1.00  0.00     0.173 A 
ATOM     61  C   UNL     1      12.768   6.606   4.677  1.00  0.00     0.173 A 
ATOM     62  F   UNL     1      11.497   4.875   7.613  1.00  0.00    -0.203 F 
ATOM     63  C   UNL     1      11.863   7.170   7.241  1.00  0.00     0.198 A 
ATOM     64  C   UNL     1      12.740   7.920   5.136  1.00  0.00     0.198 A 
ATOM     65  F   UNL     1      13.202   6.367   3.431  1.00  0.00    -0.203 F 
ATOM     66  F   UNL     1      11.396   7.443   8.467  1.00  0.00    -0.200 F 
ATOM     67  C   UNL     1      12.282   8.202   6.414  1.00  0.00     0.200 A 
ATOM     68  F   UNL     1      13.153   8.916   4.339  1.00  0.00    -0.200 F 
ATOM     69  F   UNL     1      12.237   9.470   6.847  1.00  0.00    -0.200 F 
ENDBRANCH  45  59
BRANCH  46  70
ATOM     70  C   UNL     1      12.329  -3.840   2.117  1.00  0.00     0.064 A 
ATOM     71  C   UNL     1      12.778  -4.914   2.897  1.00  0.00     0.173 A 
ATOM     72  C   UNL     1      11.900  -4.117   0.810  1.00  0.00     0.173 A 
ATOM     73  F   UNL     1      13.224  -4.696   4.143  1.00  0.00    -0.203 F 
ATOM     74  C   UNL     1      12.812  -6.210   2.385  1.00  0.00     0.198 A 
ATOM     75  C   UNL     1      11.909  -5.416   0.309  1.00  0.00     0.198 A 
ATOM     76  F   UNL     1      11.465  -3.123   0.022  1.00  0.00    -0.203 F 
ATOM     77  F   UNL     1      13.287  -7.212   3.137  1.00  0.00    -0.200 F 
ATOM     78  C   UNL     1      12.372  -6.461   1.094  1.00  0.00     0.200 A 
ATOM     79  F   UNL     1      11.475  -5.655  -0.936  1.00  0.00    -0.200 F 
ATOM     80  F   UNL     1      12.402  -7.707   0.604  1.00  0.00    -0.200 F 
ENDBRANCH  46  70
BRANCH  58  81
ATOM     81  C   UNL     1      17.377   0.648   3.834  1.00  0.00     0.064 A 
ATOM     82  C   UNL     1      18.112   0.662   2.639  1.00  0.00     0.173 A 
ATOM     83  C   UNL     1      18.087   0.578   5.042  1.00  0.00     0.173 A 
ATOM     84  F   UNL     1      17.479   0.714   1.458  1.00  0.00    -0.203 F 
ATOM     85  C   UNL     1      19.503   0.587   2.655  1.00  0.00     0.198 A 
ATOM     86  C   UNL     1      19.478   0.530   5.054  1.00  0.00     0.198 A 
ATOM     87  F   UNL     1      17.431   0.569   6.212  1.00  0.00    -0.203 F 
ATOM     88  F   UNL     1      20.183   0.559   1.500  1.00  0.00    -0.200 F 
ATOM     89  C   UNL     1      20.184   0.528   3.861  1.00  0.00     0.200 A 
ATOM     90  F   UNL     1      20.136   0.486   6.221  1.00  0.00    -0.200 F 
ATOM     91  F   UNL     1      21.523   0.463   3.873  1.00  0.00    -0.200 F 
ENDBRANCH  58  81
ENDBRANCH  32  33
ENDBRANCH  25  27
ENDBRANCH  24  25
ENDBRANCH  23  24
ENDBRANCH  22  23
ENDBRANCH  21  22
ENDBRANCH   1  21
TORSDOF 17
