REMARK SMILES C=CCN1C(=O)/C(=C/c2ccc(OCc3cccc(C(=O)OCCOCCOC(=O)c4ccc(-c5c6nc(c(-c7c(F)c(F)c(F)c(F)c7F)c7ccc([nH]7)c(-c7c(F)c(F)c(F)c(F)c7F)c7nc(c(-c8c(F)c(F)c(F)c(F)c8F)c8ccc5[nH]8)C=C7)C=C6)cc4)c3)cc2)C(=O)NC1=S
REMARK SMILES IDX 23 1 22 2 20 3 21 4 19 5 15 6 16 7 94 8 17 9 18 10 14 11
REMARK SMILES IDX 13 12 12 13 9 14 10 15 96 16 11 17 95 18 8 19 4 20 5 21
REMARK SMILES IDX 100 22 6 23 7 24 99 25 101 26 97 27 98 29 3 30 2 31 1 32
REMARK SMILES IDX 24 33 25 34 26 35 27 36 28 37 29 38 30 39 31 40 32 41 93 42
REMARK SMILES IDX 33 43 92 44 34 45 35 46 36 47 86 48 37 49 91 50 85 51 87 52
REMARK SMILES IDX 38 53 90 54 84 55 83 56 39 58 71 59 51 60 70 61 52 62 55 63
REMARK SMILES IDX 69 64 88 65 53 66 54 67 68 69 89 70 56 71 40 72 41 73 49 74
REMARK SMILES IDX 42 75 43 76 47 77 50 78 44 79 45 80 48 81 46 82 72 83 73 84
REMARK SMILES IDX 81 85 74 86 75 87 79 88 82 89 76 90 77 91 80 92 78 93 57 94
REMARK SMILES IDX 58 95 66 96 59 97 60 98 64 99 67 100 61 101 62 102 65 103
REMARK SMILES IDX 63 104
REMARK H PARENT 99 28 87 57 55 68
REMARK Flexibility Score: inf
ROOT
ATOM      1  C   UNL     1      -7.282  13.333  -0.884  1.00  0.00     0.261 C 
ENDROOT
BRANCH   1   2
ATOM      2  O   UNL     1      -6.199  12.595  -1.476  1.00  0.00    -0.460 OA
BRANCH   2   3
ATOM      3  C   UNL     1      -6.261  11.250  -1.312  1.00  0.00     0.338 C 
ATOM      4  O   UNL     1      -7.020  10.636  -0.576  1.00  0.00    -0.246 OA
BRANCH   3   5
ATOM      5  C   UNL     1      -5.403  10.591  -2.323  1.00  0.00     0.060 A 
ATOM      6  C   UNL     1      -3.390  10.446  -3.677  1.00  0.00    -0.010 A 
ATOM      7  C   UNL     1      -3.926   9.312  -4.311  1.00  0.00     0.007 A 
ATOM      8  C   UNL     1      -4.161  11.111  -2.707  1.00  0.00     0.023 A 
ATOM      9  C   UNL     1      -5.167   8.802  -3.932  1.00  0.00     0.001 A 
ATOM     10  C   UNL     1      -5.898   9.430  -2.928  1.00  0.00     0.016 A 
BRANCH   6  11
ATOM     11  C   UNL     1      -1.989  10.936  -3.998  1.00  0.00     0.265 C 
BRANCH  11  12
ATOM     12  O   UNL     1      -1.052   9.910  -4.359  1.00  0.00    -0.489 OA
BRANCH  12  13
ATOM     13  C   UNL     1      -0.783   8.922  -3.449  1.00  0.00     0.119 A 
ATOM     14  C   UNL     1      -0.391   6.643  -1.859  1.00  0.00    -0.024 A 
ATOM     15  C   UNL     1       0.037   6.655  -3.191  1.00  0.00     0.012 A 
ATOM     16  C   UNL     1      -0.939   7.801  -1.307  1.00  0.00     0.012 A 
ATOM     17  C   UNL     1      -0.159   7.792  -3.979  1.00  0.00     0.047 A 
ATOM     18  C   UNL     1      -1.128   8.939  -2.097  1.00  0.00     0.047 A 
BRANCH  14  19
ATOM     19  C   UNL     1      -0.292   5.403  -1.087  1.00  0.00     0.027 C 
ATOM     20  N   UNL     1      -1.701   2.187  -0.689  1.00  0.00    -0.281 N 
ATOM     21  C   UNL     1      -0.954   3.264  -0.208  1.00  0.00     0.265 C 
ATOM     22  C   UNL     1      -3.020   2.359  -1.105  1.00  0.00     0.183 C 
ATOM     23  O   UNL     1      -0.063   3.187   0.634  1.00  0.00    -0.268 OA
ATOM     24  C   UNL     1      -1.315   4.571  -0.808  1.00  0.00     0.106 C 
ATOM     25  N   UNL     1      -3.459   3.650  -1.251  1.00  0.00    -0.298 N 
ATOM     26  S   UNL     1      -4.153   1.163  -1.422  1.00  0.00    -0.040 S 
ATOM     27  C   UNL     1      -2.727   4.800  -1.157  1.00  0.00     0.263 C 
ATOM     28  H   UNL     1      -4.417   3.761  -1.447  1.00  0.00     0.172 HD
ATOM     29  O   UNL     1      -3.247   5.891  -1.341  1.00  0.00    -0.269 OA
BRANCH  20  30
ATOM     30  C   UNL     1      -1.163   0.835  -0.471  1.00  0.00     0.155 C 
BRANCH  30  31
ATOM     31  C   UNL     1       0.307   0.729  -0.773  1.00  0.00    -0.013 C 
ATOM     32  C   UNL     1       1.171   0.069   0.011  1.00  0.00     0.006 C 
ENDBRANCH  30  31
ENDBRANCH  20  30
ENDBRANCH  14  19
ENDBRANCH  12  13
ENDBRANCH  11  12
ENDBRANCH   6  11
ENDBRANCH   3   5
ENDBRANCH   2   3
ENDBRANCH   1   2
BRANCH   1  33
ATOM     33  C   UNL     1      -8.130  14.020  -1.960  1.00  0.00     0.202 C 
BRANCH  33  34
ATOM     34  O   UNL     1      -8.849  13.165  -2.849  1.00  0.00    -0.374 OA
BRANCH  34  35
ATOM     35  C   UNL     1      -8.117  12.565  -3.918  1.00  0.00     0.202 C 
BRANCH  35  36
ATOM     36  C   UNL     1      -7.833  13.446  -5.140  1.00  0.00     0.261 C 
BRANCH  36  37
ATOM     37  O   UNL     1      -6.971  14.554  -4.826  1.00  0.00    -0.460 OA
BRANCH  37  38
ATOM     38  C   UNL     1      -7.583  15.761  -4.812  1.00  0.00     0.338 C 
ATOM     39  O   UNL     1      -8.742  16.012  -5.108  1.00  0.00    -0.246 OA
BRANCH  38  40
ATOM     40  C   UNL     1      -6.691  16.768  -4.210  1.00  0.00     0.060 A 
ATOM     41  C   UNL     1      -7.193  17.520  -3.140  1.00  0.00     0.016 A 
ATOM     42  C   UNL     1      -5.419  17.025  -4.725  1.00  0.00     0.016 A 
ATOM     43  C   UNL     1      -6.442  18.566  -2.610  1.00  0.00     0.010 A 
ATOM     44  C   UNL     1      -4.670  18.081  -4.197  1.00  0.00     0.010 A 
ATOM     45  C   UNL     1      -5.192  18.877  -3.161  1.00  0.00    -0.014 A 
BRANCH  45  46
ATOM     46  C   UNL     1      -4.495  20.119  -2.744  1.00  0.00     0.031 A 
ATOM     47  C   UNL     1      -4.565  21.329  -3.632  1.00  0.00     0.074 A 
ATOM     48  C   UNL     1      -3.829  20.174  -1.577  1.00  0.00     0.049 A 
ATOM     49  N   UNL     1      -4.000  22.501  -3.489  1.00  0.00    -0.248 NA
ATOM     50  C   UNL     1      -5.381  21.200  -4.850  1.00  0.00     0.031 C 
ATOM     51  C   UNL     1      -3.723  19.080  -0.615  1.00  0.00     0.029 A 
ATOM     52  N   UNL     1      -3.108  21.195  -1.010  1.00  0.00    -0.354 N 
ATOM     53  C   UNL     1      -4.384  23.244  -4.597  1.00  0.00     0.074 A 
ATOM     54  C   UNL     1      -5.204  22.382  -5.422  1.00  0.00     0.031 C 
ATOM     55  C   UNL     1      -2.971  19.485   0.423  1.00  0.00     0.029 A 
ATOM     56  C   UNL     1      -2.515  20.853   0.179  1.00  0.00     0.049 A 
ATOM     57  H   UNL     1      -3.025  22.087  -1.418  1.00  0.00     0.167 HD
ATOM     58  C   UNL     1      -4.088  24.532  -4.895  1.00  0.00     0.037 A 
ATOM     59  C   UNL     1      -1.681  21.558   0.968  1.00  0.00     0.037 A 
ATOM     60  C   UNL     1      -3.275  25.387  -4.070  1.00  0.00     0.049 A 
ATOM     61  C   UNL     1      -1.309  22.965   0.579  1.00  0.00     0.074 A 
ATOM     62  C   UNL     1      -2.935  26.713  -4.273  1.00  0.00     0.029 A 
ATOM     63  N   UNL     1      -2.666  24.996  -2.887  1.00  0.00    -0.354 N 
ATOM     64  N   UNL     1      -1.697  23.670  -0.456  1.00  0.00    -0.248 NA
ATOM     65  C   UNL     1      -0.382  23.676   1.471  1.00  0.00     0.031 C 
ATOM     66  C   UNL     1      -2.076  27.108  -3.243  1.00  0.00     0.029 A 
ATOM     67  C   UNL     1      -1.929  26.047  -2.364  1.00  0.00     0.049 A 
ATOM     68  H   UNL     1      -2.745  24.104  -2.479  1.00  0.00     0.167 HD
ATOM     69  C   UNL     1      -1.091  24.913  -0.324  1.00  0.00     0.074 A 
ATOM     70  C   UNL     1      -0.318  24.870   0.899  1.00  0.00     0.031 C 
ATOM     71  C   UNL     1      -1.169  25.992  -1.140  1.00  0.00     0.037 A 
BRANCH  58  72
ATOM     72  C   UNL     1      -4.625  25.088  -6.182  1.00  0.00     0.064 A 
ATOM     73  C   UNL     1      -5.991  25.355  -6.360  1.00  0.00     0.173 A 
ATOM     74  C   UNL     1      -3.755  25.391  -7.241  1.00  0.00     0.173 A 
ATOM     75  F   UNL     1      -6.867  25.072  -5.384  1.00  0.00    -0.203 F 
ATOM     76  C   UNL     1      -6.468  25.879  -7.559  1.00  0.00     0.198 A 
ATOM     77  C   UNL     1      -4.232  25.943  -8.427  1.00  0.00     0.198 A 
ATOM     78  F   UNL     1      -2.439  25.159  -7.122  1.00  0.00    -0.203 F 
ATOM     79  F   UNL     1      -7.783  26.081  -7.723  1.00  0.00    -0.200 F 
ATOM     80  C   UNL     1      -5.588  26.179  -8.588  1.00  0.00     0.200 A 
ATOM     81  F   UNL     1      -3.378  26.245  -9.414  1.00  0.00    -0.200 F 
ATOM     82  F   UNL     1      -6.048  26.690  -9.738  1.00  0.00    -0.200 F 
ENDBRANCH  58  72
BRANCH  59  83
ATOM     83  C   UNL     1      -1.129  20.941   2.203  1.00  0.00     0.064 A 
ATOM     84  C   UNL     1      -1.495  21.409   3.473  1.00  0.00     0.173 A 
ATOM     85  C   UNL     1      -0.211  19.882   2.139  1.00  0.00     0.173 A 
ATOM     86  F   UNL     1      -2.350  22.436   3.586  1.00  0.00    -0.203 F 
ATOM     87  C   UNL     1      -0.949  20.856   4.629  1.00  0.00     0.198 A 
ATOM     88  C   UNL     1       0.311  19.310   3.296  1.00  0.00     0.198 A 
ATOM     89  F   UNL     1       0.173  19.398   0.949  1.00  0.00    -0.203 F 
ATOM     90  F   UNL     1      -1.279  21.356   5.828  1.00  0.00    -0.200 F 
ATOM     91  C   UNL     1      -0.051  19.803   4.540  1.00  0.00     0.200 A 
ATOM     92  F   UNL     1       1.168  18.284   3.206  1.00  0.00    -0.200 F 
ATOM     93  F   UNL     1       0.471  19.269   5.653  1.00  0.00    -0.200 F 
ENDBRANCH  59  83
BRANCH  71  94
ATOM     94  C   UNL     1      -0.433  27.233  -0.720  1.00  0.00     0.064 A 
ATOM     95  C   UNL     1       0.967  27.311  -0.759  1.00  0.00     0.173 A 
ATOM     96  C   UNL     1      -1.142  28.374  -0.312  1.00  0.00     0.173 A 
ATOM     97  F   UNL     1       1.692  26.244  -1.127  1.00  0.00    -0.203 F 
ATOM     98  C   UNL     1       1.630  28.476  -0.380  1.00  0.00     0.198 A 
ATOM     99  C   UNL     1      -0.477  29.547   0.034  1.00  0.00     0.198 A 
ATOM    100  F   UNL     1      -2.483  28.356  -0.265  1.00  0.00    -0.203 F 
ATOM    101  F   UNL     1       2.970  28.511  -0.378  1.00  0.00    -0.200 F 
ATOM    102  C   UNL     1       0.908  29.594   0.008  1.00  0.00     0.200 A 
ATOM    103  F   UNL     1      -1.178  30.631   0.394  1.00  0.00    -0.200 F 
ATOM    104  F   UNL     1       1.548  30.716   0.364  1.00  0.00    -0.200 F 
ENDBRANCH  71  94
ENDBRANCH  45  46
ENDBRANCH  38  40
ENDBRANCH  37  38
ENDBRANCH  36  37
ENDBRANCH  35  36
ENDBRANCH  34  35
ENDBRANCH  33  34
ENDBRANCH   1  33
TORSDOF 20
