REMARK SMILES CC1CC[NH+]([C@H](c2ccc(F)cc2)c2ccc([C@@H](C)C(=O)OCCOCCOC(=O)c3ccc(-c4c5nc(c(-c6c(F)c(F)c(F)c(F)c6F)c6ccc([nH]6)c(-c6c(F)c(F)c(F)c(F)c6F)c6nc(c(-c7c(F)c(F)c(F)c(F)c7F)c7ccc4[nH]7)C=C6)C=C5)cc3)cc2-c2ccc(C(F)(F)F)cc2)CC1
REMARK SMILES IDX 24 1 23 2 22 3 20 4 21 5 18 6 19 7 17 8 14 9 15 10 95 11
REMARK SMILES IDX 16 12 94 13 6 14 5 15 1 16 2 17 3 18 107 19 4 20 106 21 7 23
REMARK SMILES IDX 8 24 13 25 9 26 12 27 10 28 11 29 96 30 97 31 105 32 98 33
REMARK SMILES IDX 104 34 99 35 100 36 101 37 102 38 103 39 25 40 26 41 27 42
REMARK SMILES IDX 28 43 29 44 30 45 31 46 32 47 93 48 33 49 92 50 34 51 35 52
REMARK SMILES IDX 36 53 86 54 37 55 91 56 85 57 87 58 38 59 90 60 84 61 83 62
REMARK SMILES IDX 39 64 71 65 51 66 70 67 52 68 55 69 69 70 88 71 53 72 54 73
REMARK SMILES IDX 68 75 89 76 56 77 40 78 41 79 49 80 42 81 43 82 47 83 50 84
REMARK SMILES IDX 44 85 45 86 48 87 46 88 72 89 73 90 81 91 74 92 75 93 79 94
REMARK SMILES IDX 82 95 76 96 77 97 80 98 78 99 57 100 58 101 66 102 59 103
REMARK SMILES IDX 60 104 64 105 67 106 61 107 62 108 65 109 63 110
REMARK H PARENT 5 22 87 63 55 74
REMARK Flexibility Score: inf
ROOT
ATOM      1  C   UNL     1       2.661   7.620  -2.011  1.00  0.00     0.202 C 
ENDROOT
BRANCH   1   2
ATOM      2  C   UNL     1       3.318   7.601  -3.393  1.00  0.00     0.261 C 
BRANCH   2   3
ATOM      3  O   UNL     1       3.571   6.247  -3.813  1.00  0.00    -0.463 OA
BRANCH   3   4
ATOM      4  C   UNL     1       4.873   5.894  -3.973  1.00  0.00     0.313 C 
ATOM      5  O   UNL     1       5.812   6.682  -3.925  1.00  0.00    -0.252 OA
BRANCH   4   6
ATOM      6  C   UNL     1       5.071   4.415  -4.281  1.00  0.00     0.126 C 
ATOM      7  C   UNL     1       5.052   4.211  -5.794  1.00  0.00     0.025 C 
BRANCH   6   8
ATOM      8  C   UNL     1       4.171   3.415  -3.560  1.00  0.00    -0.033 A 
ATOM      9  C   UNL     1       2.563   1.385  -2.296  1.00  0.00     0.022 A 
ATOM     10  C   UNL     1       2.006   2.414  -3.083  1.00  0.00     0.011 A 
ATOM     11  C   UNL     1       3.974   1.416  -2.106  1.00  0.00    -0.009 A 
ATOM     12  C   UNL     1       2.788   3.389  -3.720  1.00  0.00     0.005 A 
ATOM     13  C   UNL     1       4.741   2.431  -2.735  1.00  0.00     0.013 A 
BRANCH   9  14
ATOM     14  C   UNL     1       1.690   0.239  -1.692  1.00  0.00     0.247 C 
BRANCH  14  15
ATOM     15  N   UNL     1       0.280   0.064  -2.174  1.00  0.00    -0.325 N 
ATOM     16  C   UNL     1      -3.382   1.202  -4.333  1.00  0.00     0.008 C 
ATOM     17  C   UNL     1      -1.997   1.086  -3.707  1.00  0.00    -0.003 C 
ATOM     18  C   UNL     1      -1.245  -0.151  -4.197  1.00  0.00     0.065 C 
ATOM     19  C   UNL     1      -2.084   0.978  -2.190  1.00  0.00     0.065 C 
ATOM     20  C   UNL     1       0.172  -0.210  -3.610  1.00  0.00     0.263 C 
ATOM     21  C   UNL     1      -0.688   0.975  -1.573  1.00  0.00     0.263 C 
ATOM     22  H   UNL     1      -0.042  -0.820  -1.781  1.00  0.00     0.348 HD
ENDBRANCH  14  15
BRANCH  14  23
ATOM     23  C   UNL     1       1.762   0.161  -0.155  1.00  0.00     0.014 A 
ATOM     24  C   UNL     1       1.597   1.302   0.654  1.00  0.00     0.013 A 
ATOM     25  C   UNL     1       1.974  -1.081   0.474  1.00  0.00     0.013 A 
ATOM     26  C   UNL     1       1.656   1.206   2.045  1.00  0.00     0.040 A 
ATOM     27  C   UNL     1       2.053  -1.172   1.865  1.00  0.00     0.040 A 
ATOM     28  C   UNL     1       1.891  -0.029   2.636  1.00  0.00     0.123 A 
ATOM     29  F   UNL     1       1.955  -0.118   3.971  1.00  0.00    -0.207 F 
ENDBRANCH  14  23
ENDBRANCH   9  14
BRANCH  11  30
ATOM     30  C   UNL     1       4.706   0.448  -1.265  1.00  0.00    -0.018 A 
ATOM     31  C   UNL     1       5.250   0.852  -0.034  1.00  0.00     0.009 A 
ATOM     32  C   UNL     1       4.885  -0.885  -1.662  1.00  0.00     0.009 A 
ATOM     33  C   UNL     1       5.910  -0.058   0.796  1.00  0.00     0.014 A 
ATOM     34  C   UNL     1       5.536  -1.801  -0.828  1.00  0.00     0.014 A 
ATOM     35  C   UNL     1       6.042  -1.400   0.416  1.00  0.00     0.056 A 
BRANCH  35  36
ATOM     36  C   UNL     1       6.732  -2.380   1.334  1.00  0.00     0.416 C 
ATOM     37  F   UNL     1       8.079  -2.187   1.382  1.00  0.00    -0.166 F 
ATOM     38  F   UNL     1       6.295  -2.292   2.621  1.00  0.00    -0.166 F 
ATOM     39  F   UNL     1       6.552  -3.681   0.971  1.00  0.00    -0.166 F 
ENDBRANCH  35  36
ENDBRANCH  11  30
ENDBRANCH   6   8
ENDBRANCH   4   6
ENDBRANCH   3   4
ENDBRANCH   2   3
ENDBRANCH   1   2
BRANCH   1  40
ATOM     40  O   UNL     1       3.514   7.267  -0.922  1.00  0.00    -0.374 OA
BRANCH  40  41
ATOM     41  C   UNL     1       3.744   5.875  -0.712  1.00  0.00     0.202 C 
BRANCH  41  42
ATOM     42  C   UNL     1       2.664   5.135   0.083  1.00  0.00     0.261 C 
BRANCH  42  43
ATOM     43  O   UNL     1       1.401   5.104  -0.607  1.00  0.00    -0.460 OA
BRANCH  43  44
ATOM     44  C   UNL     1       0.459   5.945  -0.119  1.00  0.00     0.338 C 
ATOM     45  O   UNL     1       0.534   6.643   0.883  1.00  0.00    -0.246 OA
BRANCH  44  46
ATOM     46  C   UNL     1      -0.677   6.028  -1.057  1.00  0.00     0.060 A 
ATOM     47  C   UNL     1      -1.185   7.290  -1.380  1.00  0.00     0.016 A 
ATOM     48  C   UNL     1      -1.281   4.880  -1.567  1.00  0.00     0.016 A 
ATOM     49  C   UNL     1      -2.330   7.400  -2.172  1.00  0.00     0.010 A 
ATOM     50  C   UNL     1      -2.418   4.987  -2.370  1.00  0.00     0.010 A 
ATOM     51  C   UNL     1      -2.975   6.246  -2.640  1.00  0.00    -0.014 A 
BRANCH  51  52
ATOM     52  C   UNL     1      -4.305   6.344  -3.289  1.00  0.00     0.031 A 
ATOM     53  C   UNL     1      -5.534   5.986  -2.499  1.00  0.00     0.074 A 
ATOM     54  C   UNL     1      -4.420   6.751  -4.564  1.00  0.00     0.049 A 
ATOM     55  N   UNL     1      -6.790   5.993  -2.868  1.00  0.00    -0.248 NA
ATOM     56  C   UNL     1      -5.319   5.552  -1.109  1.00  0.00     0.031 C 
ATOM     57  C   UNL     1      -3.305   7.124  -5.432  1.00  0.00     0.029 A 
ATOM     58  N   UNL     1      -5.532   6.915  -5.352  1.00  0.00    -0.354 N 
ATOM     59  C   UNL     1      -7.510   5.565  -1.761  1.00  0.00     0.074 A 
ATOM     60  C   UNL     1      -6.552   5.263  -0.721  1.00  0.00     0.031 C 
ATOM     61  C   UNL     1      -3.791   7.479  -6.633  1.00  0.00     0.029 A 
ATOM     62  C   UNL     1      -5.247   7.336  -6.626  1.00  0.00     0.049 A 
ATOM     63  H   UNL     1      -6.448   6.745  -5.032  1.00  0.00     0.167 HD
ATOM     64  C   UNL     1      -8.852   5.454  -1.618  1.00  0.00     0.037 A 
ATOM     65  C   UNL     1      -6.066   7.574  -7.669  1.00  0.00     0.037 A 
ATOM     66  C   UNL     1      -9.806   5.771  -2.648  1.00  0.00     0.049 A 
ATOM     67  C   UNL     1      -7.552   7.408  -7.501  1.00  0.00     0.074 A 
ATOM     68  C   UNL     1     -11.187   5.740  -2.581  1.00  0.00     0.029 A 
ATOM     69  N   UNL     1      -9.475   6.172  -3.934  1.00  0.00    -0.354 N 
ATOM     70  N   UNL     1      -8.227   7.048  -6.437  1.00  0.00    -0.248 NA
ATOM     71  C   UNL     1      -8.391   7.686  -8.677  1.00  0.00     0.031 C 
ATOM     72  C   UNL     1     -11.693   6.072  -3.841  1.00  0.00     0.029 A 
ATOM     73  C   UNL     1     -10.628   6.362  -4.679  1.00  0.00     0.049 A 
ATOM     74  H   UNL     1      -8.558   6.301  -4.268  1.00  0.00     0.167 HD
ATOM     75  C   UNL     1      -9.566   7.074  -6.805  1.00  0.00     0.074 A 
ATOM     76  C   UNL     1      -9.610   7.494  -8.190  1.00  0.00     0.031 C 
ATOM     77  C   UNL     1     -10.659   6.778  -6.059  1.00  0.00     0.037 A 
BRANCH  64  78
ATOM     78  C   UNL     1      -9.375   4.967  -0.299  1.00  0.00     0.064 A 
ATOM     79  C   UNL     1      -9.982   3.707  -0.196  1.00  0.00     0.173 A 
ATOM     80  C   UNL     1      -9.326   5.768   0.852  1.00  0.00     0.173 A 
ATOM     81  F   UNL     1     -10.059   2.904  -1.268  1.00  0.00    -0.203 F 
ATOM     82  C   UNL     1     -10.527   3.269   1.008  1.00  0.00     0.198 A 
ATOM     83  C   UNL     1      -9.848   5.317   2.061  1.00  0.00     0.198 A 
ATOM     84  F   UNL     1      -8.746   6.977   0.808  1.00  0.00    -0.203 F 
ATOM     85  F   UNL     1     -11.125   2.072   1.075  1.00  0.00    -0.200 F 
ATOM     86  C   UNL     1     -10.455   4.072   2.136  1.00  0.00     0.200 A 
ATOM     87  F   UNL     1      -9.755   6.083   3.157  1.00  0.00    -0.200 F 
ATOM     88  F   UNL     1     -10.967   3.644   3.299  1.00  0.00    -0.200 F 
ENDBRANCH  64  78
BRANCH  65  89
ATOM     89  C   UNL     1      -5.483   8.022  -8.959  1.00  0.00     0.064 A 
ATOM     90  C   UNL     1      -4.732   7.149  -9.759  1.00  0.00     0.173 A 
ATOM     91  C   UNL     1      -5.625   9.347  -9.391  1.00  0.00     0.173 A 
ATOM     92  F   UNL     1      -4.566   5.872  -9.386  1.00  0.00    -0.203 F 
ATOM     93  C   UNL     1      -4.122   7.592 -10.930  1.00  0.00     0.198 A 
ATOM     94  C   UNL     1      -5.033   9.784 -10.575  1.00  0.00     0.198 A 
ATOM     95  F   UNL     1      -6.352  10.212  -8.669  1.00  0.00    -0.203 F 
ATOM     96  F   UNL     1      -3.377   6.748 -11.656  1.00  0.00    -0.200 F 
ATOM     97  C   UNL     1      -4.273   8.909 -11.337  1.00  0.00     0.200 A 
ATOM     98  F   UNL     1      -5.197  11.052 -10.975  1.00  0.00    -0.200 F 
ATOM     99  F   UNL     1      -3.687   9.335 -12.464  1.00  0.00    -0.200 F 
ENDBRANCH  65  89
BRANCH  77 100
ATOM    100  C   UNL     1     -12.006   6.904  -6.708  1.00  0.00     0.064 A 
ATOM    101  C   UNL     1     -12.888   7.926  -6.323  1.00  0.00     0.173 A 
ATOM    102  C   UNL     1     -12.460   5.962  -7.641  1.00  0.00     0.173 A 
ATOM    103  F   UNL     1     -12.505   8.847  -5.426  1.00  0.00    -0.203 F 
ATOM    104  C   UNL     1     -14.181   7.988  -6.834  1.00  0.00     0.198 A 
ATOM    105  C   UNL     1     -13.745   6.042  -8.171  1.00  0.00     0.198 A 
ATOM    106  F   UNL     1     -11.650   4.973  -8.049  1.00  0.00    -0.203 F 
ATOM    107  F   UNL     1     -15.018   8.950  -6.423  1.00  0.00    -0.200 F 
ATOM    108  C   UNL     1     -14.608   7.047  -7.759  1.00  0.00     0.200 A 
ATOM    109  F   UNL     1     -14.150   5.144  -9.081  1.00  0.00    -0.200 F 
ATOM    110  F   UNL     1     -15.851   7.110  -8.255  1.00  0.00    -0.200 F 
ENDBRANCH  77 100
ENDBRANCH  51  52
ENDBRANCH  44  46
ENDBRANCH  43  44
ENDBRANCH  42  43
ENDBRANCH  41  42
ENDBRANCH  40  41
ENDBRANCH   1  40
TORSDOF 20
