REMARK SMILES O=C(OCCOCCOC(=O)[C@@H]1[C@H](C(=O)Nc2cccc(Cl)c2F)[C@@H]2C=C[C@H]1C2)c1ccc(-c2c3nc(c(-c4c(F)c(F)c(F)c(F)c4F)c4ccc([nH]4)c(-c4c(F)c(F)c(F)c(F)c4F)c4nc(c(-c5c(F)c(F)c(F)c(F)c5F)c5ccc2[nH]5)C=C4)C=C3)cc1
REMARK SMILES IDX 6 1 5 2 4 3 3 4 2 5 1 6 30 7 31 8 92 9 32 10 91 11 33 12
REMARK SMILES IDX 34 13 35 14 85 15 36 16 90 17 84 18 86 19 37 20 89 21 83 22
REMARK SMILES IDX 82 23 38 25 70 26 50 27 69 28 51 29 54 30 68 31 87 32 52 33
REMARK SMILES IDX 53 34 67 36 88 37 55 38 39 39 40 40 48 41 41 42 42 43 46 44
REMARK SMILES IDX 49 45 43 46 44 47 47 48 45 49 71 50 72 51 80 52 73 53 74 54
REMARK SMILES IDX 78 55 81 56 75 57 76 58 79 59 77 60 56 61 57 62 65 63 58 64
REMARK SMILES IDX 59 65 63 66 66 67 60 68 61 69 64 70 62 71 7 72 8 73 9 74
REMARK SMILES IDX 10 75 11 76 12 77 13 78 28 79 25 80 27 81 29 82 26 83 14 84
REMARK SMILES IDX 15 85 16 86 17 88 18 89 23 90 19 91 21 92 24 93 20 94 22 95
REMARK H PARENT 86 24 54 35 16 87
REMARK Flexibility Score: inf
ROOT
ATOM      1  O   UNL     1       5.201  -1.306   1.753  1.00  0.00    -0.374 OA
ENDROOT
BRANCH   1   2
ATOM      2  C   UNL     1       5.715  -0.449   0.377  1.00  0.00     0.202 C 
BRANCH   2   3
ATOM      3  C   UNL     1       4.680   0.940  -0.554  1.00  0.00     0.261 C 
BRANCH   3   4
ATOM      4  O   UNL     1       2.668   0.670  -0.807  1.00  0.00    -0.460 OA
BRANCH   4   5
ATOM      5  C   UNL     1       1.460  -0.333  -0.893  1.00  0.00     0.338 C 
ATOM      6  O   UNL     1       0.321   0.124  -0.925  1.00  0.00    -0.246 OA
BRANCH   5   7
ATOM      7  C   UNL     1       1.636  -1.952  -0.811  1.00  0.00     0.060 A 
ATOM      8  C   UNL     1       1.961  -2.501   0.425  1.00  0.00     0.016 A 
ATOM      9  C   UNL     1       1.961  -2.774  -1.913  1.00  0.00     0.016 A 
ATOM     10  C   UNL     1       2.983  -3.498   0.502  1.00  0.00     0.010 A 
ATOM     11  C   UNL     1       2.793  -3.961  -1.771  1.00  0.00     0.010 A 
ATOM     12  C   UNL     1       3.454  -4.287  -0.566  1.00  0.00    -0.014 A 
BRANCH  12  13
ATOM     13  C   UNL     1       4.626  -5.318  -0.394  1.00  0.00     0.031 A 
ATOM     14  C   UNL     1       5.550  -5.724  -1.567  1.00  0.00     0.074 A 
ATOM     15  C   UNL     1       4.978  -5.887   0.800  1.00  0.00     0.049 A 
ATOM     16  N   UNL     1       6.304  -6.796  -1.724  1.00  0.00    -0.248 NA
ATOM     17  C   UNL     1       5.654  -4.793  -2.701  1.00  0.00     0.031 C 
ATOM     18  C   UNL     1       4.418  -5.577   2.117  1.00  0.00     0.029 A 
ATOM     19  N   UNL     1       5.918  -6.869   1.121  1.00  0.00    -0.354 N 
ATOM     20  C   UNL     1       6.869  -6.717  -3.002  1.00  0.00     0.074 A 
ATOM     21  C   UNL     1       6.402  -5.468  -3.567  1.00  0.00     0.031 C 
ATOM     22  C   UNL     1       5.054  -6.251   3.078  1.00  0.00     0.029 A 
ATOM     23  C   UNL     1       5.910  -7.236   2.457  1.00  0.00     0.049 A 
ATOM     24  H   UNL     1       6.531  -7.263   0.458  1.00  0.00     0.167 HD
ATOM     25  C   UNL     1       7.677  -7.603  -3.651  1.00  0.00     0.037 A 
ATOM     26  C   UNL     1       6.396  -8.298   3.137  1.00  0.00     0.037 A 
ATOM     27  C   UNL     1       8.218  -8.806  -3.055  1.00  0.00     0.049 A 
ATOM     28  C   UNL     1       7.145  -9.355   2.383  1.00  0.00     0.074 A 
ATOM     29  C   UNL     1       8.998  -9.795  -3.637  1.00  0.00     0.029 A 
ATOM     30  N   UNL     1       8.056  -9.169  -1.726  1.00  0.00    -0.354 N 
ATOM     31  N   UNL     1       7.497  -9.369   1.123  1.00  0.00    -0.248 NA
ATOM     32  C   UNL     1       7.541 -10.556   3.133  1.00  0.00     0.031 C 
ATOM     33  C   UNL     1       9.239 -10.790  -2.682  1.00  0.00     0.029 A 
ATOM     34  C   UNL     1       8.688 -10.379  -1.480  1.00  0.00     0.049 A 
ATOM     35  H   UNL     1       7.564  -8.643  -1.054  1.00  0.00     0.167 HD
ATOM     36  C   UNL     1       8.181 -10.559   0.935  1.00  0.00     0.074 A 
ATOM     37  C   UNL     1       8.211 -11.235   2.215  1.00  0.00     0.031 C 
ATOM     38  C   UNL     1       8.734 -11.043  -0.202  1.00  0.00     0.037 A 
BRANCH  25  39
ATOM     39  C   UNL     1       7.952  -7.379  -5.124  1.00  0.00     0.064 A 
ATOM     40  C   UNL     1       8.758  -6.339  -5.610  1.00  0.00     0.173 A 
ATOM     41  C   UNL     1       7.401  -8.260  -6.075  1.00  0.00     0.173 A 
ATOM     42  F   UNL     1       9.320  -5.467  -4.759  1.00  0.00    -0.203 F 
ATOM     43  C   UNL     1       8.954  -6.155  -6.982  1.00  0.00     0.198 A 
ATOM     44  C   UNL     1       7.628  -8.097  -7.441  1.00  0.00     0.198 A 
ATOM     45  F   UNL     1       6.641  -9.292  -5.679  1.00  0.00    -0.203 F 
ATOM     46  F   UNL     1       9.667  -5.109  -7.421  1.00  0.00    -0.200 F 
ATOM     47  C   UNL     1       8.390  -7.034  -7.895  1.00  0.00     0.200 A 
ATOM     48  F   UNL     1       7.098  -8.962  -8.317  1.00  0.00    -0.200 F 
ATOM     49  F   UNL     1       8.571  -6.849  -9.210  1.00  0.00    -0.200 F 
ENDBRANCH  25  39
BRANCH  26  50
ATOM     50  C   UNL     1       6.071  -8.496   4.591  1.00  0.00     0.064 A 
ATOM     51  C   UNL     1       7.075  -8.559   5.568  1.00  0.00     0.173 A 
ATOM     52  C   UNL     1       4.744  -8.664   5.031  1.00  0.00     0.173 A 
ATOM     53  F   UNL     1       8.363  -8.445   5.212  1.00  0.00    -0.203 F 
ATOM     54  C   UNL     1       6.769  -8.794   6.912  1.00  0.00     0.198 A 
ATOM     55  C   UNL     1       4.436  -8.848   6.379  1.00  0.00     0.198 A 
ATOM     56  F   UNL     1       3.732  -8.628   4.150  1.00  0.00    -0.203 F 
ATOM     57  F   UNL     1       7.757  -8.913   7.810  1.00  0.00    -0.200 F 
ATOM     58  C   UNL     1       5.450  -8.927   7.317  1.00  0.00     0.200 A 
ATOM     59  F   UNL     1       3.157  -8.952   6.764  1.00  0.00    -0.200 F 
ATOM     60  F   UNL     1       5.158  -9.143   8.607  1.00  0.00    -0.200 F 
ENDBRANCH  26  50
BRANCH  38  61
ATOM     61  C   UNL     1       9.489 -12.335  -0.100  1.00  0.00     0.064 A 
ATOM     62  C   UNL     1       8.845 -13.559   0.132  1.00  0.00     0.173 A 
ATOM     63  C   UNL     1      10.883 -12.346  -0.263  1.00  0.00     0.173 A 
ATOM     64  F   UNL     1       7.517 -13.600   0.318  1.00  0.00    -0.203 F 
ATOM     65  C   UNL     1       9.573 -14.742   0.226  1.00  0.00     0.198 A 
ATOM     66  C   UNL     1      11.602 -13.535  -0.209  1.00  0.00     0.198 A 
ATOM     67  F   UNL     1      11.547 -11.201  -0.485  1.00  0.00    -0.203 F 
ATOM     68  F   UNL     1       8.945 -15.892   0.508  1.00  0.00    -0.200 F 
ATOM     69  C   UNL     1      10.948 -14.731   0.044  1.00  0.00     0.200 A 
ATOM     70  F   UNL     1      12.928 -13.523  -0.403  1.00  0.00    -0.200 F 
ATOM     71  F   UNL     1      11.645 -15.873   0.121  1.00  0.00    -0.200 F 
ENDBRANCH  38  61
ENDBRANCH  12  13
ENDBRANCH   5   7
ENDBRANCH   4   5
ENDBRANCH   3   4
ENDBRANCH   2   3
ENDBRANCH   1   2
BRANCH   1  72
ATOM     72  C   UNL     1       4.099  -1.064   2.908  1.00  0.00     0.202 C 
BRANCH  72  73
ATOM     73  C   UNL     1       3.683   0.248   4.043  1.00  0.00     0.261 C 
BRANCH  73  74
ATOM     74  O   UNL     1       3.543   1.726   3.670  1.00  0.00    -0.463 OA
BRANCH  74  75
ATOM     75  C   UNL     1       4.524   2.652   4.001  1.00  0.00     0.310 C 
ATOM     76  O   UNL     1       5.064   2.591   5.109  1.00  0.00    -0.252 OA
BRANCH  75  77
ATOM     77  C   UNL     1       5.169   3.668   2.830  1.00  0.00     0.119 C 
ATOM     78  C   UNL     1       4.679   4.663   1.675  1.00  0.00     0.100 C 
ATOM     79  C   UNL     1       6.701   3.371   2.330  1.00  0.00     0.027 C 
ATOM     80  C   UNL     1       6.049   5.027   0.955  1.00  0.00     0.025 C 
ATOM     81  C   UNL     1       6.900   2.938   0.864  1.00  0.00    -0.027 C 
ATOM     82  C   UNL     1       7.147   4.800   2.030  1.00  0.00     0.017 C 
ATOM     83  C   UNL     1       6.458   3.907   0.055  1.00  0.00    -0.027 C 
BRANCH  78  84
ATOM     84  C   UNL     1       3.462   4.831   0.643  1.00  0.00     0.229 C 
ATOM     85  O   UNL     1       2.832   5.903   0.737  1.00  0.00    -0.274 OA
ATOM     86  N   UNL     1       3.191   4.114  -0.524  1.00  0.00    -0.323 N 
ATOM     87  H   UNL     1       3.110   4.655  -1.343  1.00  0.00     0.170 HD
BRANCH  86  88
ATOM     88  C   UNL     1       3.015   2.705  -0.701  1.00  0.00     0.078 A 
ATOM     89  C   UNL     1       3.372   1.865  -2.217  1.00  0.00     0.029 A 
ATOM     90  C   UNL     1       2.849   1.899   0.735  1.00  0.00     0.165 A 
ATOM     91  C   UNL     1       3.732   0.100  -2.276  1.00  0.00     0.004 A 
ATOM     92  C   UNL     1       3.377   0.240   0.879  1.00  0.00     0.078 A 
ATOM     93  F   UNL     1       2.483   2.607   1.812  1.00  0.00    -0.203 F 
ATOM     94  C   UNL     1       3.791  -0.771  -0.670  1.00  0.00     0.024 A 
ATOM     95  Cl  UNL     1       4.990   1.108   1.928  1.00  0.00    -0.081 Cl
ENDBRANCH  86  88
ENDBRANCH  78  84
ENDBRANCH  75  77
ENDBRANCH  74  75
ENDBRANCH  73  74
ENDBRANCH  72  73
ENDBRANCH   1  72
TORSDOF 16
