REMARK SMILES O=C(CCC(=O)OCCOCCOC(=O)c1ccc(-c2c3nc(c(-c4c(F)c(F)c(F)c(F)c4F)c4ccc([nH]4)c(-c4c(F)c(F)c(F)c(F)c4F)c4nc(c(-c5c(F)c(F)c(F)c(F)c5F)c5ccc2[nH]5)C=C4)C=C3)cc1)/[NH+]=C1\S[C@H]2CS(=O)(=O)C[C@@H]2N1c1ccc2c(c1)OCO2
REMARK SMILES IDX 9 1 8 2 7 3 5 4 6 5 4 6 3 7 2 8 1 9 79 10 80 11 81 13 89 14
REMARK SMILES IDX 82 15 88 16 83 17 87 18 84 19 85 20 86 21 90 22 91 23 95 24
REMARK SMILES IDX 92 25 94 26 93 27 96 28 98 29 97 30 10 31 11 32 12 33 13 34
REMARK SMILES IDX 14 35 15 36 16 37 17 38 78 39 18 40 77 41 19 42 20 43 21 44
REMARK SMILES IDX 71 45 22 46 76 47 70 48 72 49 23 50 75 51 69 52 68 53 24 55
REMARK SMILES IDX 56 56 36 57 55 58 37 59 40 60 54 61 73 62 38 63 39 64 53 66
REMARK SMILES IDX 74 67 41 68 25 69 26 70 34 71 27 72 28 73 32 74 35 75 29 76
REMARK SMILES IDX 30 77 33 78 31 79 57 80 58 81 66 82 59 83 60 84 64 85 67 86
REMARK SMILES IDX 61 87 62 88 65 89 63 90 42 91 43 92 51 93 44 94 45 95 49 96
REMARK SMILES IDX 52 97 46 98 47 99 50 100 48 101
REMARK H PARENT 79 12 72 54 40 65
REMARK Flexibility Score: inf
ROOT
ATOM      1  C   UNL     1       6.081   0.614  -1.286  1.00  0.00     0.202 C 
ENDROOT
BRANCH   1   2
ATOM      2  C   UNL     1       5.995   1.999  -1.980  1.00  0.00     0.261 C 
BRANCH   2   3
ATOM      3  O   UNL     1       4.682   2.540  -1.830  1.00  0.00    -0.463 OA
BRANCH   3   4
ATOM      4  C   UNL     1       3.804   1.851  -2.586  1.00  0.00     0.306 C 
ATOM      5  O   UNL     1       3.936   1.665  -3.789  1.00  0.00    -0.252 OA
BRANCH   4   6
ATOM      6  C   UNL     1       2.704   1.279  -1.741  1.00  0.00     0.135 C 
BRANCH   6   7
ATOM      7  C   UNL     1       3.008   1.033  -0.252  1.00  0.00     0.139 C 
BRANCH   7   8
ATOM      8  C   UNL     1       3.335   2.078   0.831  1.00  0.00     0.308 C 
ATOM      9  O   UNL     1       2.345   2.537   1.413  1.00  0.00    -0.247 OA
ATOM     10  N   UNL     1       4.599   2.552   1.217  1.00  0.00    -0.204 N 
ATOM     11  C   UNL     1       5.628   1.968   1.761  1.00  0.00     0.319 C 
ATOM     12  H   UNL     1       4.733   3.512   1.043  1.00  0.00     0.316 HD
ATOM     13  S   UNL     1       5.996   0.219   1.822  1.00  0.00    -0.029 SA
ATOM     14  N   UNL     1       6.733   2.583   2.408  1.00  0.00    -0.216 N 
ATOM     15  C   UNL     1       7.737   0.380   2.091  1.00  0.00     0.120 C 
ATOM     16  C   UNL     1       7.970   1.884   1.990  1.00  0.00     0.212 C 
ATOM     17  C   UNL     1       8.804  -0.235   1.223  1.00  0.00     0.156 C 
ATOM     18  C   UNL     1       9.319   2.046   2.646  1.00  0.00     0.188 C 
ATOM     19  S   UNL     1      10.237   0.699   1.817  1.00  0.00     0.155 S 
ATOM     20  O   UNL     1      10.913  -0.094   2.804  1.00  0.00    -0.229 OA
ATOM     21  O   UNL     1      10.910   1.254   0.650  1.00  0.00    -0.229 OA
BRANCH  14  22
ATOM     22  C   UNL     1       6.560   2.823   3.804  1.00  0.00     0.132 A 
ATOM     23  C   UNL     1       6.021   4.052   4.243  1.00  0.00     0.056 A 
ATOM     24  C   UNL     1       6.719   1.801   4.762  1.00  0.00     0.102 A 
ATOM     25  C   UNL     1       5.619   4.241   5.582  1.00  0.00     0.055 A 
ATOM     26  C   UNL     1       6.282   1.994   6.046  1.00  0.00     0.170 A 
ATOM     27  C   UNL     1       5.723   3.174   6.447  1.00  0.00     0.166 A 
ATOM     28  O   UNL     1       6.225   1.020   6.993  1.00  0.00    -0.453 OA
ATOM     29  O   UNL     1       5.213   3.073   7.705  1.00  0.00    -0.454 OA
ATOM     30  C   UNL     1       5.303   1.644   7.902  1.00  0.00     0.468 C 
ENDBRANCH  14  22
ENDBRANCH   7   8
ENDBRANCH   6   7
ENDBRANCH   4   6
ENDBRANCH   3   4
ENDBRANCH   2   3
ENDBRANCH   1   2
BRANCH   1  31
ATOM     31  O   UNL     1       5.123  -0.403  -1.598  1.00  0.00    -0.374 OA
BRANCH  31  32
ATOM     32  C   UNL     1       5.100  -1.658  -0.861  1.00  0.00     0.202 C 
BRANCH  32  33
ATOM     33  C   UNL     1       4.477  -2.047   0.628  1.00  0.00     0.261 C 
BRANCH  33  34
ATOM     34  O   UNL     1       3.553  -1.193   1.436  1.00  0.00    -0.460 OA
BRANCH  34  35
ATOM     35  C   UNL     1       3.419  -1.467   2.800  1.00  0.00     0.338 C 
ATOM     36  O   UNL     1       3.906  -2.459   3.331  1.00  0.00    -0.246 OA
BRANCH  35  37
ATOM     37  C   UNL     1       2.736  -0.402   3.685  1.00  0.00     0.060 A 
ATOM     38  C   UNL     1       3.328   0.838   3.884  1.00  0.00     0.016 A 
ATOM     39  C   UNL     1       1.676  -0.650   4.565  1.00  0.00     0.016 A 
ATOM     40  C   UNL     1       2.902   1.809   4.820  1.00  0.00     0.010 A 
ATOM     41  C   UNL     1       1.220   0.343   5.523  1.00  0.00     0.010 A 
ATOM     42  C   UNL     1       1.843   1.602   5.691  1.00  0.00    -0.014 A 
BRANCH  42  43
ATOM     43  C   UNL     1       1.579   2.633   6.804  1.00  0.00     0.031 A 
ATOM     44  C   UNL     1       1.612   2.215   8.274  1.00  0.00     0.074 A 
ATOM     45  C   UNL     1       1.507   3.978   6.598  1.00  0.00     0.049 A 
ATOM     46  N   UNL     1       1.461   2.939   9.365  1.00  0.00    -0.248 NA
ATOM     47  C   UNL     1       1.926   0.808   8.552  1.00  0.00     0.031 C 
ATOM     48  C   UNL     1       1.621   4.661   5.309  1.00  0.00     0.029 A 
ATOM     49  N   UNL     1       1.349   5.035   7.493  1.00  0.00    -0.354 N 
ATOM     50  C   UNL     1       1.665   2.082  10.442  1.00  0.00     0.074 A 
ATOM     51  C   UNL     1       1.965   0.783   9.876  1.00  0.00     0.031 C 
ATOM     52  C   UNL     1       1.579   5.992   5.497  1.00  0.00     0.029 A 
ATOM     53  C   UNL     1       1.324   6.285   6.906  1.00  0.00     0.049 A 
ATOM     54  H   UNL     1       1.264   4.901   8.465  1.00  0.00     0.167 HD
ATOM     55  C   UNL     1       1.600   2.316  11.779  1.00  0.00     0.037 A 
ATOM     56  C   UNL     1       1.075   7.522   7.404  1.00  0.00     0.037 A 
ATOM     57  C   UNL     1       1.250   3.565  12.407  1.00  0.00     0.049 A 
ATOM     58  C   UNL     1       0.740   7.713   8.868  1.00  0.00     0.074 A 
ATOM     59  C   UNL     1       1.046   3.825  13.755  1.00  0.00     0.029 A 
ATOM     60  N   UNL     1       1.029   4.757  11.742  1.00  0.00    -0.354 N 
ATOM     61  N   UNL     1       0.828   6.863   9.859  1.00  0.00    -0.248 NA
ATOM     62  C   UNL     1       0.236   9.039   9.274  1.00  0.00     0.031 C 
ATOM     63  C   UNL     1       0.610   5.149  13.892  1.00  0.00     0.029 A 
ATOM     64  C   UNL     1       0.629   5.738  12.642  1.00  0.00     0.049 A 
ATOM     65  H   UNL     1       1.138   4.891  10.772  1.00  0.00     0.167 HD
ATOM     66  C   UNL     1       0.415   7.552  10.997  1.00  0.00     0.074 A 
ATOM     67  C   UNL     1       0.102   8.900  10.585  1.00  0.00     0.031 C 
ATOM     68  C   UNL     1       0.304   7.091  12.268  1.00  0.00     0.037 A 
BRANCH  55  69
ATOM     69  C   UNL     1       1.790   1.125  12.677  1.00  0.00     0.064 A 
ATOM     70  C   UNL     1       3.049   0.556  12.918  1.00  0.00     0.173 A 
ATOM     71  C   UNL     1       0.673   0.541  13.294  1.00  0.00     0.173 A 
ATOM     72  F   UNL     1       4.144   1.063  12.332  1.00  0.00    -0.203 F 
ATOM     73  C   UNL     1       3.175  -0.579  13.717  1.00  0.00     0.198 A 
ATOM     74  C   UNL     1       0.807  -0.575  14.113  1.00  0.00     0.198 A 
ATOM     75  F   UNL     1      -0.551   1.053  13.098  1.00  0.00    -0.203 F 
ATOM     76  F   UNL     1       4.377  -1.148  13.886  1.00  0.00    -0.200 F 
ATOM     77  C   UNL     1       2.056  -1.141  14.315  1.00  0.00     0.200 A 
ATOM     78  F   UNL     1      -0.276  -1.110  14.694  1.00  0.00    -0.200 F 
ATOM     79  F   UNL     1       2.178  -2.240  15.072  1.00  0.00    -0.200 F 
ENDBRANCH  55  69
BRANCH  56  80
ATOM     80  C   UNL     1       1.016   8.720   6.500  1.00  0.00     0.064 A 
ATOM     81  C   UNL     1       1.851   9.834   6.691  1.00  0.00     0.173 A 
ATOM     82  C   UNL     1       0.043   8.817   5.492  1.00  0.00     0.173 A 
ATOM     83  F   UNL     1       2.757   9.834   7.680  1.00  0.00    -0.203 F 
ATOM     84  C   UNL     1       1.710  10.989   5.916  1.00  0.00     0.198 A 
ATOM     85  C   UNL     1      -0.068   9.953   4.692  1.00  0.00     0.198 A 
ATOM     86  F   UNL     1      -0.819   7.809   5.292  1.00  0.00    -0.203 F 
ATOM     87  F   UNL     1       2.473  12.062   6.169  1.00  0.00    -0.200 F 
ATOM     88  C   UNL     1       0.759  11.042   4.910  1.00  0.00     0.200 A 
ATOM     89  F   UNL     1      -0.992   9.998   3.723  1.00  0.00    -0.200 F 
ATOM     90  F   UNL     1       0.624  12.149   4.167  1.00  0.00    -0.200 F 
ENDBRANCH  56  80
BRANCH  68  91
ATOM     91  C   UNL     1      -0.144   8.056  13.336  1.00  0.00     0.064 A 
ATOM     92  C   UNL     1      -1.443   8.589  13.362  1.00  0.00     0.173 A 
ATOM     93  C   UNL     1       0.735   8.449  14.359  1.00  0.00     0.173 A 
ATOM     94  F   UNL     1      -2.328   8.257  12.410  1.00  0.00    -0.203 F 
ATOM     95  C   UNL     1      -1.827   9.509  14.337  1.00  0.00     0.198 A 
ATOM     96  C   UNL     1       0.337   9.341  15.353  1.00  0.00     0.198 A 
ATOM     97  F   UNL     1       1.986   7.966  14.398  1.00  0.00    -0.203 F 
ATOM     98  F   UNL     1      -3.052  10.053  14.298  1.00  0.00    -0.200 F 
ATOM     99  C   UNL     1      -0.939   9.882  15.334  1.00  0.00     0.200 A 
ATOM    100  F   UNL     1       1.193   9.685  16.326  1.00  0.00    -0.200 F 
ATOM    101  F   UNL     1      -1.308  10.769  16.268  1.00  0.00    -0.200 F 
ENDBRANCH  68  91
ENDBRANCH  42  43
ENDBRANCH  35  37
ENDBRANCH  34  35
ENDBRANCH  33  34
ENDBRANCH  32  33
ENDBRANCH  31  32
ENDBRANCH   1  31
TORSDOF 17
