REMARK SMILES Cc1cc(=O)n2cc(-c3ccccc3)nc2n1[C@H](C)C(=O)OCCOCCOC(=O)c1ccc(-c2c3nc(c(-c4c(F)c(F)c(F)c(F)c4F)c4ccc([nH]4)c(-c4c(F)c(F)c(F)c(F)c4F)c4nc(c(-c5c(F)c(F)c(F)c(F)c5F)c5ccc2[nH]5)C=C4)C=C3)cc1
REMARK SMILES IDX 25 1 24 2 23 3 22 4 20 5 21 6 18 7 19 8 17 9 1 10 2 11 3 12
REMARK SMILES IDX 4 13 16 14 5 15 6 16 15 17 7 18 8 19 9 20 10 21 14 22 11 23
REMARK SMILES IDX 13 24 12 25 26 26 27 27 28 28 29 29 30 30 31 31 32 32 93 33
REMARK SMILES IDX 33 34 92 35 34 36 35 37 36 38 86 39 37 40 91 41 85 42 87 43
REMARK SMILES IDX 38 44 90 45 84 46 83 47 39 49 71 50 51 51 70 52 52 53 55 54
REMARK SMILES IDX 69 55 88 56 53 57 54 58 68 60 89 61 56 62 40 63 41 64 49 65
REMARK SMILES IDX 42 66 43 67 47 68 50 69 44 70 45 71 48 72 46 73 72 74 73 75
REMARK SMILES IDX 81 76 74 77 75 78 79 79 82 80 76 81 77 82 80 83 78 84 57 85
REMARK SMILES IDX 58 86 66 87 59 88 60 89 64 90 67 91 61 92 62 93 65 94 63 95
REMARK H PARENT 87 48 55 59
REMARK Flexibility Score: inf
ROOT
ATOM      1  O   UNL     1       4.056  -3.645  -3.123  1.00  0.00    -0.374 OA
ENDROOT
BRANCH   1   2
ATOM      2  C   UNL     1       3.331  -3.953  -4.311  1.00  0.00     0.202 C 
BRANCH   2   3
ATOM      3  C   UNL     1       1.835  -4.227  -4.199  1.00  0.00     0.261 C 
BRANCH   3   4
ATOM      4  O   UNL     1       1.129  -3.135  -3.600  1.00  0.00    -0.462 OA
BRANCH   4   5
ATOM      5  C   UNL     1       0.498  -3.422  -2.429  1.00  0.00     0.329 C 
ATOM      6  O   UNL     1       0.558  -4.505  -1.850  1.00  0.00    -0.250 OA
BRANCH   5   7
ATOM      7  C   UNL     1      -0.297  -2.234  -1.863  1.00  0.00     0.197 C 
ATOM      8  C   UNL     1      -0.052  -0.867  -2.496  1.00  0.00     0.044 C 
BRANCH   7   9
ATOM      9  N   UNL     1      -1.747  -2.564  -1.847  1.00  0.00    -0.301 N 
ATOM     10  C   UNL     1      -2.011  -2.034   0.615  1.00  0.00     0.065 C 
ATOM     11  C   UNL     1      -2.543  -2.585  -0.688  1.00  0.00     0.024 A 
ATOM     12  C   UNL     1      -3.792  -3.089  -0.708  1.00  0.00     0.093 A 
ATOM     13  C   UNL     1      -4.365  -3.634  -1.960  1.00  0.00     0.259 A 
ATOM     14  C   UNL     1      -2.257  -3.011  -3.038  1.00  0.00     0.218 A 
ATOM     15  O   UNL     1      -5.477  -4.122  -2.053  1.00  0.00    -0.269 OA
ATOM     16  N   UNL     1      -3.528  -3.544  -3.067  1.00  0.00    -0.251 N 
ATOM     17  N   UNL     1      -1.686  -3.073  -4.221  1.00  0.00    -0.212 NA
ATOM     18  C   UNL     1      -3.757  -3.969  -4.357  1.00  0.00     0.127 A 
ATOM     19  C   UNL     1      -2.601  -3.676  -5.043  1.00  0.00     0.091 A 
BRANCH  19  20
ATOM     20  C   UNL     1      -2.343  -3.992  -6.429  1.00  0.00     0.002 A 
ATOM     21  C   UNL     1      -3.131  -3.440  -7.445  1.00  0.00     0.010 A 
ATOM     22  C   UNL     1      -1.293  -4.856  -6.766  1.00  0.00     0.010 A 
ATOM     23  C   UNL     1      -2.876  -3.756  -8.782  1.00  0.00     0.001 A 
ATOM     24  C   UNL     1      -1.044  -5.176  -8.103  1.00  0.00     0.001 A 
ATOM     25  C   UNL     1      -1.837  -4.627  -9.109  1.00  0.00     0.000 A 
ENDBRANCH  19  20
ENDBRANCH   7   9
ENDBRANCH   5   7
ENDBRANCH   4   5
ENDBRANCH   3   4
ENDBRANCH   2   3
ENDBRANCH   1   2
BRANCH   1  26
ATOM     26  C   UNL     1       3.714  -2.508  -2.340  1.00  0.00     0.202 C 
BRANCH  26  27
ATOM     27  C   UNL     1       3.900  -1.120  -2.942  1.00  0.00     0.261 C 
BRANCH  27  28
ATOM     28  O   UNL     1       3.066  -0.886  -4.071  1.00  0.00    -0.460 OA
BRANCH  28  29
ATOM     29  C   UNL     1       3.737  -0.926  -5.243  1.00  0.00     0.338 C 
ATOM     30  O   UNL     1       4.861  -1.365  -5.429  1.00  0.00    -0.246 OA
BRANCH  29  31
ATOM     31  C   UNL     1       3.008  -0.173  -6.266  1.00  0.00     0.060 A 
ATOM     32  C   UNL     1       3.665  -0.076  -7.490  1.00  0.00     0.016 A 
ATOM     33  C   UNL     1       1.972   0.701  -5.902  1.00  0.00     0.016 A 
ATOM     34  C   UNL     1       3.490   1.073  -8.216  1.00  0.00     0.010 A 
ATOM     35  C   UNL     1       1.781   1.844  -6.645  1.00  0.00     0.010 A 
ATOM     36  C   UNL     1       2.621   2.063  -7.729  1.00  0.00    -0.014 A 
BRANCH  36  37
ATOM     37  C   UNL     1       2.557   3.288  -8.495  1.00  0.00     0.031 A 
ATOM     38  C   UNL     1       1.979   3.044  -9.826  1.00  0.00     0.074 A 
ATOM     39  C   UNL     1       3.017   4.478  -8.068  1.00  0.00     0.049 A 
ATOM     40  N   UNL     1       2.633   2.924 -10.930  1.00  0.00    -0.248 NA
ATOM     41  C   UNL     1       0.567   2.652  -9.910  1.00  0.00     0.031 C 
ATOM     42  C   UNL     1       3.375   4.881  -6.706  1.00  0.00     0.029 A 
ATOM     43  N   UNL     1       3.209   5.619  -8.790  1.00  0.00    -0.354 N 
ATOM     44  C   UNL     1       1.673   2.668 -11.899  1.00  0.00     0.074 A 
ATOM     45  C   UNL     1       0.472   2.309 -11.196  1.00  0.00     0.031 C 
ATOM     46  C   UNL     1       3.518   6.228  -6.662  1.00  0.00     0.029 A 
ATOM     47  C   UNL     1       3.432   6.751  -8.016  1.00  0.00     0.049 A 
ATOM     48  H   UNL     1       3.193   5.639  -9.774  1.00  0.00     0.167 HD
ATOM     49  C   UNL     1       1.883   3.111 -13.167  1.00  0.00     0.037 A 
ATOM     50  C   UNL     1       3.500   8.023  -8.479  1.00  0.00     0.037 A 
ATOM     51  C   UNL     1       3.280   3.408 -13.374  1.00  0.00     0.049 A 
ATOM     52  C   UNL     1       3.899   7.949  -9.905  1.00  0.00     0.074 A 
ATOM     53  C   UNL     1       4.437   2.696 -13.606  1.00  0.00     0.029 A 
ATOM     54  N   UNL     1       3.650   4.642 -12.908  1.00  0.00    -0.354 N 
ATOM     55  N   UNL     1       5.070   7.531 -10.300  1.00  0.00    -0.248 NA
ATOM     56  C   UNL     1       2.872   8.007 -10.941  1.00  0.00     0.031 C 
ATOM     57  C   UNL     1       5.513   3.513 -13.141  1.00  0.00     0.029 A 
ATOM     58  C   UNL     1       4.995   4.718 -12.675  1.00  0.00     0.049 A 
ATOM     59  H   UNL     1       3.022   5.385 -12.758  1.00  0.00     0.167 HD
ATOM     60  C   UNL     1       4.817   6.888 -11.495  1.00  0.00     0.074 A 
ATOM     61  C   UNL     1       3.506   7.361 -11.922  1.00  0.00     0.031 C 
ATOM     62  C   UNL     1       5.530   5.785 -11.859  1.00  0.00     0.037 A 
BRANCH  49  63
ATOM     63  C   UNL     1       0.814   3.800 -13.991  1.00  0.00     0.064 A 
ATOM     64  C   UNL     1       1.135   4.221 -15.298  1.00  0.00     0.173 A 
ATOM     65  C   UNL     1      -0.376   4.346 -13.459  1.00  0.00     0.173 A 
ATOM     66  F   UNL     1       2.255   3.790 -15.899  1.00  0.00    -0.203 F 
ATOM     67  C   UNL     1       0.363   5.165 -15.982  1.00  0.00     0.198 A 
ATOM     68  C   UNL     1      -1.168   5.250 -14.163  1.00  0.00     0.198 A 
ATOM     69  F   UNL     1      -0.770   4.130 -12.200  1.00  0.00    -0.203 F 
ATOM     70  F   UNL     1       0.773   5.623 -17.173  1.00  0.00    -0.200 F 
ATOM     71  C   UNL     1      -0.785   5.683 -15.412  1.00  0.00     0.200 A 
ATOM     72  F   UNL     1      -2.261   5.760 -13.577  1.00  0.00    -0.200 F 
ATOM     73  F   UNL     1      -1.495   6.628 -16.040  1.00  0.00    -0.200 F 
ENDBRANCH  49  63
BRANCH  50  74
ATOM     74  C   UNL     1       2.895   9.248  -7.899  1.00  0.00     0.064 A 
ATOM     75  C   UNL     1       3.232  10.519  -8.397  1.00  0.00     0.173 A 
ATOM     76  C   UNL     1       1.746   9.178  -7.088  1.00  0.00     0.173 A 
ATOM     77  F   UNL     1       4.293  10.667  -9.204  1.00  0.00    -0.203 F 
ATOM     78  C   UNL     1       2.434  11.641  -8.149  1.00  0.00     0.198 A 
ATOM     79  C   UNL     1       0.953  10.300  -6.839  1.00  0.00     0.198 A 
ATOM     80  F   UNL     1       1.313   8.003  -6.610  1.00  0.00    -0.203 F 
ATOM     81  F   UNL     1       2.743  12.819  -8.709  1.00  0.00    -0.200 F 
ATOM     82  C   UNL     1       1.285  11.526  -7.386  1.00  0.00     0.200 A 
ATOM     83  F   UNL     1      -0.177  10.169  -6.129  1.00  0.00    -0.200 F 
ATOM     84  F   UNL     1       0.476  12.581  -7.215  1.00  0.00    -0.200 F 
ENDBRANCH  50  74
BRANCH  62  85
ATOM     85  C   UNL     1       6.885   5.601 -11.254  1.00  0.00     0.064 A 
ATOM     86  C   UNL     1       7.124   5.319  -9.899  1.00  0.00     0.173 A 
ATOM     87  C   UNL     1       7.988   5.624 -12.118  1.00  0.00     0.173 A 
ATOM     88  F   UNL     1       6.111   5.218  -9.027  1.00  0.00    -0.203 F 
ATOM     89  C   UNL     1       8.419   5.091  -9.433  1.00  0.00     0.198 A 
ATOM     90  C   UNL     1       9.273   5.361 -11.658  1.00  0.00     0.198 A 
ATOM     91  F   UNL     1       7.809   5.860 -13.428  1.00  0.00    -0.203 F 
ATOM     92  F   UNL     1       8.631   4.833  -8.134  1.00  0.00    -0.200 F 
ATOM     93  C   UNL     1       9.489   5.101 -10.315  1.00  0.00     0.200 A 
ATOM     94  F   UNL     1      10.296   5.334 -12.522  1.00  0.00    -0.200 F 
ATOM     95  F   UNL     1      10.728   4.841  -9.875  1.00  0.00    -0.200 F 
ENDBRANCH  62  85
ENDBRANCH  36  37
ENDBRANCH  29  31
ENDBRANCH  28  29
ENDBRANCH  27  28
ENDBRANCH  26  27
ENDBRANCH   1  26
TORSDOF 16
