REMARK SMILES C#CCN(CC(=O)OCCOCCOC(=O)c1ccc(-c2c3nc(c(-c4c(F)c(F)c(F)c(F)c4F)c4ccc([nH]4)c(-c4c(F)c(F)c(F)c(F)c4F)c4nc(c(-c5c(F)c(F)c(F)c(F)c5F)c5ccc2[nH]5)C=C4)C=C3)cc1)C(=O)c1c[nH]c(=O)[nH]1
REMARK SMILES IDX 10 1 9 2 8 3 6 4 7 5 5 6 4 7 3 8 2 9 1 10 80 11 81 12 82 13
REMARK SMILES IDX 83 14 87 15 84 16 85 17 86 20 11 21 12 22 13 23 14 24 15 25
REMARK SMILES IDX 16 26 17 27 18 28 79 29 19 30 78 31 20 32 21 33 22 34 72 35
REMARK SMILES IDX 23 36 77 37 71 38 73 39 24 40 76 41 70 42 69 43 25 45 57 46
REMARK SMILES IDX 37 47 56 48 38 49 41 50 55 51 74 52 39 53 40 54 54 56 75 57
REMARK SMILES IDX 42 58 26 59 27 60 35 61 28 62 29 63 33 64 36 65 30 66 31 67
REMARK SMILES IDX 34 68 32 69 58 70 59 71 67 72 60 73 61 74 65 75 68 76 62 77
REMARK SMILES IDX 63 78 66 79 64 80 43 81 44 82 52 83 45 84 46 85 50 86 53 87
REMARK SMILES IDX 47 88 48 89 51 90 49 91
REMARK H PARENT 87 18 84 19 73 44 41 55
REMARK Flexibility Score: inf
ROOT
ATOM      1  C   UNL     1      -7.180   1.957   0.378  1.00  0.00     0.202 C 
ENDROOT
BRANCH   1   2
ATOM      2  C   UNL     1      -6.427   1.190  -0.716  1.00  0.00     0.261 C 
BRANCH   2   3
ATOM      3  O   UNL     1      -4.993   1.201  -0.538  1.00  0.00    -0.462 OA
BRANCH   3   4
ATOM      4  C   UNL     1      -4.252   1.506  -1.637  1.00  0.00     0.325 C 
ATOM      5  O   UNL     1      -4.724   1.650  -2.760  1.00  0.00    -0.250 OA
BRANCH   4   6
ATOM      6  C   UNL     1      -2.767   1.811  -1.342  1.00  0.00     0.243 C 
BRANCH   6   7
ATOM      7  N   UNL     1      -2.143   1.385  -0.077  1.00  0.00    -0.315 N 
BRANCH   7   8
ATOM      8  C   UNL     1      -1.790  -0.067   0.066  1.00  0.00     0.210 C 
BRANCH   8   9
ATOM      9  C   UNL     1      -0.270  -0.067   0.066  1.00  0.00    -0.085 C 
ATOM     10  C   UNL     1       1.033  -0.067   0.066  1.00  0.00     0.006 C 
ENDBRANCH   8   9
ENDBRANCH   7   8
BRANCH   7  11
ATOM     11  C   UNL     1      -1.747   2.250   0.954  1.00  0.00     0.273 C 
ATOM     12  O   UNL     1      -1.493   1.836   2.087  1.00  0.00    -0.267 OA
BRANCH  11  13
ATOM     13  C   UNL     1      -1.588   3.724   0.706  1.00  0.00     0.125 A 
ATOM     14  C   UNL     1      -2.204   4.732   1.350  1.00  0.00     0.119 A 
ATOM     15  N   UNL     1      -0.581   4.279  -0.058  1.00  0.00    -0.302 N 
ATOM     16  N   UNL     1      -1.651   5.925   0.970  1.00  0.00    -0.312 N 
ATOM     17  C   UNL     1      -0.582   5.675   0.110  1.00  0.00     0.323 A 
ATOM     18  H   UNL     1       0.041   3.775  -0.632  1.00  0.00     0.172 HD
ATOM     19  H   UNL     1      -1.957   6.816   1.258  1.00  0.00     0.171 HD
ATOM     20  O   UNL     1       0.193   6.489  -0.352  1.00  0.00    -0.248 OA
ENDBRANCH  11  13
ENDBRANCH   7  11
ENDBRANCH   6   7
ENDBRANCH   4   6
ENDBRANCH   3   4
ENDBRANCH   2   3
ENDBRANCH   1   2
BRANCH   1  21
ATOM     21  O   UNL     1      -6.830   3.322   0.562  1.00  0.00    -0.374 OA
BRANCH  21  22
ATOM     22  C   UNL     1      -5.522   3.669   1.008  1.00  0.00     0.202 C 
BRANCH  22  23
ATOM     23  C   UNL     1      -4.768   2.722   1.937  1.00  0.00     0.261 C 
BRANCH  23  24
ATOM     24  O   UNL     1      -5.590   1.941   2.756  1.00  0.00    -0.460 OA
BRANCH  24  25
ATOM     25  C   UNL     1      -5.803   2.426   3.988  1.00  0.00     0.338 C 
ATOM     26  O   UNL     1      -5.536   3.496   4.470  1.00  0.00    -0.246 OA
BRANCH  25  27
ATOM     27  C   UNL     1      -6.400   1.258   4.610  1.00  0.00     0.060 A 
ATOM     28  C   UNL     1      -7.787   1.197   4.691  1.00  0.00     0.016 A 
ATOM     29  C   UNL     1      -5.566   0.166   4.886  1.00  0.00     0.016 A 
ATOM     30  C   UNL     1      -8.356   0.029   5.156  1.00  0.00     0.010 A 
ATOM     31  C   UNL     1      -6.140  -1.013   5.315  1.00  0.00     0.010 A 
ATOM     32  C   UNL     1      -7.528  -1.051   5.505  1.00  0.00    -0.014 A 
BRANCH  32  33
ATOM     33  C   UNL     1      -8.116  -2.140   6.289  1.00  0.00     0.031 A 
ATOM     34  C   UNL     1      -7.929  -2.094   7.772  1.00  0.00     0.074 A 
ATOM     35  C   UNL     1      -8.845  -3.078   5.671  1.00  0.00     0.049 A 
ATOM     36  N   UNL     1      -8.443  -2.860   8.694  1.00  0.00    -0.248 NA
ATOM     37  C   UNL     1      -7.036  -1.041   8.290  1.00  0.00     0.031 C 
ATOM     38  C   UNL     1      -9.049  -3.172   4.226  1.00  0.00     0.029 A 
ATOM     39  N   UNL     1      -9.562  -4.117   6.188  1.00  0.00    -0.354 N 
ATOM     40  C   UNL     1      -7.938  -2.380   9.894  1.00  0.00     0.074 A 
ATOM     41  C   UNL     1      -7.034  -1.298   9.587  1.00  0.00     0.031 C 
ATOM     42  C   UNL     1      -9.861  -4.211   3.971  1.00  0.00     0.029 A 
ATOM     43  C   UNL     1     -10.217  -4.851   5.234  1.00  0.00     0.049 A 
ATOM     44  H   UNL     1      -9.605  -4.319   7.150  1.00  0.00     0.167 HD
ATOM     45  C   UNL     1      -8.229  -2.802  11.144  1.00  0.00     0.037 A 
ATOM     46  C   UNL     1     -11.023  -5.916   5.388  1.00  0.00     0.037 A 
ATOM     47  C   UNL     1      -9.133  -3.886  11.409  1.00  0.00     0.049 A 
ATOM     48  C   UNL     1     -11.335  -6.366   6.788  1.00  0.00     0.074 A 
ATOM     49  C   UNL     1      -9.526  -4.413  12.623  1.00  0.00     0.029 A 
ATOM     50  N   UNL     1      -9.782  -4.617  10.419  1.00  0.00    -0.354 N 
ATOM     51  N   UNL     1     -10.897  -5.885   7.929  1.00  0.00    -0.248 NA
ATOM     52  C   UNL     1     -12.270  -7.486   6.926  1.00  0.00     0.031 C 
ATOM     53  C   UNL     1     -10.378  -5.494  12.366  1.00  0.00     0.029 A 
ATOM     54  C   UNL     1     -10.562  -5.603  10.994  1.00  0.00     0.049 A 
ATOM     55  H   UNL     1      -9.699  -4.455   9.452  1.00  0.00     0.167 HD
ATOM     56  C   UNL     1     -11.519  -6.625   8.923  1.00  0.00     0.074 A 
ATOM     57  C   UNL     1     -12.379  -7.577   8.245  1.00  0.00     0.031 C 
ATOM     58  C   UNL     1     -11.399  -6.531  10.272  1.00  0.00     0.037 A 
BRANCH  45  59
ATOM     59  C   UNL     1      -7.530  -2.110  12.277  1.00  0.00     0.064 A 
ATOM     60  C   UNL     1      -7.790  -0.768  12.603  1.00  0.00     0.173 A 
ATOM     61  C   UNL     1      -6.547  -2.783  13.018  1.00  0.00     0.173 A 
ATOM     62  F   UNL     1      -8.699  -0.068  11.907  1.00  0.00    -0.203 F 
ATOM     63  C   UNL     1      -7.064  -0.117  13.598  1.00  0.00     0.198 A 
ATOM     64  C   UNL     1      -5.847  -2.138  14.034  1.00  0.00     0.198 A 
ATOM     65  F   UNL     1      -6.251  -4.062  12.743  1.00  0.00    -0.203 F 
ATOM     66  F   UNL     1      -7.279   1.184  13.840  1.00  0.00    -0.200 F 
ATOM     67  C   UNL     1      -6.096  -0.803  14.315  1.00  0.00     0.200 A 
ATOM     68  F   UNL     1      -4.915  -2.804  14.729  1.00  0.00    -0.200 F 
ATOM     69  F   UNL     1      -5.393  -0.173  15.266  1.00  0.00    -0.200 F 
ENDBRANCH  45  59
BRANCH  46  70
ATOM     70  C   UNL     1     -11.603  -6.571   4.190  1.00  0.00     0.064 A 
ATOM     71  C   UNL     1     -12.966  -6.457   3.886  1.00  0.00     0.173 A 
ATOM     72  C   UNL     1     -10.791  -7.280   3.292  1.00  0.00     0.173 A 
ATOM     73  F   UNL     1     -13.784  -5.794   4.716  1.00  0.00    -0.203 F 
ATOM     74  C   UNL     1     -13.496  -7.037   2.735  1.00  0.00     0.198 A 
ATOM     75  C   UNL     1     -11.317  -7.838   2.130  1.00  0.00     0.198 A 
ATOM     76  F   UNL     1      -9.477  -7.405   3.531  1.00  0.00    -0.203 F 
ATOM     77  F   UNL     1     -14.808  -6.934   2.479  1.00  0.00    -0.200 F 
ATOM     78  C   UNL     1     -12.671  -7.720   1.854  1.00  0.00     0.200 A 
ATOM     79  F   UNL     1     -10.512  -8.478   1.272  1.00  0.00    -0.200 F 
ATOM     80  F   UNL     1     -13.179  -8.262   0.739  1.00  0.00    -0.200 F 
ENDBRANCH  46  70
BRANCH  58  81
ATOM     81  C   UNL     1     -12.241  -7.465  11.089  1.00  0.00     0.064 A 
ATOM     82  C   UNL     1     -11.963  -8.837  11.156  1.00  0.00     0.173 A 
ATOM     83  C   UNL     1     -13.318  -6.970  11.838  1.00  0.00     0.173 A 
ATOM     84  F   UNL     1     -10.950  -9.357  10.447  1.00  0.00    -0.203 F 
ATOM     85  C   UNL     1     -12.757  -9.688  11.919  1.00  0.00     0.198 A 
ATOM     86  C   UNL     1     -14.089  -7.817  12.626  1.00  0.00     0.198 A 
ATOM     87  F   UNL     1     -13.615  -5.662  11.814  1.00  0.00    -0.203 F 
ATOM     88  F   UNL     1     -12.511 -11.005  11.924  1.00  0.00    -0.200 F 
ATOM     89  C   UNL     1     -13.815  -9.177  12.657  1.00  0.00     0.200 A 
ATOM     90  F   UNL     1     -15.100  -7.320  13.351  1.00  0.00    -0.200 F 
ATOM     91  F   UNL     1     -14.577  -9.997  13.393  1.00  0.00    -0.200 F 
ENDBRANCH  58  81
ENDBRANCH  32  33
ENDBRANCH  25  27
ENDBRANCH  24  25
ENDBRANCH  23  24
ENDBRANCH  22  23
ENDBRANCH  21  22
ENDBRANCH   1  21
TORSDOF 19
