REMARK SMILES CCOc1cc(C(=O)OCCOCCOC(=O)c2ccc(-c3c4nc(c(-c5c(F)c(F)c(F)c(F)c5F)c5ccc([nH]5)c(-c5c(F)c(F)c(F)c(F)c5F)c5nc(c(-c6c(F)c(F)c(F)c(F)c6F)c6ccc3[nH]6)C=C5)C=C4)cc2)ccc1OCc1ccc(Cl)c(Cl)c1
REMARK SMILES IDX 11 1 10 2 9 3 7 4 8 5 6 6 4 7 5 8 83 9 82 10 81 11 3 12 2 13
REMARK SMILES IDX 1 14 84 15 85 16 86 17 87 18 93 19 88 20 91 21 89 22 92 23
REMARK SMILES IDX 90 24 12 25 13 26 14 27 15 28 16 29 17 30 18 31 19 32 80 33
REMARK SMILES IDX 20 34 79 35 21 36 22 37 23 38 73 39 24 40 78 41 72 42 74 43
REMARK SMILES IDX 25 44 77 45 71 46 70 47 26 49 58 50 38 51 57 52 39 53 42 54
REMARK SMILES IDX 56 55 75 56 40 57 41 58 55 60 76 61 43 62 27 63 28 64 36 65
REMARK SMILES IDX 29 66 30 67 34 68 37 69 31 70 32 71 35 72 33 73 59 74 60 75
REMARK SMILES IDX 68 76 61 77 62 78 66 79 69 80 63 81 64 82 67 83 65 84 44 85
REMARK SMILES IDX 45 86 53 87 46 88 47 89 51 90 54 91 48 92 49 93 52 94 50 95
REMARK H PARENT 74 48 42 59
REMARK Flexibility Score: inf
ROOT
ATOM      1  C   UNL     1       5.505   3.995   7.046  1.00  0.00     0.202 C 
ENDROOT
BRANCH   1   2
ATOM      2  C   UNL     1       5.717   2.490   6.851  1.00  0.00     0.261 C 
BRANCH   2   3
ATOM      3  O   UNL     1       5.441   2.116   5.493  1.00  0.00    -0.460 OA
BRANCH   3   4
ATOM      4  C   UNL     1       4.308   1.406   5.272  1.00  0.00     0.338 C 
ATOM      5  O   UNL     1       3.553   0.934   6.104  1.00  0.00    -0.246 OA
BRANCH   4   6
ATOM      6  C   UNL     1       4.026   1.420   3.817  1.00  0.00     0.064 A 
ATOM      7  C   UNL     1       2.443   1.333   1.982  1.00  0.00     0.162 A 
ATOM      8  C   UNL     1       2.693   1.478   3.349  1.00  0.00     0.066 A 
ATOM      9  C   UNL     1       3.525   1.049   1.134  1.00  0.00     0.161 A 
ATOM     10  C   UNL     1       4.842   1.182   1.574  1.00  0.00     0.051 A 
ATOM     11  C   UNL     1       5.098   1.362   2.920  1.00  0.00     0.020 A 
BRANCH   7  12
ATOM     12  O   UNL     1       1.226   1.489   1.388  1.00  0.00    -0.490 OA
BRANCH  12  13
ATOM     13  C   UNL     1       0.080   0.879   1.982  1.00  0.00     0.226 C 
ATOM     14  C   UNL     1      -0.863   0.519   0.836  1.00  0.00     0.049 C 
ENDBRANCH  12  13
ENDBRANCH   7  12
BRANCH   9  15
ATOM     15  O   UNL     1       3.448   0.478  -0.102  1.00  0.00    -0.485 OA
BRANCH  15  16
ATOM     16  C   UNL     1       2.461  -0.536  -0.331  1.00  0.00     0.265 C 
BRANCH  16  17
ATOM     17  C   UNL     1       2.222  -1.744   0.592  1.00  0.00    -0.009 A 
ATOM     18  C   UNL     1       2.506  -1.815   1.962  1.00  0.00     0.009 A 
ATOM     19  C   UNL     1       1.526  -2.837   0.039  1.00  0.00     0.029 A 
ATOM     20  C   UNL     1       2.012  -2.847   2.771  1.00  0.00     0.022 A 
ATOM     21  C   UNL     1       1.079  -3.908   0.830  1.00  0.00     0.060 A 
ATOM     22  C   UNL     1       1.289  -3.893   2.209  1.00  0.00     0.059 A 
ATOM     23  Cl  UNL     1       0.255  -5.201   0.037  1.00  0.00    -0.083 Cl
ATOM     24  Cl  UNL     1       0.682  -5.117   3.264  1.00  0.00    -0.083 Cl
ENDBRANCH  16  17
ENDBRANCH  15  16
ENDBRANCH   9  15
ENDBRANCH   4   6
ENDBRANCH   3   4
ENDBRANCH   2   3
ENDBRANCH   1   2
BRANCH   1  25
ATOM     25  O   UNL     1       4.158   4.471   7.048  1.00  0.00    -0.374 OA
BRANCH  25  26
ATOM     26  C   UNL     1       3.457   4.517   5.810  1.00  0.00     0.202 C 
BRANCH  26  27
ATOM     27  C   UNL     1       3.746   5.677   4.851  1.00  0.00     0.261 C 
BRANCH  27  28
ATOM     28  O   UNL     1       5.138   5.838   4.549  1.00  0.00    -0.460 OA
BRANCH  28  29
ATOM     29  C   UNL     1       5.733   6.831   5.252  1.00  0.00     0.338 C 
ATOM     30  O   UNL     1       5.216   7.585   6.059  1.00  0.00    -0.246 OA
BRANCH  29  31
ATOM     31  C   UNL     1       7.186   6.814   5.018  1.00  0.00     0.060 A 
ATOM     32  C   UNL     1       8.019   6.742   6.141  1.00  0.00     0.016 A 
ATOM     33  C   UNL     1       7.722   6.979   3.740  1.00  0.00     0.016 A 
ATOM     34  C   UNL     1       9.395   6.891   5.995  1.00  0.00     0.010 A 
ATOM     35  C   UNL     1       9.104   7.130   3.596  1.00  0.00     0.010 A 
ATOM     36  C   UNL     1       9.942   7.125   4.727  1.00  0.00    -0.014 A 
BRANCH  36  37
ATOM     37  C   UNL     1      11.372   7.495   4.603  1.00  0.00     0.031 A 
ATOM     38  C   UNL     1      11.741   8.935   4.375  1.00  0.00     0.074 A 
ATOM     39  C   UNL     1      12.331   6.560   4.719  1.00  0.00     0.049 A 
ATOM     40  N   UNL     1      12.921   9.472   4.194  1.00  0.00    -0.248 NA
ATOM     41  C   UNL     1      10.630   9.899   4.345  1.00  0.00     0.031 C 
ATOM     42  C   UNL     1      12.097   5.141   4.979  1.00  0.00     0.029 A 
ATOM     43  N   UNL     1      13.696   6.666   4.624  1.00  0.00    -0.354 N 
ATOM     44  C   UNL     1      12.694  10.831   4.018  1.00  0.00     0.074 A 
ATOM     45  C   UNL     1      11.262  11.033   4.081  1.00  0.00     0.031 C 
ATOM     46  C   UNL     1      13.280   4.505   5.015  1.00  0.00     0.029 A 
ATOM     47  C   UNL     1      14.348   5.464   4.742  1.00  0.00     0.049 A 
ATOM     48  H   UNL     1      14.162   7.522   4.484  1.00  0.00     0.167 HD
ATOM     49  C   UNL     1      13.600  11.821   3.831  1.00  0.00     0.037 A 
ATOM     50  C   UNL     1      15.657   5.171   4.619  1.00  0.00     0.037 A 
ATOM     51  C   UNL     1      15.024  11.614   3.773  1.00  0.00     0.049 A 
ATOM     52  C   UNL     1      16.637   6.280   4.336  1.00  0.00     0.074 A 
ATOM     53  C   UNL     1      16.027  12.553   3.610  1.00  0.00     0.029 A 
ATOM     54  N   UNL     1      15.646  10.377   3.865  1.00  0.00    -0.354 N 
ATOM     55  N   UNL     1      16.419   7.566   4.199  1.00  0.00    -0.248 NA
ATOM     56  C   UNL     1      18.049   5.896   4.195  1.00  0.00     0.031 C 
ATOM     57  C   UNL     1      17.251  11.880   3.543  1.00  0.00     0.029 A 
ATOM     58  C   UNL     1      17.018  10.527   3.732  1.00  0.00     0.049 A 
ATOM     59  H   UNL     1      15.183   9.520   4.005  1.00  0.00     0.167 HD
ATOM     60  C   UNL     1      17.664   8.146   3.990  1.00  0.00     0.074 A 
ATOM     61  C   UNL     1      18.635   7.073   4.032  1.00  0.00     0.031 C 
ATOM     62  C   UNL     1      17.975   9.450   3.784  1.00  0.00     0.037 A 
BRANCH  49  63
ATOM     63  C   UNL     1      13.078  13.217   3.646  1.00  0.00     0.064 A 
ATOM     64  C   UNL     1      12.489  13.934   4.698  1.00  0.00     0.173 A 
ATOM     65  C   UNL     1      13.204  13.861   2.405  1.00  0.00     0.173 A 
ATOM     66  F   UNL     1      12.333  13.362   5.902  1.00  0.00    -0.203 F 
ATOM     67  C   UNL     1      12.021  15.233   4.508  1.00  0.00     0.198 A 
ATOM     68  C   UNL     1      12.765  15.171   2.227  1.00  0.00     0.198 A 
ATOM     69  F   UNL     1      13.764  13.225   1.366  1.00  0.00    -0.203 F 
ATOM     70  F   UNL     1      11.418  15.880   5.515  1.00  0.00    -0.200 F 
ATOM     71  C   UNL     1      12.167  15.853   3.276  1.00  0.00     0.200 A 
ATOM     72  F   UNL     1      12.921  15.773   1.040  1.00  0.00    -0.200 F 
ATOM     73  F   UNL     1      11.726  17.105   3.097  1.00  0.00    -0.200 F 
ENDBRANCH  49  63
BRANCH  50  74
ATOM     74  C   UNL     1      16.118   3.764   4.748  1.00  0.00     0.064 A 
ATOM     75  C   UNL     1      16.927   3.362   5.820  1.00  0.00     0.173 A 
ATOM     76  C   UNL     1      15.776   2.796   3.792  1.00  0.00     0.173 A 
ATOM     77  F   UNL     1      17.301   4.256   6.747  1.00  0.00    -0.203 F 
ATOM     78  C   UNL     1      17.394   2.053   5.918  1.00  0.00     0.198 A 
ATOM     79  C   UNL     1      16.216   1.479   3.909  1.00  0.00     0.198 A 
ATOM     80  F   UNL     1      15.004   3.127   2.746  1.00  0.00    -0.203 F 
ATOM     81  F   UNL     1      18.208   1.709   6.925  1.00  0.00    -0.200 F 
ATOM     82  C   UNL     1      17.033   1.111   4.967  1.00  0.00     0.200 A 
ATOM     83  F   UNL     1      15.852   0.570   2.995  1.00  0.00    -0.200 F 
ATOM     84  F   UNL     1      17.479  -0.148   5.064  1.00  0.00    -0.200 F 
ENDBRANCH  50  74
BRANCH  62  85
ATOM     85  C   UNL     1      19.429   9.799   3.633  1.00  0.00     0.064 A 
ATOM     86  C   UNL     1      20.164   9.435   2.495  1.00  0.00     0.173 A 
ATOM     87  C   UNL     1      20.085  10.545   4.626  1.00  0.00     0.173 A 
ATOM     88  F   UNL     1      19.590   8.710   1.523  1.00  0.00    -0.203 F 
ATOM     89  C   UNL     1      21.509   9.778   2.371  1.00  0.00     0.198 A 
ATOM     90  C   UNL     1      21.419  10.916   4.482  1.00  0.00     0.198 A 
ATOM     91  F   UNL     1      19.427  10.927   5.731  1.00  0.00    -0.203 F 
ATOM     92  F   UNL     1      22.205   9.373   1.300  1.00  0.00    -0.200 F 
ATOM     93  C   UNL     1      22.132  10.525   3.359  1.00  0.00     0.200 A 
ATOM     94  F   UNL     1      22.014  11.653   5.430  1.00  0.00    -0.200 F 
ATOM     95  F   UNL     1      23.423  10.862   3.233  1.00  0.00    -0.200 F 
ENDBRANCH  62  85
ENDBRANCH  36  37
ENDBRANCH  29  31
ENDBRANCH  28  29
ENDBRANCH  27  28
ENDBRANCH  26  27
ENDBRANCH  25  26
ENDBRANCH   1  25
TORSDOF 19
