REMARK SMILES COC(=O)[C@@H]([NH2+]CC(C)(C)C(=O)OCCOCCOC(=O)c1ccc(-c2c3nc(c(-c4c(F)c(F)c(F)c(F)c4F)c4ccc([nH]4)c(-c4c(F)c(F)c(F)c(F)c4F)c4nc(c(-c5c(F)c(F)c(F)c(F)c5F)c5ccc2[nH]5)C=C4)C=C3)cc1)c1ccccc1
REMARK SMILES IDX 14 1 13 2 11 3 12 4 8 5 9 6 10 7 7 8 6 9 5 12 3 13 4 14 2 15
REMARK SMILES IDX 1 16 85 17 86 18 90 19 87 20 89 21 88 22 15 23 16 24 17 25
REMARK SMILES IDX 18 26 19 27 20 28 21 29 22 30 23 31 84 32 24 33 83 34 25 35
REMARK SMILES IDX 26 36 27 37 77 38 28 39 82 40 76 41 78 42 29 43 81 44 75 45
REMARK SMILES IDX 74 46 30 48 62 49 42 50 61 51 43 52 46 53 60 54 79 55 44 56
REMARK SMILES IDX 45 57 59 59 80 60 47 61 31 62 32 63 40 64 33 65 34 66 38 67
REMARK SMILES IDX 41 68 35 69 36 70 39 71 37 72 63 73 64 74 72 75 65 76 66 77
REMARK SMILES IDX 70 78 73 79 67 80 68 81 71 82 69 83 48 84 49 85 57 86 50 87
REMARK SMILES IDX 51 88 55 89 58 90 52 91 53 92 56 93 54 94
REMARK H PARENT 6 10 6 11 78 47 46 58
REMARK Flexibility Score: inf
ROOT
ATOM      1  C   UNL     1       0.558  -1.833  -6.896  1.00  0.00     0.261 C 
ENDROOT
BRANCH   1   2
ATOM      2  O   UNL     1       0.814  -3.153  -6.401  1.00  0.00    -0.463 OA
BRANCH   2   3
ATOM      3  C   UNL     1       1.627  -3.220  -5.314  1.00  0.00     0.317 C 
ATOM      4  O   UNL     1       2.263  -2.267  -4.877  1.00  0.00    -0.251 OA
BRANCH   3   5
ATOM      5  C   UNL     1       1.667  -4.606  -4.667  1.00  0.00     0.111 C 
ATOM      6  C   UNL     1       3.155  -4.906  -4.420  1.00  0.00     0.029 C 
ATOM      7  C   UNL     1       1.126  -5.708  -5.609  1.00  0.00     0.029 C 
BRANCH   5   8
ATOM      8  C   UNL     1       0.830  -4.668  -3.350  1.00  0.00     0.279 C 
BRANCH   8   9
ATOM      9  N   UNL     1       1.066  -3.738  -2.236  1.00  0.00    -0.330 N 
ATOM     10  H   UNL     1       0.770  -4.196  -1.374  1.00  0.00     0.347 HD
ATOM     11  H   UNL     1       2.062  -3.517  -2.259  1.00  0.00     0.347 HD
BRANCH   9  12
ATOM     12  C   UNL     1       0.349  -2.431  -2.335  1.00  0.00     0.324 C 
BRANCH  12  13
ATOM     13  C   UNL     1       1.078  -1.400  -1.442  1.00  0.00     0.369 C 
ATOM     14  O   UNL     1       2.172  -0.925  -1.740  1.00  0.00    -0.245 OA
BRANCH  13  15
ATOM     15  O   UNL     1       0.410  -1.100  -0.294  1.00  0.00    -0.464 OA
ATOM     16  C   UNL     1       1.007  -0.051   0.470  1.00  0.00     0.282 C 
ENDBRANCH  13  15
ENDBRANCH  12  13
BRANCH  12  17
ATOM     17  C   UNL     1      -1.173  -2.435  -2.178  1.00  0.00     0.021 A 
ATOM     18  C   UNL     1      -1.866  -1.257  -2.530  1.00  0.00     0.010 A 
ATOM     19  C   UNL     1      -1.931  -3.556  -1.811  1.00  0.00     0.010 A 
ATOM     20  C   UNL     1      -3.259  -1.220  -2.584  1.00  0.00     0.001 A 
ATOM     21  C   UNL     1      -3.331  -3.523  -1.885  1.00  0.00     0.001 A 
ATOM     22  C   UNL     1      -3.992  -2.362  -2.284  1.00  0.00     0.000 A 
ENDBRANCH  12  17
ENDBRANCH   9  12
ENDBRANCH   8   9
ENDBRANCH   5   8
ENDBRANCH   3   5
ENDBRANCH   2   3
ENDBRANCH   1   2
BRANCH   1  23
ATOM     23  C   UNL     1      -0.935  -1.488  -6.914  1.00  0.00     0.202 C 
BRANCH  23  24
ATOM     24  O   UNL     1      -1.742  -1.887  -5.816  1.00  0.00    -0.374 OA
BRANCH  24  25
ATOM     25  C   UNL     1      -1.984  -3.278  -5.613  1.00  0.00     0.202 C 
BRANCH  25  26
ATOM     26  C   UNL     1      -2.778  -4.069  -6.656  1.00  0.00     0.261 C 
BRANCH  26  27
ATOM     27  O   UNL     1      -2.116  -4.129  -7.926  1.00  0.00    -0.460 OA
BRANCH  27  28
ATOM     28  C   UNL     1      -2.767  -3.480  -8.923  1.00  0.00     0.338 C 
ATOM     29  O   UNL     1      -3.851  -2.932  -8.877  1.00  0.00    -0.246 OA
BRANCH  28  30
ATOM     30  C   UNL     1      -1.850  -3.327 -10.064  1.00  0.00     0.060 A 
ATOM     31  C   UNL     1      -1.592  -2.026 -10.514  1.00  0.00     0.016 A 
ATOM     32  C   UNL     1      -1.301  -4.435 -10.708  1.00  0.00     0.016 A 
ATOM     33  C   UNL     1      -0.811  -1.826 -11.645  1.00  0.00     0.010 A 
ATOM     34  C   UNL     1      -0.532  -4.235 -11.855  1.00  0.00     0.010 A 
ATOM     35  C   UNL     1      -0.319  -2.933 -12.345  1.00  0.00    -0.014 A 
BRANCH  35  36
ATOM     36  C   UNL     1       0.249  -2.731 -13.694  1.00  0.00     0.031 A 
ATOM     37  C   UNL     1      -0.634  -2.980 -14.882  1.00  0.00     0.074 A 
ATOM     38  C   UNL     1       1.511  -2.298 -13.847  1.00  0.00     0.049 A 
ATOM     39  N   UNL     1      -0.350  -2.919 -16.157  1.00  0.00    -0.248 NA
ATOM     40  C   UNL     1      -2.030  -3.351 -14.592  1.00  0.00     0.031 C 
ATOM     41  C   UNL     1       2.430  -1.977 -12.757  1.00  0.00     0.029 A 
ATOM     42  N   UNL     1       2.236  -2.062 -14.985  1.00  0.00    -0.354 N 
ATOM     43  C   UNL     1      -1.524  -3.255 -16.818  1.00  0.00     0.074 A 
ATOM     44  C   UNL     1      -2.516  -3.548 -15.808  1.00  0.00     0.031 C 
ATOM     45  C   UNL     1       3.608  -1.597 -13.281  1.00  0.00     0.029 A 
ATOM     46  C   UNL     1       3.533  -1.687 -14.738  1.00  0.00     0.049 A 
ATOM     47  H   UNL     1       1.864  -2.152 -15.891  1.00  0.00     0.167 HD
ATOM     48  C   UNL     1      -1.751  -3.304 -18.151  1.00  0.00     0.037 A 
ATOM     49  C   UNL     1       4.547  -1.472 -15.597  1.00  0.00     0.037 A 
ATOM     50  C   UNL     1      -0.752  -3.008 -19.143  1.00  0.00     0.049 A 
ATOM     51  C   UNL     1       4.288  -1.609 -17.076  1.00  0.00     0.074 A 
ATOM     52  C   UNL     1      -0.875  -3.012 -20.520  1.00  0.00     0.029 A 
ATOM     53  N   UNL     1       0.562  -2.663 -18.858  1.00  0.00    -0.354 N 
ATOM     54  N   UNL     1       3.173  -1.907 -17.699  1.00  0.00    -0.248 NA
ATOM     55  C   UNL     1       5.429  -1.376 -17.971  1.00  0.00     0.031 C 
ATOM     56  C   UNL     1       0.380  -2.730 -21.070  1.00  0.00     0.029 A 
ATOM     57  C   UNL     1       1.269  -2.481 -20.035  1.00  0.00     0.049 A 
ATOM     58  H   UNL     1       0.936  -2.561 -17.953  1.00  0.00     0.167 HD
ATOM     59  C   UNL     1       3.468  -1.866 -19.056  1.00  0.00     0.074 A 
ATOM     60  C   UNL     1       4.866  -1.500 -19.164  1.00  0.00     0.031 C 
ATOM     61  C   UNL     1       2.659  -2.107 -20.117  1.00  0.00     0.037 A 
BRANCH  48  62
ATOM     62  C   UNL     1      -3.116  -3.728 -18.610  1.00  0.00     0.064 A 
ATOM     63  C   UNL     1      -4.246  -2.916 -18.430  1.00  0.00     0.173 A 
ATOM     64  C   UNL     1      -3.290  -4.956 -19.267  1.00  0.00     0.173 A 
ATOM     65  F   UNL     1      -4.138  -1.741 -17.792  1.00  0.00    -0.203 F 
ATOM     66  C   UNL     1      -5.503  -3.329 -18.866  1.00  0.00     0.198 A 
ATOM     67  C   UNL     1      -4.542  -5.351 -19.732  1.00  0.00     0.198 A 
ATOM     68  F   UNL     1      -2.244  -5.772 -19.466  1.00  0.00    -0.203 F 
ATOM     69  F   UNL     1      -6.576  -2.560 -18.638  1.00  0.00    -0.200 F 
ATOM     70  C   UNL     1      -5.648  -4.541 -19.525  1.00  0.00     0.200 A 
ATOM     71  F   UNL     1      -4.678  -6.517 -20.379  1.00  0.00    -0.200 F 
ATOM     72  F   UNL     1      -6.856  -4.933 -19.953  1.00  0.00    -0.200 F 
ENDBRANCH  48  62
BRANCH  49  73
ATOM     73  C   UNL     1       5.898  -1.124 -15.083  1.00  0.00     0.064 A 
ATOM     74  C   UNL     1       6.466   0.134 -15.328  1.00  0.00     0.173 A 
ATOM     75  C   UNL     1       6.657  -2.049 -14.350  1.00  0.00     0.173 A 
ATOM     76  F   UNL     1       5.790   1.046 -16.043  1.00  0.00    -0.203 F 
ATOM     77  C   UNL     1       7.748   0.445 -14.880  1.00  0.00     0.198 A 
ATOM     78  C   UNL     1       7.926  -1.726 -13.875  1.00  0.00     0.198 A 
ATOM     79  F   UNL     1       6.161  -3.267 -14.087  1.00  0.00    -0.203 F 
ATOM     80  F   UNL     1       8.287   1.636 -15.175  1.00  0.00    -0.200 F 
ATOM     81  C   UNL     1       8.475  -0.483 -14.149  1.00  0.00     0.200 A 
ATOM     82  F   UNL     1       8.617  -2.620 -13.156  1.00  0.00    -0.200 F 
ATOM     83  F   UNL     1       9.707  -0.182 -13.717  1.00  0.00    -0.200 F 
ENDBRANCH  49  73
BRANCH  61  84
ATOM     84  C   UNL     1       3.250  -1.939 -21.488  1.00  0.00     0.064 A 
ATOM     85  C   UNL     1       4.200  -2.836 -21.999  1.00  0.00     0.173 A 
ATOM     86  C   UNL     1       2.824  -0.890 -22.318  1.00  0.00     0.173 A 
ATOM     87  F   UNL     1       4.650  -3.848 -21.242  1.00  0.00    -0.203 F 
ATOM     88  C   UNL     1       4.722  -2.671 -23.280  1.00  0.00     0.198 A 
ATOM     89  C   UNL     1       3.321  -0.750 -23.610  1.00  0.00     0.198 A 
ATOM     90  F   UNL     1       1.910  -0.011 -21.881  1.00  0.00    -0.203 F 
ATOM     91  F   UNL     1       5.668  -3.508 -23.728  1.00  0.00    -0.200 F 
ATOM     92  C   UNL     1       4.276  -1.635 -24.086  1.00  0.00     0.200 A 
ATOM     93  F   UNL     1       2.874   0.240 -24.394  1.00  0.00    -0.200 F 
ATOM     94  F   UNL     1       4.772  -1.484 -25.322  1.00  0.00    -0.200 F 
ENDBRANCH  61  84
ENDBRANCH  35  36
ENDBRANCH  28  30
ENDBRANCH  27  28
ENDBRANCH  26  27
ENDBRANCH  25  26
ENDBRANCH  24  25
ENDBRANCH  23  24
ENDBRANCH   1  23
TORSDOF 20
