REMARK SMILES O=C(OCCOCCOC(=O)c1cnccc1C(=O)Nc1ccc(Cl)c(Cl)c1)c1ccc(-c2c3nc(c(-c4c(F)c(F)c(F)c(F)c4F)c4ccc([nH]4)c(-c4c(F)c(F)c(F)c(F)c4F)c4nc(c(-c5c(F)c(F)c(F)c(F)c5F)c5ccc2[nH]5)C=C4)C=C3)cc1
REMARK SMILES IDX 6 1 5 2 4 3 3 4 2 5 1 6 29 7 30 8 91 9 31 10 90 11 32 12
REMARK SMILES IDX 33 13 34 14 84 15 35 16 89 17 83 18 85 19 36 20 88 21 82 22
REMARK SMILES IDX 81 23 37 25 69 26 49 27 68 28 50 29 53 30 67 31 86 32 51 33
REMARK SMILES IDX 52 34 66 36 87 37 54 38 38 39 39 40 47 41 40 42 41 43 45 44
REMARK SMILES IDX 48 45 42 46 43 47 46 48 44 49 70 50 71 51 79 52 72 53 73 54
REMARK SMILES IDX 77 55 80 56 74 57 75 58 78 59 76 60 55 61 56 62 64 63 57 64
REMARK SMILES IDX 58 65 62 66 65 67 59 68 60 69 63 70 61 71 7 72 8 73 9 74
REMARK SMILES IDX 10 75 11 76 12 77 13 78 17 79 14 80 16 81 15 82 18 83 19 84
REMARK SMILES IDX 20 85 21 87 22 88 28 89 23 90 26 91 24 92 27 93 25 94
REMARK H PARENT 85 24 53 35 20 86
REMARK Flexibility Score: inf
ROOT
ATOM      1  O   UNL     1       3.453   0.287  -0.443  1.00  0.00    -0.374 OA
ENDROOT
BRANCH   1   2
ATOM      2  C   UNL     1       4.320  -0.706  -0.980  1.00  0.00     0.202 C 
BRANCH   2   3
ATOM      3  C   UNL     1       4.151  -2.104  -0.385  1.00  0.00     0.261 C 
BRANCH   3   4
ATOM      4  O   UNL     1       2.895  -2.349   0.265  1.00  0.00    -0.460 OA
BRANCH   4   5
ATOM      5  C   UNL     1       2.404  -1.861   1.428  1.00  0.00     0.338 C 
ATOM      6  O   UNL     1       1.288  -2.242   1.782  1.00  0.00    -0.246 OA
BRANCH   5   7
ATOM      7  C   UNL     1       3.106  -0.869   2.308  1.00  0.00     0.060 A 
ATOM      8  C   UNL     1       4.452  -0.511   2.217  1.00  0.00     0.016 A 
ATOM      9  C   UNL     1       2.340  -0.283   3.340  1.00  0.00     0.016 A 
ATOM     10  C   UNL     1       5.018   0.403   3.096  1.00  0.00     0.010 A 
ATOM     11  C   UNL     1       2.916   0.585   4.273  1.00  0.00     0.010 A 
ATOM     12  C   UNL     1       4.271   0.897   4.165  1.00  0.00    -0.014 A 
BRANCH  12  13
ATOM     13  C   UNL     1       5.046   1.456   5.285  1.00  0.00     0.031 A 
ATOM     14  C   UNL     1       5.710   0.467   6.200  1.00  0.00     0.074 A 
ATOM     15  C   UNL     1       5.316   2.769   5.344  1.00  0.00     0.049 A 
ATOM     16  N   UNL     1       6.623   0.657   7.113  1.00  0.00    -0.248 NA
ATOM     17  C   UNL     1       5.332  -0.947   6.011  1.00  0.00     0.031 C 
ATOM     18  C   UNL     1       4.817   3.775   4.410  1.00  0.00     0.029 A 
ATOM     19  N   UNL     1       6.127   3.466   6.198  1.00  0.00    -0.354 N 
ATOM     20  C   UNL     1       6.950  -0.610   7.578  1.00  0.00     0.074 A 
ATOM     21  C   UNL     1       6.144  -1.563   6.853  1.00  0.00     0.031 C 
ATOM     22  C   UNL     1       5.357   4.965   4.726  1.00  0.00     0.029 A 
ATOM     23  C   UNL     1       6.216   4.802   5.897  1.00  0.00     0.049 A 
ATOM     24  H   UNL     1       6.601   3.050   6.954  1.00  0.00     0.167 HD
ATOM     25  C   UNL     1       7.835  -0.945   8.543  1.00  0.00     0.037 A 
ATOM     26  C   UNL     1       6.922   5.770   6.512  1.00  0.00     0.037 A 
ATOM     27  C   UNL     1       8.560   0.022   9.316  1.00  0.00     0.049 A 
ATOM     28  C   UNL     1       7.782   5.386   7.690  1.00  0.00     0.074 A 
ATOM     29  C   UNL     1       9.378  -0.176  10.410  1.00  0.00     0.029 A 
ATOM     30  N   UNL     1       8.521   1.390   9.078  1.00  0.00    -0.354 N 
ATOM     31  N   UNL     1       8.061   4.192   8.160  1.00  0.00    -0.248 NA
ATOM     32  C   UNL     1       8.415   6.485   8.431  1.00  0.00     0.031 C 
ATOM     33  C   UNL     1       9.794   1.081  10.867  1.00  0.00     0.029 A 
ATOM     34  C   UNL     1       9.275   2.055  10.026  1.00  0.00     0.049 A 
ATOM     35  H   UNL     1       8.028   1.822   8.343  1.00  0.00     0.167 HD
ATOM     36  C   UNL     1       8.907   4.393   9.242  1.00  0.00     0.074 A 
ATOM     37  C   UNL     1       9.116   5.824   9.342  1.00  0.00     0.031 C 
ATOM     38  C   UNL     1       9.456   3.484  10.086  1.00  0.00     0.037 A 
BRANCH  25  39
ATOM     39  C   UNL     1       7.957  -2.402   8.861  1.00  0.00     0.064 A 
ATOM     40  C   UNL     1       8.637  -3.289   8.012  1.00  0.00     0.173 A 
ATOM     41  C   UNL     1       7.314  -2.932   9.989  1.00  0.00     0.173 A 
ATOM     42  F   UNL     1       9.235  -2.836   6.900  1.00  0.00    -0.203 F 
ATOM     43  C   UNL     1       8.645  -4.659   8.269  1.00  0.00     0.198 A 
ATOM     44  C   UNL     1       7.339  -4.299  10.251  1.00  0.00     0.198 A 
ATOM     45  F   UNL     1       6.634  -2.127  10.819  1.00  0.00    -0.203 F 
ATOM     46  F   UNL     1       9.248  -5.497   7.414  1.00  0.00    -0.200 F 
ATOM     47  C   UNL     1       7.995  -5.162   9.387  1.00  0.00     0.200 A 
ATOM     48  F   UNL     1       6.705  -4.784  11.328  1.00  0.00    -0.200 F 
ATOM     49  F   UNL     1       7.985  -6.481   9.621  1.00  0.00    -0.200 F 
ENDBRANCH  25  39
BRANCH  26  50
ATOM     50  C   UNL     1       6.832   7.180   6.048  1.00  0.00     0.064 A 
ATOM     51  C   UNL     1       7.948   7.848   5.526  1.00  0.00     0.173 A 
ATOM     52  C   UNL     1       5.631   7.900   6.143  1.00  0.00     0.173 A 
ATOM     53  F   UNL     1       9.128   7.216   5.441  1.00  0.00    -0.203 F 
ATOM     54  C   UNL     1       7.870   9.184   5.131  1.00  0.00     0.198 A 
ATOM     55  C   UNL     1       5.547   9.226   5.723  1.00  0.00     0.198 A 
ATOM     56  F   UNL     1       4.534   7.316   6.648  1.00  0.00    -0.203 F 
ATOM     57  F   UNL     1       8.965   9.813   4.682  1.00  0.00    -0.200 F 
ATOM     58  C   UNL     1       6.668   9.870   5.224  1.00  0.00     0.200 A 
ATOM     59  F   UNL     1       4.382   9.883   5.811  1.00  0.00    -0.200 F 
ATOM     60  F   UNL     1       6.595  11.154   4.848  1.00  0.00    -0.200 F 
ENDBRANCH  26  50
BRANCH  38  61
ATOM     61  C   UNL     1      10.334   4.013  11.178  1.00  0.00     0.064 A 
ATOM     62  C   UNL     1       9.793   4.664  12.296  1.00  0.00     0.173 A 
ATOM     63  C   UNL     1      11.721   3.812  11.134  1.00  0.00     0.173 A 
ATOM     64  F   UNL     1       8.473   4.887  12.375  1.00  0.00    -0.203 F 
ATOM     65  C   UNL     1      10.616   5.115  13.324  1.00  0.00     0.198 A 
ATOM     66  C   UNL     1      12.537   4.240  12.175  1.00  0.00     0.198 A 
ATOM     67  F   UNL     1      12.280   3.184  10.088  1.00  0.00    -0.203 F 
ATOM     68  F   UNL     1      10.085   5.769  14.366  1.00  0.00    -0.200 F 
ATOM     69  C   UNL     1      11.985   4.896  13.266  1.00  0.00     0.200 A 
ATOM     70  F   UNL     1      13.857   4.016  12.126  1.00  0.00    -0.200 F 
ATOM     71  F   UNL     1      12.774   5.322  14.262  1.00  0.00    -0.200 F 
ENDBRANCH  38  61
ENDBRANCH  12  13
ENDBRANCH   5   7
ENDBRANCH   4   5
ENDBRANCH   3   4
ENDBRANCH   2   3
ENDBRANCH   1   2
BRANCH   1  72
ATOM     72  C   UNL     1       2.157   0.325  -1.039  1.00  0.00     0.202 C 
BRANCH  72  73
ATOM     73  C   UNL     1       2.031   1.398  -2.122  1.00  0.00     0.261 C 
BRANCH  73  74
ATOM     74  O   UNL     1       2.718   1.097  -3.353  1.00  0.00    -0.460 OA
BRANCH  74  75
ATOM     75  C   UNL     1       4.030   1.400  -3.377  1.00  0.00     0.340 C 
ATOM     76  O   UNL     1       4.752   1.710  -2.439  1.00  0.00    -0.246 OA
BRANCH  75  77
ATOM     77  C   UNL     1       4.574   1.219  -4.708  1.00  0.00     0.091 A 
ATOM     78  C   UNL     1       5.366   0.093  -4.900  1.00  0.00     0.127 A 
ATOM     79  C   UNL     1       4.383   2.096  -5.771  1.00  0.00     0.057 A 
ATOM     80  N   UNL     1       5.933  -0.237  -6.081  1.00  0.00    -0.264 NA
ATOM     81  C   UNL     1       4.954   1.757  -7.009  1.00  0.00     0.035 A 
ATOM     82  C   UNL     1       5.705   0.596  -7.115  1.00  0.00     0.112 A 
BRANCH  79  83
ATOM     83  C   UNL     1       3.464   3.260  -5.769  1.00  0.00     0.256 C 
ATOM     84  O   UNL     1       2.767   3.416  -6.776  1.00  0.00    -0.269 OA
ATOM     85  N   UNL     1       3.244   4.105  -4.710  1.00  0.00    -0.322 N 
ATOM     86  H   UNL     1       2.385   4.582  -4.770  1.00  0.00     0.170 HD
BRANCH  85  87
ATOM     87  C   UNL     1       3.975   4.438  -3.561  1.00  0.00     0.043 A 
ATOM     88  C   UNL     1       5.360   4.328  -3.454  1.00  0.00     0.028 A 
ATOM     89  C   UNL     1       3.232   4.876  -2.456  1.00  0.00     0.048 A 
ATOM     90  C   UNL     1       5.982   4.549  -2.216  1.00  0.00     0.024 A 
ATOM     91  C   UNL     1       3.846   5.055  -1.211  1.00  0.00     0.061 A 
ATOM     92  C   UNL     1       5.225   4.877  -1.085  1.00  0.00     0.059 A 
ATOM     93  Cl  UNL     1       2.830   5.435   0.136  1.00  0.00    -0.083 Cl
ATOM     94  Cl  UNL     1       6.040   5.029   0.431  1.00  0.00    -0.083 Cl
ENDBRANCH  85  87
ENDBRANCH  79  83
ENDBRANCH  75  77
ENDBRANCH  74  75
ENDBRANCH  73  74
ENDBRANCH  72  73
ENDBRANCH   1  72
TORSDOF 16
