REMARK SMILES CS(=O)(=O)c1ccc(C2=NN(c3ccc(C(=O)OCCOCCOC(=O)c4ccc(-c5c6nc(c(-c7c(F)c(F)c(F)c(F)c7F)c7ccc([nH]7)c(-c7c(F)c(F)c(F)c(F)c7F)c7nc(c(-c8c(F)c(F)c(F)c(F)c8F)c8ccc5[nH]8)C=C7)C=C6)cc4)cc3)[C@H](c3ccc(F)cc3)C2)cc1
REMARK SMILES IDX 20 1 19 2 18 3 16 4 17 5 15 6 12 7 13 8 91 9 14 10 90 11
REMARK SMILES IDX 11 12 9 13 10 14 100 15 92 16 8 17 5 18 6 19 102 20 7 21
REMARK SMILES IDX 101 22 2 23 1 24 3 25 4 26 93 27 94 28 99 29 95 30 98 31
REMARK SMILES IDX 96 32 97 33 21 34 22 35 23 36 24 37 25 38 26 39 27 40 28 41
REMARK SMILES IDX 89 42 29 43 88 44 30 45 31 46 32 47 82 48 33 49 87 50 81 51
REMARK SMILES IDX 83 52 34 53 86 54 80 55 79 56 35 58 67 59 47 60 66 61 48 62
REMARK SMILES IDX 51 63 65 64 84 65 49 66 50 67 64 69 85 70 52 71 36 72 37 73
REMARK SMILES IDX 45 74 38 75 39 76 43 77 46 78 40 79 41 80 44 81 42 82 68 83
REMARK SMILES IDX 69 84 77 85 70 86 71 87 75 88 78 89 72 90 73 91 76 92 74 93
REMARK SMILES IDX 53 94 54 95 62 96 55 97 56 98 60 99 63 100 57 101 58 102
REMARK SMILES IDX 61 103 59 104
REMARK H PARENT 83 57 51 68
REMARK Flexibility Score: inf
ROOT
ATOM      1  C   UNL     1       9.688  -3.978  11.893  1.00  0.00     0.202 C 
ENDROOT
BRANCH   1   2
ATOM      2  C   UNL     1       9.027  -2.845  12.682  1.00  0.00     0.261 C 
BRANCH   2   3
ATOM      3  O   UNL     1       7.755  -2.506  12.106  1.00  0.00    -0.460 OA
BRANCH   3   4
ATOM      4  C   UNL     1       7.663  -1.257  11.593  1.00  0.00     0.338 C 
ATOM      5  O   UNL     1       8.477  -0.353  11.726  1.00  0.00    -0.246 OA
BRANCH   4   6
ATOM      6  C   UNL     1       6.472  -1.143  10.715  1.00  0.00     0.060 A 
ATOM      7  C   UNL     1       4.216  -0.722   9.094  1.00  0.00     0.060 A 
ATOM      8  C   UNL     1       5.364   0.059   8.925  1.00  0.00     0.029 A 
ATOM      9  C   UNL     1       4.249  -1.780  10.014  1.00  0.00     0.029 A 
ATOM     10  C   UNL     1       6.481  -0.141   9.736  1.00  0.00     0.018 A 
ATOM     11  C   UNL     1       5.366  -1.992  10.828  1.00  0.00     0.018 A 
BRANCH   7  12
ATOM     12  N   UNL     1       3.008  -0.381   8.471  1.00  0.00    -0.257 N 
ATOM     13  C   UNL     1       2.123   0.588   6.781  1.00  0.00     0.071 C 
ATOM     14  N   UNL     1       2.962  -0.344   7.109  1.00  0.00    -0.176 NA
ATOM     15  C   UNL     1       1.559   1.396   7.915  1.00  0.00     0.091 C 
ATOM     16  C   UNL     1       2.213   0.689   9.108  1.00  0.00     0.144 C 
BRANCH  13  17
ATOM     17  C   UNL     1       1.715   0.836   5.387  1.00  0.00    -0.002 A 
ATOM     18  C   UNL     1       0.862   1.202   2.760  1.00  0.00     0.067 A 
ATOM     19  C   UNL     1       1.038  -0.093   3.252  1.00  0.00     0.021 A 
ATOM     20  C   UNL     1       1.122   2.315   3.571  1.00  0.00     0.021 A 
ATOM     21  C   UNL     1       1.480  -0.272   4.564  1.00  0.00     0.011 A 
ATOM     22  C   UNL     1       1.538   2.131   4.893  1.00  0.00     0.011 A 
BRANCH  18  23
ATOM     23  S   UNL     1       0.299   1.469   1.093  1.00  0.00     0.175 S 
ATOM     24  C   UNL     1       1.037   0.192   0.110  1.00  0.00     0.163 C 
ATOM     25  O   UNL     1       0.870   2.728   0.653  1.00  0.00    -0.224 OA
ATOM     26  O   UNL     1      -1.135   1.260   1.111  1.00  0.00    -0.224 OA
ENDBRANCH  18  23
ENDBRANCH  13  17
BRANCH  16  27
ATOM     27  C   UNL     1       1.309   0.106  10.186  1.00  0.00    -0.023 A 
ATOM     28  C   UNL     1      -0.005  -0.327   9.950  1.00  0.00     0.009 A 
ATOM     29  C   UNL     1       1.850  -0.091  11.476  1.00  0.00     0.009 A 
ATOM     30  C   UNL     1      -0.750  -0.932  10.969  1.00  0.00     0.039 A 
ATOM     31  C   UNL     1       1.120  -0.728  12.480  1.00  0.00     0.039 A 
ATOM     32  C   UNL     1      -0.177  -1.140  12.217  1.00  0.00     0.123 A 
ATOM     33  F   UNL     1      -0.880  -1.758  13.174  1.00  0.00    -0.207 F 
ENDBRANCH  16  27
ENDBRANCH   7  12
ENDBRANCH   4   6
ENDBRANCH   3   4
ENDBRANCH   2   3
ENDBRANCH   1   2
BRANCH   1  34
ATOM     34  O   UNL     1      10.116  -3.650  10.570  1.00  0.00    -0.374 OA
BRANCH  34  35
ATOM     35  C   UNL     1       9.117  -3.603   9.551  1.00  0.00     0.202 C 
BRANCH  35  36
ATOM     36  C   UNL     1       8.700  -4.948   8.949  1.00  0.00     0.261 C 
BRANCH  36  37
ATOM     37  O   UNL     1       8.095  -5.814   9.926  1.00  0.00    -0.460 OA
BRANCH  37  38
ATOM     38  C   UNL     1       8.871  -6.855  10.302  1.00  0.00     0.338 C 
ATOM     39  O   UNL     1       9.957  -7.175   9.839  1.00  0.00    -0.246 OA
BRANCH  38  40
ATOM     40  C   UNL     1       8.310  -7.524  11.491  1.00  0.00     0.060 A 
ATOM     41  C   UNL     1       9.197  -7.801  12.538  1.00  0.00     0.016 A 
ATOM     42  C   UNL     1       6.988  -7.973  11.543  1.00  0.00     0.016 A 
ATOM     43  C   UNL     1       8.793  -8.606  13.598  1.00  0.00     0.010 A 
ATOM     44  C   UNL     1       6.582  -8.784  12.611  1.00  0.00     0.010 A 
ATOM     45  C   UNL     1       7.501  -9.149  13.612  1.00  0.00    -0.014 A 
BRANCH  45  46
ATOM     46  C   UNL     1       7.209 -10.251  14.562  1.00  0.00     0.031 A 
ATOM     47  C   UNL     1       7.293 -11.673  14.070  1.00  0.00     0.074 A 
ATOM     48  C   UNL     1       6.970 -10.000  15.861  1.00  0.00     0.049 A 
ATOM     49  N   UNL     1       7.142 -12.793  14.731  1.00  0.00    -0.248 NA
ATOM     50  C   UNL     1       7.593 -11.856  12.641  1.00  0.00     0.031 C 
ATOM     51  C   UNL     1       6.895  -8.672  16.465  1.00  0.00     0.029 A 
ATOM     52  N   UNL     1       6.753 -10.861  16.909  1.00  0.00    -0.354 N 
ATOM     53  C   UNL     1       7.340 -13.808  13.803  1.00  0.00     0.074 A 
ATOM     54  C   UNL     1       7.574 -13.175  12.524  1.00  0.00     0.031 C 
ATOM     55  C   UNL     1       6.646  -8.805  17.780  1.00  0.00     0.029 A 
ATOM     56  C   UNL     1       6.529 -10.226  18.105  1.00  0.00     0.049 A 
ATOM     57  H   UNL     1       6.759 -11.841  16.812  1.00  0.00     0.167 HD
ATOM     58  C   UNL     1       7.350 -15.148  14.002  1.00  0.00     0.037 A 
ATOM     59  C   UNL     1       6.252 -10.737  19.320  1.00  0.00     0.037 A 
ATOM     60  C   UNL     1       7.115 -15.782  15.271  1.00  0.00     0.049 A 
ATOM     61  C   UNL     1       6.214 -12.233  19.502  1.00  0.00     0.074 A 
ATOM     62  C   UNL     1       7.090 -17.133  15.571  1.00  0.00     0.029 A 
ATOM     63  N   UNL     1       6.867 -15.105  16.455  1.00  0.00    -0.354 N 
ATOM     64  N   UNL     1       6.423 -13.183  18.623  1.00  0.00    -0.248 NA
ATOM     65  C   UNL     1       5.915 -12.728  20.854  1.00  0.00     0.031 C 
ATOM     66  C   UNL     1       6.791 -17.274  16.931  1.00  0.00     0.029 A 
ATOM     67  C   UNL     1       6.675 -16.010  17.486  1.00  0.00     0.049 A 
ATOM     68  H   UNL     1       6.832 -14.125  16.549  1.00  0.00     0.167 HD
ATOM     69  C   UNL     1       6.306 -14.381  19.317  1.00  0.00     0.074 A 
ATOM     70  C   UNL     1       6.032 -14.039  20.696  1.00  0.00     0.031 C 
ATOM     71  C   UNL     1       6.411 -15.651  18.855  1.00  0.00     0.037 A 
BRANCH  58  72
ATOM     72  C   UNL     1       7.621 -16.021  12.813  1.00  0.00     0.064 A 
ATOM     73  C   UNL     1       8.905 -16.116  12.254  1.00  0.00     0.173 A 
ATOM     74  C   UNL     1       6.601 -16.802  12.251  1.00  0.00     0.173 A 
ATOM     75  F   UNL     1       9.911 -15.377  12.745  1.00  0.00    -0.203 F 
ATOM     76  C   UNL     1       9.152 -16.948  11.165  1.00  0.00     0.198 A 
ATOM     77  C   UNL     1       6.857 -17.652  11.179  1.00  0.00     0.198 A 
ATOM     78  F   UNL     1       5.356 -16.748  12.750  1.00  0.00    -0.203 F 
ATOM     79  F   UNL     1      10.377 -16.995  10.624  1.00  0.00    -0.200 F 
ATOM     80  C   UNL     1       8.130 -17.721  10.634  1.00  0.00     0.200 A 
ATOM     81  F   UNL     1       5.871 -18.406  10.673  1.00  0.00    -0.200 F 
ATOM     82  F   UNL     1       8.372 -18.529   9.592  1.00  0.00    -0.200 F 
ENDBRANCH  58  72
BRANCH  59  83
ATOM     83  C   UNL     1       5.977  -9.832  20.467  1.00  0.00     0.064 A 
ATOM     84  C   UNL     1       6.851  -9.752  21.560  1.00  0.00     0.173 A 
ATOM     85  C   UNL     1       4.805  -9.063  20.512  1.00  0.00     0.173 A 
ATOM     86  F   UNL     1       7.972 -10.489  21.575  1.00  0.00    -0.203 F 
ATOM     87  C   UNL     1       6.548  -8.963  22.668  1.00  0.00     0.198 A 
ATOM     88  C   UNL     1       4.518  -8.250  21.607  1.00  0.00     0.198 A 
ATOM     89  F   UNL     1       3.934  -9.104  19.493  1.00  0.00    -0.203 F 
ATOM     90  F   UNL     1       7.371  -8.952  23.725  1.00  0.00    -0.200 F 
ATOM     91  C   UNL     1       5.384  -8.210  22.689  1.00  0.00     0.200 A 
ATOM     92  F   UNL     1       3.397  -7.517  21.618  1.00  0.00    -0.200 F 
ATOM     93  F   UNL     1       5.090  -7.456  23.757  1.00  0.00    -0.200 F 
ENDBRANCH  59  83
BRANCH  71  94
ATOM     94  C   UNL     1       6.258 -16.761  19.855  1.00  0.00     0.064 A 
ATOM     95  C   UNL     1       5.014 -17.069  20.426  1.00  0.00     0.173 A 
ATOM     96  C   UNL     1       7.364 -17.539  20.229  1.00  0.00     0.173 A 
ATOM     97  F   UNL     1       3.929 -16.346  20.111  1.00  0.00    -0.203 F 
ATOM     98  C   UNL     1       4.890 -18.093  21.361  1.00  0.00     0.198 A 
ATOM     99  C   UNL     1       7.230 -18.582  21.141  1.00  0.00     0.198 A 
ATOM    100  F   UNL     1       8.573 -17.291  19.705  1.00  0.00    -0.203 F 
ATOM    101  F   UNL     1       3.703 -18.334  21.935  1.00  0.00    -0.200 F 
ATOM    102  C   UNL     1       5.996 -18.852  21.714  1.00  0.00     0.200 A 
ATOM    103  F   UNL     1       8.297 -19.323  21.471  1.00  0.00    -0.200 F 
ATOM    104  F   UNL     1       5.875 -19.837  22.613  1.00  0.00    -0.200 F 
ENDBRANCH  71  94
ENDBRANCH  45  46
ENDBRANCH  38  40
ENDBRANCH  37  38
ENDBRANCH  36  37
ENDBRANCH  35  36
ENDBRANCH  34  35
ENDBRANCH   1  34
TORSDOF 18
