REMARK SMILES COc1ccc(CCN2C(=O)CC[C@@H](C(=O)OCCOCCOC(=O)c3ccc(-c4c5nc(c(-c6c(F)c(F)c(F)c(F)c6F)c6ccc([nH]6)c(-c6c(F)c(F)c(F)c(F)c6F)c6nc(c(-c7c(F)c(F)c(F)c(F)c7F)c7ccc4[nH]7)C=C6)C=C5)cc3)[C@@H]2c2ccc(Cl)cc2)cc1OC
REMARK SMILES IDX 19 1 18 2 17 3 15 4 16 5 14 6 9 7 10 8 89 9 11 10 12 11
REMARK SMILES IDX 13 12 8 13 7 14 6 15 3 16 4 17 98 18 5 19 97 20 2 21 1 22
REMARK SMILES IDX 99 23 100 24 90 25 91 26 96 27 92 28 95 29 93 30 94 31 20 32
REMARK SMILES IDX 21 33 22 34 23 35 24 36 25 37 26 38 27 39 88 40 28 41 87 42
REMARK SMILES IDX 29 43 30 44 31 45 81 46 32 47 86 48 80 49 82 50 33 51 85 52
REMARK SMILES IDX 79 53 78 54 34 56 66 57 46 58 65 59 47 60 50 61 64 62 83 63
REMARK SMILES IDX 48 64 49 65 63 67 84 68 51 69 35 70 36 71 44 72 37 73 38 74
REMARK SMILES IDX 42 75 45 76 39 77 40 78 43 79 41 80 67 81 68 82 76 83 69 84
REMARK SMILES IDX 70 85 74 86 77 87 71 88 72 89 75 90 73 91 52 92 53 93 61 94
REMARK SMILES IDX 54 95 55 96 59 97 62 98 56 99 57 100 60 101 58 102
REMARK H PARENT 82 55 50 66
REMARK Flexibility Score: inf
ROOT
ATOM      1  C   UNL     1      -3.575  -6.263  -9.112  1.00  0.00     0.202 C 
ENDROOT
BRANCH   1   2
ATOM      2  C   UNL     1      -3.110  -7.514  -8.361  1.00  0.00     0.261 C 
BRANCH   2   3
ATOM      3  O   UNL     1      -2.946  -7.280  -6.948  1.00  0.00    -0.463 OA
BRANCH   3   4
ATOM      4  C   UNL     1      -1.752  -7.652  -6.412  1.00  0.00     0.311 C 
ATOM      5  O   UNL     1      -0.857  -8.201  -7.043  1.00  0.00    -0.252 OA
BRANCH   4   6
ATOM      6  C   UNL     1      -1.669  -7.418  -4.905  1.00  0.00     0.127 C 
ATOM      7  N   UNL     1       0.034  -5.553  -4.752  1.00  0.00    -0.334 N 
ATOM      8  C   UNL     1      -1.041  -4.697  -4.838  1.00  0.00     0.223 C 
ATOM      9  C   UNL     1      -0.207  -7.000  -4.528  1.00  0.00     0.129 C 
ATOM     10  O   UNL     1      -1.016  -3.632  -5.445  1.00  0.00    -0.275 OA
ATOM     11  C   UNL     1      -2.217  -5.095  -3.988  1.00  0.00     0.101 C 
ATOM     12  C   UNL     1      -2.728  -6.483  -4.303  1.00  0.00     0.028 C 
BRANCH   7  13
ATOM     13  C   UNL     1       1.378  -5.103  -5.155  1.00  0.00     0.125 C 
BRANCH  13  14
ATOM     14  C   UNL     1       1.808  -3.628  -4.874  1.00  0.00     0.057 C 
BRANCH  14  15
ATOM     15  C   UNL     1       1.740  -3.038  -3.472  1.00  0.00    -0.042 A 
ATOM     16  C   UNL     1       1.588  -1.693  -0.971  1.00  0.00     0.160 A 
ATOM     17  C   UNL     1       0.449  -2.230  -1.558  1.00  0.00     0.051 A 
ATOM     18  C   UNL     1       2.825  -1.840  -1.610  1.00  0.00     0.160 A 
ATOM     19  C   UNL     1       0.528  -2.847  -2.804  1.00  0.00     0.008 A 
ATOM     20  C   UNL     1       2.886  -2.518  -2.849  1.00  0.00     0.054 A 
BRANCH  16  21
ATOM     21  O   UNL     1       1.464  -1.064   0.238  1.00  0.00    -0.493 OA
ATOM     22  C   UNL     1       0.567   0.048   0.178  1.00  0.00     0.278 C 
ENDBRANCH  16  21
BRANCH  18  23
ATOM     23  O   UNL     1       4.044  -1.367  -1.195  1.00  0.00    -0.493 OA
ATOM     24  C   UNL     1       4.075  -0.533  -0.044  1.00  0.00     0.278 C 
ENDBRANCH  18  23
ENDBRANCH  14  15
ENDBRANCH  13  14
ENDBRANCH   7  13
BRANCH   9  25
ATOM     25  C   UNL     1       0.213  -7.493  -3.139  1.00  0.00    -0.024 A 
ATOM     26  C   UNL     1       0.873  -6.671  -2.211  1.00  0.00     0.007 A 
ATOM     27  C   UNL     1       0.045  -8.850  -2.800  1.00  0.00     0.007 A 
ATOM     28  C   UNL     1       1.344  -7.178  -0.997  1.00  0.00     0.021 A 
ATOM     29  C   UNL     1       0.489  -9.353  -1.574  1.00  0.00     0.021 A 
ATOM     30  C   UNL     1       1.144  -8.515  -0.680  1.00  0.00     0.041 A 
ATOM     31  Cl  UNL     1       1.728  -9.142   0.810  1.00  0.00    -0.084 Cl
ENDBRANCH   9  25
ENDBRANCH   4   6
ENDBRANCH   3   4
ENDBRANCH   2   3
ENDBRANCH   1   2
BRANCH   1  32
ATOM     32  O   UNL     1      -2.674  -5.159  -9.191  1.00  0.00    -0.374 OA
BRANCH  32  33
ATOM     33  C   UNL     1      -2.325  -4.499  -7.977  1.00  0.00     0.202 C 
BRANCH  33  34
ATOM     34  C   UNL     1      -3.365  -3.557  -7.352  1.00  0.00     0.261 C 
BRANCH  34  35
ATOM     35  O   UNL     1      -4.680  -4.111  -7.305  1.00  0.00    -0.460 OA
BRANCH  35  36
ATOM     36  C   UNL     1      -5.526  -3.555  -8.203  1.00  0.00     0.338 C 
ATOM     37  O   UNL     1      -5.326  -2.619  -8.954  1.00  0.00    -0.246 OA
BRANCH  36  38
ATOM     38  C   UNL     1      -6.734  -4.380  -8.270  1.00  0.00     0.060 A 
ATOM     39  C   UNL     1      -7.069  -4.907  -9.521  1.00  0.00     0.016 A 
ATOM     40  C   UNL     1      -7.543  -4.583  -7.150  1.00  0.00     0.016 A 
ATOM     41  C   UNL     1      -8.262  -5.595  -9.672  1.00  0.00     0.010 A 
ATOM     42  C   UNL     1      -8.744  -5.273  -7.304  1.00  0.00     0.010 A 
ATOM     43  C   UNL     1      -9.123  -5.738  -8.575  1.00  0.00    -0.014 A 
BRANCH  43  44
ATOM     44  C   UNL     1     -10.494  -6.225  -8.823  1.00  0.00     0.031 A 
ATOM     45  C   UNL     1     -11.598  -5.218  -8.956  1.00  0.00     0.074 A 
ATOM     46  C   UNL     1     -10.717  -7.537  -9.005  1.00  0.00     0.049 A 
ATOM     47  N   UNL     1     -12.862  -5.404  -9.233  1.00  0.00    -0.248 NA
ATOM     48  C   UNL     1     -11.229  -3.808  -8.749  1.00  0.00     0.031 C 
ATOM     49  C   UNL     1      -9.697  -8.582  -8.928  1.00  0.00     0.029 A 
ATOM     50  N   UNL     1     -11.871  -8.209  -9.305  1.00  0.00    -0.354 N 
ATOM     51  C   UNL     1     -13.435  -4.139  -9.236  1.00  0.00     0.074 A 
ATOM     52  C   UNL     1     -12.394  -3.197  -8.892  1.00  0.00     0.031 C 
ATOM     53  C   UNL     1     -10.273  -9.769  -9.182  1.00  0.00     0.029 A 
ATOM     54  C   UNL     1     -11.701  -9.566  -9.413  1.00  0.00     0.049 A 
ATOM     55  H   UNL     1     -12.739  -7.762  -9.431  1.00  0.00     0.167 HD
ATOM     56  C   UNL     1     -14.714  -3.799  -9.518  1.00  0.00     0.037 A 
ATOM     57  C   UNL     1     -12.607 -10.529  -9.664  1.00  0.00     0.037 A 
ATOM     58  C   UNL     1     -15.736  -4.753  -9.858  1.00  0.00     0.049 A 
ATOM     59  C   UNL     1     -14.035 -10.127  -9.920  1.00  0.00     0.074 A 
ATOM     60  C   UNL     1     -17.064  -4.525 -10.171  1.00  0.00     0.029 A 
ATOM     61  N   UNL     1     -15.539  -6.126  -9.921  1.00  0.00    -0.354 N 
ATOM     62  N   UNL     1     -14.566  -8.927  -9.951  1.00  0.00    -0.248 NA
ATOM     63  C   UNL     1     -14.988 -11.211 -10.188  1.00  0.00     0.031 C 
ATOM     64  C   UNL     1     -17.682  -5.764 -10.369  1.00  0.00     0.029 A 
ATOM     65  C   UNL     1     -16.727  -6.761 -10.242  1.00  0.00     0.049 A 
ATOM     66  H   UNL     1     -14.681  -6.582  -9.760  1.00  0.00     0.167 HD
ATOM     67  C   UNL     1     -15.906  -9.109 -10.267  1.00  0.00     0.074 A 
ATOM     68  C   UNL     1     -16.100 -10.535 -10.437  1.00  0.00     0.031 C 
ATOM     69  C   UNL     1     -16.889  -8.184 -10.405  1.00  0.00     0.037 A 
BRANCH  56  70
ATOM     70  C   UNL     1     -15.078  -2.344  -9.441  1.00  0.00     0.064 A 
ATOM     71  C   UNL     1     -14.601  -1.411 -10.375  1.00  0.00     0.173 A 
ATOM     72  C   UNL     1     -15.928  -1.879  -8.427  1.00  0.00     0.173 A 
ATOM     73  F   UNL     1     -13.771  -1.799 -11.355  1.00  0.00    -0.203 F 
ATOM     74  C   UNL     1     -14.940  -0.063 -10.279  1.00  0.00     0.198 A 
ATOM     75  C   UNL     1     -16.289  -0.536  -8.352  1.00  0.00     0.198 A 
ATOM     76  F   UNL     1     -16.411  -2.728  -7.507  1.00  0.00    -0.203 F 
ATOM     77  F   UNL     1     -14.431   0.819 -11.151  1.00  0.00    -0.200 F 
ATOM     78  C   UNL     1     -15.789   0.372  -9.273  1.00  0.00     0.200 A 
ATOM     79  F   UNL     1     -17.118  -0.120  -7.384  1.00  0.00    -0.200 F 
ATOM     80  F   UNL     1     -16.118   1.668  -9.184  1.00  0.00    -0.200 F 
ENDBRANCH  56  70
BRANCH  57  81
ATOM     81  C   UNL     1     -12.187 -11.954  -9.690  1.00  0.00     0.064 A 
ATOM     82  C   UNL     1     -12.206 -12.697 -10.878  1.00  0.00     0.173 A 
ATOM     83  C   UNL     1     -11.761 -12.604  -8.522  1.00  0.00     0.173 A 
ATOM     84  F   UNL     1     -12.623 -12.126 -12.018  1.00  0.00    -0.203 F 
ATOM     85  C   UNL     1     -11.834 -14.040 -10.893  1.00  0.00     0.198 A 
ATOM     86  C   UNL     1     -11.360 -13.938  -8.544  1.00  0.00     0.198 A 
ATOM     87  F   UNL     1     -11.719 -11.938  -7.358  1.00  0.00    -0.203 F 
ATOM     88  F   UNL     1     -11.905 -14.739 -12.034  1.00  0.00    -0.200 F 
ATOM     89  C   UNL     1     -11.406 -14.658  -9.728  1.00  0.00     0.200 A 
ATOM     90  F   UNL     1     -10.931 -14.526  -7.419  1.00  0.00    -0.200 F 
ATOM     91  F   UNL     1     -11.043 -15.948  -9.745  1.00  0.00    -0.200 F 
ENDBRANCH  57  81
BRANCH  69  92
ATOM     92  C   UNL     1     -18.250  -8.688 -10.789  1.00  0.00     0.064 A 
ATOM     93  C   UNL     1     -19.044  -9.422  -9.895  1.00  0.00     0.173 A 
ATOM     94  C   UNL     1     -18.776  -8.409 -12.059  1.00  0.00     0.173 A 
ATOM     95  F   UNL     1     -18.581  -9.726  -8.674  1.00  0.00    -0.203 F 
ATOM     96  C   UNL     1     -20.300  -9.888 -10.272  1.00  0.00     0.198 A 
ATOM     97  C   UNL     1     -20.047  -8.846 -12.420  1.00  0.00     0.198 A 
ATOM     98  F   UNL     1     -18.061  -7.702 -12.948  1.00  0.00    -0.203 F 
ATOM     99  F   UNL     1     -21.017 -10.637  -9.423  1.00  0.00    -0.200 F 
ATOM    100  C   UNL     1     -20.803  -9.594 -11.531  1.00  0.00     0.200 A 
ATOM    101  F   UNL     1     -20.538  -8.546 -13.631  1.00  0.00    -0.200 F 
ATOM    102  F   UNL     1     -22.015 -10.040 -11.891  1.00  0.00    -0.200 F 
ENDBRANCH  69  92
ENDBRANCH  43  44
ENDBRANCH  36  38
ENDBRANCH  35  36
ENDBRANCH  34  35
ENDBRANCH  33  34
ENDBRANCH  32  33
ENDBRANCH   1  32
TORSDOF 20
