REMARK SMILES COc1ccc(C(=O)OCCOCCOC(=O)c2ccc(-c3c4nc(c(-c5c(F)c(F)c(F)c(F)c5F)c5ccc([nH]5)c(-c5c(F)c(F)c(F)c(F)c5F)c5nc(c(-c6c(F)c(F)c(F)c(F)c6F)c6ccc3[nH]6)C=C5)C=C4)cc2)cc1C(F)(F)F
REMARK SMILES IDX 13 1 12 2 11 3 10 4 9 5 7 6 8 7 6 8 3 9 4 10 82 11 5 12
REMARK SMILES IDX 81 13 2 14 1 15 83 16 84 17 85 18 86 19 14 20 15 21 16 22
REMARK SMILES IDX 17 23 18 24 19 25 80 26 20 27 79 28 21 29 22 30 23 31 73 32
REMARK SMILES IDX 24 33 78 34 72 35 74 36 25 37 77 38 71 39 70 40 26 42 58 43
REMARK SMILES IDX 38 44 57 45 39 46 42 47 56 48 75 49 40 50 41 51 55 53 76 54
REMARK SMILES IDX 43 55 27 56 28 57 36 58 29 59 30 60 34 61 37 62 31 63 32 64
REMARK SMILES IDX 35 65 33 66 59 67 60 68 68 69 61 70 62 71 66 72 69 73 63 74
REMARK SMILES IDX 64 75 67 76 65 77 44 78 45 79 53 80 46 81 47 82 51 83 54 84
REMARK SMILES IDX 48 85 49 86 52 87 50 88
REMARK H PARENT 74 41 42 52
REMARK Flexibility Score: inf
ROOT
ATOM      1  C   UNL     1       2.274   4.244  -6.577  1.00  0.00     0.202 C 
ENDROOT
BRANCH   1   2
ATOM      2  O   UNL     1       2.407   5.665  -6.653  1.00  0.00    -0.374 OA
BRANCH   2   3
ATOM      3  C   UNL     1       3.482   6.255  -5.923  1.00  0.00     0.202 C 
BRANCH   3   4
ATOM      4  C   UNL     1       3.221   6.500  -4.435  1.00  0.00     0.261 C 
BRANCH   4   5
ATOM      5  O   UNL     1       3.041   5.260  -3.729  1.00  0.00    -0.460 OA
BRANCH   5   6
ATOM      6  C   UNL     1       1.784   5.036  -3.279  1.00  0.00     0.338 C 
ATOM      7  O   UNL     1       0.848   5.822  -3.307  1.00  0.00    -0.246 OA
BRANCH   6   8
ATOM      8  C   UNL     1       1.630   3.631  -2.827  1.00  0.00     0.060 A 
ATOM      9  C   UNL     1       1.175   1.053  -1.870  1.00  0.00     0.131 A 
ATOM     10  C   UNL     1       0.115   1.798  -2.390  1.00  0.00     0.048 A 
ATOM     11  C   UNL     1       2.489   1.534  -1.909  1.00  0.00     0.098 A 
ATOM     12  C   UNL     1       0.341   3.088  -2.859  1.00  0.00     0.019 A 
ATOM     13  C   UNL     1       2.704   2.847  -2.381  1.00  0.00     0.032 A 
BRANCH   9  14
ATOM     14  O   UNL     1       0.877  -0.176  -1.348  1.00  0.00    -0.496 OA
ATOM     15  C   UNL     1       0.611  -0.056   0.054  1.00  0.00     0.278 C 
ENDBRANCH   9  14
BRANCH  11  16
ATOM     16  C   UNL     1       3.659   0.726  -1.410  1.00  0.00     0.419 C 
ATOM     17  F   UNL     1       4.769   0.891  -2.187  1.00  0.00    -0.166 F 
ATOM     18  F   UNL     1       4.033   1.103  -0.154  1.00  0.00    -0.166 F 
ATOM     19  F   UNL     1       3.457  -0.618  -1.351  1.00  0.00    -0.166 F 
ENDBRANCH  11  16
ENDBRANCH   6   8
ENDBRANCH   5   6
ENDBRANCH   4   5
ENDBRANCH   3   4
ENDBRANCH   2   3
ENDBRANCH   1   2
BRANCH   1  20
ATOM     20  C   UNL     1       3.213   3.436  -7.481  1.00  0.00     0.261 C 
BRANCH  20  21
ATOM     21  O   UNL     1       4.583   3.536  -7.050  1.00  0.00    -0.460 OA
BRANCH  21  22
ATOM     22  C   UNL     1       5.393   4.235  -7.878  1.00  0.00     0.338 C 
ATOM     23  O   UNL     1       5.111   4.703  -8.972  1.00  0.00    -0.246 OA
BRANCH  22  24
ATOM     24  C   UNL     1       6.672   4.528  -7.206  1.00  0.00     0.060 A 
ATOM     25  C   UNL     1       7.110   5.859  -7.202  1.00  0.00     0.016 A 
ATOM     26  C   UNL     1       7.465   3.520  -6.653  1.00  0.00     0.016 A 
ATOM     27  C   UNL     1       8.365   6.181  -6.690  1.00  0.00     0.010 A 
ATOM     28  C   UNL     1       8.730   3.844  -6.147  1.00  0.00     0.010 A 
ATOM     29  C   UNL     1       9.199   5.170  -6.196  1.00  0.00    -0.014 A 
BRANCH  29  30
ATOM     30  C   UNL     1      10.611   5.482  -5.864  1.00  0.00     0.031 A 
ATOM     31  C   UNL     1      11.684   5.162  -6.870  1.00  0.00     0.074 A 
ATOM     32  C   UNL     1      10.932   6.073  -4.700  1.00  0.00     0.049 A 
ATOM     33  N   UNL     1      12.981   5.309  -6.778  1.00  0.00    -0.248 NA
ATOM     34  C   UNL     1      11.232   4.601  -8.154  1.00  0.00     0.031 C 
ATOM     35  C   UNL     1       9.980   6.470  -3.665  1.00  0.00     0.029 A 
ATOM     36  N   UNL     1      12.155   6.435  -4.191  1.00  0.00    -0.354 N 
ATOM     37  C   UNL     1      13.498   4.862  -7.987  1.00  0.00     0.074 A 
ATOM     38  C   UNL     1      12.381   4.408  -8.786  1.00  0.00     0.031 C 
ATOM     39  C   UNL     1      10.657   7.010  -2.635  1.00  0.00     0.029 A 
ATOM     40  C   UNL     1      12.089   6.967  -2.927  1.00  0.00     0.049 A 
ATOM     41  H   UNL     1      12.999   6.324  -4.686  1.00  0.00     0.167 HD
ATOM     42  C   UNL     1      14.789   4.844  -8.398  1.00  0.00     0.037 A 
ATOM     43  C   UNL     1      13.075   7.351  -2.094  1.00  0.00     0.037 A 
ATOM     44  C   UNL     1      15.901   5.295  -7.604  1.00  0.00     0.049 A 
ATOM     45  C   UNL     1      14.509   7.248  -2.549  1.00  0.00     0.074 A 
ATOM     46  C   UNL     1      17.245   5.315  -7.933  1.00  0.00     0.029 A 
ATOM     47  N   UNL     1      15.796   5.806  -6.319  1.00  0.00    -0.354 N 
ATOM     48  N   UNL     1      14.988   6.841  -3.700  1.00  0.00    -0.248 NA
ATOM     49  C   UNL     1      15.542   7.664  -1.588  1.00  0.00     0.031 C 
ATOM     50  C   UNL     1      17.958   5.799  -6.831  1.00  0.00     0.029 A 
ATOM     51  C   UNL     1      17.054   6.127  -5.835  1.00  0.00     0.049 A 
ATOM     52  H   UNL     1      14.953   5.923  -5.824  1.00  0.00     0.167 HD
ATOM     53  C   UNL     1      16.367   6.982  -3.613  1.00  0.00     0.074 A 
ATOM     54  C   UNL     1      16.650   7.525  -2.301  1.00  0.00     0.031 C 
ATOM     55  C   UNL     1      17.316   6.687  -4.535  1.00  0.00     0.037 A 
BRANCH  42  56
ATOM     56  C   UNL     1      15.075   4.308  -9.769  1.00  0.00     0.064 A 
ATOM     57  C   UNL     1      14.757   5.040 -10.922  1.00  0.00     0.173 A 
ATOM     58  C   UNL     1      15.730   3.078  -9.930  1.00  0.00     0.173 A 
ATOM     59  F   UNL     1      14.119   6.216 -10.821  1.00  0.00    -0.203 F 
ATOM     60  C   UNL     1      15.072   4.553 -12.188  1.00  0.00     0.198 A 
ATOM     61  C   UNL     1      16.066   2.606 -11.195  1.00  0.00     0.198 A 
ATOM     62  F   UNL     1      16.059   2.342  -8.858  1.00  0.00    -0.203 F 
ATOM     63  F   UNL     1      14.731   5.254 -13.278  1.00  0.00    -0.200 F 
ATOM     64  C   UNL     1      15.734   3.341 -12.323  1.00  0.00     0.200 A 
ATOM     65  F   UNL     1      16.716   1.441 -11.324  1.00  0.00    -0.200 F 
ATOM     66  F   UNL     1      16.050   2.881 -13.541  1.00  0.00    -0.200 F 
ENDBRANCH  42  56
BRANCH  43  67
ATOM     67  C   UNL     1      12.754   7.852  -0.731  1.00  0.00     0.064 A 
ATOM     68  C   UNL     1      13.003   9.183  -0.370  1.00  0.00     0.173 A 
ATOM     69  C   UNL     1      12.238   6.995   0.252  1.00  0.00     0.173 A 
ATOM     70  F   UNL     1      13.521  10.035  -1.268  1.00  0.00    -0.203 F 
ATOM     71  C   UNL     1      12.776   9.631   0.930  1.00  0.00     0.198 A 
ATOM     72  C   UNL     1      11.983   7.452   1.544  1.00  0.00     0.198 A 
ATOM     73  F   UNL     1      11.985   5.711  -0.040  1.00  0.00    -0.203 F 
ATOM     74  F   UNL     1      13.080  10.893   1.264  1.00  0.00    -0.200 F 
ATOM     75  C   UNL     1      12.263   8.766   1.885  1.00  0.00     0.200 A 
ATOM     76  F   UNL     1      11.478   6.615   2.460  1.00  0.00    -0.200 F 
ATOM     77  F   UNL     1      12.051   9.195   3.136  1.00  0.00    -0.200 F 
ENDBRANCH  43  67
BRANCH  55  78
ATOM     78  C   UNL     1      18.743   6.990  -4.181  1.00  0.00     0.064 A 
ATOM     79  C   UNL     1      19.449   6.223  -3.243  1.00  0.00     0.173 A 
ATOM     80  C   UNL     1      19.424   8.037  -4.821  1.00  0.00     0.173 A 
ATOM     81  F   UNL     1      18.838   5.221  -2.594  1.00  0.00    -0.203 F 
ATOM     82  C   UNL     1      20.777   6.510  -2.940  1.00  0.00     0.198 A 
ATOM     83  C   UNL     1      20.760   8.302  -4.537  1.00  0.00     0.198 A 
ATOM     84  F   UNL     1      18.796   8.796  -5.731  1.00  0.00    -0.203 F 
ATOM     85  F   UNL     1      21.419   5.793  -2.007  1.00  0.00    -0.200 F 
ATOM     86  C   UNL     1      21.434   7.543  -3.592  1.00  0.00     0.200 A 
ATOM     87  F   UNL     1      21.397   9.293  -5.178  1.00  0.00    -0.200 F 
ATOM     88  F   UNL     1      22.715   7.813  -3.303  1.00  0.00    -0.200 F 
ENDBRANCH  55  78
ENDBRANCH  29  30
ENDBRANCH  22  24
ENDBRANCH  21  22
ENDBRANCH  20  21
ENDBRANCH   1  20
TORSDOF 16
