REMARK SMILES C[C@H](Cc1cccc2c1OC(C)(C)C2)C(=O)OCCOCCOC(=O)c1ccc(-c2c3nc(c(-c4c(F)c(F)c(F)c(F)c4F)c4ccc([nH]4)c(-c4c(F)c(F)c(F)c(F)c4F)c4nc(c(-c5c(F)c(F)c(F)c(F)c5F)c5ccc2[nH]5)C=C4)C=C3)cc1
REMARK SMILES IDX 20 1 19 2 18 3 17 4 15 5 16 6 2 7 1 8 3 9 4 10 5 11 9 12
REMARK SMILES IDX 6 13 8 14 10 15 7 16 14 17 11 18 12 19 13 20 21 21 22 22
REMARK SMILES IDX 23 23 24 24 25 25 26 26 27 27 88 28 28 29 87 30 29 31 30 32
REMARK SMILES IDX 31 33 81 34 32 35 86 36 80 37 82 38 33 39 85 40 79 41 78 42
REMARK SMILES IDX 34 44 66 45 46 46 65 47 47 48 50 49 64 50 83 51 48 52 49 53
REMARK SMILES IDX 63 55 84 56 51 57 35 58 36 59 44 60 37 61 38 62 42 63 45 64
REMARK SMILES IDX 39 65 40 66 43 67 41 68 67 69 68 70 76 71 69 72 70 73 74 74
REMARK SMILES IDX 77 75 71 76 72 77 75 78 73 79 52 80 53 81 61 82 54 83 55 84
REMARK SMILES IDX 59 85 62 86 56 87 57 88 60 89 58 90
REMARK H PARENT 82 43 50 54
REMARK Flexibility Score: inf
ROOT
ATOM      1  O   UNL     1      -3.462  -1.723   0.452  1.00  0.00    -0.374 OA
ENDROOT
BRANCH   1   2
ATOM      2  C   UNL     1      -3.753  -0.374   0.826  1.00  0.00     0.202 C 
BRANCH   2   3
ATOM      3  C   UNL     1      -2.974   0.133   2.040  1.00  0.00     0.261 C 
BRANCH   3   4
ATOM      4  O   UNL     1      -1.614   0.420   1.660  1.00  0.00    -0.463 OA
BRANCH   4   5
ATOM      5  C   UNL     1      -0.635  -0.196   2.361  1.00  0.00     0.309 C 
ATOM      6  O   UNL     1      -0.822  -0.883   3.359  1.00  0.00    -0.252 OA
BRANCH   5   7
ATOM      7  C   UNL     1       0.758   0.079   1.817  1.00  0.00     0.100 C 
ATOM      8  C   UNL     1       1.499   1.039   2.740  1.00  0.00     0.020 C 
BRANCH   7   9
ATOM      9  C   UNL     1       0.906   0.385   0.310  1.00  0.00     0.054 C 
BRANCH   9  10
ATOM     10  C   UNL     1       0.376   1.631  -0.359  1.00  0.00    -0.005 A 
ATOM     11  C   UNL     1      -0.219   2.710   0.308  1.00  0.00     0.007 A 
ATOM     12  C   UNL     1       0.488   1.753  -1.746  1.00  0.00     0.126 A 
ATOM     13  C   UNL     1      -0.681   3.840  -0.391  1.00  0.00     0.001 A 
ATOM     14  C   UNL     1       0.039   2.866  -2.439  1.00  0.00    -0.002 A 
ATOM     15  O   UNL     1       1.064   0.805  -2.560  1.00  0.00    -0.487 OA
ATOM     16  C   UNL     1      -0.550   3.926  -1.775  1.00  0.00     0.008 A 
ATOM     17  C   UNL     1       0.333   2.730  -3.882  1.00  0.00     0.087 C 
ATOM     18  C   UNL     1       0.902   1.294  -3.923  1.00  0.00     0.108 C 
ATOM     19  C   UNL     1      -0.032   0.325  -4.657  1.00  0.00     0.057 C 
ATOM     20  C   UNL     1       2.275   1.278  -4.599  1.00  0.00     0.057 C 
ENDBRANCH   9  10
ENDBRANCH   7   9
ENDBRANCH   5   7
ENDBRANCH   4   5
ENDBRANCH   3   4
ENDBRANCH   2   3
ENDBRANCH   1   2
BRANCH   1  21
ATOM     21  C   UNL     1      -2.255  -1.929  -0.281  1.00  0.00     0.202 C 
BRANCH  21  22
ATOM     22  C   UNL     1      -2.371  -1.722  -1.795  1.00  0.00     0.261 C 
BRANCH  22  23
ATOM     23  O   UNL     1      -2.694  -0.361  -2.130  1.00  0.00    -0.460 OA
BRANCH  23  24
ATOM     24  C   UNL     1      -3.959  -0.151  -2.555  1.00  0.00     0.338 C 
ATOM     25  O   UNL     1      -4.829  -0.990  -2.756  1.00  0.00    -0.246 OA
BRANCH  24  26
ATOM     26  C   UNL     1      -4.225   1.296  -2.624  1.00  0.00     0.060 A 
ATOM     27  C   UNL     1      -5.338   1.799  -1.943  1.00  0.00     0.016 A 
ATOM     28  C   UNL     1      -3.430   2.145  -3.394  1.00  0.00     0.016 A 
ATOM     29  C   UNL     1      -5.668   3.151  -2.049  1.00  0.00     0.010 A 
ATOM     30  C   UNL     1      -3.753   3.501  -3.492  1.00  0.00     0.010 A 
ATOM     31  C   UNL     1      -4.890   4.007  -2.842  1.00  0.00    -0.014 A 
BRANCH  31  32
ATOM     32  C   UNL     1      -5.326   5.405  -3.083  1.00  0.00     0.031 A 
ATOM     33  C   UNL     1      -5.923   5.772  -4.414  1.00  0.00     0.074 A 
ATOM     34  C   UNL     1      -5.197   6.338  -2.122  1.00  0.00     0.049 A 
ATOM     35  N   UNL     1      -6.342   6.935  -4.845  1.00  0.00    -0.248 NA
ATOM     36  C   UNL     1      -6.057   4.685  -5.397  1.00  0.00     0.031 C 
ATOM     37  C   UNL     1      -4.636   6.109  -0.791  1.00  0.00     0.029 A 
ATOM     38  N   UNL     1      -5.527   7.671  -2.123  1.00  0.00    -0.354 N 
ATOM     39  C   UNL     1      -6.779   6.721  -6.146  1.00  0.00     0.074 A 
ATOM     40  C   UNL     1      -6.542   5.327  -6.450  1.00  0.00     0.031 C 
ATOM     41  C   UNL     1      -4.663   7.263  -0.102  1.00  0.00     0.029 A 
ATOM     42  C   UNL     1      -5.215   8.317  -0.952  1.00  0.00     0.049 A 
ATOM     43  H   UNL     1      -5.948   8.121  -2.890  1.00  0.00     0.167 HD
ATOM     44  C   UNL     1      -7.343   7.605  -7.003  1.00  0.00     0.037 A 
ATOM     45  C   UNL     1      -5.348   9.614  -0.612  1.00  0.00     0.037 A 
ATOM     46  C   UNL     1      -7.605   8.985  -6.694  1.00  0.00     0.049 A 
ATOM     47  C   UNL     1      -5.948  10.582  -1.599  1.00  0.00     0.074 A 
ATOM     48  C   UNL     1      -8.221   9.943  -7.481  1.00  0.00     0.029 A 
ATOM     49  N   UNL     1      -7.264   9.605  -5.502  1.00  0.00    -0.354 N 
ATOM     50  N   UNL     1      -6.404  10.357  -2.808  1.00  0.00    -0.248 NA
ATOM     51  C   UNL     1      -6.053  11.985  -1.173  1.00  0.00     0.031 C 
ATOM     52  C   UNL     1      -8.212  11.155  -6.782  1.00  0.00     0.029 A 
ATOM     53  C   UNL     1      -7.632  10.940  -5.543  1.00  0.00     0.049 A 
ATOM     54  H   UNL     1      -6.825   9.162  -4.740  1.00  0.00     0.167 HD
ATOM     55  C   UNL     1      -6.870  11.580  -3.274  1.00  0.00     0.074 A 
ATOM     56  C   UNL     1      -6.659  12.541  -2.212  1.00  0.00     0.031 C 
ATOM     57  C   UNL     1      -7.421  11.882  -4.475  1.00  0.00     0.037 A 
BRANCH  44  58
ATOM     58  C   UNL     1      -7.715   7.110  -8.369  1.00  0.00     0.064 A 
ATOM     59  C   UNL     1      -8.817   6.267  -8.571  1.00  0.00     0.173 A 
ATOM     60  C   UNL     1      -6.997   7.535  -9.497  1.00  0.00     0.173 A 
ATOM     61  F   UNL     1      -9.528   5.824  -7.523  1.00  0.00    -0.203 F 
ATOM     62  C   UNL     1      -9.178   5.855  -9.851  1.00  0.00     0.198 A 
ATOM     63  C   UNL     1      -7.375   7.142 -10.777  1.00  0.00     0.198 A 
ATOM     64  F   UNL     1      -5.936   8.345  -9.357  1.00  0.00    -0.203 F 
ATOM     65  F   UNL     1     -10.215   5.022 -10.018  1.00  0.00    -0.200 F 
ATOM     66  C   UNL     1      -8.462   6.299 -10.953  1.00  0.00     0.200 A 
ATOM     67  F   UNL     1      -6.690   7.581 -11.842  1.00  0.00    -0.200 F 
ATOM     68  F   UNL     1      -8.819   5.912 -12.186  1.00  0.00    -0.200 F 
ENDBRANCH  44  58
BRANCH  45  69
ATOM     69  C   UNL     1      -4.895  10.086   0.723  1.00  0.00     0.064 A 
ATOM     70  C   UNL     1      -5.814  10.533   1.683  1.00  0.00     0.173 A 
ATOM     71  C   UNL     1      -3.533  10.137   1.051  1.00  0.00     0.173 A 
ATOM     72  F   UNL     1      -7.126  10.529   1.407  1.00  0.00    -0.203 F 
ATOM     73  C   UNL     1      -5.385  11.036   2.910  1.00  0.00     0.198 A 
ATOM     74  C   UNL     1      -3.107  10.614   2.289  1.00  0.00     0.198 A 
ATOM     75  F   UNL     1      -2.613   9.723   0.167  1.00  0.00    -0.203 F 
ATOM     76  F   UNL     1      -6.281  11.508   3.788  1.00  0.00    -0.200 F 
ATOM     77  C   UNL     1      -4.033  11.073   3.213  1.00  0.00     0.200 A 
ATOM     78  F   UNL     1      -1.800  10.638   2.581  1.00  0.00    -0.200 F 
ATOM     79  F   UNL     1      -3.621  11.560   4.391  1.00  0.00    -0.200 F 
ENDBRANCH  45  69
BRANCH  57  80
ATOM     80  C   UNL     1      -7.858  13.300  -4.698  1.00  0.00     0.064 A 
ATOM     81  C   UNL     1      -6.928  14.332  -4.893  1.00  0.00     0.173 A 
ATOM     82  C   UNL     1      -9.222  13.624  -4.760  1.00  0.00     0.173 A 
ATOM     83  F   UNL     1      -5.613  14.076  -4.828  1.00  0.00    -0.203 F 
ATOM     84  C   UNL     1      -7.349  15.640  -5.118  1.00  0.00     0.198 A 
ATOM     85  C   UNL     1      -9.639  14.928  -5.014  1.00  0.00     0.198 A 
ATOM     86  F   UNL     1     -10.152  12.672  -4.588  1.00  0.00    -0.203 F 
ATOM     87  F   UNL     1      -6.443  16.618  -5.258  1.00  0.00    -0.200 F 
ATOM     88  C   UNL     1      -8.702  15.936  -5.186  1.00  0.00     0.200 A 
ATOM     89  F   UNL     1     -10.947  15.209  -5.093  1.00  0.00    -0.200 F 
ATOM     90  F   UNL     1      -9.104  17.194  -5.411  1.00  0.00    -0.200 F 
ENDBRANCH  57  80
ENDBRANCH  31  32
ENDBRANCH  24  26
ENDBRANCH  23  24
ENDBRANCH  22  23
ENDBRANCH  21  22
ENDBRANCH   1  21
TORSDOF 16
