REMARK SMILES CC(C)C[C@H](CNC(=O)NC[C@H]1CCC(=O)N1)C(=O)OCCOCCOC(=O)c1ccc(-c2c3nc(c(-c4c(F)c(F)c(F)c(F)c4F)c4ccc([nH]4)c(-c4c(F)c(F)c(F)c(F)c4F)c4nc(c(-c5c(F)c(F)c(F)c(F)c5F)c5ccc2[nH]5)C=C4)C=C3)cc1
REMARK SMILES IDX 22 1 21 2 20 3 18 4 19 5 5 6 4 7 2 8 1 9 3 10 6 11 7 12 8 13
REMARK SMILES IDX 9 15 10 16 11 18 12 19 13 20 17 21 14 22 15 23 16 25 23 26
REMARK SMILES IDX 24 27 25 28 26 29 27 30 28 31 29 32 30 33 91 34 31 35 90 36
REMARK SMILES IDX 32 37 33 38 34 39 84 40 35 41 89 42 83 43 85 44 36 45 88 46
REMARK SMILES IDX 82 47 81 48 37 50 69 51 49 52 68 53 50 54 53 55 67 56 86 57
REMARK SMILES IDX 51 58 52 59 66 61 87 62 54 63 38 64 39 65 47 66 40 67 41 68
REMARK SMILES IDX 45 69 48 70 42 71 43 72 46 73 44 74 70 75 71 76 79 77 72 78
REMARK SMILES IDX 73 79 77 80 80 81 74 82 75 83 78 84 76 85 55 86 56 87 64 88
REMARK SMILES IDX 57 89 58 90 62 91 65 92 59 93 60 94 63 95 61 96
REMARK H PARENT 7 14 10 17 17 24 85 49 53 60
REMARK Flexibility Score: inf
ROOT
ATOM      1  C   UNL     1       1.802  -2.721   7.961  1.00  0.00     0.202 C 
ENDROOT
BRANCH   1   2
ATOM      2  C   UNL     1       0.559  -3.474   7.462  1.00  0.00     0.261 C 
BRANCH   2   3
ATOM      3  O   UNL     1       0.707  -4.902   7.359  1.00  0.00    -0.463 OA
BRANCH   3   4
ATOM      4  C   UNL     1       0.949  -5.347   6.098  1.00  0.00     0.310 C 
ATOM      5  O   UNL     1       1.061  -4.612   5.122  1.00  0.00    -0.252 OA
BRANCH   4   6
ATOM      6  C   UNL     1       1.065  -6.861   5.974  1.00  0.00     0.119 C 
BRANCH   6   7
ATOM      7  C   UNL     1      -0.150  -7.316   5.133  1.00  0.00     0.020 C 
BRANCH   7   8
ATOM      8  C   UNL     1       0.135  -7.295   3.616  1.00  0.00    -0.017 C 
ATOM      9  C   UNL     1       1.110  -8.406   3.217  1.00  0.00     0.007 C 
ATOM     10  C   UNL     1      -1.171  -7.440   2.836  1.00  0.00     0.007 C 
ENDBRANCH   7   8
ENDBRANCH   6   7
BRANCH   6  11
ATOM     11  C   UNL     1       1.200  -7.639   7.296  1.00  0.00     0.133 C 
BRANCH  11  12
ATOM     12  N   UNL     1       1.383  -9.078   7.055  1.00  0.00    -0.337 N 
ATOM     13  C   UNL     1       2.396  -9.925   6.867  1.00  0.00     0.314 C 
ATOM     14  H   UNL     1       0.517  -9.545   7.023  1.00  0.00     0.165 HD
ATOM     15  O   UNL     1       2.131 -11.020   6.364  1.00  0.00    -0.249 OA
ATOM     16  N   UNL     1       3.667  -9.704   7.203  1.00  0.00    -0.336 N 
ATOM     17  H   UNL     1       4.294 -10.320   6.760  1.00  0.00     0.165 HD
BRANCH  16  18
ATOM     18  C   UNL     1       4.329  -8.755   8.080  1.00  0.00     0.142 C 
BRANCH  18  19
ATOM     19  C   UNL     1       4.321  -9.227   9.547  1.00  0.00     0.101 C 
ATOM     20  C   UNL     1       4.963  -8.233  10.514  1.00  0.00     0.036 C 
ATOM     21  N   UNL     1       2.993  -9.420  10.053  1.00  0.00    -0.352 N 
ATOM     22  C   UNL     1       3.855  -7.771  11.457  1.00  0.00     0.102 C 
ATOM     23  C   UNL     1       2.672  -8.625  11.115  1.00  0.00     0.220 C 
ATOM     24  H   UNL     1       2.365 -10.073   9.667  1.00  0.00     0.163 HD
ATOM     25  O   UNL     1       1.583  -8.603  11.668  1.00  0.00    -0.275 OA
ENDBRANCH  18  19
ENDBRANCH  16  18
ENDBRANCH  11  12
ENDBRANCH   6  11
ENDBRANCH   4   6
ENDBRANCH   3   4
ENDBRANCH   2   3
ENDBRANCH   1   2
BRANCH   1  26
ATOM     26  O   UNL     1       3.062  -3.026   7.378  1.00  0.00    -0.374 OA
BRANCH  26  27
ATOM     27  C   UNL     1       3.619  -4.317   7.592  1.00  0.00     0.202 C 
BRANCH  27  28
ATOM     28  C   UNL     1       3.747  -4.823   9.031  1.00  0.00     0.261 C 
BRANCH  28  29
ATOM     29  O   UNL     1       2.498  -4.887   9.745  1.00  0.00    -0.460 OA
BRANCH  29  30
ATOM     30  C   UNL     1       2.549  -4.328  10.980  1.00  0.00     0.338 C 
ATOM     31  O   UNL     1       3.534  -3.872  11.540  1.00  0.00    -0.246 OA
BRANCH  30  32
ATOM     32  C   UNL     1       1.218  -4.224  11.591  1.00  0.00     0.060 A 
ATOM     33  C   UNL     1       0.669  -2.947  11.731  1.00  0.00     0.016 A 
ATOM     34  C   UNL     1       0.636  -5.321  12.227  1.00  0.00     0.016 A 
ATOM     35  C   UNL     1      -0.427  -2.757  12.566  1.00  0.00     0.010 A 
ATOM     36  C   UNL     1      -0.479  -5.132  13.050  1.00  0.00     0.010 A 
ATOM     37  C   UNL     1      -0.986  -3.841  13.262  1.00  0.00    -0.014 A 
BRANCH  37  38
ATOM     38  C   UNL     1      -2.047  -3.583  14.267  1.00  0.00     0.031 A 
ATOM     39  C   UNL     1      -1.738  -3.670  15.737  1.00  0.00     0.074 A 
ATOM     40  C   UNL     1      -3.267  -3.200  13.850  1.00  0.00     0.049 A 
ATOM     41  N   UNL     1      -2.510  -3.409  16.763  1.00  0.00    -0.248 NA
ATOM     42  C   UNL     1      -0.383  -4.109  16.105  1.00  0.00     0.031 C 
ATOM     43  C   UNL     1      -3.675  -3.083  12.450  1.00  0.00     0.029 A 
ATOM     44  N   UNL     1      -4.381  -2.830  14.558  1.00  0.00    -0.354 N 
ATOM     45  C   UNL     1      -1.734  -3.640  17.893  1.00  0.00     0.074 A 
ATOM     46  C   UNL     1      -0.448  -4.114  17.430  1.00  0.00     0.031 C 
ATOM     47  C   UNL     1      -4.946  -2.656  12.400  1.00  0.00     0.029 A 
ATOM     48  C   UNL     1      -5.451  -2.504  13.762  1.00  0.00     0.049 A 
ATOM     49  H   UNL     1      -4.411  -2.801  15.541  1.00  0.00     0.167 HD
ATOM     50  C   UNL     1      -2.060  -3.453  19.195  1.00  0.00     0.037 A 
ATOM     51  C   UNL     1      -6.702  -2.136  14.097  1.00  0.00     0.037 A 
ATOM     52  C   UNL     1      -3.349  -2.994  19.648  1.00  0.00     0.049 A 
ATOM     53  C   UNL     1      -7.051  -1.987  15.553  1.00  0.00     0.074 A 
ATOM     54  C   UNL     1      -3.783  -2.769  20.943  1.00  0.00     0.029 A 
ATOM     55  N   UNL     1      -4.419  -2.697  18.813  1.00  0.00    -0.354 N 
ATOM     56  N   UNL     1      -6.297  -2.165  16.610  1.00  0.00    -0.248 NA
ATOM     57  C   UNL     1      -8.425  -1.569  15.861  1.00  0.00     0.031 C 
ATOM     58  C   UNL     1      -5.128  -2.388  20.895  1.00  0.00     0.029 A 
ATOM     59  C   UNL     1      -5.516  -2.310  19.567  1.00  0.00     0.049 A 
ATOM     60  H   UNL     1      -4.400  -2.753  17.831  1.00  0.00     0.167 HD
ATOM     61  C   UNL     1      -7.093  -1.858  17.705  1.00  0.00     0.074 A 
ATOM     62  C   UNL     1      -8.381  -1.453  17.180  1.00  0.00     0.031 C 
ATOM     63  C   UNL     1      -6.791  -1.910  19.027  1.00  0.00     0.037 A 
BRANCH  50  64
ATOM     64  C   UNL     1      -1.008  -3.749  20.229  1.00  0.00     0.064 A 
ATOM     65  C   UNL     1       0.134  -2.944  20.367  1.00  0.00     0.173 A 
ATOM     66  C   UNL     1      -1.165  -4.816  21.128  1.00  0.00     0.173 A 
ATOM     67  F   UNL     1       0.340  -1.915  19.531  1.00  0.00    -0.203 F 
ATOM     68  C   UNL     1       1.090  -3.212  21.345  1.00  0.00     0.198 A 
ATOM     69  C   UNL     1      -0.224  -5.061  22.125  1.00  0.00     0.198 A 
ATOM     70  F   UNL     1      -2.241  -5.613  21.050  1.00  0.00    -0.203 F 
ATOM     71  F   UNL     1       2.194  -2.456  21.427  1.00  0.00    -0.200 F 
ATOM     72  C   UNL     1       0.906  -4.265  22.228  1.00  0.00     0.200 A 
ATOM     73  F   UNL     1      -0.412  -6.068  22.989  1.00  0.00    -0.200 F 
ATOM     74  F   UNL     1       1.820  -4.514  23.177  1.00  0.00    -0.200 F 
ENDBRANCH  50  64
BRANCH  51  75
ATOM     75  C   UNL     1      -7.714  -1.894  13.035  1.00  0.00     0.064 A 
ATOM     76  C   UNL     1      -8.257  -0.620  12.820  1.00  0.00     0.173 A 
ATOM     77  C   UNL     1      -8.175  -2.943  12.225  1.00  0.00     0.173 A 
ATOM     78  F   UNL     1      -7.861   0.414  13.578  1.00  0.00    -0.203 F 
ATOM     79  C   UNL     1      -9.245  -0.411  11.860  1.00  0.00     0.198 A 
ATOM     80  C   UNL     1      -9.136  -2.725  11.240  1.00  0.00     0.198 A 
ATOM     81  F   UNL     1      -7.684  -4.181  12.383  1.00  0.00    -0.203 F 
ATOM     82  F   UNL     1      -9.791   0.805  11.717  1.00  0.00    -0.200 F 
ATOM     83  C   UNL     1      -9.680  -1.462  11.067  1.00  0.00     0.200 A 
ATOM     84  F   UNL     1      -9.537  -3.741  10.463  1.00  0.00    -0.200 F 
ATOM     85  F   UNL     1     -10.629  -1.261  10.143  1.00  0.00    -0.200 F 
ENDBRANCH  51  75
BRANCH  63  86
ATOM     86  C   UNL     1      -7.863  -1.481  19.989  1.00  0.00     0.064 A 
ATOM     87  C   UNL     1      -9.033  -2.234  20.178  1.00  0.00     0.173 A 
ATOM     88  C   UNL     1      -7.715  -0.303  20.738  1.00  0.00     0.173 A 
ATOM     89  F   UNL     1      -9.232  -3.360  19.477  1.00  0.00    -0.203 F 
ATOM     90  C   UNL     1     -10.033  -1.799  21.045  1.00  0.00     0.198 A 
ATOM     91  C   UNL     1      -8.699   0.107  21.633  1.00  0.00     0.198 A 
ATOM     92  F   UNL     1      -6.613   0.450  20.605  1.00  0.00    -0.203 F 
ATOM     93  F   UNL     1     -11.171  -2.497  21.153  1.00  0.00    -0.200 F 
ATOM     94  C   UNL     1      -9.862  -0.633  21.775  1.00  0.00     0.200 A 
ATOM     95  F   UNL     1      -8.525   1.225  22.352  1.00  0.00    -0.200 F 
ATOM     96  F   UNL     1     -10.826  -0.216  22.608  1.00  0.00    -0.200 F 
ENDBRANCH  63  86
ENDBRANCH  37  38
ENDBRANCH  30  32
ENDBRANCH  29  30
ENDBRANCH  28  29
ENDBRANCH  27  28
ENDBRANCH  26  27
ENDBRANCH   1  26
TORSDOF 20
