REMARK SMILES CC[C@H](c1ccc(OC)cc1)[N@H+]1CC[C@H](C(=O)OCCOCCOC(=O)c2ccc(-c3c4nc(c(-c5c(F)c(F)c(F)c(F)c5F)c5ccc([nH]5)c(-c5c(F)c(F)c(F)c(F)c5F)c5nc(c(-c6c(F)c(F)c(F)c(F)c6F)c6ccc3[nH]6)C=C5)C=C4)cc2)[C@@H]1C
REMARK SMILES IDX 20 1 19 2 18 3 16 4 17 5 15 6 12 7 13 8 90 9 14 11 91 12
REMARK SMILES IDX 3 13 2 14 1 15 4 16 5 17 11 18 6 19 10 20 7 21 8 22 9 23
REMARK SMILES IDX 21 24 22 25 23 26 24 27 25 28 26 29 27 30 28 31 89 32 29 33
REMARK SMILES IDX 88 34 30 35 31 36 32 37 82 38 33 39 87 40 81 41 83 42 34 43
REMARK SMILES IDX 86 44 80 45 79 46 35 48 67 49 47 50 66 51 48 52 51 53 65 54
REMARK SMILES IDX 84 55 49 56 50 57 64 59 85 60 52 61 36 62 37 63 45 64 38 65
REMARK SMILES IDX 39 66 43 67 46 68 40 69 41 70 44 71 42 72 68 73 69 74 77 75
REMARK SMILES IDX 70 76 71 77 75 78 78 79 72 80 73 81 76 82 74 83 53 84 54 85
REMARK SMILES IDX 62 86 55 87 56 88 60 89 63 90 57 91 58 92 61 93 59 94
REMARK H PARENT 12 10 83 47 51 58
REMARK Flexibility Score: inf
ROOT
ATOM      1  C   UNL     1      -4.135  -0.733  -7.773  1.00  0.00     0.202 C 
ENDROOT
BRANCH   1   2
ATOM      2  C   UNL     1      -3.293  -1.995  -7.559  1.00  0.00     0.261 C 
BRANCH   2   3
ATOM      3  O   UNL     1      -2.825  -2.083  -6.200  1.00  0.00    -0.463 OA
BRANCH   3   4
ATOM      4  C   UNL     1      -1.472  -2.091  -6.022  1.00  0.00     0.315 C 
ATOM      5  O   UNL     1      -0.644  -2.084  -6.921  1.00  0.00    -0.252 OA
BRANCH   4   6
ATOM      6  C   UNL     1      -1.143  -2.130  -4.546  1.00  0.00     0.162 C 
ATOM      7  N   UNL     1       0.769  -1.333  -3.297  1.00  0.00    -0.326 N 
ATOM      8  C   UNL     1       1.133  -2.585  -3.962  1.00  0.00     0.264 C 
ATOM      9  C   UNL     1      -0.481  -0.883  -3.927  1.00  0.00     0.196 C 
ATOM     10  H   UNL     1       1.490  -0.629  -3.450  1.00  0.00     0.348 HD
ATOM     11  C   UNL     1      -0.182  -3.280  -4.263  1.00  0.00     0.083 C 
ATOM     12  C   UNL     1      -0.102   0.310  -4.805  1.00  0.00     0.076 C 
BRANCH   7  13
ATOM     13  C   UNL     1       0.854  -1.305  -1.820  1.00  0.00     0.215 C 
BRANCH  13  14
ATOM     14  C   UNL     1       0.211  -2.516  -1.100  1.00  0.00     0.067 C 
ATOM     15  C   UNL     1       0.323  -2.465   0.421  1.00  0.00     0.010 C 
ENDBRANCH  13  14
BRANCH  13  16
ATOM     16  C   UNL     1       0.441   0.048  -1.218  1.00  0.00     0.010 A 
ATOM     17  C   UNL     1      -0.895   0.342  -0.897  1.00  0.00     0.014 A 
ATOM     18  C   UNL     1       1.407   1.033  -0.956  1.00  0.00     0.014 A 
ATOM     19  C   UNL     1      -1.253   1.573  -0.346  1.00  0.00     0.047 A 
ATOM     20  C   UNL     1       1.052   2.256  -0.368  1.00  0.00     0.047 A 
ATOM     21  C   UNL     1      -0.280   2.526  -0.056  1.00  0.00     0.118 A 
BRANCH  21  22
ATOM     22  O   UNL     1      -0.758   3.677   0.504  1.00  0.00    -0.497 OA
ATOM     23  C   UNL     1       0.175   4.435   1.263  1.00  0.00     0.278 C 
ENDBRANCH  21  22
ENDBRANCH  13  16
ENDBRANCH   7  13
ENDBRANCH   4   6
ENDBRANCH   3   4
ENDBRANCH   2   3
ENDBRANCH   1   2
BRANCH   1  24
ATOM     24  O   UNL     1      -3.456   0.524  -7.796  1.00  0.00    -0.374 OA
BRANCH  24  25
ATOM     25  C   UNL     1      -2.876   0.971  -6.578  1.00  0.00     0.202 C 
BRANCH  25  26
ATOM     26  C   UNL     1      -3.772   1.664  -5.542  1.00  0.00     0.261 C 
BRANCH  26  27
ATOM     27  O   UNL     1      -5.038   1.026  -5.384  1.00  0.00    -0.460 OA
BRANCH  27  28
ATOM     28  C   UNL     1      -5.994   1.546  -6.186  1.00  0.00     0.338 C 
ATOM     29  O   UNL     1      -5.918   2.527  -6.911  1.00  0.00    -0.246 OA
BRANCH  28  30
ATOM     30  C   UNL     1      -7.142   0.634  -6.198  1.00  0.00     0.060 A 
ATOM     31  C   UNL     1      -7.576   0.165  -7.442  1.00  0.00     0.016 A 
ATOM     32  C   UNL     1      -7.797   0.277  -5.018  1.00  0.00     0.016 A 
ATOM     33  C   UNL     1      -8.713  -0.626  -7.518  1.00  0.00     0.010 A 
ATOM     34  C   UNL     1      -8.944  -0.510  -5.096  1.00  0.00     0.010 A 
ATOM     35  C   UNL     1      -9.425  -0.925  -6.350  1.00  0.00    -0.014 A 
BRANCH  35  36
ATOM     36  C   UNL     1     -10.774  -1.512  -6.470  1.00  0.00     0.031 A 
ATOM     37  C   UNL     1     -11.961  -0.597  -6.379  1.00  0.00     0.074 A 
ATOM     38  C   UNL     1     -10.924  -2.824  -6.710  1.00  0.00     0.049 A 
ATOM     39  N   UNL     1     -13.235  -0.876  -6.464  1.00  0.00    -0.248 NA
ATOM     40  C   UNL     1     -11.669   0.829  -6.159  1.00  0.00     0.031 C 
ATOM     41  C   UNL     1      -9.832  -3.783  -6.860  1.00  0.00     0.029 A 
ATOM     42  N   UNL     1     -12.059  -3.572  -6.875  1.00  0.00    -0.354 N 
ATOM     43  C   UNL     1     -13.895   0.336  -6.305  1.00  0.00     0.074 A 
ATOM     44  C   UNL     1     -12.885   1.345  -6.074  1.00  0.00     0.031 C 
ATOM     45  C   UNL     1     -10.351  -4.998  -7.103  1.00  0.00     0.029 A 
ATOM     46  C   UNL     1     -11.809  -4.904  -7.091  1.00  0.00     0.049 A 
ATOM     47  H   UNL     1     -12.966  -3.192  -6.842  1.00  0.00     0.167 HD
ATOM     48  C   UNL     1     -15.225   0.582  -6.360  1.00  0.00     0.037 A 
ATOM     49  C   UNL     1     -12.671  -5.926  -7.248  1.00  0.00     0.037 A 
ATOM     50  C   UNL     1     -16.216  -0.438  -6.583  1.00  0.00     0.049 A 
ATOM     51  C   UNL     1     -14.149  -5.637  -7.221  1.00  0.00     0.074 A 
ATOM     52  C   UNL     1     -17.589  -0.306  -6.668  1.00  0.00     0.029 A 
ATOM     53  N   UNL     1     -15.931  -1.788  -6.746  1.00  0.00    -0.354 N 
ATOM     54  N   UNL     1     -14.770  -4.488  -7.097  1.00  0.00    -0.248 NA
ATOM     55  C   UNL     1     -15.047  -6.791  -7.360  1.00  0.00     0.031 C 
ATOM     56  C   UNL     1     -18.140  -1.584  -6.820  1.00  0.00     0.029 A 
ATOM     57  C   UNL     1     -17.107  -2.505  -6.899  1.00  0.00     0.049 A 
ATOM     58  H   UNL     1     -15.027  -2.178  -6.752  1.00  0.00     0.167 HD
ATOM     59  C   UNL     1     -16.126  -4.773  -7.179  1.00  0.00     0.074 A 
ATOM     60  C   UNL     1     -16.235  -6.205  -7.377  1.00  0.00     0.031 C 
ATOM     61  C   UNL     1     -17.187  -3.931  -7.100  1.00  0.00     0.037 A 
BRANCH  48  62
ATOM     62  C   UNL     1     -15.675   1.998  -6.137  1.00  0.00     0.064 A 
ATOM     63  C   UNL     1     -15.396   3.020  -7.058  1.00  0.00     0.173 A 
ATOM     64  C   UNL     1     -16.393   2.339  -4.981  1.00  0.00     0.173 A 
ATOM     65  F   UNL     1     -14.698   2.753  -8.173  1.00  0.00    -0.203 F 
ATOM     66  C   UNL     1     -15.785   4.335  -6.812  1.00  0.00     0.198 A 
ATOM     67  C   UNL     1     -16.811   3.648  -4.755  1.00  0.00     0.198 A 
ATOM     68  F   UNL     1     -16.688   1.403  -4.066  1.00  0.00    -0.203 F 
ATOM     69  F   UNL     1     -15.451   5.304  -7.675  1.00  0.00    -0.200 F 
ATOM     70  C   UNL     1     -16.497   4.647  -5.663  1.00  0.00     0.200 A 
ATOM     71  F   UNL     1     -17.509   3.945  -3.650  1.00  0.00    -0.200 F 
ATOM     72  F   UNL     1     -16.871   5.912  -5.427  1.00  0.00    -0.200 F 
ENDBRANCH  48  62
BRANCH  49  73
ATOM     73  C   UNL     1     -12.160  -7.306  -7.454  1.00  0.00     0.064 A 
ATOM     74  C   UNL     1     -12.350  -7.970  -8.674  1.00  0.00     0.173 A 
ATOM     75  C   UNL     1     -11.479  -7.992  -6.438  1.00  0.00     0.173 A 
ATOM     76  F   UNL     1     -13.012  -7.364  -9.670  1.00  0.00    -0.203 F 
ATOM     77  C   UNL     1     -11.896  -9.274  -8.862  1.00  0.00     0.198 A 
ATOM     78  C   UNL     1     -10.998  -9.284  -6.638  1.00  0.00     0.198 A 
ATOM     79  F   UNL     1     -11.268  -7.402  -5.252  1.00  0.00    -0.203 F 
ATOM     80  F   UNL     1     -12.132  -9.902 -10.022  1.00  0.00    -0.200 F 
ATOM     81  C   UNL     1     -11.215  -9.928  -7.847  1.00  0.00     0.200 A 
ATOM     82  F   UNL     1     -10.328  -9.906  -5.659  1.00  0.00    -0.200 F 
ATOM     83  F   UNL     1     -10.774 -11.180  -8.030  1.00  0.00    -0.200 F 
ENDBRANCH  49  73
BRANCH  61  84
ATOM     84  C   UNL     1     -18.553  -4.533  -7.272  1.00  0.00     0.064 A 
ATOM     85  C   UNL     1     -19.119  -5.375  -6.303  1.00  0.00     0.173 A 
ATOM     86  C   UNL     1     -19.316  -4.239  -8.413  1.00  0.00     0.173 A 
ATOM     87  F   UNL     1     -18.426  -5.698  -5.201  1.00  0.00    -0.203 F 
ATOM     88  C   UNL     1     -20.383  -5.929  -6.488  1.00  0.00     0.198 A 
ATOM     89  C   UNL     1     -20.594  -4.765  -8.577  1.00  0.00     0.198 A 
ATOM     90  F   UNL     1     -18.826  -3.432  -9.366  1.00  0.00    -0.203 F 
ATOM     91  F   UNL     1     -20.878  -6.780  -5.579  1.00  0.00    -0.200 F 
ATOM     92  C   UNL     1     -21.122  -5.618  -7.620  1.00  0.00     0.200 A 
ATOM     93  F   UNL     1     -21.313  -4.449  -9.662  1.00  0.00    -0.200 F 
ATOM     94  F   UNL     1     -22.340  -6.149  -7.793  1.00  0.00    -0.200 F 
ENDBRANCH  61  84
ENDBRANCH  35  36
ENDBRANCH  28  30
ENDBRANCH  27  28
ENDBRANCH  26  27
ENDBRANCH  25  26
ENDBRANCH  24  25
ENDBRANCH   1  24
TORSDOF 18
