REMARK SMILES O=C1NC(=S)S/C1=C\c1ccc(OCc2cn(-c3ccc(C(=O)OCCOCCOC(=O)c4ccc(-c5c6nc(c(-c7c(F)c(F)c(F)c(F)c7F)c7ccc([nH]7)c(-c7c(F)c(F)c(F)c(F)c7F)c7nc(c(-c8c(F)c(F)c(F)c(F)c8F)c8ccc5[nH]8)C=C7)C=C6)cc4)cc3)nn2)cc1
REMARK SMILES IDX 25 1 24 2 22 3 23 4 21 5 18 6 19 7 97 8 20 9 96 10 17 11
REMARK SMILES IDX 15 12 16 13 99 14 98 15 14 16 13 17 12 18 9 19 10 20 101 21
REMARK SMILES IDX 11 22 100 23 8 24 1 25 2 26 3 27 7 28 4 29 6 31 5 32 26 33
REMARK SMILES IDX 27 34 28 35 29 36 30 37 31 38 32 39 33 40 34 41 95 42 35 43
REMARK SMILES IDX 94 44 36 45 37 46 38 47 88 48 39 49 93 50 87 51 89 52 40 53
REMARK SMILES IDX 92 54 86 55 85 56 41 58 73 59 53 60 72 61 54 62 57 63 71 64
REMARK SMILES IDX 90 65 55 66 56 67 70 69 91 70 58 71 42 72 43 73 51 74 44 75
REMARK SMILES IDX 45 76 49 77 52 78 46 79 47 80 50 81 48 82 74 83 75 84 83 85
REMARK SMILES IDX 76 86 77 87 81 88 84 89 78 90 79 91 82 92 80 93 59 94 60 95
REMARK SMILES IDX 68 96 61 97 62 98 66 99 69 100 63 101 64 102 67 103 65 104
REMARK H PARENT 3 30 89 57 57 68
REMARK Flexibility Score: inf
ROOT
ATOM      1  C   UNL     1       8.181  10.967  -0.930  1.00  0.00     0.261 C 
ENDROOT
BRANCH   1   2
ATOM      2  O   UNL     1       6.894  10.394  -0.658  1.00  0.00    -0.460 OA
BRANCH   2   3
ATOM      3  C   UNL     1       6.138  10.200  -1.764  1.00  0.00     0.338 C 
ATOM      4  O   UNL     1       6.426  10.487  -2.915  1.00  0.00    -0.246 OA
BRANCH   3   5
ATOM      5  C   UNL     1       4.939   9.411  -1.432  1.00  0.00     0.060 A 
ATOM      6  C   UNL     1       2.521   8.086  -1.124  1.00  0.00     0.066 A 
ATOM      7  C   UNL     1       3.412   7.673  -2.123  1.00  0.00     0.029 A 
ATOM      8  C   UNL     1       2.884   9.091  -0.215  1.00  0.00     0.029 A 
ATOM      9  C   UNL     1       4.606   8.362  -2.298  1.00  0.00     0.018 A 
ATOM     10  C   UNL     1       4.114   9.739  -0.354  1.00  0.00     0.018 A 
BRANCH   6  11
ATOM     11  N   UNL     1       1.215   7.550  -1.130  1.00  0.00    -0.220 N 
ATOM     12  C   UNL     1      -0.952   7.306  -1.140  1.00  0.00     0.120 A 
ATOM     13  C   UNL     1       0.050   8.149  -0.707  1.00  0.00     0.144 A 
ATOM     14  N   UNL     1      -0.377   6.230  -1.761  1.00  0.00    -0.131 NA
ATOM     15  N   UNL     1       0.933   6.388  -1.754  1.00  0.00    -0.062 NA
BRANCH  12  16
ATOM     16  C   UNL     1      -2.437   7.472  -1.129  1.00  0.00     0.289 C 
BRANCH  16  17
ATOM     17  O   UNL     1      -3.130   6.734  -0.110  1.00  0.00    -0.487 OA
BRANCH  17  18
ATOM     18  C   UNL     1      -3.131   5.368  -0.195  1.00  0.00     0.119 A 
ATOM     19  C   UNL     1      -2.905   2.575  -0.020  1.00  0.00    -0.024 A 
ATOM     20  C   UNL     1      -3.389   3.308   1.066  1.00  0.00     0.012 A 
ATOM     21  C   UNL     1      -2.631   3.235  -1.220  1.00  0.00     0.012 A 
ATOM     22  C   UNL     1      -3.496   4.700   0.977  1.00  0.00     0.047 A 
ATOM     23  C   UNL     1      -2.771   4.620  -1.314  1.00  0.00     0.047 A 
BRANCH  19  24
ATOM     24  C   UNL     1      -2.670   1.134   0.087  1.00  0.00     0.029 C 
ATOM     25  O   UNL     1      -2.196  -1.738   0.141  1.00  0.00    -0.268 OA
ATOM     26  C   UNL     1      -1.291  -0.920   0.107  1.00  0.00     0.263 C 
ATOM     27  N   UNL     1       0.039  -1.231   0.063  1.00  0.00    -0.307 N 
ATOM     28  C   UNL     1      -1.460   0.557   0.086  1.00  0.00     0.080 C 
ATOM     29  C   UNL     1       0.938  -0.209   0.026  1.00  0.00     0.145 C 
ATOM     30  H   UNL     1       0.340  -2.169   0.059  1.00  0.00     0.171 HD
ATOM     31  S   UNL     1       0.091   1.320   0.040  1.00  0.00    -0.055 SA
ATOM     32  S   UNL     1       2.578  -0.430  -0.021  1.00  0.00    -0.052 S 
ENDBRANCH  19  24
ENDBRANCH  17  18
ENDBRANCH  16  17
ENDBRANCH  12  16
ENDBRANCH   6  11
ENDBRANCH   3   5
ENDBRANCH   2   3
ENDBRANCH   1   2
BRANCH   1  33
ATOM     33  C   UNL     1       9.327   9.969  -0.753  1.00  0.00     0.202 C 
BRANCH  33  34
ATOM     34  O   UNL     1       9.381   8.814  -1.588  1.00  0.00    -0.374 OA
BRANCH  34  35
ATOM     35  C   UNL     1       8.396   7.792  -1.484  1.00  0.00     0.202 C 
BRANCH  35  36
ATOM     36  C   UNL     1       8.382   6.909  -0.245  1.00  0.00     0.261 C 
BRANCH  36  37
ATOM     37  O   UNL     1       8.254   7.670   0.942  1.00  0.00    -0.460 OA
BRANCH  37  38
ATOM     38  C   UNL     1       9.421   7.877   1.582  1.00  0.00     0.338 C 
ATOM     39  O   UNL     1      10.555   7.671   1.154  1.00  0.00    -0.246 OA
BRANCH  38  40
ATOM     40  C   UNL     1       9.136   8.238   2.968  1.00  0.00     0.060 A 
ATOM     41  C   UNL     1      10.246   8.281   3.811  1.00  0.00     0.016 A 
ATOM     42  C   UNL     1       7.826   8.088   3.448  1.00  0.00     0.016 A 
ATOM     43  C   UNL     1      10.078   7.853   5.102  1.00  0.00     0.010 A 
ATOM     44  C   UNL     1       7.663   7.638   4.730  1.00  0.00     0.010 A 
ATOM     45  C   UNL     1       8.805   7.428   5.498  1.00  0.00    -0.014 A 
BRANCH  45  46
ATOM     46  C   UNL     1       8.666   6.867   6.819  1.00  0.00     0.031 A 
ATOM     47  C   UNL     1       8.748   7.919   7.852  1.00  0.00     0.074 A 
ATOM     48  C   UNL     1       8.400   5.563   7.016  1.00  0.00     0.049 A 
ATOM     49  N   UNL     1       9.683   8.091   8.723  1.00  0.00    -0.248 NA
ATOM     50  C   UNL     1       7.800   9.044   7.753  1.00  0.00     0.031 C 
ATOM     51  C   UNL     1       8.074   4.540   6.019  1.00  0.00     0.029 A 
ATOM     52  N   UNL     1       8.269   4.895   8.192  1.00  0.00    -0.354 N 
ATOM     53  C   UNL     1       9.313   9.228   9.430  1.00  0.00     0.074 A 
ATOM     54  C   UNL     1       8.304   9.889   8.651  1.00  0.00     0.031 C 
ATOM     55  C   UNL     1       7.558   3.455   6.644  1.00  0.00     0.029 A 
ATOM     56  C   UNL     1       7.636   3.660   8.079  1.00  0.00     0.049 A 
ATOM     57  H   UNL     1       8.592   5.253   9.050  1.00  0.00     0.167 HD
ATOM     58  C   UNL     1       9.629   9.343  10.746  1.00  0.00     0.037 A 
ATOM     59  C   UNL     1       7.136   2.942   9.118  1.00  0.00     0.037 A 
ATOM     60  C   UNL     1      10.733   8.480  11.086  1.00  0.00     0.049 A 
ATOM     61  C   UNL     1       7.790   3.450  10.355  1.00  0.00     0.074 A 
ATOM     62  C   UNL     1      12.044   8.376  10.664  1.00  0.00     0.029 A 
ATOM     63  N   UNL     1      10.442   7.289  11.705  1.00  0.00    -0.354 N 
ATOM     64  N   UNL     1       9.058   3.291  10.617  1.00  0.00    -0.248 NA
ATOM     65  C   UNL     1       7.144   4.558  11.046  1.00  0.00     0.031 C 
ATOM     66  C   UNL     1      12.317   6.976  10.636  1.00  0.00     0.029 A 
ATOM     67  C   UNL     1      11.188   6.306  11.110  1.00  0.00     0.049 A 
ATOM     68  H   UNL     1       9.808   7.164  12.447  1.00  0.00     0.167 HD
ATOM     69  C   UNL     1       9.465   4.509  11.143  1.00  0.00     0.074 A 
ATOM     70  C   UNL     1       8.229   5.229  11.442  1.00  0.00     0.031 C 
ATOM     71  C   UNL     1      10.755   4.933  11.006  1.00  0.00     0.037 A 
BRANCH  58  72
ATOM     72  C   UNL     1       8.660   9.873  11.776  1.00  0.00     0.064 A 
ATOM     73  C   UNL     1       9.107  10.019  13.102  1.00  0.00     0.173 A 
ATOM     74  C   UNL     1       7.258   9.943  11.598  1.00  0.00     0.173 A 
ATOM     75  F   UNL     1      10.415   9.956  13.392  1.00  0.00    -0.203 F 
ATOM     76  C   UNL     1       8.216  10.129  14.172  1.00  0.00     0.198 A 
ATOM     77  C   UNL     1       6.376  10.108  12.661  1.00  0.00     0.198 A 
ATOM     78  F   UNL     1       6.665   9.742  10.417  1.00  0.00    -0.203 F 
ATOM     79  F   UNL     1       8.683  10.125  15.427  1.00  0.00    -0.200 F 
ATOM     80  C   UNL     1       6.851  10.164  13.951  1.00  0.00     0.200 A 
ATOM     81  F   UNL     1       5.056  10.121  12.423  1.00  0.00    -0.200 F 
ATOM     82  F   UNL     1       5.993  10.200  14.979  1.00  0.00    -0.200 F 
ENDBRANCH  58  72
BRANCH  59  83
ATOM     83  C   UNL     1       5.885   2.143   9.160  1.00  0.00     0.064 A 
ATOM     84  C   UNL     1       5.630   1.249  10.214  1.00  0.00     0.173 A 
ATOM     85  C   UNL     1       4.792   2.449   8.325  1.00  0.00     0.173 A 
ATOM     86  F   UNL     1       6.601   0.945  11.088  1.00  0.00    -0.203 F 
ATOM     87  C   UNL     1       4.356   0.712  10.432  1.00  0.00     0.198 A 
ATOM     88  C   UNL     1       3.523   1.908   8.540  1.00  0.00     0.198 A 
ATOM     89  F   UNL     1       4.906   3.356   7.345  1.00  0.00    -0.203 F 
ATOM     90  F   UNL     1       4.137  -0.087  11.486  1.00  0.00    -0.200 F 
ATOM     91  C   UNL     1       3.301   1.050   9.600  1.00  0.00     0.200 A 
ATOM     92  F   UNL     1       2.502   2.276   7.752  1.00  0.00    -0.200 F 
ATOM     93  F   UNL     1       2.067   0.587   9.844  1.00  0.00    -0.200 F 
ENDBRANCH  59  83
BRANCH  71  94
ATOM     94  C   UNL     1      11.767   3.940  10.506  1.00  0.00     0.064 A 
ATOM     95  C   UNL     1      11.735   3.353   9.228  1.00  0.00     0.173 A 
ATOM     96  C   UNL     1      12.889   3.684  11.304  1.00  0.00     0.173 A 
ATOM     97  F   UNL     1      10.745   3.627   8.369  1.00  0.00    -0.203 F 
ATOM     98  C   UNL     1      12.761   2.514   8.793  1.00  0.00     0.198 A 
ATOM     99  C   UNL     1      13.930   2.879  10.853  1.00  0.00     0.198 A 
ATOM    100  F   UNL     1      12.999   4.262  12.511  1.00  0.00    -0.203 F 
ATOM    101  F   UNL     1      12.704   1.955   7.575  1.00  0.00    -0.200 F 
ATOM    102  C   UNL     1      13.861   2.285   9.603  1.00  0.00     0.200 A 
ATOM    103  F   UNL     1      15.013   2.701  11.621  1.00  0.00    -0.200 F 
ATOM    104  F   UNL     1      14.868   1.513   9.171  1.00  0.00    -0.200 F 
ENDBRANCH  71  94
ENDBRANCH  45  46
ENDBRANCH  38  40
ENDBRANCH  37  38
ENDBRANCH  36  37
ENDBRANCH  35  36
ENDBRANCH  34  35
ENDBRANCH  33  34
ENDBRANCH   1  33
TORSDOF 19
