REMARK SMILES CC(=O)Nc1cccc(-c2ccc(F)c(C(=O)OCCOCCOC(=O)c3ccc(-c4c5nc(c(-c6c(F)c(F)c(F)c(F)c6F)c6ccc([nH]6)c(-c6c(F)c(F)c(F)c(F)c6F)c6nc(c(-c7c(F)c(F)c(F)c(F)c7F)c7ccc4[nH]7)C=C6)C=C5)cc3)c2)c1
REMARK SMILES IDX 21 1 20 2 19 3 18 4 16 5 17 6 15 7 10 8 11 9 90 10 12 11
REMARK SMILES IDX 13 12 14 13 9 14 5 15 6 16 91 17 7 18 8 19 4 20 1 21 2 22
REMARK SMILES IDX 3 23 22 25 23 26 24 27 25 28 26 29 27 30 28 31 89 32 29 33
REMARK SMILES IDX 88 34 30 35 31 36 32 37 82 38 33 39 87 40 81 41 83 42 34 43
REMARK SMILES IDX 86 44 80 45 79 46 35 48 67 49 47 50 66 51 48 52 51 53 65 54
REMARK SMILES IDX 84 55 49 56 50 57 64 59 85 60 52 61 36 62 37 63 45 64 38 65
REMARK SMILES IDX 39 66 43 67 46 68 40 69 41 70 44 71 42 72 68 73 69 74 77 75
REMARK SMILES IDX 70 76 71 77 75 78 78 79 72 80 73 81 76 82 74 83 53 84 54 85
REMARK SMILES IDX 62 86 55 87 56 88 60 89 63 90 57 91 58 92 61 93 59 94
REMARK H PARENT 4 24 83 47 51 58
REMARK Flexibility Score: inf
ROOT
ATOM      1  O   UNL     1      10.575   0.859   1.575  1.00  0.00    -0.374 OA
ENDROOT
BRANCH   1   2
ATOM      2  C   UNL     1       9.813   2.025   1.261  1.00  0.00     0.202 C 
BRANCH   2   3
ATOM      3  C   UNL     1       8.745   1.863   0.175  1.00  0.00     0.261 C 
BRANCH   3   4
ATOM      4  O   UNL     1       7.711   0.965   0.616  1.00  0.00    -0.460 OA
BRANCH   4   5
ATOM      5  C   UNL     1       7.543  -0.148  -0.141  1.00  0.00     0.341 C 
ATOM      6  O   UNL     1       8.017  -0.360  -1.243  1.00  0.00    -0.246 OA
BRANCH   5   7
ATOM      7  C   UNL     1       6.772  -1.140   0.632  1.00  0.00     0.096 A 
ATOM      8  C   UNL     1       4.924  -1.731   2.122  1.00  0.00    -0.017 A 
ATOM      9  C   UNL     1       5.348  -3.070   2.061  1.00  0.00     0.012 A 
ATOM     10  C   UNL     1       5.669  -0.767   1.413  1.00  0.00     0.027 A 
ATOM     11  C   UNL     1       6.467  -3.438   1.309  1.00  0.00     0.041 A 
ATOM     12  C   UNL     1       7.168  -2.474   0.594  1.00  0.00     0.137 A 
ATOM     13  F   UNL     1       8.253  -2.854  -0.092  1.00  0.00    -0.206 F 
BRANCH   8  14
ATOM     14  C   UNL     1       3.704  -1.349   2.857  1.00  0.00    -0.016 A 
ATOM     15  C   UNL     1       1.586  -0.114   2.901  1.00  0.00     0.041 A 
ATOM     16  C   UNL     1       1.375  -0.536   4.214  1.00  0.00     0.026 A 
ATOM     17  C   UNL     1       2.754  -0.507   2.248  1.00  0.00     0.034 A 
ATOM     18  C   UNL     1       2.287  -1.393   4.834  1.00  0.00     0.003 A 
ATOM     19  C   UNL     1       3.440  -1.800   4.158  1.00  0.00     0.009 A 
BRANCH  15  20
ATOM     20  N   UNL     1       0.635   0.745   2.327  1.00  0.00    -0.326 N 
ATOM     21  C   UNL     1       0.827   0.120  -0.081  1.00  0.00     0.114 C 
ATOM     22  C   UNL     1       0.344   1.025   1.022  1.00  0.00     0.221 C 
ATOM     23  O   UNL     1      -0.376   1.994   0.767  1.00  0.00    -0.275 OA
ATOM     24  H   UNL     1       0.080   1.230   2.980  1.00  0.00     0.169 HD
ENDBRANCH  15  20
ENDBRANCH   8  14
ENDBRANCH   5   7
ENDBRANCH   4   5
ENDBRANCH   3   4
ENDBRANCH   2   3
ENDBRANCH   1   2
BRANCH   1  25
ATOM     25  C   UNL     1       9.954  -0.125   2.402  1.00  0.00     0.202 C 
BRANCH  25  26
ATOM     26  C   UNL     1       9.956   0.151   3.911  1.00  0.00     0.261 C 
BRANCH  26  27
ATOM     27  O   UNL     1       9.225   1.342   4.251  1.00  0.00    -0.460 OA
BRANCH  27  28
ATOM     28  C   UNL     1       9.998   2.381   4.650  1.00  0.00     0.338 C 
ATOM     29  O   UNL     1      11.204   2.382   4.828  1.00  0.00    -0.246 OA
BRANCH  28  30
ATOM     30  C   UNL     1       9.198   3.619   4.695  1.00  0.00     0.060 A 
ATOM     31  C   UNL     1       9.680   4.721   3.978  1.00  0.00     0.016 A 
ATOM     32  C   UNL     1       8.048   3.730   5.479  1.00  0.00     0.016 A 
ATOM     33  C   UNL     1       9.039   5.952   4.079  1.00  0.00     0.010 A 
ATOM     34  C   UNL     1       7.407   4.970   5.583  1.00  0.00     0.010 A 
ATOM     35  C   UNL     1       7.918   6.095   4.909  1.00  0.00    -0.014 A 
BRANCH  35  36
ATOM     36  C   UNL     1       7.357   7.448   5.146  1.00  0.00     0.031 A 
ATOM     37  C   UNL     1       7.699   8.179   6.414  1.00  0.00     0.074 A 
ATOM     38  C   UNL     1       6.585   8.037   4.215  1.00  0.00     0.049 A 
ATOM     39  N   UNL     1       7.332   9.371   6.811  1.00  0.00    -0.248 NA
ATOM     40  C   UNL     1       8.573   7.472   7.363  1.00  0.00     0.031 C 
ATOM     41  C   UNL     1       6.207   7.441   2.936  1.00  0.00     0.029 A 
ATOM     42  N   UNL     1       5.983   9.270   4.206  1.00  0.00    -0.354 N 
ATOM     43  C   UNL     1       7.927   9.557   8.052  1.00  0.00     0.074 A 
ATOM     44  C   UNL     1       8.651   8.342   8.360  1.00  0.00     0.031 C 
ATOM     45  C   UNL     1       5.432   8.310   2.264  1.00  0.00     0.029 A 
ATOM     46  C   UNL     1       5.239   9.509   3.077  1.00  0.00     0.049 A 
ATOM     47  H   UNL     1       6.075   9.921   4.939  1.00  0.00     0.167 HD
ATOM     48  C   UNL     1       7.884  10.647   8.855  1.00  0.00     0.037 A 
ATOM     49  C   UNL     1       4.478  10.570   2.746  1.00  0.00     0.037 A 
ATOM     50  C   UNL     1       7.164  11.856   8.547  1.00  0.00     0.049 A 
ATOM     51  C   UNL     1       4.397  11.744   3.686  1.00  0.00     0.074 A 
ATOM     52  C   UNL     1       7.083  13.025   9.284  1.00  0.00     0.029 A 
ATOM     53  N   UNL     1       6.392  12.048   7.410  1.00  0.00    -0.354 N 
ATOM     54  N   UNL     1       4.995  11.927   4.838  1.00  0.00    -0.248 NA
ATOM     55  C   UNL     1       3.538  12.863   3.273  1.00  0.00     0.031 C 
ATOM     56  C   UNL     1       6.219  13.903   8.621  1.00  0.00     0.029 A 
ATOM     57  C   UNL     1       5.807  13.304   7.441  1.00  0.00     0.049 A 
ATOM     58  H   UNL     1       6.277  11.389   6.688  1.00  0.00     0.167 HD
ATOM     59  C   UNL     1       4.607  13.187   5.275  1.00  0.00     0.074 A 
ATOM     60  C   UNL     1       3.736  13.732   4.255  1.00  0.00     0.031 C 
ATOM     61  C   UNL     1       4.942  13.835   6.419  1.00  0.00     0.037 A 
BRANCH  48  62
ATOM     62  C   UNL     1       8.621  10.577  10.162  1.00  0.00     0.064 A 
ATOM     63  C   UNL     1      10.023  10.592  10.220  1.00  0.00     0.173 A 
ATOM     64  C   UNL     1       7.914  10.536  11.373  1.00  0.00     0.173 A 
ATOM     65  F   UNL     1      10.745  10.619   9.091  1.00  0.00    -0.203 F 
ATOM     66  C   UNL     1      10.689  10.544  11.442  1.00  0.00     0.198 A 
ATOM     67  C   UNL     1       8.584  10.516  12.594  1.00  0.00     0.198 A 
ATOM     68  F   UNL     1       6.573  10.524  11.374  1.00  0.00    -0.203 F 
ATOM     69  F   UNL     1      12.029  10.514  11.473  1.00  0.00    -0.200 F 
ATOM     70  C   UNL     1       9.970  10.513  12.628  1.00  0.00     0.200 A 
ATOM     71  F   UNL     1       7.887  10.500  13.739  1.00  0.00    -0.200 F 
ATOM     72  F   UNL     1      10.613  10.475  13.803  1.00  0.00    -0.200 F 
ENDBRANCH  48  62
BRANCH  49  73
ATOM     73  C   UNL     1       3.726  10.570   1.464  1.00  0.00     0.064 A 
ATOM     74  C   UNL     1       4.066  11.447   0.425  1.00  0.00     0.173 A 
ATOM     75  C   UNL     1       2.641   9.705   1.260  1.00  0.00     0.173 A 
ATOM     76  F   UNL     1       5.079  12.312   0.582  1.00  0.00    -0.203 F 
ATOM     77  C   UNL     1       3.337  11.471  -0.763  1.00  0.00     0.198 A 
ATOM     78  C   UNL     1       1.932   9.710   0.061  1.00  0.00     0.198 A 
ATOM     79  F   UNL     1       2.274   8.849   2.224  1.00  0.00    -0.203 F 
ATOM     80  F   UNL     1       3.653  12.353  -1.722  1.00  0.00    -0.200 F 
ATOM     81  C   UNL     1       2.275  10.598  -0.947  1.00  0.00     0.200 A 
ATOM     82  F   UNL     1       0.913   8.857  -0.116  1.00  0.00    -0.200 F 
ATOM     83  F   UNL     1       1.577  10.621  -2.090  1.00  0.00    -0.200 F 
ENDBRANCH  49  73
BRANCH  61  84
ATOM     84  C   UNL     1       4.388  15.218   6.614  1.00  0.00     0.064 A 
ATOM     85  C   UNL     1       3.029  15.437   6.883  1.00  0.00     0.173 A 
ATOM     86  C   UNL     1       5.234  16.337   6.562  1.00  0.00     0.173 A 
ATOM     87  F   UNL     1       2.175  14.403   6.930  1.00  0.00    -0.203 F 
ATOM     88  C   UNL     1       2.532  16.726   7.062  1.00  0.00     0.198 A 
ATOM     89  C   UNL     1       4.740  17.621   6.773  1.00  0.00     0.198 A 
ATOM     90  F   UNL     1       6.544  16.183   6.316  1.00  0.00    -0.203 F 
ATOM     91  F   UNL     1       1.221  16.914   7.265  1.00  0.00    -0.200 F 
ATOM     92  C   UNL     1       3.389  17.815   7.013  1.00  0.00     0.200 A 
ATOM     93  F   UNL     1       5.572  18.671   6.741  1.00  0.00    -0.200 F 
ATOM     94  F   UNL     1       2.910  19.054   7.191  1.00  0.00    -0.200 F 
ENDBRANCH  61  84
ENDBRANCH  35  36
ENDBRANCH  28  30
ENDBRANCH  27  28
ENDBRANCH  26  27
ENDBRANCH  25  26
ENDBRANCH   1  25
TORSDOF 16
