REMARK SMILES COc1ccc2c(c1)c(CC(=O)OCCOCCOC(=O)c1ccc(-c3c4nc(c(-c5c(F)c(F)c(F)c(F)c5F)c5ccc([nH]5)c(-c5c(F)c(F)c(F)c(F)c5F)c5nc(c(-c6c(F)c(F)c(F)c(F)c6F)c6ccc3[nH]6)C=C5)C=C4)cc1)c(C)n2Cc1ccn(C(F)F)c(=O)c1
REMARK SMILES IDX 15 1 14 2 13 3 11 4 12 5 10 6 9 7 3 8 4 9 8 10 5 11 7 12
REMARK SMILES IDX 6 13 87 14 85 15 86 16 2 17 1 18 88 19 89 20 90 21 98 22
REMARK SMILES IDX 91 23 96 24 92 25 97 26 93 27 94 28 95 29 16 30 17 31 18 32
REMARK SMILES IDX 19 33 20 34 21 35 22 36 23 37 84 38 24 39 83 40 25 41 26 42
REMARK SMILES IDX 27 43 77 44 28 45 82 46 76 47 78 48 29 49 81 50 75 51 74 52
REMARK SMILES IDX 30 54 62 55 42 56 61 57 43 58 46 59 60 60 79 61 44 62 45 63
REMARK SMILES IDX 59 65 80 66 47 67 31 68 32 69 40 70 33 71 34 72 38 73 41 74
REMARK SMILES IDX 35 75 36 76 39 77 37 78 63 79 64 80 72 81 65 82 66 83 70 84
REMARK SMILES IDX 73 85 67 86 68 87 71 88 69 89 48 90 49 91 57 92 50 93 51 94
REMARK SMILES IDX 55 95 58 96 52 97 53 98 56 99 54 100
REMARK H PARENT 78 53 46 64
REMARK Flexibility Score: inf
ROOT
ATOM      1  C   UNL     1      -2.373   3.811  -5.335  1.00  0.00     0.202 C 
ENDROOT
BRANCH   1   2
ATOM      2  C   UNL     1      -2.489   5.309  -5.022  1.00  0.00     0.261 C 
BRANCH   2   3
ATOM      3  O   UNL     1      -1.843   5.738  -3.802  1.00  0.00    -0.463 OA
BRANCH   3   4
ATOM      4  C   UNL     1      -2.676   5.787  -2.736  1.00  0.00     0.310 C 
ATOM      5  O   UNL     1      -3.894   5.633  -2.840  1.00  0.00    -0.252 OA
BRANCH   4   6
ATOM      6  C   UNL     1      -2.046   6.008  -1.368  1.00  0.00     0.160 C 
BRANCH   6   7
ATOM      7  C   UNL     1      -0.557   5.836  -1.071  1.00  0.00    -0.008 A 
ATOM      8  C   UNL     1       0.898   2.344  -0.428  1.00  0.00     0.119 A 
ATOM      9  C   UNL     1       2.236   2.713  -0.496  1.00  0.00     0.048 A 
ATOM     10  C   UNL     1      -0.116   3.321  -0.393  1.00  0.00     0.057 A 
ATOM     11  C   UNL     1       2.590   4.071  -0.531  1.00  0.00     0.031 A 
ATOM     12  C   UNL     1       0.206   4.682  -0.644  1.00  0.00     0.007 A 
ATOM     13  C   UNL     1       1.566   5.043  -0.641  1.00  0.00     0.049 A 
ATOM     14  N   UNL     1       1.613   6.427  -0.781  1.00  0.00    -0.340 N 
ATOM     15  C   UNL     1       0.318   6.902  -0.917  1.00  0.00     0.020 A 
ATOM     16  C   UNL     1      -0.084   8.329  -0.869  1.00  0.00     0.065 C 
BRANCH   8  17
ATOM     17  O   UNL     1       0.463   1.072  -0.715  1.00  0.00    -0.497 OA
ATOM     18  C   UNL     1       1.044   0.039   0.066  1.00  0.00     0.278 C 
ENDBRANCH   8  17
BRANCH  14  19
ATOM     19  C   UNL     1       2.841   7.246  -0.663  1.00  0.00     0.158 C 
BRANCH  19  20
ATOM     20  C   UNL     1       3.236   7.982  -1.932  1.00  0.00    -0.021 A 
ATOM     21  C   UNL     1       2.477   9.138  -2.361  1.00  0.00     0.024 A 
ATOM     22  C   UNL     1       4.294   7.628  -2.687  1.00  0.00     0.077 A 
ATOM     23  C   UNL     1       2.574   9.616  -3.600  1.00  0.00     0.095 A 
ATOM     24  C   UNL     1       4.469   8.206  -4.051  1.00  0.00     0.255 A 
ATOM     25  N   UNL     1       3.524   9.120  -4.464  1.00  0.00    -0.258 N 
ATOM     26  O   UNL     1       5.423   7.793  -4.747  1.00  0.00    -0.269 OA
BRANCH  25  27
ATOM     27  C   UNL     1       3.570   9.595  -5.821  1.00  0.00     0.451 C 
ATOM     28  F   UNL     1       4.743  10.216  -6.085  1.00  0.00    -0.185 F 
ATOM     29  F   UNL     1       3.428   8.565  -6.692  1.00  0.00    -0.185 F 
ENDBRANCH  25  27
ENDBRANCH  19  20
ENDBRANCH  14  19
ENDBRANCH   6   7
ENDBRANCH   4   6
ENDBRANCH   3   4
ENDBRANCH   2   3
ENDBRANCH   1   2
BRANCH   1  30
ATOM     30  O   UNL     1      -2.600   2.830  -4.348  1.00  0.00    -0.374 OA
BRANCH  30  31
ATOM     31  C   UNL     1      -1.682   2.878  -3.266  1.00  0.00     0.202 C 
BRANCH  31  32
ATOM     32  C   UNL     1      -0.139   2.941  -3.477  1.00  0.00     0.261 C 
BRANCH  32  33
ATOM     33  O   UNL     1       0.442   3.775  -4.489  1.00  0.00    -0.460 OA
BRANCH  33  34
ATOM     34  C   UNL     1       0.854   3.138  -5.609  1.00  0.00     0.338 C 
ATOM     35  O   UNL     1       0.960   1.934  -5.756  1.00  0.00    -0.246 OA
BRANCH  34  36
ATOM     36  C   UNL     1       0.575   4.092  -6.729  1.00  0.00     0.060 A 
ATOM     37  C   UNL     1       0.749   5.481  -6.722  1.00  0.00     0.016 A 
ATOM     38  C   UNL     1      -0.322   3.566  -7.657  1.00  0.00     0.016 A 
ATOM     39  C   UNL     1      -0.203   6.285  -7.464  1.00  0.00     0.010 A 
ATOM     40  C   UNL     1      -0.960   4.404  -8.559  1.00  0.00     0.010 A 
ATOM     41  C   UNL     1      -1.333   5.683  -8.168  1.00  0.00    -0.014 A 
BRANCH  41  42
ATOM     42  C   UNL     1      -2.398   6.335  -9.189  1.00  0.00     0.031 A 
ATOM     43  C   UNL     1      -1.230   7.029 -10.151  1.00  0.00     0.074 A 
ATOM     44  C   UNL     1      -3.900   6.284  -9.319  1.00  0.00     0.049 A 
ATOM     45  N   UNL     1      -0.779   8.237  -9.945  1.00  0.00    -0.248 NA
ATOM     46  C   UNL     1      -0.110   6.329 -10.940  1.00  0.00     0.031 C 
ATOM     47  C   UNL     1      -5.155   5.664  -8.556  1.00  0.00     0.029 A 
ATOM     48  N   UNL     1      -4.787   6.932 -10.271  1.00  0.00    -0.354 N 
ATOM     49  C   UNL     1       0.089   8.528 -11.007  1.00  0.00     0.074 A 
ATOM     50  C   UNL     1       0.690   7.312 -11.381  1.00  0.00     0.031 C 
ATOM     51  C   UNL     1      -6.341   5.663  -9.292  1.00  0.00     0.029 A 
ATOM     52  C   UNL     1      -6.157   6.394 -10.526  1.00  0.00     0.049 A 
ATOM     53  H   UNL     1      -4.481   7.734 -10.753  1.00  0.00     0.167 HD
ATOM     54  C   UNL     1      -0.159   9.634 -11.749  1.00  0.00     0.037 A 
ATOM     55  C   UNL     1      -7.132   6.779 -11.487  1.00  0.00     0.037 A 
ATOM     56  C   UNL     1      -1.096  10.430 -11.003  1.00  0.00     0.049 A 
ATOM     57  C   UNL     1      -6.583   8.037 -12.064  1.00  0.00     0.074 A 
ATOM     58  C   UNL     1      -1.056  11.013  -9.753  1.00  0.00     0.029 A 
ATOM     59  N   UNL     1      -2.388  10.057 -11.245  1.00  0.00    -0.354 N 
ATOM     60  N   UNL     1      -6.533   9.124 -11.336  1.00  0.00    -0.248 NA
ATOM     61  C   UNL     1      -5.484   7.786 -13.002  1.00  0.00     0.031 C 
ATOM     62  C   UNL     1      -2.331  10.769  -9.170  1.00  0.00     0.029 A 
ATOM     63  C   UNL     1      -3.170  10.247 -10.148  1.00  0.00     0.049 A 
ATOM     64  H   UNL     1      -2.711   9.697 -12.102  1.00  0.00     0.167 HD
ATOM     65  C   UNL     1      -5.183   9.422 -11.305  1.00  0.00     0.074 A 
ATOM     66  C   UNL     1      -4.579   8.555 -12.376  1.00  0.00     0.031 C 
ATOM     67  C   UNL     1      -4.576   9.958 -10.188  1.00  0.00     0.037 A 
BRANCH  54  68
ATOM     68  C   UNL     1      -0.049   9.756 -13.249  1.00  0.00     0.064 A 
ATOM     69  C   UNL     1      -0.211  11.050 -13.774  1.00  0.00     0.173 A 
ATOM     70  C   UNL     1      -0.064   8.703 -14.193  1.00  0.00     0.173 A 
ATOM     71  F   UNL     1      -0.248  12.110 -12.953  1.00  0.00    -0.203 F 
ATOM     72  C   UNL     1      -0.396  11.283 -15.134  1.00  0.00     0.198 A 
ATOM     73  C   UNL     1      -0.204   8.945 -15.565  1.00  0.00     0.198 A 
ATOM     74  F   UNL     1      -0.028   7.414 -13.828  1.00  0.00    -0.203 F 
ATOM     75  F   UNL     1      -0.618  12.532 -15.562  1.00  0.00    -0.200 F 
ATOM     76  C   UNL     1      -0.384  10.233 -16.031  1.00  0.00     0.200 A 
ATOM     77  F   UNL     1      -0.209   7.918 -16.430  1.00  0.00    -0.200 F 
ATOM     78  F   UNL     1      -0.568  10.461 -17.338  1.00  0.00    -0.200 F 
ENDBRANCH  54  68
BRANCH  55  79
ATOM     79  C   UNL     1      -8.154   5.943 -12.334  1.00  0.00     0.064 A 
ATOM     80  C   UNL     1      -9.253   6.332 -13.186  1.00  0.00     0.173 A 
ATOM     81  C   UNL     1      -7.779   4.606 -12.512  1.00  0.00     0.173 A 
ATOM     82  F   UNL     1      -9.747   7.582 -13.178  1.00  0.00    -0.203 F 
ATOM     83  C   UNL     1      -9.876   5.426 -14.111  1.00  0.00     0.198 A 
ATOM     84  C   UNL     1      -8.374   3.728 -13.430  1.00  0.00     0.198 A 
ATOM     85  F   UNL     1      -6.729   4.133 -11.834  1.00  0.00    -0.203 F 
ATOM     86  F   UNL     1     -10.896   5.814 -14.900  1.00  0.00    -0.200 F 
ATOM     87  C   UNL     1      -9.415   4.129 -14.238  1.00  0.00     0.200 A 
ATOM     88  F   UNL     1      -7.880   2.489 -13.547  1.00  0.00    -0.200 F 
ATOM     89  F   UNL     1      -9.938   3.279 -15.138  1.00  0.00    -0.200 F 
ENDBRANCH  55  79
BRANCH  67  90
ATOM     90  C   UNL     1      -5.336  10.364  -8.924  1.00  0.00     0.064 A 
ATOM     91  C   UNL     1      -5.685   9.537  -7.828  1.00  0.00     0.173 A 
ATOM     92  C   UNL     1      -5.412  11.737  -8.677  1.00  0.00     0.173 A 
ATOM     93  F   UNL     1      -5.405   8.233  -7.832  1.00  0.00    -0.203 F 
ATOM     94  C   UNL     1      -6.206  10.052  -6.628  1.00  0.00     0.198 A 
ATOM     95  C   UNL     1      -5.856  12.253  -7.458  1.00  0.00     0.198 A 
ATOM     96  F   UNL     1      -4.922  12.592  -9.585  1.00  0.00    -0.203 F 
ATOM     97  F   UNL     1      -6.556   9.227  -5.625  1.00  0.00    -0.200 F 
ATOM     98  C   UNL     1      -6.291  11.416  -6.446  1.00  0.00     0.200 A 
ATOM     99  F   UNL     1      -5.798  13.574  -7.246  1.00  0.00    -0.200 F 
ATOM    100  F   UNL     1      -6.730  11.925  -5.285  1.00  0.00    -0.200 F 
ENDBRANCH  67  90
ENDBRANCH  41  42
ENDBRANCH  34  36
ENDBRANCH  33  34
ENDBRANCH  32  33
ENDBRANCH  31  32
ENDBRANCH  30  31
ENDBRANCH   1  30
TORSDOF 19
