REMARK SMILES CC(C)(C(=O)N1C[C@@H]2c3ccccc3OC[C@]2(C(=O)OCCOCCOC(=O)c2ccc(-c3c4nc(c(-c5c(F)c(F)c(F)c(F)c5F)c5ccc([nH]5)c(-c5c(F)c(F)c(F)c(F)c5F)c5nc(c(-c6c(F)c(F)c(F)c(F)c6F)c6ccc3[nH]6)C=C5)C=C4)cc2)C1)[NH+]1CCOCC1
REMARK SMILES IDX 22 1 21 2 20 3 18 4 19 5 17 6 6 7 7 8 92 9 8 10 9 11 16 12
REMARK SMILES IDX 10 13 14 14 15 15 11 16 13 17 12 18 4 19 5 20 2 21 1 22 3 23
REMARK SMILES IDX 93 24 94 25 98 26 95 28 97 29 96 30 23 31 24 32 25 33 26 34
REMARK SMILES IDX 27 35 28 36 29 37 30 38 91 39 31 40 90 41 32 42 33 43 34 44
REMARK SMILES IDX 84 45 35 46 89 47 83 48 85 49 36 50 88 51 82 52 81 53 37 55
REMARK SMILES IDX 69 56 49 57 68 58 50 59 53 60 67 61 86 62 51 63 52 64 66 66
REMARK SMILES IDX 87 67 54 68 38 69 39 70 47 71 40 72 41 73 45 74 48 75 42 76
REMARK SMILES IDX 43 77 46 78 44 79 70 80 71 81 79 82 72 83 73 84 77 85 80 86
REMARK SMILES IDX 74 87 75 88 78 89 76 90 55 91 56 92 64 93 57 94 58 95 62 96
REMARK SMILES IDX 65 97 59 98 60 99 63 100 61 101
REMARK H PARENT 93 27 85 54 53 65
REMARK Flexibility Score: inf
ROOT
ATOM      1  C   UNL     1      -1.549   3.347  -4.281  1.00  0.00     0.202 C 
ENDROOT
BRANCH   1   2
ATOM      2  C   UNL     1      -1.001   4.060  -3.016  1.00  0.00     0.261 C 
BRANCH   2   3
ATOM      3  O   UNL     1      -1.570   3.382  -1.877  1.00  0.00    -0.463 OA
BRANCH   3   4
ATOM      4  C   UNL     1      -1.683   3.870  -0.590  1.00  0.00     0.318 C 
ATOM      5  O   UNL     1      -1.207   4.909  -0.174  1.00  0.00    -0.251 OA
BRANCH   4   6
ATOM      6  C   UNL     1      -2.519   2.809   0.162  1.00  0.00     0.128 C 
ATOM      7  N   UNL     1      -1.510   0.932   1.300  1.00  0.00    -0.335 N 
ATOM      8  C   UNL     1      -2.650   1.350   2.086  1.00  0.00     0.129 C 
ATOM      9  C   UNL     1      -1.580   1.589   0.024  1.00  0.00     0.142 C 
ATOM     10  C   UNL     1      -2.867   2.825   1.674  1.00  0.00     0.065 C 
ATOM     11  C   UNL     1      -4.292   3.223   1.996  1.00  0.00     0.000 A 
ATOM     12  C   UNL     1      -3.781   2.799  -0.697  1.00  0.00     0.251 C 
ATOM     13  C   UNL     1      -4.732   3.520   3.290  1.00  0.00     0.008 A 
ATOM     14  C   UNL     1      -5.262   3.177   0.999  1.00  0.00     0.122 A 
ATOM     15  O   UNL     1      -5.024   2.459  -0.133  1.00  0.00    -0.492 OA
ATOM     16  C   UNL     1      -6.069   3.882   3.522  1.00  0.00     0.001 A 
ATOM     17  C   UNL     1      -6.560   3.643   1.187  1.00  0.00     0.047 A 
ATOM     18  C   UNL     1      -6.965   4.011   2.461  1.00  0.00     0.004 A 
BRANCH   7  19
ATOM     19  C   UNL     1      -0.821  -0.253   1.552  1.00  0.00     0.283 C 
ATOM     20  O   UNL     1      -1.427  -1.158   2.134  1.00  0.00    -0.268 OA
BRANCH  19  21
ATOM     21  C   UNL     1       0.778  -0.256   1.377  1.00  0.00     0.171 C 
ATOM     22  C   UNL     1       1.314   0.788   0.376  1.00  0.00     0.090 C 
ATOM     23  C   UNL     1       1.236   0.242   2.776  1.00  0.00     0.090 C 
BRANCH  21  24
ATOM     24  N   UNL     1       1.436  -1.603   1.244  1.00  0.00    -0.319 N 
ATOM     25  C   UNL     1       2.688  -1.685   0.460  1.00  0.00     0.291 C 
ATOM     26  C   UNL     1       0.668  -2.823   0.955  1.00  0.00     0.291 C 
ATOM     27  H   UNL     1       1.614  -1.619   2.249  1.00  0.00     0.349 HD
ATOM     28  C   UNL     1       2.415  -1.871  -1.043  1.00  0.00     0.221 C 
ATOM     29  C   UNL     1       0.472  -3.121  -0.542  1.00  0.00     0.221 C 
ATOM     30  O   UNL     1       1.702  -3.088  -1.281  1.00  0.00    -0.370 OA
ENDBRANCH  21  24
ENDBRANCH  19  21
ENDBRANCH   7  19
ENDBRANCH   4   6
ENDBRANCH   3   4
ENDBRANCH   2   3
ENDBRANCH   1   2
BRANCH   1  31
ATOM     31  O   UNL     1      -2.821   3.770  -4.794  1.00  0.00    -0.374 OA
BRANCH  31  32
ATOM     32  C   UNL     1      -3.962   3.600  -3.959  1.00  0.00     0.202 C 
BRANCH  32  33
ATOM     33  C   UNL     1      -4.649   2.219  -3.944  1.00  0.00     0.261 C 
BRANCH  33  34
ATOM     34  O   UNL     1      -3.720   1.132  -4.027  1.00  0.00    -0.460 OA
BRANCH  34  35
ATOM     35  C   UNL     1      -3.630   0.606  -5.270  1.00  0.00     0.338 C 
ATOM     36  O   UNL     1      -4.322   0.868  -6.246  1.00  0.00    -0.246 OA
BRANCH  35  37
ATOM     37  C   UNL     1      -2.425  -0.223  -5.365  1.00  0.00     0.060 A 
ATOM     38  C   UNL     1      -2.295  -1.422  -4.663  1.00  0.00     0.016 A 
ATOM     39  C   UNL     1      -1.436   0.203  -6.257  1.00  0.00     0.016 A 
ATOM     40  C   UNL     1      -1.167  -2.218  -4.887  1.00  0.00     0.010 A 
ATOM     41  C   UNL     1      -0.317  -0.592  -6.480  1.00  0.00     0.010 A 
ATOM     42  C   UNL     1      -0.186  -1.819  -5.815  1.00  0.00    -0.014 A 
BRANCH  42  43
ATOM     43  C   UNL     1       0.914  -2.735  -6.201  1.00  0.00     0.031 A 
ATOM     44  C   UNL     1       2.321  -2.491  -5.750  1.00  0.00     0.074 A 
ATOM     45  C   UNL     1       0.629  -3.765  -7.019  1.00  0.00     0.049 A 
ATOM     46  N   UNL     1       3.399  -3.192  -5.997  1.00  0.00    -0.248 NA
ATOM     47  C   UNL     1       2.557  -1.295  -4.927  1.00  0.00     0.031 C 
ATOM     48  C   UNL     1      -0.700  -4.068  -7.554  1.00  0.00     0.029 A 
ATOM     49  N   UNL     1       1.431  -4.745  -7.545  1.00  0.00    -0.354 N 
ATOM     50  C   UNL     1       4.431  -2.548  -5.332  1.00  0.00     0.074 A 
ATOM     51  C   UNL     1       3.868  -1.358  -4.729  1.00  0.00     0.031 C 
ATOM     52  C   UNL     1      -0.628  -5.179  -8.304  1.00  0.00     0.029 A 
ATOM     53  C   UNL     1       0.754  -5.647  -8.330  1.00  0.00     0.049 A 
ATOM     54  H   UNL     1       2.399  -4.798  -7.375  1.00  0.00     0.167 HD
ATOM     55  C   UNL     1       5.724  -2.936  -5.215  1.00  0.00     0.037 A 
ATOM     56  C   UNL     1       1.200  -6.731  -8.992  1.00  0.00     0.037 A 
ATOM     57  C   UNL     1       6.277  -4.112  -5.839  1.00  0.00     0.049 A 
ATOM     58  C   UNL     1       2.657  -7.095  -8.900  1.00  0.00     0.074 A 
ATOM     59  C   UNL     1       7.574  -4.593  -5.772  1.00  0.00     0.029 A 
ATOM     60  N   UNL     1       5.569  -4.988  -6.649  1.00  0.00    -0.354 N 
ATOM     61  N   UNL     1       3.612  -6.517  -8.213  1.00  0.00    -0.248 NA
ATOM     62  C   UNL     1       3.097  -8.266  -9.671  1.00  0.00     0.031 C 
ATOM     63  C   UNL     1       7.663  -5.727  -6.582  1.00  0.00     0.029 A 
ATOM     64  C   UNL     1       6.409  -5.991  -7.107  1.00  0.00     0.049 A 
ATOM     65  H   UNL     1       4.612  -4.909  -6.865  1.00  0.00     0.167 HD
ATOM     66  C   UNL     1       4.755  -7.271  -8.440  1.00  0.00     0.074 A 
ATOM     67  C   UNL     1       4.371  -8.358  -9.316  1.00  0.00     0.031 C 
ATOM     68  C   UNL     1       6.010  -7.077  -7.966  1.00  0.00     0.037 A 
BRANCH  55  69
ATOM     69  C   UNL     1       6.637  -2.106  -4.359  1.00  0.00     0.064 A 
ATOM     70  C   UNL     1       6.511  -2.101  -2.962  1.00  0.00     0.173 A 
ATOM     71  C   UNL     1       7.710  -1.399  -4.923  1.00  0.00     0.173 A 
ATOM     72  F   UNL     1       5.504  -2.760  -2.372  1.00  0.00    -0.203 F 
ATOM     73  C   UNL     1       7.415  -1.409  -2.162  1.00  0.00     0.198 A 
ATOM     74  C   UNL     1       8.632  -0.735  -4.117  1.00  0.00     0.198 A 
ATOM     75  F   UNL     1       7.883  -1.378  -6.253  1.00  0.00    -0.203 F 
ATOM     76  F   UNL     1       7.252  -1.391  -0.832  1.00  0.00    -0.200 F 
ATOM     77  C   UNL     1       8.483  -0.738  -2.738  1.00  0.00     0.200 A 
ATOM     78  F   UNL     1       9.673  -0.102  -4.675  1.00  0.00    -0.200 F 
ATOM     79  F   UNL     1       9.368  -0.094  -1.965  1.00  0.00    -0.200 F 
ENDBRANCH  55  69
BRANCH  56  80
ATOM     80  C   UNL     1       0.248  -7.578  -9.758  1.00  0.00     0.064 A 
ATOM     81  C   UNL     1      -0.044  -8.883  -9.340  1.00  0.00     0.173 A 
ATOM     82  C   UNL     1      -0.389  -7.107 -10.916  1.00  0.00     0.173 A 
ATOM     83  F   UNL     1       0.553  -9.386  -8.249  1.00  0.00    -0.203 F 
ATOM     84  C   UNL     1      -0.919  -9.693 -10.060  1.00  0.00     0.198 A 
ATOM     85  C   UNL     1      -1.289  -7.906 -11.617  1.00  0.00     0.198 A 
ATOM     86  F   UNL     1      -0.148  -5.864 -11.357  1.00  0.00    -0.203 F 
ATOM     87  F   UNL     1      -1.143 -10.953  -9.664  1.00  0.00    -0.200 F 
ATOM     88  C   UNL     1      -1.547  -9.201 -11.194  1.00  0.00     0.200 A 
ATOM     89  F   UNL     1      -1.906  -7.421 -12.704  1.00  0.00    -0.200 F 
ATOM     90  F   UNL     1      -2.393  -9.977 -11.884  1.00  0.00    -0.200 F 
ENDBRANCH  56  80
BRANCH  68  91
ATOM     91  C   UNL     1       7.063  -8.076  -8.355  1.00  0.00     0.064 A 
ATOM     92  C   UNL     1       7.567  -8.142  -9.662  1.00  0.00     0.173 A 
ATOM     93  C   UNL     1       7.627  -8.925  -7.390  1.00  0.00     0.173 A 
ATOM     94  F   UNL     1       7.055  -7.361 -10.624  1.00  0.00    -0.203 F 
ATOM     95  C   UNL     1       8.584  -9.035  -9.992  1.00  0.00     0.198 A 
ATOM     96  C   UNL     1       8.666  -9.792  -7.716  1.00  0.00     0.198 A 
ATOM     97  F   UNL     1       7.188  -8.896  -6.122  1.00  0.00    -0.203 F 
ATOM     98  F   UNL     1       9.022  -9.109 -11.257  1.00  0.00    -0.200 F 
ATOM     99  C   UNL     1       9.140  -9.850  -9.018  1.00  0.00     0.200 A 
ATOM    100  F   UNL     1       9.216 -10.564  -6.769  1.00  0.00    -0.200 F 
ATOM    101  F   UNL     1      10.132 -10.693  -9.334  1.00  0.00    -0.200 F 
ENDBRANCH  68  91
ENDBRANCH  42  43
ENDBRANCH  35  37
ENDBRANCH  34  35
ENDBRANCH  33  34
ENDBRANCH  32  33
ENDBRANCH  31  32
ENDBRANCH   1  31
TORSDOF 17
