REMARK SMILES C[C@H]1[C@H](C(=O)OCCOCCOC(=O)c2ccc(-c3c4nc(c(-c5c(F)c(F)c(F)c(F)c5F)c5ccc([nH]5)c(-c5c(F)c(F)c(F)c(F)c5F)c5nc(c(-c6c(F)c(F)c(F)c(F)c6F)c6ccc3[nH]6)C=C5)C=C4)cc2)CCN1C(=O)c1ccc2ccccc2c1
REMARK SMILES IDX 9 1 8 2 7 3 6 4 4 5 5 6 3 7 1 8 2 9 80 10 78 11 79 12 81 13
REMARK SMILES IDX 82 14 83 15 84 16 92 17 85 18 91 19 86 20 90 21 87 22 89 23
REMARK SMILES IDX 88 24 10 25 11 26 12 27 13 28 14 29 15 30 16 31 77 32 17 33
REMARK SMILES IDX 76 34 18 35 19 36 20 37 70 38 21 39 75 40 69 41 71 42 22 43
REMARK SMILES IDX 74 44 68 45 67 46 23 48 55 49 35 50 54 51 36 52 39 53 53 54
REMARK SMILES IDX 72 55 37 56 38 57 52 59 73 60 40 61 24 62 25 63 33 64 26 65
REMARK SMILES IDX 27 66 31 67 34 68 28 69 29 70 32 71 30 72 56 73 57 74 65 75
REMARK SMILES IDX 58 76 59 77 63 78 66 79 60 80 61 81 64 82 62 83 41 84 42 85
REMARK SMILES IDX 50 86 43 87 44 88 48 89 51 90 45 91 46 92 49 93 47 94
REMARK H PARENT 71 47 39 58
REMARK Flexibility Score: inf
ROOT
ATOM      1  O   UNL     1       1.505   4.262   2.480  1.00  0.00    -0.374 OA
ENDROOT
BRANCH   1   2
ATOM      2  C   UNL     1       0.467   3.850   3.367  1.00  0.00     0.202 C 
BRANCH   2   3
ATOM      3  C   UNL     1      -0.838   3.365   2.730  1.00  0.00     0.261 C 
BRANCH   3   4
ATOM      4  O   UNL     1      -0.654   2.162   1.960  1.00  0.00    -0.463 OA
BRANCH   4   5
ATOM      5  C   UNL     1      -0.833   2.289   0.619  1.00  0.00     0.311 C 
ATOM      6  O   UNL     1      -1.172   3.320   0.051  1.00  0.00    -0.252 OA
BRANCH   5   7
ATOM      7  C   UNL     1      -0.638   0.992  -0.132  1.00  0.00     0.123 C 
ATOM      8  C   UNL     1       1.693   0.085  -0.432  1.00  0.00     0.032 C 
ATOM      9  C   UNL     1       0.419   0.002   0.415  1.00  0.00     0.096 C 
ATOM     10  N   UNL     1      -0.241  -1.312   0.332  1.00  0.00    -0.335 N 
ATOM     11  C   UNL     1      -1.954   0.222  -0.135  1.00  0.00     0.039 C 
ATOM     12  C   UNL     1      -1.524  -1.211  -0.336  1.00  0.00     0.121 C 
BRANCH  10  13
ATOM     13  C   UNL     1       0.135  -2.529   0.872  1.00  0.00     0.254 C 
ATOM     14  O   UNL     1      -0.629  -3.486   0.977  1.00  0.00    -0.269 OA
BRANCH  13  15
ATOM     15  C   UNL     1       1.539  -2.767   1.241  1.00  0.00     0.040 A 
ATOM     16  C   UNL     1       2.384  -3.257   0.242  1.00  0.00     0.014 A 
ATOM     17  C   UNL     1       1.964  -2.712   2.570  1.00  0.00     0.022 A 
ATOM     18  C   UNL     1       3.681  -3.651   0.562  1.00  0.00     0.009 A 
ATOM     19  C   UNL     1       3.266  -3.133   2.908  1.00  0.00    -0.018 A 
ATOM     20  C   UNL     1       4.135  -3.597   1.888  1.00  0.00    -0.018 A 
ATOM     21  C   UNL     1       3.725  -3.141   4.237  1.00  0.00     0.009 A 
ATOM     22  C   UNL     1       5.429  -4.028   2.220  1.00  0.00     0.009 A 
ATOM     23  C   UNL     1       5.016  -3.573   4.551  1.00  0.00     0.001 A 
ATOM     24  C   UNL     1       5.868  -4.013   3.543  1.00  0.00     0.001 A 
ENDBRANCH  13  15
ENDBRANCH  10  13
ENDBRANCH   5   7
ENDBRANCH   4   5
ENDBRANCH   3   4
ENDBRANCH   2   3
ENDBRANCH   1   2
BRANCH   1  25
ATOM     25  C   UNL     1       2.216   3.254   1.767  1.00  0.00     0.202 C 
BRANCH  25  26
ATOM     26  C   UNL     1       3.248   2.438   2.554  1.00  0.00     0.261 C 
BRANCH  26  27
ATOM     27  O   UNL     1       2.653   1.680   3.622  1.00  0.00    -0.460 OA
BRANCH  27  28
ATOM     28  C   UNL     1       2.987   2.118   4.861  1.00  0.00     0.338 C 
ATOM     29  O   UNL     1       3.772   3.008   5.144  1.00  0.00    -0.246 OA
BRANCH  28  30
ATOM     30  C   UNL     1       2.148   1.473   5.889  1.00  0.00     0.060 A 
ATOM     31  C   UNL     1       1.561   2.306   6.848  1.00  0.00     0.016 A 
ATOM     32  C   UNL     1       2.034   0.086   5.991  1.00  0.00     0.016 A 
ATOM     33  C   UNL     1       0.934   1.752   7.960  1.00  0.00     0.010 A 
ATOM     34  C   UNL     1       1.405  -0.472   7.111  1.00  0.00     0.010 A 
ATOM     35  C   UNL     1       0.903   0.361   8.127  1.00  0.00    -0.014 A 
BRANCH  35  36
ATOM     36  C   UNL     1       0.516  -0.181   9.454  1.00  0.00     0.031 A 
ATOM     37  C   UNL     1       1.598  -0.570  10.426  1.00  0.00     0.074 A 
ATOM     38  C   UNL     1      -0.775  -0.239   9.825  1.00  0.00     0.049 A 
ATOM     39  N   UNL     1       1.497  -0.981  11.665  1.00  0.00    -0.248 NA
ATOM     40  C   UNL     1       2.983  -0.481   9.936  1.00  0.00     0.031 C 
ATOM     41  C   UNL     1      -1.911   0.135   8.986  1.00  0.00     0.029 A 
ATOM     42  N   UNL     1      -1.344  -0.622  11.014  1.00  0.00    -0.354 N 
ATOM     43  C   UNL     1       2.799  -1.193  12.101  1.00  0.00     0.074 A 
ATOM     44  C   UNL     1       3.672  -0.908  10.983  1.00  0.00     0.031 C 
ATOM     45  C   UNL     1      -3.044  -0.030   9.689  1.00  0.00     0.029 A 
ATOM     46  C   UNL     1      -2.713  -0.536  11.020  1.00  0.00     0.049 A 
ATOM     47  H   UNL     1      -0.819  -0.928  11.788  1.00  0.00     0.167 HD
ATOM     48  C   UNL     1       3.230  -1.574  13.327  1.00  0.00     0.037 A 
ATOM     49  C   UNL     1      -3.597  -0.834  11.992  1.00  0.00     0.037 A 
ATOM     50  C   UNL     1       2.364  -1.852  14.442  1.00  0.00     0.049 A 
ATOM     51  C   UNL     1      -3.094  -1.298  13.334  1.00  0.00     0.074 A 
ATOM     52  C   UNL     1       2.705  -2.230  15.729  1.00  0.00     0.029 A 
ATOM     53  N   UNL     1       0.979  -1.787  14.399  1.00  0.00    -0.354 N 
ATOM     54  N   UNL     1      -1.860  -1.460  13.748  1.00  0.00    -0.248 NA
ATOM     55  C   UNL     1      -4.110  -1.608  14.350  1.00  0.00     0.031 C 
ATOM     56  C   UNL     1       1.525  -2.436  16.453  1.00  0.00     0.029 A 
ATOM     57  C   UNL     1       0.450  -2.137  15.632  1.00  0.00     0.049 A 
ATOM     58  H   UNL     1       0.450  -1.529  13.610  1.00  0.00     0.167 HD
ATOM     59  C   UNL     1      -1.950  -1.860  15.075  1.00  0.00     0.074 A 
ATOM     60  C   UNL     1      -3.360  -1.901  15.403  1.00  0.00     0.031 C 
ATOM     61  C   UNL     1      -0.955  -2.166  15.944  1.00  0.00     0.037 A 
BRANCH  48  62
ATOM     62  C   UNL     1       4.711  -1.729  13.522  1.00  0.00     0.064 A 
ATOM     63  C   UNL     1       5.567  -0.619  13.573  1.00  0.00     0.173 A 
ATOM     64  C   UNL     1       5.276  -3.002  13.688  1.00  0.00     0.173 A 
ATOM     65  F   UNL     1       5.079   0.619  13.404  1.00  0.00    -0.203 F 
ATOM     66  C   UNL     1       6.939  -0.780  13.756  1.00  0.00     0.198 A 
ATOM     67  C   UNL     1       6.643  -3.158  13.899  1.00  0.00     0.198 A 
ATOM     68  F   UNL     1       4.501  -4.097  13.650  1.00  0.00    -0.203 F 
ATOM     69  F   UNL     1       7.744   0.291  13.754  1.00  0.00    -0.200 F 
ATOM     70  C   UNL     1       7.474  -2.048  13.926  1.00  0.00     0.200 A 
ATOM     71  F   UNL     1       7.158  -4.383  14.073  1.00  0.00    -0.200 F 
ATOM     72  F   UNL     1       8.793  -2.201  14.107  1.00  0.00    -0.200 F 
ENDBRANCH  48  62
BRANCH  49  73
ATOM     73  C   UNL     1      -5.054  -0.690  11.738  1.00  0.00     0.064 A 
ATOM     74  C   UNL     1      -5.810   0.300  12.382  1.00  0.00     0.173 A 
ATOM     75  C   UNL     1      -5.724  -1.554  10.859  1.00  0.00     0.173 A 
ATOM     76  F   UNL     1      -5.219   1.133  13.251  1.00  0.00    -0.203 F 
ATOM     77  C   UNL     1      -7.183   0.407  12.172  1.00  0.00     0.198 A 
ATOM     78  C   UNL     1      -7.092  -1.428  10.629  1.00  0.00     0.198 A 
ATOM     79  F   UNL     1      -5.047  -2.518  10.220  1.00  0.00    -0.203 F 
ATOM     80  F   UNL     1      -7.890   1.331  12.837  1.00  0.00    -0.200 F 
ATOM     81  C   UNL     1      -7.822  -0.453  11.292  1.00  0.00     0.200 A 
ATOM     82  F   UNL     1      -7.704  -2.254   9.769  1.00  0.00    -0.200 F 
ATOM     83  F   UNL     1      -9.142  -0.348  11.089  1.00  0.00    -0.200 F 
ENDBRANCH  49  73
BRANCH  61  84
ATOM     84  C   UNL     1      -1.355  -2.536  17.344  1.00  0.00     0.064 A 
ATOM     85  C   UNL     1      -1.983  -3.756  17.634  1.00  0.00     0.173 A 
ATOM     86  C   UNL     1      -1.083  -1.667  18.413  1.00  0.00     0.173 A 
ATOM     87  F   UNL     1      -2.277  -4.615  16.646  1.00  0.00    -0.203 F 
ATOM     88  C   UNL     1      -2.355  -4.078  18.937  1.00  0.00     0.198 A 
ATOM     89  C   UNL     1      -1.429  -2.006  19.718  1.00  0.00     0.198 A 
ATOM     90  F   UNL     1      -0.476  -0.492  18.191  1.00  0.00    -0.203 F 
ATOM     91  F   UNL     1      -3.003  -5.225  19.182  1.00  0.00    -0.200 F 
ATOM     92  C   UNL     1      -2.073  -3.206  19.978  1.00  0.00     0.200 A 
ATOM     93  F   UNL     1      -1.143  -1.168  20.724  1.00  0.00    -0.200 F 
ATOM     94  F   UNL     1      -2.430  -3.518  21.231  1.00  0.00    -0.200 F 
ENDBRANCH  61  84
ENDBRANCH  35  36
ENDBRANCH  28  30
ENDBRANCH  27  28
ENDBRANCH  26  27
ENDBRANCH  25  26
ENDBRANCH   1  25
TORSDOF 16
