REMARK SMILES COc1cc([C@@H]2[NH2+][C@@H](C(=O)OCCOCCOC(=O)c3ccc(-c4c5nc(c(-c6c(F)c(F)c(F)c(F)c6F)c6ccc([nH]6)c(-c6c(F)c(F)c(F)c(F)c6F)c6nc(c(-c7c(F)c(F)c(F)c(F)c7F)c7ccc4[nH]7)C=C6)C=C5)cc3)CS2)cc(Cl)c1O
REMARK SMILES IDX 14 1 13 2 12 3 11 4 9 5 10 6 8 7 6 8 7 9 84 10 83 13 5 14
REMARK SMILES IDX 3 15 4 16 88 17 86 18 85 19 87 20 2 21 1 22 89 23 15 25
REMARK SMILES IDX 16 26 17 27 18 28 19 29 20 30 21 31 82 32 22 33 81 34 23 35
REMARK SMILES IDX 24 36 25 37 75 38 26 39 80 40 74 41 76 42 27 43 79 44 73 45
REMARK SMILES IDX 72 46 28 48 60 49 40 50 59 51 41 52 44 53 58 54 77 55 42 56
REMARK SMILES IDX 43 57 57 59 78 60 45 61 29 62 30 63 38 64 31 65 32 66 36 67
REMARK SMILES IDX 39 68 33 69 34 70 37 71 35 72 61 73 62 74 70 75 63 76 64 77
REMARK SMILES IDX 68 78 71 79 65 80 66 81 69 82 67 83 46 84 47 85 55 86 48 87
REMARK SMILES IDX 49 88 53 89 56 90 50 91 51 92 54 93 52 94
REMARK H PARENT 7 11 7 12 89 24 76 47 44 58
REMARK Flexibility Score: inf
ROOT
ATOM      1  O   UNL     1      -6.361   1.120  -6.622  1.00  0.00    -0.374 OA
ENDROOT
BRANCH   1   2
ATOM      2  C   UNL     1      -6.834   2.097  -5.699  1.00  0.00     0.202 C 
BRANCH   2   3
ATOM      3  C   UNL     1      -6.338   1.975  -4.255  1.00  0.00     0.261 C 
BRANCH   3   4
ATOM      4  O   UNL     1      -4.911   1.833  -4.187  1.00  0.00    -0.459 OA
BRANCH   4   5
ATOM      5  C   UNL     1      -4.473   0.731  -3.517  1.00  0.00     0.365 C 
ATOM      6  O   UNL     1      -5.190  -0.029  -2.873  1.00  0.00    -0.245 OA
BRANCH   5   7
ATOM      7  C   UNL     1      -2.988   0.448  -3.728  1.00  0.00     0.304 C 
ATOM      8  C   UNL     1      -1.059   1.053  -5.026  1.00  0.00     0.274 C 
ATOM      9  N   UNL     1      -2.217   1.587  -4.299  1.00  0.00    -0.319 N 
ATOM     10  S   UNL     1      -1.566  -0.493  -5.799  1.00  0.00    -0.087 SA
ATOM     11  H   UNL     1      -2.810   2.117  -4.939  1.00  0.00     0.348 HD
ATOM     12  H   UNL     1      -1.903   2.205  -3.551  1.00  0.00     0.348 HD
ATOM     13  C   UNL     1      -2.876  -0.807  -4.597  1.00  0.00     0.153 C 
BRANCH   8  14
ATOM     14  C   UNL     1       0.195   0.898  -4.181  1.00  0.00     0.025 A 
ATOM     15  C   UNL     1       1.396   0.046  -2.241  1.00  0.00     0.162 A 
ATOM     16  C   UNL     1       0.229   0.144  -2.996  1.00  0.00     0.061 A 
ATOM     17  C   UNL     1       2.581   0.625  -2.683  1.00  0.00     0.176 A 
ATOM     18  C   UNL     1       2.582   1.360  -3.865  1.00  0.00     0.087 A 
ATOM     19  C   UNL     1       1.398   1.501  -4.604  1.00  0.00     0.035 A 
ATOM     20  Cl  UNL     1       4.021   2.102  -4.459  1.00  0.00    -0.080 Cl
BRANCH  15  21
ATOM     21  O   UNL     1       1.380  -0.678  -1.078  1.00  0.00    -0.493 OA
ATOM     22  C   UNL     1       0.990   0.157   0.018  1.00  0.00     0.278 C 
ENDBRANCH  15  21
BRANCH  17  23
ATOM     23  O   UNL     1       3.724   0.450  -1.951  1.00  0.00    -0.503 OA
ATOM     24  H   UNL     1       3.700  -0.049  -1.158  1.00  0.00     0.293 HD
ENDBRANCH  17  23
ENDBRANCH   8  14
ENDBRANCH   5   7
ENDBRANCH   4   5
ENDBRANCH   3   4
ENDBRANCH   2   3
ENDBRANCH   1   2
BRANCH   1  25
ATOM     25  C   UNL     1      -5.029   1.261  -7.118  1.00  0.00     0.202 C 
BRANCH  25  26
ATOM     26  C   UNL     1      -4.752   2.439  -8.062  1.00  0.00     0.261 C 
BRANCH  26  27
ATOM     27  O   UNL     1      -4.856   3.711  -7.393  1.00  0.00    -0.460 OA
BRANCH  27  28
ATOM     28  C   UNL     1      -5.780   4.551  -7.919  1.00  0.00     0.338 C 
ATOM     29  O   UNL     1      -6.450   4.378  -8.928  1.00  0.00    -0.246 OA
BRANCH  28  30
ATOM     30  C   UNL     1      -6.038   5.678  -7.004  1.00  0.00     0.060 A 
ATOM     31  C   UNL     1      -7.355   5.865  -6.565  1.00  0.00     0.016 A 
ATOM     32  C   UNL     1      -5.042   6.597  -6.671  1.00  0.00     0.016 A 
ATOM     33  C   UNL     1      -7.694   7.002  -5.834  1.00  0.00     0.010 A 
ATOM     34  C   UNL     1      -5.386   7.744  -5.944  1.00  0.00     0.010 A 
ATOM     35  C   UNL     1      -6.720   7.969  -5.556  1.00  0.00    -0.014 A 
BRANCH  35  36
ATOM     36  C   UNL     1      -7.136   9.279  -4.994  1.00  0.00     0.031 A 
ATOM     37  C   UNL     1      -7.333  10.444  -5.925  1.00  0.00     0.074 A 
ATOM     38  C   UNL     1      -7.378   9.419  -3.679  1.00  0.00     0.049 A 
ATOM     39  N   UNL     1      -7.682  11.676  -5.653  1.00  0.00    -0.248 NA
ATOM     40  C   UNL     1      -7.107  10.184  -7.355  1.00  0.00     0.031 C 
ATOM     41  C   UNL     1      -7.266   8.357  -2.683  1.00  0.00     0.029 A 
ATOM     42  N   UNL     1      -7.769  10.520  -2.958  1.00  0.00    -0.354 N 
ATOM     43  C   UNL     1      -7.718  12.336  -6.874  1.00  0.00     0.074 A 
ATOM     44  C   UNL     1      -7.325  11.379  -7.886  1.00  0.00     0.031 C 
ATOM     45  C   UNL     1      -7.572   8.860  -1.475  1.00  0.00     0.029 A 
ATOM     46  C   UNL     1      -7.875  10.284  -1.610  1.00  0.00     0.049 A 
ATOM     47  H   UNL     1      -7.956  11.395  -3.369  1.00  0.00     0.167 HD
ATOM     48  C   UNL     1      -8.056  13.623  -7.130  1.00  0.00     0.037 A 
ATOM     49  C   UNL     1      -8.166  11.128  -0.601  1.00  0.00     0.037 A 
ATOM     50  C   UNL     1      -8.447  14.576  -6.126  1.00  0.00     0.049 A 
ATOM     51  C   UNL     1      -8.468  12.572  -0.904  1.00  0.00     0.074 A 
ATOM     52  C   UNL     1      -8.823  15.899  -6.290  1.00  0.00     0.029 A 
ATOM     53  N   UNL     1      -8.505  14.310  -4.766  1.00  0.00    -0.354 N 
ATOM     54  N   UNL     1      -8.521  13.182  -2.063  1.00  0.00    -0.248 NA
ATOM     55  C   UNL     1      -8.753  13.445   0.244  1.00  0.00     0.031 C 
ATOM     56  C   UNL     1      -9.064  16.445  -5.025  1.00  0.00     0.029 A 
ATOM     57  C   UNL     1      -8.886  15.450  -4.077  1.00  0.00     0.049 A 
ATOM     58  H   UNL     1      -8.305  13.439  -4.352  1.00  0.00     0.167 HD
ATOM     59  C   UNL     1      -8.871  14.498  -1.788  1.00  0.00     0.074 A 
ATOM     60  C   UNL     1      -9.029  14.596  -0.352  1.00  0.00     0.031 C 
ATOM     61  C   UNL     1      -9.047  15.531  -2.648  1.00  0.00     0.037 A 
BRANCH  48  62
ATOM     62  C   UNL     1      -7.997  14.082  -8.557  1.00  0.00     0.064 A 
ATOM     63  C   UNL     1      -8.947  13.669  -9.503  1.00  0.00     0.173 A 
ATOM     64  C   UNL     1      -6.998  14.973  -8.976  1.00  0.00     0.173 A 
ATOM     65  F   UNL     1      -9.915  12.806  -9.156  1.00  0.00    -0.203 F 
ATOM     66  C   UNL     1      -8.886  14.114 -10.821  1.00  0.00     0.198 A 
ATOM     67  C   UNL     1      -6.954  15.436 -10.288  1.00  0.00     0.198 A 
ATOM     68  F   UNL     1      -6.068  15.401  -8.109  1.00  0.00    -0.203 F 
ATOM     69  F   UNL     1      -9.779  13.674 -11.718  1.00  0.00    -0.200 F 
ATOM     70  C   UNL     1      -7.894  15.002 -11.211  1.00  0.00     0.200 A 
ATOM     71  F   UNL     1      -6.002  16.302 -10.660  1.00  0.00    -0.200 F 
ATOM     72  F   UNL     1      -7.839  15.434 -12.478  1.00  0.00    -0.200 F 
ENDBRANCH  48  62
BRANCH  49  73
ATOM     73  C   UNL     1      -8.175  10.631   0.800  1.00  0.00     0.064 A 
ATOM     74  C   UNL     1      -9.369  10.535   1.526  1.00  0.00     0.173 A 
ATOM     75  C   UNL     1      -6.986  10.260   1.445  1.00  0.00     0.173 A 
ATOM     76  F   UNL     1     -10.528  10.904   0.960  1.00  0.00    -0.203 F 
ATOM     77  C   UNL     1      -9.373  10.101   2.850  1.00  0.00     0.198 A 
ATOM     78  C   UNL     1      -6.994   9.802   2.760  1.00  0.00     0.198 A 
ATOM     79  F   UNL     1      -5.816  10.338   0.794  1.00  0.00    -0.203 F 
ATOM     80  F   UNL     1     -10.523  10.060   3.536  1.00  0.00    -0.200 F 
ATOM     81  C   UNL     1      -8.186   9.729   3.464  1.00  0.00     0.200 A 
ATOM     82  F   UNL     1      -5.846   9.434   3.346  1.00  0.00    -0.200 F 
ATOM     83  F   UNL     1      -8.190   9.309   4.737  1.00  0.00    -0.200 F 
ENDBRANCH  49  73
BRANCH  61  84
ATOM     84  C   UNL     1      -9.463  16.851  -2.066  1.00  0.00     0.064 A 
ATOM     85  C   UNL     1      -8.568  17.648  -1.337  1.00  0.00     0.173 A 
ATOM     86  C   UNL     1     -10.760  17.343  -2.277  1.00  0.00     0.173 A 
ATOM     87  F   UNL     1      -7.321  17.216  -1.096  1.00  0.00    -0.203 F 
ATOM     88  C   UNL     1      -8.965  18.879  -0.821  1.00  0.00     0.198 A 
ATOM     89  C   UNL     1     -11.145  18.586  -1.783  1.00  0.00     0.198 A 
ATOM     90  F   UNL     1     -11.651  16.622  -2.973  1.00  0.00    -0.203 F 
ATOM     91  F   UNL     1      -8.107  19.605  -0.090  1.00  0.00    -0.200 F 
ATOM     92  C   UNL     1     -10.249  19.350  -1.050  1.00  0.00     0.200 A 
ATOM     93  F   UNL     1     -12.382  19.045  -2.016  1.00  0.00    -0.200 F 
ATOM     94  F   UNL     1     -10.627  20.538  -0.558  1.00  0.00    -0.200 F 
ENDBRANCH  61  84
ENDBRANCH  35  36
ENDBRANCH  28  30
ENDBRANCH  27  28
ENDBRANCH  26  27
ENDBRANCH  25  26
ENDBRANCH   1  25
TORSDOF 17
