REMARK SMILES Cc1noc(C)c1CNc1cnc(C(=O)OCCOCCOC(=O)c2ccc(-c3c4nc(c(-c5c(F)c(F)c(F)c(F)c5F)c5ccc([nH]5)c(-c5c(F)c(F)c(F)c(F)c5F)c5nc(c(-c6c(F)c(F)c(F)c(F)c6F)c6ccc3[nH]6)C=C5)C=C4)cc2)cn1
REMARK SMILES IDX 18 1 17 2 16 3 14 4 15 5 13 6 10 7 11 8 89 9 12 10 88 11
REMARK SMILES IDX 9 12 8 14 7 15 1 16 2 17 3 18 4 19 5 20 6 21 19 22 20 23
REMARK SMILES IDX 21 24 22 25 23 26 24 27 25 28 26 29 87 30 27 31 86 32 28 33
REMARK SMILES IDX 29 34 30 35 80 36 31 37 85 38 79 39 81 40 32 41 84 42 78 43
REMARK SMILES IDX 77 44 33 46 65 47 45 48 64 49 46 50 49 51 63 52 82 53 47 54
REMARK SMILES IDX 48 55 62 57 83 58 50 59 34 60 35 61 43 62 36 63 37 64 41 65
REMARK SMILES IDX 44 66 38 67 39 68 42 69 40 70 66 71 67 72 75 73 68 74 69 75
REMARK SMILES IDX 73 76 76 77 70 78 71 79 74 80 72 81 51 82 52 83 60 84 53 85
REMARK SMILES IDX 54 86 58 87 61 88 55 89 56 90 59 91 57 92
REMARK H PARENT 9 13 81 45 49 56
REMARK Flexibility Score: inf
ROOT
ATOM      1  C   UNL     1      -6.939   8.338  -0.470  1.00  0.00     0.202 C 
ENDROOT
BRANCH   1   2
ATOM      2  C   UNL     1      -6.901   7.278   0.635  1.00  0.00     0.261 C 
BRANCH   2   3
ATOM      3  O   UNL     1      -5.630   6.607   0.651  1.00  0.00    -0.458 OA
BRANCH   3   4
ATOM      4  C   UNL     1      -5.646   5.328   0.204  1.00  0.00     0.358 C 
ATOM      5  O   UNL     1      -6.634   4.657  -0.059  1.00  0.00    -0.244 OA
BRANCH   4   6
ATOM      6  C   UNL     1      -4.274   4.870  -0.102  1.00  0.00     0.166 A 
ATOM      7  C   UNL     1      -1.852   3.885  -0.783  1.00  0.00     0.144 A 
ATOM      8  C   UNL     1      -2.017   4.822   0.243  1.00  0.00     0.158 A 
ATOM      9  N   UNL     1      -2.906   3.496  -1.525  1.00  0.00    -0.235 NA
ATOM     10  N   UNL     1      -3.218   5.344   0.607  1.00  0.00    -0.244 NA
ATOM     11  C   UNL     1      -4.116   3.983  -1.154  1.00  0.00     0.149 A 
BRANCH   7  12
ATOM     12  N   UNL     1      -0.662   3.256  -1.078  1.00  0.00    -0.365 N 
ATOM     13  H   UNL     1      -0.314   3.251  -1.999  1.00  0.00     0.162 HD
BRANCH  12  14
ATOM     14  C   UNL     1       0.072   2.599  -0.007  1.00  0.00     0.156 C 
BRANCH  14  15
ATOM     15  C   UNL     1       0.070   1.107  -0.037  1.00  0.00     0.037 A 
ATOM     16  C   UNL     1      -2.489   0.509  -0.011  1.00  0.00     0.071 C 
ATOM     17  C   UNL     1      -1.038   0.209  -0.029  1.00  0.00     0.086 A 
ATOM     18  N   UNL     1      -0.633  -1.066  -0.047  1.00  0.00    -0.085 NA
ATOM     19  O   UNL     1       0.744  -1.027  -0.061  1.00  0.00    -0.361 OA
ATOM     20  C   UNL     1       1.162   0.264  -0.052  1.00  0.00     0.138 A 
ATOM     21  C   UNL     1       2.622   0.474  -0.053  1.00  0.00     0.091 C 
ENDBRANCH  14  15
ENDBRANCH  12  14
ENDBRANCH   7  12
ENDBRANCH   4   6
ENDBRANCH   3   4
ENDBRANCH   2   3
ENDBRANCH   1   2
BRANCH   1  22
ATOM     22  O   UNL     1      -6.898   7.827  -1.804  1.00  0.00    -0.374 OA
BRANCH  22  23
ATOM     23  C   UNL     1      -5.604   7.559  -2.348  1.00  0.00     0.202 C 
BRANCH  23  24
ATOM     24  C   UNL     1      -4.871   8.767  -2.941  1.00  0.00     0.261 C 
BRANCH  24  25
ATOM     25  O   UNL     1      -4.507   9.710  -1.917  1.00  0.00    -0.460 OA
BRANCH  25  26
ATOM     26  C   UNL     1      -5.208  10.865  -1.942  1.00  0.00     0.338 C 
ATOM     27  O   UNL     1      -6.007  11.229  -2.795  1.00  0.00    -0.246 OA
BRANCH  26  28
ATOM     28  C   UNL     1      -5.014  11.614  -0.686  1.00  0.00     0.060 A 
ATOM     29  C   UNL     1      -6.163  12.117  -0.065  1.00  0.00     0.016 A 
ATOM     30  C   UNL     1      -3.747  11.895  -0.167  1.00  0.00     0.016 A 
ATOM     31  C   UNL     1      -6.048  12.969   1.030  1.00  0.00     0.010 A 
ATOM     32  C   UNL     1      -3.633  12.754   0.934  1.00  0.00     0.010 A 
ATOM     33  C   UNL     1      -4.781  13.333   1.505  1.00  0.00    -0.014 A 
BRANCH  33  34
ATOM     34  C   UNL     1      -4.680  14.449   2.478  1.00  0.00     0.031 A 
ATOM     35  C   UNL     1      -4.344  15.827   1.972  1.00  0.00     0.074 A 
ATOM     36  C   UNL     1      -4.956  14.256   3.780  1.00  0.00     0.049 A 
ATOM     37  N   UNL     1      -4.261  16.956   2.630  1.00  0.00    -0.248 NA
ATOM     38  C   UNL     1      -4.065  15.952   0.532  1.00  0.00     0.031 C 
ATOM     39  C   UNL     1      -5.317  12.977   4.387  1.00  0.00     0.029 A 
ATOM     40  N   UNL     1      -4.981  15.144   4.827  1.00  0.00    -0.354 N 
ATOM     41  C   UNL     1      -3.918  17.918   1.689  1.00  0.00     0.074 A 
ATOM     42  C   UNL     1      -3.778  17.241   0.419  1.00  0.00     0.031 C 
ATOM     43  C   UNL     1      -5.526  13.161   5.702  1.00  0.00     0.029 A 
ATOM     44  C   UNL     1      -5.295  14.567   6.032  1.00  0.00     0.049 A 
ATOM     45  H   UNL     1      -4.791  16.105   4.723  1.00  0.00     0.167 HD
ATOM     46  C   UNL     1      -3.748  19.250   1.865  1.00  0.00     0.037 A 
ATOM     47  C   UNL     1      -5.376  15.112   7.262  1.00  0.00     0.037 A 
ATOM     48  C   UNL     1      -3.914  19.931   3.121  1.00  0.00     0.049 A 
ATOM     49  C   UNL     1      -5.142  16.592   7.432  1.00  0.00     0.074 A 
ATOM     50  C   UNL     1      -3.818  21.286   3.385  1.00  0.00     0.029 A 
ATOM     51  N   UNL     1      -4.206  19.307   4.324  1.00  0.00    -0.354 N 
ATOM     52  N   UNL     1      -4.881  17.501   6.525  1.00  0.00    -0.248 NA
ATOM     53  C   UNL     1      -5.223  17.123   8.802  1.00  0.00     0.031 C 
ATOM     54  C   UNL     1      -4.001  21.477   4.758  1.00  0.00     0.029 A 
ATOM     55  C   UNL     1      -4.261  20.247   5.340  1.00  0.00     0.049 A 
ATOM     56  H   UNL     1      -4.353  18.340   4.439  1.00  0.00     0.167 HD
ATOM     57  C   UNL     1      -4.798  18.709   7.206  1.00  0.00     0.074 A 
ATOM     58  C   UNL     1      -5.053  18.422   8.601  1.00  0.00     0.031 C 
ATOM     59  C   UNL     1      -4.532  19.946   6.721  1.00  0.00     0.037 A 
BRANCH  46  60
ATOM     60  C   UNL     1      -3.350  20.070   0.675  1.00  0.00     0.064 A 
ATOM     61  C   UNL     1      -4.263  20.387  -0.341  1.00  0.00     0.173 A 
ATOM     62  C   UNL     1      -2.058  20.611   0.592  1.00  0.00     0.173 A 
ATOM     63  F   UNL     1      -5.506  19.884  -0.311  1.00  0.00    -0.203 F 
ATOM     64  C   UNL     1      -3.893  21.209  -1.402  1.00  0.00     0.198 A 
ATOM     65  C   UNL     1      -1.699  21.451  -0.458  1.00  0.00     0.198 A 
ATOM     66  F   UNL     1      -1.150  20.340   1.542  1.00  0.00    -0.203 F 
ATOM     67  F   UNL     1      -4.774  21.479  -2.376  1.00  0.00    -0.200 F 
ATOM     68  C   UNL     1      -2.616  21.748  -1.455  1.00  0.00     0.200 A 
ATOM     69  F   UNL     1      -0.469  21.980  -0.501  1.00  0.00    -0.200 F 
ATOM     70  F   UNL     1      -2.268  22.553  -2.468  1.00  0.00    -0.200 F 
ENDBRANCH  46  60
BRANCH  47  71
ATOM     71  C   UNL     1      -5.680  14.261   8.443  1.00  0.00     0.064 A 
ATOM     72  C   UNL     1      -6.875  14.413   9.161  1.00  0.00     0.173 A 
ATOM     73  C   UNL     1      -4.754  13.317   8.911  1.00  0.00     0.173 A 
ATOM     74  F   UNL     1      -7.780  15.321   8.769  1.00  0.00    -0.203 F 
ATOM     75  C   UNL     1      -7.116  13.678  10.320  1.00  0.00     0.198 A 
ATOM     76  C   UNL     1      -5.010  12.561  10.053  1.00  0.00     0.198 A 
ATOM     77  F   UNL     1      -3.594  13.134   8.263  1.00  0.00    -0.203 F 
ATOM     78  F   UNL     1      -8.237  13.889  11.023  1.00  0.00    -0.200 F 
ATOM     79  C   UNL     1      -6.185  12.751  10.763  1.00  0.00     0.200 A 
ATOM     80  F   UNL     1      -4.112  11.660  10.472  1.00  0.00    -0.200 F 
ATOM     81  F   UNL     1      -6.414  12.051  11.883  1.00  0.00    -0.200 F 
ENDBRANCH  47  71
BRANCH  59  82
ATOM     82  C   UNL     1      -4.537  21.088   7.696  1.00  0.00     0.064 A 
ATOM     83  C   UNL     1      -3.511  21.254   8.638  1.00  0.00     0.173 A 
ATOM     84  C   UNL     1      -5.558  22.050   7.659  1.00  0.00     0.173 A 
ATOM     85  F   UNL     1      -2.520  20.354   8.722  1.00  0.00    -0.203 F 
ATOM     86  C   UNL     1      -3.522  22.327   9.525  1.00  0.00     0.198 A 
ATOM     87  C   UNL     1      -5.549  23.138   8.527  1.00  0.00     0.198 A 
ATOM     88  F   UNL     1      -6.557  21.942   6.770  1.00  0.00    -0.203 F 
ATOM     89  F   UNL     1      -2.557  22.440  10.448  1.00  0.00    -0.200 F 
ATOM     90  C   UNL     1      -4.536  23.271   9.464  1.00  0.00     0.200 A 
ATOM     91  F   UNL     1      -6.522  24.057   8.457  1.00  0.00    -0.200 F 
ATOM     92  F   UNL     1      -4.540  24.308  10.313  1.00  0.00    -0.200 F 
ENDBRANCH  59  82
ENDBRANCH  33  34
ENDBRANCH  26  28
ENDBRANCH  25  26
ENDBRANCH  24  25
ENDBRANCH  23  24
ENDBRANCH  22  23
ENDBRANCH   1  22
TORSDOF 17
