REMARK SMILES O=C(OCCOCCOC(=O)[C@H](NC(=O)[C@H]1CC[C@@H](CNC(=O)[C@@H]2Cc3ccccc3C[NH2+]2)CC1)c1ccccc1)c1ccc(-c2c3nc(c(-c4c(F)c(F)c(F)c(F)c4F)c4ccc([nH]4)c(-c4c(F)c(F)c(F)c(F)c4F)c4nc(c(-c5c(F)c(F)c(F)c(F)c5F)c5ccc2[nH]5)C=C4)C=C3)cc1
REMARK SMILES IDX 7 1 6 2 5 3 4 4 3 5 2 6 1 7 42 8 43 9 104 10 44 11 103 12
REMARK SMILES IDX 45 13 46 14 47 15 97 16 48 17 102 18 96 19 98 20 49 21
REMARK SMILES IDX 101 22 95 23 94 24 50 26 82 27 62 28 81 29 63 30 66 31 80 32
REMARK SMILES IDX 99 33 64 34 65 35 79 37 100 38 67 39 51 40 52 41 60 42 53 43
REMARK SMILES IDX 54 44 58 45 61 46 55 47 56 48 59 49 57 50 83 51 84 52 92 53
REMARK SMILES IDX 85 54 86 55 90 56 93 57 87 58 88 59 91 60 89 61 68 62 69 63
REMARK SMILES IDX 77 64 70 65 71 66 75 67 78 68 72 69 73 70 76 71 74 72 8 73
REMARK SMILES IDX 9 74 10 75 11 76 12 77 36 78 37 79 41 80 38 81 40 82 39 83
REMARK SMILES IDX 13 84 14 85 15 87 16 88 35 89 17 90 34 91 18 92 19 93 20 94
REMARK SMILES IDX 21 95 22 96 23 98 24 99 25 100 33 101 26 102 32 103 27 106
REMARK SMILES IDX 31 107 28 108 30 109 29 110
REMARK H PARENT 98 25 66 36 13 86 21 97 33 104 33 105
REMARK Flexibility Score: inf
ROOT
ATOM      1  C   UNL     1       5.893 -21.340   2.137  1.00  0.00     0.202 C 
ENDROOT
BRANCH   1   2
ATOM      2  O   UNL     1       5.082 -21.234   0.967  1.00  0.00    -0.374 OA
BRANCH   2   3
ATOM      3  C   UNL     1       3.685 -21.484   1.112  1.00  0.00     0.202 C 
BRANCH   3   4
ATOM      4  C   UNL     1       3.273 -22.852   0.565  1.00  0.00     0.261 C 
BRANCH   4   5
ATOM      5  O   UNL     1       4.053 -23.895   1.158  1.00  0.00    -0.460 OA
BRANCH   5   6
ATOM      6  C   UNL     1       5.343 -24.178   0.864  1.00  0.00     0.338 C 
ATOM      7  O   UNL     1       6.023 -24.768   1.703  1.00  0.00    -0.246 OA
BRANCH   6   8
ATOM      8  C   UNL     1       5.972 -23.897  -0.466  1.00  0.00     0.060 A 
ATOM      9  C   UNL     1       5.746 -22.774  -1.273  1.00  0.00     0.016 A 
ATOM     10  C   UNL     1       6.956 -24.812  -0.873  1.00  0.00     0.016 A 
ATOM     11  C   UNL     1       6.470 -22.551  -2.432  1.00  0.00     0.010 A 
ATOM     12  C   UNL     1       7.682 -24.608  -2.045  1.00  0.00     0.010 A 
ATOM     13  C   UNL     1       7.429 -23.474  -2.823  1.00  0.00    -0.014 A 
BRANCH  13  14
ATOM     14  C   UNL     1       8.023 -23.320  -4.153  1.00  0.00     0.031 A 
ATOM     15  C   UNL     1       7.435 -24.129  -5.258  1.00  0.00     0.074 A 
ATOM     16  C   UNL     1       8.992 -22.414  -4.352  1.00  0.00     0.049 A 
ATOM     17  N   UNL     1       7.855 -24.296  -6.479  1.00  0.00    -0.248 NA
ATOM     18  C   UNL     1       6.192 -24.852  -4.937  1.00  0.00     0.031 C 
ATOM     19  C   UNL     1       9.501 -21.490  -3.337  1.00  0.00     0.029 A 
ATOM     20  N   UNL     1       9.718 -22.122  -5.472  1.00  0.00    -0.354 N 
ATOM     21  C   UNL     1       6.955 -25.179  -7.058  1.00  0.00     0.074 A 
ATOM     22  C   UNL     1       5.962 -25.506  -6.063  1.00  0.00     0.031 C 
ATOM     23  C   UNL     1      10.479 -20.746  -3.879  1.00  0.00     0.029 A 
ATOM     24  C   UNL     1      10.706 -21.197  -5.248  1.00  0.00     0.049 A 
ATOM     25  H   UNL     1       9.549 -22.533  -6.350  1.00  0.00     0.167 HD
ATOM     26  C   UNL     1       6.990 -25.682  -8.312  1.00  0.00     0.037 A 
ATOM     27  C   UNL     1      11.715 -20.819  -6.053  1.00  0.00     0.037 A 
ATOM     28  C   UNL     1       8.014 -25.328  -9.256  1.00  0.00     0.049 A 
ATOM     29  C   UNL     1      11.791 -21.456  -7.416  1.00  0.00     0.074 A 
ATOM     30  C   UNL     1       8.211 -25.791 -10.540  1.00  0.00     0.029 A 
ATOM     31  N   UNL     1       9.028 -24.412  -8.992  1.00  0.00    -0.354 N 
ATOM     32  N   UNL     1      10.988 -22.345  -7.955  1.00  0.00    -0.248 NA
ATOM     33  C   UNL     1      12.909 -21.057  -8.276  1.00  0.00     0.031 C 
ATOM     34  C   UNL     1       9.379 -25.197 -11.033  1.00  0.00     0.029 A 
ATOM     35  C   UNL     1       9.872 -24.313 -10.082  1.00  0.00     0.049 A 
ATOM     36  H   UNL     1       9.129 -23.907  -8.153  1.00  0.00     0.167 HD
ATOM     37  C   UNL     1      11.489 -22.602  -9.222  1.00  0.00     0.074 A 
ATOM     38  C   UNL     1      12.665 -21.764  -9.372  1.00  0.00     0.031 C 
ATOM     39  C   UNL     1      11.027 -23.449 -10.176  1.00  0.00     0.037 A 
BRANCH  26  40
ATOM     40  C   UNL     1       5.967 -26.727  -8.650  1.00  0.00     0.064 A 
ATOM     41  C   UNL     1       4.598 -26.434  -8.751  1.00  0.00     0.173 A 
ATOM     42  C   UNL     1       6.359 -28.068  -8.784  1.00  0.00     0.173 A 
ATOM     43  F   UNL     1       4.164 -25.174  -8.598  1.00  0.00    -0.203 F 
ATOM     44  C   UNL     1       3.657 -27.449  -8.918  1.00  0.00     0.198 A 
ATOM     45  C   UNL     1       5.419 -29.076  -8.985  1.00  0.00     0.198 A 
ATOM     46  F   UNL     1       7.653 -28.409  -8.686  1.00  0.00    -0.203 F 
ATOM     47  F   UNL     1       2.349 -27.155  -8.920  1.00  0.00    -0.200 F 
ATOM     48  C   UNL     1       4.069 -28.768  -9.036  1.00  0.00     0.200 A 
ATOM     49  F   UNL     1       5.820 -30.350  -9.100  1.00  0.00    -0.200 F 
ATOM     50  F   UNL     1       3.162 -29.745  -9.174  1.00  0.00    -0.200 F 
ENDBRANCH  26  40
BRANCH  27  51
ATOM     51  C   UNL     1      12.737 -19.862  -5.556  1.00  0.00     0.064 A 
ATOM     52  C   UNL     1      12.858 -18.575  -6.093  1.00  0.00     0.173 A 
ATOM     53  C   UNL     1      13.590 -20.204  -4.493  1.00  0.00     0.173 A 
ATOM     54  F   UNL     1      12.081 -18.202  -7.120  1.00  0.00    -0.203 F 
ATOM     55  C   UNL     1      13.790 -17.667  -5.588  1.00  0.00     0.198 A 
ATOM     56  C   UNL     1      14.501 -19.288  -3.970  1.00  0.00     0.198 A 
ATOM     57  F   UNL     1      13.518 -21.423  -3.938  1.00  0.00    -0.203 F 
ATOM     58  F   UNL     1      13.903 -16.450  -6.137  1.00  0.00    -0.200 F 
ATOM     59  C   UNL     1      14.603 -18.021  -4.521  1.00  0.00     0.200 A 
ATOM     60  F   UNL     1      15.269 -19.630  -2.927  1.00  0.00    -0.200 F 
ATOM     61  F   UNL     1      15.485 -17.142  -4.025  1.00  0.00    -0.200 F 
ENDBRANCH  27  51
BRANCH  39  62
ATOM     62  C   UNL     1      11.771 -23.478 -11.476  1.00  0.00     0.064 A 
ATOM     63  C   UNL     1      13.009 -24.122 -11.598  1.00  0.00     0.173 A 
ATOM     64  C   UNL     1      11.181 -22.943 -12.631  1.00  0.00     0.173 A 
ATOM     65  F   UNL     1      13.614 -24.635 -10.517  1.00  0.00    -0.203 F 
ATOM     66  C   UNL     1      13.636 -24.223 -12.836  1.00  0.00     0.198 A 
ATOM     67  C   UNL     1      11.796 -23.073 -13.870  1.00  0.00     0.198 A 
ATOM     68  F   UNL     1       9.992 -22.326 -12.559  1.00  0.00    -0.203 F 
ATOM     69  F   UNL     1      14.833 -24.818 -12.931  1.00  0.00    -0.200 F 
ATOM     70  C   UNL     1      13.024 -23.711 -13.971  1.00  0.00     0.200 A 
ATOM     71  F   UNL     1      11.195 -22.596 -14.968  1.00  0.00    -0.200 F 
ATOM     72  F   UNL     1      13.617 -23.834 -15.166  1.00  0.00    -0.200 F 
ENDBRANCH  39  62
ENDBRANCH  13  14
ENDBRANCH   6   8
ENDBRANCH   5   6
ENDBRANCH   4   5
ENDBRANCH   3   4
ENDBRANCH   2   3
ENDBRANCH   1   2
BRANCH   1  73
ATOM     73  C   UNL     1       6.451 -19.965   2.493  1.00  0.00     0.261 C 
BRANCH  73  74
ATOM     74  O   UNL     1       5.356 -19.092   2.795  1.00  0.00    -0.461 OA
BRANCH  74  75
ATOM     75  C   UNL     1       4.785 -18.530   1.690  1.00  0.00     0.333 C 
ATOM     76  O   UNL     1       5.228 -18.566   0.551  1.00  0.00    -0.249 OA
BRANCH  75  77
ATOM     77  C   UNL     1       3.481 -17.812   2.069  1.00  0.00     0.223 C 
BRANCH  77  78
ATOM     78  C   UNL     1       3.855 -16.397   2.448  1.00  0.00    -0.014 A 
ATOM     79  C   UNL     1       4.672 -15.615   1.603  1.00  0.00     0.006 A 
ATOM     80  C   UNL     1       3.440 -15.853   3.670  1.00  0.00     0.006 A 
ATOM     81  C   UNL     1       5.008 -14.307   1.940  1.00  0.00     0.000 A 
ATOM     82  C   UNL     1       3.796 -14.547   4.014  1.00  0.00     0.000 A 
ATOM     83  C   UNL     1       4.566 -13.773   3.145  1.00  0.00     0.000 A 
ENDBRANCH  77  78
BRANCH  77  84
ATOM     84  N   UNL     1       2.563 -18.031   0.922  1.00  0.00    -0.339 N 
ATOM     85  C   UNL     1       1.244 -17.755   0.717  1.00  0.00     0.224 C 
ATOM     86  H   UNL     1       2.997 -18.464   0.152  1.00  0.00     0.164 HD
ATOM     87  O   UNL     1       0.590 -18.523   0.011  1.00  0.00    -0.275 OA
BRANCH  85  88
ATOM     88  C   UNL     1       0.669 -16.469   1.274  1.00  0.00     0.078 C 
ATOM     89  C   UNL     1       1.479 -15.327   0.675  1.00  0.00     0.014 C 
ATOM     90  C   UNL     1      -0.799 -16.191   0.886  1.00  0.00     0.014 C 
ATOM     91  C   UNL     1       1.145 -14.050   1.414  1.00  0.00     0.006 C 
ATOM     92  C   UNL     1      -1.260 -14.768   1.285  1.00  0.00     0.006 C 
ATOM     93  C   UNL     1      -0.253 -13.621   0.993  1.00  0.00     0.008 C 
BRANCH  93  94
ATOM     94  C   UNL     1      -0.206 -13.191  -0.488  1.00  0.00     0.119 C 
BRANCH  94  95
ATOM     95  N   UNL     1      -1.313 -12.338  -0.816  1.00  0.00    -0.351 N 
ATOM     96  C   UNL     1      -1.401 -11.007  -1.028  1.00  0.00     0.278 C 
ATOM     97  H   UNL     1      -2.171 -12.814  -0.904  1.00  0.00     0.163 HD
ATOM     98  O   UNL     1      -2.548 -10.590  -1.257  1.00  0.00    -0.268 OA
BRANCH  96  99
ATOM     99  C   UNL     1      -0.189 -10.025  -1.109  1.00  0.00     0.277 C 
ATOM    100  C   UNL     1       0.916 -10.143  -0.022  1.00  0.00     0.111 C 
ATOM    101  N   UNL     1      -0.789  -8.653  -1.243  1.00  0.00    -0.332 N 
ATOM    102  C   UNL     1       1.641  -8.830   0.204  1.00  0.00    -0.033 A 
ATOM    103  C   UNL     1      -0.617  -7.847  -0.039  1.00  0.00     0.298 C 
ATOM    104  H   UNL     1      -1.786  -8.749  -1.432  1.00  0.00     0.347 HD
ATOM    105  H   UNL     1      -0.306  -8.177  -2.005  1.00  0.00     0.347 HD
ATOM    106  C   UNL     1       3.023  -8.728   0.383  1.00  0.00     0.004 A 
ATOM    107  C   UNL     1       0.854  -7.666   0.207  1.00  0.00     0.010 A 
ATOM    108  C   UNL     1       3.614  -7.469   0.528  1.00  0.00     0.000 A 
ATOM    109  C   UNL     1       1.447  -6.412   0.368  1.00  0.00     0.010 A 
ATOM    110  C   UNL     1       2.829  -6.314   0.518  1.00  0.00     0.001 A 
ENDBRANCH  96  99
ENDBRANCH  94  95
ENDBRANCH  93  94
ENDBRANCH  85  88
ENDBRANCH  77  84
ENDBRANCH  75  77
ENDBRANCH  74  75
ENDBRANCH  73  74
ENDBRANCH   1  73
TORSDOF 20
