REMARK SMILES C[C@@H](c1ccccc1)[C@@H](CC(=O)Nc1ccccc1I)C(=O)OCCOCCOC(=O)c1ccc(-c2c3nc(c(-c4c(F)c(F)c(F)c(F)c4F)c4ccc([nH]4)c(-c4c(F)c(F)c(F)c(F)c4F)c4nc(c(-c5c(F)c(F)c(F)c(F)c5F)c5ccc2[nH]5)C=C4)C=C3)cc1
REMARK SMILES IDX 25 1 24 2 23 3 21 4 22 5 9 6 2 7 1 8 3 9 4 10 8 11 5 12 7 13
REMARK SMILES IDX 6 14 10 15 11 16 12 17 13 18 14 20 15 21 19 22 16 23 18 24
REMARK SMILES IDX 20 25 17 26 26 27 27 28 28 29 29 30 30 31 31 32 32 33 33 34
REMARK SMILES IDX 94 35 34 36 93 37 35 38 36 39 37 40 87 41 38 42 92 43 86 44
REMARK SMILES IDX 88 45 39 46 91 47 85 48 84 49 40 51 72 52 52 53 71 54 53 55
REMARK SMILES IDX 56 56 70 57 89 58 54 59 55 60 69 62 90 63 57 64 41 65 42 66
REMARK SMILES IDX 50 67 43 68 44 69 48 70 51 71 45 72 46 73 49 74 47 75 73 76
REMARK SMILES IDX 74 77 82 78 75 79 76 80 80 81 83 82 77 83 78 84 81 85 79 86
REMARK SMILES IDX 58 87 59 88 67 89 60 90 61 91 65 92 68 93 62 94 63 95 66 96
REMARK SMILES IDX 64 97
REMARK H PARENT 13 19 88 50 56 61
REMARK Flexibility Score: inf
ROOT
ATOM      1  C   UNL     1      -2.002  -0.619   5.415  1.00  0.00     0.202 C 
ENDROOT
BRANCH   1   2
ATOM      2  C   UNL     1      -2.376  -1.268   4.082  1.00  0.00     0.261 C 
BRANCH   2   3
ATOM      3  O   UNL     1      -1.446  -0.940   3.024  1.00  0.00    -0.463 OA
BRANCH   3   4
ATOM      4  C   UNL     1      -1.967  -0.222   1.998  1.00  0.00     0.310 C 
ATOM      5  O   UNL     1      -3.062   0.331   2.013  1.00  0.00    -0.252 OA
BRANCH   4   6
ATOM      6  C   UNL     1      -1.101  -0.231   0.750  1.00  0.00     0.116 C 
BRANCH   6   7
ATOM      7  C   UNL     1       0.318   0.358   0.875  1.00  0.00     0.031 C 
ATOM      8  C   UNL     1       0.873   0.679  -0.532  1.00  0.00     0.013 C 
BRANCH   7   9
ATOM      9  C   UNL     1       0.575   1.611   1.700  1.00  0.00    -0.044 A 
ATOM     10  C   UNL     1       1.627   1.591   2.636  1.00  0.00     0.004 A 
ATOM     11  C   UNL     1      -0.041   2.837   1.417  1.00  0.00     0.004 A 
ATOM     12  C   UNL     1       2.087   2.767   3.228  1.00  0.00     0.000 A 
ATOM     13  C   UNL     1       0.427   4.015   2.008  1.00  0.00     0.000 A 
ATOM     14  C   UNL     1       1.496   3.982   2.902  1.00  0.00     0.000 A 
ENDBRANCH   7   9
ENDBRANCH   6   7
BRANCH   6  15
ATOM     15  C   UNL     1      -1.143  -1.623   0.060  1.00  0.00     0.116 C 
BRANCH  15  16
ATOM     16  C   UNL     1      -0.703  -2.851   0.847  1.00  0.00     0.225 C 
ATOM     17  O   UNL     1      -1.518  -3.444   1.564  1.00  0.00    -0.275 OA
ATOM     18  N   UNL     1       0.558  -3.380   0.778  1.00  0.00    -0.325 N 
ATOM     19  H   UNL     1       0.630  -4.344   0.961  1.00  0.00     0.169 HD
BRANCH  18  20
ATOM     20  C   UNL     1       1.763  -2.721   0.479  1.00  0.00     0.054 A 
ATOM     21  C   UNL     1       2.142  -2.469  -0.839  1.00  0.00     0.027 A 
ATOM     22  C   UNL     1       2.638  -2.372   1.523  1.00  0.00     0.037 A 
ATOM     23  C   UNL     1       3.339  -1.788  -1.103  1.00  0.00     0.002 A 
ATOM     24  C   UNL     1       3.800  -1.641   1.263  1.00  0.00     0.017 A 
ATOM     25  I   UNL     1       2.197  -2.839   3.514  1.00  0.00    -0.042 I 
ATOM     26  C   UNL     1       4.145  -1.342  -0.053  1.00  0.00     0.001 A 
ENDBRANCH  18  20
ENDBRANCH  15  16
ENDBRANCH   6  15
ENDBRANCH   4   6
ENDBRANCH   3   4
ENDBRANCH   2   3
ENDBRANCH   1   2
BRANCH   1  27
ATOM     27  O   UNL     1      -2.305   0.776   5.483  1.00  0.00    -0.374 OA
BRANCH  27  28
ATOM     28  C   UNL     1      -1.309   1.643   4.931  1.00  0.00     0.202 C 
BRANCH  28  29
ATOM     29  C   UNL     1      -0.196   1.957   5.931  1.00  0.00     0.261 C 
BRANCH  29  30
ATOM     30  O   UNL     1       0.629   0.791   6.108  1.00  0.00    -0.460 OA
BRANCH  30  31
ATOM     31  C   UNL     1       1.085   0.623   7.368  1.00  0.00     0.338 C 
ATOM     32  O   UNL     1       1.102   1.442   8.268  1.00  0.00    -0.246 OA
BRANCH  31  33
ATOM     33  C   UNL     1       1.393  -0.801   7.573  1.00  0.00     0.060 A 
ATOM     34  C   UNL     1       0.576  -1.514   8.454  1.00  0.00     0.016 A 
ATOM     35  C   UNL     1       2.501  -1.408   6.983  1.00  0.00     0.016 A 
ATOM     36  C   UNL     1       0.912  -2.820   8.804  1.00  0.00     0.010 A 
ATOM     37  C   UNL     1       2.818  -2.733   7.315  1.00  0.00     0.010 A 
ATOM     38  C   UNL     1       2.058  -3.430   8.269  1.00  0.00    -0.014 A 
BRANCH  38  39
ATOM     39  C   UNL     1       2.509  -4.724   8.851  1.00  0.00     0.031 A 
ATOM     40  C   UNL     1       3.699  -4.749   9.775  1.00  0.00     0.074 A 
ATOM     41  C   UNL     1       1.800  -5.852   8.654  1.00  0.00     0.049 A 
ATOM     42  N   UNL     1       4.125  -5.713  10.554  1.00  0.00    -0.248 NA
ATOM     43  C   UNL     1       4.523  -3.532   9.827  1.00  0.00     0.031 C 
ATOM     44  C   UNL     1       0.650  -5.983   7.763  1.00  0.00     0.029 A 
ATOM     45  N   UNL     1       1.930  -7.097   9.221  1.00  0.00    -0.354 N 
ATOM     46  C   UNL     1       5.254  -5.214  11.192  1.00  0.00     0.074 A 
ATOM     47  C   UNL     1       5.484  -3.886  10.666  1.00  0.00     0.031 C 
ATOM     48  C   UNL     1       0.154  -7.228   7.870  1.00  0.00     0.029 A 
ATOM     49  C   UNL     1       0.951  -7.981   8.838  1.00  0.00     0.049 A 
ATOM     50  H   UNL     1       2.656  -7.333   9.843  1.00  0.00     0.167 HD
ATOM     51  C   UNL     1       6.015  -5.792  12.151  1.00  0.00     0.037 A 
ATOM     52  C   UNL     1       0.706  -9.242   9.243  1.00  0.00     0.037 A 
ATOM     53  C   UNL     1       5.787  -7.104  12.694  1.00  0.00     0.049 A 
ATOM     54  C   UNL     1       1.555  -9.860  10.323  1.00  0.00     0.074 A 
ATOM     55  C   UNL     1       6.478  -7.754  13.702  1.00  0.00     0.029 A 
ATOM     56  N   UNL     1       4.791  -7.969  12.269  1.00  0.00    -0.354 N 
ATOM     57  N   UNL     1       2.564  -9.345  10.982  1.00  0.00    -0.248 NA
ATOM     58  C   UNL     1       1.213 -11.231  10.731  1.00  0.00     0.031 C 
ATOM     59  C   UNL     1       5.926  -9.031  13.858  1.00  0.00     0.029 A 
ATOM     60  C   UNL     1       4.862  -9.157  12.980  1.00  0.00     0.049 A 
ATOM     61  H   UNL     1       4.130  -7.769  11.567  1.00  0.00     0.167 HD
ATOM     62  C   UNL     1       2.959 -10.314  11.896  1.00  0.00     0.074 A 
ATOM     63  C   UNL     1       2.069 -11.442  11.721  1.00  0.00     0.031 C 
ATOM     64  C   UNL     1       3.970 -10.273  12.799  1.00  0.00     0.037 A 
BRANCH  51  65
ATOM     65  C   UNL     1       7.174  -4.999  12.679  1.00  0.00     0.064 A 
ATOM     66  C   UNL     1       6.983  -3.883  13.508  1.00  0.00     0.173 A 
ATOM     67  C   UNL     1       8.491  -5.372  12.372  1.00  0.00     0.173 A 
ATOM     68  F   UNL     1       5.742  -3.477  13.818  1.00  0.00    -0.203 F 
ATOM     69  C   UNL     1       8.068  -3.154  13.989  1.00  0.00     0.198 A 
ATOM     70  C   UNL     1       9.573  -4.657  12.876  1.00  0.00     0.198 A 
ATOM     71  F   UNL     1       8.727  -6.433  11.586  1.00  0.00    -0.203 F 
ATOM     72  F   UNL     1       7.860  -2.063  14.739  1.00  0.00    -0.200 F 
ATOM     73  C   UNL     1       9.361  -3.545  13.677  1.00  0.00     0.200 A 
ATOM     74  F   UNL     1      10.823  -5.041  12.583  1.00  0.00    -0.200 F 
ATOM     75  F   UNL     1      10.404  -2.844  14.143  1.00  0.00    -0.200 F 
ENDBRANCH  51  65
BRANCH  52  76
ATOM     76  C   UNL     1      -0.432  -9.998   8.656  1.00  0.00     0.064 A 
ATOM     77  C   UNL     1      -1.579 -10.283   9.410  1.00  0.00     0.173 A 
ATOM     78  C   UNL     1      -0.385 -10.463   7.335  1.00  0.00     0.173 A 
ATOM     79  F   UNL     1      -1.657  -9.881  10.687  1.00  0.00    -0.203 F 
ATOM     80  C   UNL     1      -2.629 -11.021   8.870  1.00  0.00     0.198 A 
ATOM     81  C   UNL     1      -1.447 -11.180   6.787  1.00  0.00     0.198 A 
ATOM     82  F   UNL     1       0.692 -10.219   6.574  1.00  0.00    -0.203 F 
ATOM     83  F   UNL     1      -3.695 -11.320   9.626  1.00  0.00    -0.200 F 
ATOM     84  C   UNL     1      -2.565 -11.465   7.557  1.00  0.00     0.200 A 
ATOM     85  F   UNL     1      -1.384 -11.601   5.517  1.00  0.00    -0.200 F 
ATOM     86  F   UNL     1      -3.575 -12.175   7.037  1.00  0.00    -0.200 F 
ENDBRANCH  52  76
BRANCH  64  87
ATOM     87  C   UNL     1       4.156 -11.472  13.683  1.00  0.00     0.064 A 
ATOM     88  C   UNL     1       4.659 -12.683  13.183  1.00  0.00     0.173 A 
ATOM     89  C   UNL     1       3.854 -11.402  15.051  1.00  0.00     0.173 A 
ATOM     90  F   UNL     1       4.952 -12.805  11.879  1.00  0.00    -0.203 F 
ATOM     91  C   UNL     1       4.822 -13.788  14.014  1.00  0.00     0.198 A 
ATOM     92  C   UNL     1       4.045 -12.501  15.885  1.00  0.00     0.198 A 
ATOM     93  F   UNL     1       3.380 -10.265  15.582  1.00  0.00    -0.203 F 
ATOM     94  F   UNL     1       5.255 -14.949  13.504  1.00  0.00    -0.200 F 
ATOM     95  C   UNL     1       4.520 -13.695  15.364  1.00  0.00     0.200 A 
ATOM     96  F   UNL     1       3.764 -12.406  17.192  1.00  0.00    -0.200 F 
ATOM     97  F   UNL     1       4.678 -14.760  16.162  1.00  0.00    -0.200 F 
ENDBRANCH  64  87
ENDBRANCH  38  39
ENDBRANCH  31  33
ENDBRANCH  30  31
ENDBRANCH  29  30
ENDBRANCH  28  29
ENDBRANCH  27  28
ENDBRANCH   1  27
TORSDOF 19
