REMARK SMILES Cc1nc(C)c(C(=O)N2CCC([C@H](C)C(=O)OCCOCCOC(=O)c3ccc(-c4c5nc(c(-c6c(F)c(F)c(F)c(F)c6F)c6ccc([nH]6)c(-c6c(F)c(F)c(F)c(F)c6F)c6nc(c(-c7c(F)c(F)c(F)c(F)c7F)c7ccc4[nH]7)C=C6)C=C5)cc3)CC2)s1
REMARK SMILES IDX 20 1 19 2 18 3 17 4 15 5 16 6 13 7 14 8 12 9 7 10 8 11 9 12
REMARK SMILES IDX 10 13 90 14 11 15 89 16 6 17 1 18 2 19 3 20 91 21 4 22 5 23
REMARK SMILES IDX 21 24 22 25 23 26 24 27 25 28 26 29 27 30 88 31 28 32 87 33
REMARK SMILES IDX 29 34 30 35 31 36 81 37 32 38 86 39 80 40 82 41 33 42 85 43
REMARK SMILES IDX 79 44 78 45 34 47 66 48 46 49 65 50 47 51 50 52 64 53 83 54
REMARK SMILES IDX 48 55 49 56 63 58 84 59 51 60 35 61 36 62 44 63 37 64 38 65
REMARK SMILES IDX 42 66 45 67 39 68 40 69 43 70 41 71 67 72 68 73 76 74 69 75
REMARK SMILES IDX 70 76 74 77 77 78 71 79 72 80 75 81 73 82 52 83 53 84 61 85
REMARK SMILES IDX 54 86 55 87 59 88 62 89 56 90 57 91 60 92 58 93
REMARK H PARENT 82 46 50 57
REMARK Flexibility Score: inf
ROOT
ATOM      1  O   UNL     1       0.775  -6.864   5.684  1.00  0.00    -0.374 OA
ENDROOT
BRANCH   1   2
ATOM      2  C   UNL     1       1.871  -7.658   5.236  1.00  0.00     0.202 C 
BRANCH   2   3
ATOM      3  C   UNL     1       1.538  -8.800   4.272  1.00  0.00     0.261 C 
BRANCH   3   4
ATOM      4  O   UNL     1       1.116  -8.315   2.985  1.00  0.00    -0.463 OA
BRANCH   4   5
ATOM      5  C   UNL     1      -0.177  -8.569   2.643  1.00  0.00     0.309 C 
ATOM      6  O   UNL     1      -0.988  -9.169   3.337  1.00  0.00    -0.252 OA
BRANCH   5   7
ATOM      7  C   UNL     1      -0.500  -8.076   1.240  1.00  0.00     0.099 C 
ATOM      8  C   UNL     1      -0.022  -6.634   1.027  1.00  0.00     0.020 C 
BRANCH   7   9
ATOM      9  C   UNL     1      -0.132  -9.112   0.135  1.00  0.00     0.006 C 
ATOM     10  C   UNL     1       2.563 -11.305  -2.342  1.00  0.00     0.265 C 
ATOM     11  O   UNL     1       3.322 -10.561  -2.967  1.00  0.00    -0.268 OA
ATOM     12  N   UNL     1       1.478 -10.768  -1.642  1.00  0.00    -0.338 N 
ATOM     13  C   UNL     1       0.849  -9.563  -2.156  1.00  0.00     0.120 C 
ATOM     14  C   UNL     1       0.850 -11.380  -0.476  1.00  0.00     0.120 C 
ATOM     15  C   UNL     1       0.617  -8.519  -1.072  1.00  0.00     0.026 C 
ATOM     16  C   UNL     1       0.637 -10.354   0.637  1.00  0.00     0.026 C 
BRANCH  10  17
ATOM     17  C   UNL     1       2.743 -12.746  -2.356  1.00  0.00     0.115 A 
ATOM     18  C   UNL     1       1.928 -16.521  -2.787  1.00  0.00     0.079 C 
ATOM     19  C   UNL     1       2.467 -15.146  -2.610  1.00  0.00     0.091 A 
ATOM     20  N   UNL     1       3.745 -14.855  -2.505  1.00  0.00    -0.246 NA
ATOM     21  S   UNL     1       1.406 -13.806  -2.580  1.00  0.00    -0.113 S 
ATOM     22  C   UNL     1       3.919 -13.479  -2.406  1.00  0.00     0.061 A 
ATOM     23  C   UNL     1       5.314 -12.960  -2.392  1.00  0.00     0.068 C 
ENDBRANCH  10  17
ENDBRANCH   7   9
ENDBRANCH   5   7
ENDBRANCH   4   5
ENDBRANCH   3   4
ENDBRANCH   2   3
ENDBRANCH   1   2
BRANCH   1  24
ATOM     24  C   UNL     1       0.218  -5.927   4.765  1.00  0.00     0.202 C 
BRANCH  24  25
ATOM     25  C   UNL     1       1.025  -4.646   4.524  1.00  0.00     0.261 C 
BRANCH  25  26
ATOM     26  O   UNL     1       2.281  -4.902   3.867  1.00  0.00    -0.460 OA
BRANCH  26  27
ATOM     27  C   UNL     1       3.373  -4.604   4.607  1.00  0.00     0.338 C 
ATOM     28  O   UNL     1       3.400  -4.090   5.719  1.00  0.00    -0.246 OA
BRANCH  27  29
ATOM     29  C   UNL     1       4.596  -5.120   3.969  1.00  0.00     0.060 A 
ATOM     30  C   UNL     1       5.420  -5.952   4.738  1.00  0.00     0.016 A 
ATOM     31  C   UNL     1       4.999  -4.697   2.700  1.00  0.00     0.016 A 
ATOM     32  C   UNL     1       6.681  -6.311   4.269  1.00  0.00     0.010 A 
ATOM     33  C   UNL     1       6.270  -5.054   2.234  1.00  0.00     0.010 A 
ATOM     34  C   UNL     1       7.132  -5.824   3.036  1.00  0.00    -0.014 A 
BRANCH  34  35
ATOM     35  C   UNL     1       8.561  -5.987   2.675  1.00  0.00     0.031 A 
ATOM     36  C   UNL     1       9.514  -4.852   2.932  1.00  0.00     0.074 A 
ATOM     37  C   UNL     1       9.016  -7.145   2.166  1.00  0.00     0.049 A 
ATOM     38  N   UNL     1      10.800  -4.775   2.700  1.00  0.00    -0.248 NA
ATOM     39  C   UNL     1       8.937  -3.640   3.534  1.00  0.00     0.031 C 
ATOM     40  C   UNL     1       8.200  -8.325   1.899  1.00  0.00     0.029 A 
ATOM     41  N   UNL     1      10.281  -7.511   1.779  1.00  0.00    -0.354 N 
ATOM     42  C   UNL     1      11.185  -3.510   3.125  1.00  0.00     0.074 A 
ATOM     43  C   UNL     1       9.992  -2.841   3.598  1.00  0.00     0.031 C 
ATOM     44  C   UNL     1       8.981  -9.283   1.372  1.00  0.00     0.029 A 
ATOM     45  C   UNL     1      10.346  -8.773   1.245  1.00  0.00     0.049 A 
ATOM     46  H   UNL     1      11.066  -6.924   1.874  1.00  0.00     0.167 HD
ATOM     47  C   UNL     1      12.422  -2.960   3.130  1.00  0.00     0.037 A 
ATOM     48  C   UNL     1      11.386  -9.433   0.698  1.00  0.00     0.037 A 
ATOM     49  C   UNL     1      13.609  -3.623   2.657  1.00  0.00     0.049 A 
ATOM     50  C   UNL     1      12.743  -8.781   0.663  1.00  0.00     0.074 A 
ATOM     51  C   UNL     1      14.912  -3.159   2.643  1.00  0.00     0.029 A 
ATOM     52  N   UNL     1      13.632  -4.895   2.103  1.00  0.00    -0.354 N 
ATOM     53  N   UNL     1      13.106  -7.599   1.100  1.00  0.00    -0.248 NA
ATOM     54  C   UNL     1      13.838  -9.560   0.066  1.00  0.00     0.031 C 
ATOM     55  C   UNL     1      15.717  -4.131   2.038  1.00  0.00     0.029 A 
ATOM     56  C   UNL     1      14.923  -5.220   1.718  1.00  0.00     0.049 A 
ATOM     57  H   UNL     1      12.847  -5.479   1.998  1.00  0.00     0.167 HD
ATOM     58  C   UNL     1      14.468  -7.499   0.848  1.00  0.00     0.074 A 
ATOM     59  C   UNL     1      14.871  -8.746   0.234  1.00  0.00     0.031 C 
ATOM     60  C   UNL     1      15.308  -6.465   1.104  1.00  0.00     0.037 A 
BRANCH  47  61
ATOM     61  C   UNL     1      12.547  -1.556   3.644  1.00  0.00     0.064 A 
ATOM     62  C   UNL     1      12.416  -1.256   5.008  1.00  0.00     0.173 A 
ATOM     63  C   UNL     1      12.814  -0.498   2.762  1.00  0.00     0.173 A 
ATOM     64  F   UNL     1      12.147  -2.230   5.890  1.00  0.00    -0.203 F 
ATOM     65  C   UNL     1      12.517   0.055   5.466  1.00  0.00     0.198 A 
ATOM     66  C   UNL     1      12.940   0.808   3.226  1.00  0.00     0.198 A 
ATOM     67  F   UNL     1      12.952  -0.731   1.448  1.00  0.00    -0.203 F 
ATOM     68  F   UNL     1      12.338   0.325   6.767  1.00  0.00    -0.200 F 
ATOM     69  C   UNL     1      12.783   1.085   4.576  1.00  0.00     0.200 A 
ATOM     70  F   UNL     1      13.207   1.801   2.366  1.00  0.00    -0.200 F 
ATOM     71  F   UNL     1      12.879   2.347   5.018  1.00  0.00    -0.200 F 
ENDBRANCH  47  61
BRANCH  48  72
ATOM     72  C   UNL     1      11.172 -10.786   0.125  1.00  0.00     0.064 A 
ATOM     73  C   UNL     1      11.695 -11.929   0.743  1.00  0.00     0.173 A 
ATOM     74  C   UNL     1      10.428 -10.961  -1.052  1.00  0.00     0.173 A 
ATOM     75  F   UNL     1      12.433 -11.809   1.857  1.00  0.00    -0.203 F 
ATOM     76  C   UNL     1      11.491 -13.196   0.201  1.00  0.00     0.198 A 
ATOM     77  C   UNL     1      10.201 -12.230  -1.578  1.00  0.00     0.198 A 
ATOM     78  F   UNL     1       9.908  -9.897  -1.681  1.00  0.00    -0.203 F 
ATOM     79  F   UNL     1      12.031 -14.270   0.792  1.00  0.00    -0.200 F 
ATOM     80  C   UNL     1      10.737 -13.346  -0.954  1.00  0.00     0.200 A 
ATOM     81  F   UNL     1       9.461 -12.371  -2.686  1.00  0.00    -0.200 F 
ATOM     82  F   UNL     1      10.534 -14.566  -1.469  1.00  0.00    -0.200 F 
ENDBRANCH  48  72
BRANCH  60  83
ATOM     83  C   UNL     1      16.753  -6.645   0.737  1.00  0.00     0.064 A 
ATOM     84  C   UNL     1      17.180  -6.617  -0.599  1.00  0.00     0.173 A 
ATOM     85  C   UNL     1      17.726  -6.801   1.735  1.00  0.00     0.173 A 
ATOM     86  F   UNL     1      16.286  -6.485  -1.590  1.00  0.00    -0.203 F 
ATOM     87  C   UNL     1      18.526  -6.761  -0.922  1.00  0.00     0.198 A 
ATOM     88  C   UNL     1      19.075  -6.917   1.409  1.00  0.00     0.198 A 
ATOM     89  F   UNL     1      17.371  -6.827   3.029  1.00  0.00    -0.203 F 
ATOM     90  F   UNL     1      18.907  -6.773  -2.207  1.00  0.00    -0.200 F 
ATOM     91  C   UNL     1      19.473  -6.903   0.081  1.00  0.00     0.200 A 
ATOM     92  F   UNL     1      19.989  -7.043   2.381  1.00  0.00    -0.200 F 
ATOM     93  F   UNL     1      20.770  -7.034  -0.232  1.00  0.00    -0.200 F 
ENDBRANCH  60  83
ENDBRANCH  34  35
ENDBRANCH  27  29
ENDBRANCH  26  27
ENDBRANCH  25  26
ENDBRANCH  24  25
ENDBRANCH   1  24
TORSDOF 16
