REMARK SMILES O=C(C[C@H](C(=O)Nc1ccc([N+](=O)[O-])cc1)[C@H]1CCCO1)OCCOCCOC(=O)c1ccc(-c2c3nc(c(-c4c(F)c(F)c(F)c(F)c4F)c4ccc([nH]4)c(-c4c(F)c(F)c(F)c(F)c4F)c4nc(c(-c5c(F)c(F)c(F)c(F)c5F)c5ccc2[nH]5)C=C4)C=C3)cc1
REMARK SMILES IDX 24 1 23 2 22 3 2 4 1 5 3 6 4 7 5 8 6 9 7 10 8 12 9 13 16 14
REMARK SMILES IDX 10 15 15 16 11 17 12 18 13 19 14 20 17 21 18 22 21 23 19 24
REMARK SMILES IDX 20 25 25 26 26 27 27 28 28 29 29 30 30 31 31 32 32 33 93 34
REMARK SMILES IDX 33 35 92 36 34 37 35 38 36 39 86 40 37 41 91 42 85 43 87 44
REMARK SMILES IDX 38 45 90 46 84 47 83 48 39 50 71 51 51 52 70 53 52 54 55 55
REMARK SMILES IDX 69 56 88 57 53 58 54 59 68 61 89 62 56 63 40 64 41 65 49 66
REMARK SMILES IDX 42 67 43 68 47 69 50 70 44 71 45 72 48 73 46 74 72 75 73 76
REMARK SMILES IDX 81 77 74 78 75 79 79 80 82 81 76 82 77 83 80 84 78 85 57 86
REMARK SMILES IDX 58 87 66 88 59 89 60 90 64 91 67 92 61 93 62 94 65 95 63 96
REMARK H PARENT 7 11 87 49 55 60
REMARK Flexibility Score: inf
ROOT
ATOM      1  C   UNL     1       9.131  -1.614  -0.497  1.00  0.00     0.202 C 
ENDROOT
BRANCH   1   2
ATOM      2  C   UNL     1       7.633  -1.887  -0.315  1.00  0.00     0.261 C 
BRANCH   2   3
ATOM      3  O   UNL     1       7.133  -3.040  -1.004  1.00  0.00    -0.463 OA
BRANCH   3   4
ATOM      4  C   UNL     1       6.702  -3.047  -2.287  1.00  0.00     0.306 C 
ATOM      5  O   UNL     1       6.513  -4.119  -2.857  1.00  0.00    -0.252 OA
BRANCH   4   6
ATOM      6  C   UNL     1       6.482  -1.736  -2.985  1.00  0.00     0.139 C 
BRANCH   6   7
ATOM      7  C   UNL     1       5.087  -1.107  -2.870  1.00  0.00     0.119 C 
BRANCH   7   8
ATOM      8  C   UNL     1       4.932  -0.201  -1.644  1.00  0.00     0.230 C 
ATOM      9  O   UNL     1       5.570   0.865  -1.636  1.00  0.00    -0.274 OA
ATOM     10  N   UNL     1       4.127  -0.390  -0.570  1.00  0.00    -0.326 N 
ATOM     11  H   UNL     1       3.952   0.448  -0.084  1.00  0.00     0.169 HD
BRANCH  10  12
ATOM     12  C   UNL     1       3.485  -1.486   0.019  1.00  0.00     0.041 A 
ATOM     13  C   UNL     1       2.374  -1.223   0.830  1.00  0.00     0.033 A 
ATOM     14  C   UNL     1       3.925  -2.798  -0.087  1.00  0.00     0.033 A 
ATOM     15  C   UNL     1       1.646  -2.270   1.411  1.00  0.00     0.088 A 
ATOM     16  C   UNL     1       3.215  -3.858   0.483  1.00  0.00     0.088 A 
ATOM     17  C   UNL     1       2.056  -3.592   1.208  1.00  0.00     0.269 A 
BRANCH  17  18
ATOM     18  N   UNL     1       1.261  -4.702   1.742  1.00  0.00     0.062 N 
ATOM     19  O   UNL     1       0.265  -4.419   2.422  1.00  0.00    -0.258 OA
ATOM     20  O   UNL     1       1.628  -5.856   1.478  1.00  0.00    -0.258 OA
ENDBRANCH  17  18
ENDBRANCH  10  12
ENDBRANCH   7   8
BRANCH   7  21
ATOM     21  C   UNL     1       3.856  -1.889  -3.356  1.00  0.00     0.131 C 
ATOM     22  C   UNL     1       3.825  -2.119  -4.874  1.00  0.00     0.035 C 
ATOM     23  O   UNL     1       3.764  -3.184  -2.765  1.00  0.00    -0.377 OA
ATOM     24  C   UNL     1       4.045  -3.604  -5.036  1.00  0.00     0.031 C 
ATOM     25  C   UNL     1       3.446  -4.150  -3.768  1.00  0.00     0.160 C 
ENDBRANCH   7  21
ENDBRANCH   6   7
ENDBRANCH   4   6
ENDBRANCH   3   4
ENDBRANCH   2   3
ENDBRANCH   1   2
BRANCH   1  26
ATOM     26  O   UNL     1       9.825  -2.290  -1.532  1.00  0.00    -0.374 OA
BRANCH  26  27
ATOM     27  C   UNL     1       9.897  -3.716  -1.520  1.00  0.00     0.202 C 
BRANCH  27  28
ATOM     28  C   UNL     1      10.282  -4.450  -0.231  1.00  0.00     0.261 C 
BRANCH  28  29
ATOM     29  O   UNL     1       9.350  -4.254   0.850  1.00  0.00    -0.460 OA
BRANCH  29  30
ATOM     30  C   UNL     1       9.894  -3.722   1.966  1.00  0.00     0.338 C 
ATOM     31  O   UNL     1      11.053  -3.366   2.127  1.00  0.00    -0.246 OA
BRANCH  30  32
ATOM     32  C   UNL     1       8.881  -3.486   3.006  1.00  0.00     0.060 A 
ATOM     33  C   UNL     1       8.787  -2.189   3.526  1.00  0.00     0.016 A 
ATOM     34  C   UNL     1       8.222  -4.553   3.621  1.00  0.00     0.016 A 
ATOM     35  C   UNL     1       8.122  -1.972   4.728  1.00  0.00     0.010 A 
ATOM     36  C   UNL     1       7.563  -4.335   4.836  1.00  0.00     0.010 A 
ATOM     37  C   UNL     1       7.578  -3.058   5.426  1.00  0.00    -0.014 A 
BRANCH  37  38
ATOM     38  C   UNL     1       7.302  -2.891   6.875  1.00  0.00     0.031 A 
ATOM     39  C   UNL     1       8.401  -3.224   7.851  1.00  0.00     0.074 A 
ATOM     40  C   UNL     1       6.139  -2.382   7.313  1.00  0.00     0.049 A 
ATOM     41  N   UNL     1       8.426  -3.099   9.154  1.00  0.00    -0.248 NA
ATOM     42  C   UNL     1       9.644  -3.768   7.278  1.00  0.00     0.031 C 
ATOM     43  C   UNL     1       5.018  -1.985   6.467  1.00  0.00     0.029 A 
ATOM     44  N   UNL     1       5.719  -2.104   8.589  1.00  0.00    -0.354 N 
ATOM     45  C   UNL     1       9.680  -3.547   9.552  1.00  0.00     0.074 A 
ATOM     46  C   UNL     1      10.378  -3.974   8.360  1.00  0.00     0.031 C 
ATOM     47  C   UNL     1       4.032  -1.510   7.250  1.00  0.00     0.029 A 
ATOM     48  C   UNL     1       4.451  -1.584   8.649  1.00  0.00     0.049 A 
ATOM     49  H   UNL     1       6.275  -2.263   9.386  1.00  0.00     0.167 HD
ATOM     50  C   UNL     1      10.209  -3.589  10.797  1.00  0.00     0.037 A 
ATOM     51  C   UNL     1       3.718  -1.212   9.716  1.00  0.00     0.037 A 
ATOM     52  C   UNL     1       9.521  -3.163  11.985  1.00  0.00     0.049 A 
ATOM     53  C   UNL     1       4.313  -1.311  11.097  1.00  0.00     0.074 A 
ATOM     54  C   UNL     1       9.973  -3.160  13.293  1.00  0.00     0.029 A 
ATOM     55  N   UNL     1       8.228  -2.666  12.005  1.00  0.00    -0.354 N 
ATOM     56  N   UNL     1       5.510  -1.704  11.460  1.00  0.00    -0.248 NA
ATOM     57  C   UNL     1       3.454  -0.902  12.218  1.00  0.00     0.031 C 
ATOM     58  C   UNL     1       8.938  -2.692  14.111  1.00  0.00     0.029 A 
ATOM     59  C   UNL     1       7.858  -2.366  13.306  1.00  0.00     0.049 A 
ATOM     60  H   UNL     1       7.656  -2.543  11.213  1.00  0.00     0.167 HD
ATOM     61  C   UNL     1       5.561  -1.555  12.840  1.00  0.00     0.074 A 
ATOM     62  C   UNL     1       4.275  -1.032  13.251  1.00  0.00     0.031 C 
ATOM     63  C   UNL     1       6.582  -1.823  13.691  1.00  0.00     0.037 A 
BRANCH  50  64
ATOM     64  C   UNL     1      11.596  -4.142  10.935  1.00  0.00     0.064 A 
ATOM     65  C   UNL     1      12.722  -3.413  10.525  1.00  0.00     0.173 A 
ATOM     66  C   UNL     1      11.801  -5.413  11.492  1.00  0.00     0.173 A 
ATOM     67  F   UNL     1      12.576  -2.201   9.970  1.00  0.00    -0.203 F 
ATOM     68  C   UNL     1      14.002  -3.947  10.647  1.00  0.00     0.198 A 
ATOM     69  C   UNL     1      13.084  -5.934  11.633  1.00  0.00     0.198 A 
ATOM     70  F   UNL     1      10.756  -6.149  11.899  1.00  0.00    -0.203 F 
ATOM     71  F   UNL     1      15.062  -3.252  10.209  1.00  0.00    -0.200 F 
ATOM     72  C   UNL     1      14.182  -5.204  11.205  1.00  0.00     0.200 A 
ATOM     73  F   UNL     1      13.257  -7.146  12.179  1.00  0.00    -0.200 F 
ATOM     74  F   UNL     1      15.415  -5.717  11.321  1.00  0.00    -0.200 F 
ENDBRANCH  50  64
BRANCH  51  75
ATOM     75  C   UNL     1       2.342  -0.689   9.524  1.00  0.00     0.064 A 
ATOM     76  C   UNL     1       2.047   0.663   9.746  1.00  0.00     0.173 A 
ATOM     77  C   UNL     1       1.293  -1.533   9.134  1.00  0.00     0.173 A 
ATOM     78  F   UNL     1       3.014   1.503  10.144  1.00  0.00    -0.203 F 
ATOM     79  C   UNL     1       0.749   1.148   9.601  1.00  0.00     0.198 A 
ATOM     80  C   UNL     1       0.000  -1.042   8.967  1.00  0.00     0.198 A 
ATOM     81  F   UNL     1       1.526  -2.834   8.912  1.00  0.00    -0.203 F 
ATOM     82  F   UNL     1       0.485   2.437   9.858  1.00  0.00    -0.200 F 
ATOM     83  C   UNL     1      -0.272   0.297   9.207  1.00  0.00     0.200 A 
ATOM     84  F   UNL     1      -0.983  -1.865   8.578  1.00  0.00    -0.200 F 
ATOM     85  F   UNL     1      -1.520   0.765   9.066  1.00  0.00    -0.200 F 
ENDBRANCH  51  75
BRANCH  63  86
ATOM     86  C   UNL     1       6.371  -1.506  15.142  1.00  0.00     0.064 A 
ATOM     87  C   UNL     1       5.551  -2.297  15.958  1.00  0.00     0.173 A 
ATOM     88  C   UNL     1       7.033  -0.417  15.729  1.00  0.00     0.173 A 
ATOM     89  F   UNL     1       4.888  -3.341  15.439  1.00  0.00    -0.203 F 
ATOM     90  C   UNL     1       5.382  -1.995  17.307  1.00  0.00     0.198 A 
ATOM     91  C   UNL     1       6.881  -0.133  17.083  1.00  0.00     0.198 A 
ATOM     92  F   UNL     1       7.835   0.365  14.991  1.00  0.00    -0.203 F 
ATOM     93  F   UNL     1       4.560  -2.738  18.060  1.00  0.00    -0.200 F 
ATOM     94  C   UNL     1       6.051  -0.917  17.869  1.00  0.00     0.200 A 
ATOM     95  F   UNL     1       7.536   0.902  17.627  1.00  0.00    -0.200 F 
ATOM     96  F   UNL     1       5.888  -0.630  19.168  1.00  0.00    -0.200 F 
ENDBRANCH  63  86
ENDBRANCH  37  38
ENDBRANCH  30  32
ENDBRANCH  29  30
ENDBRANCH  28  29
ENDBRANCH  27  28
ENDBRANCH  26  27
ENDBRANCH   1  26
TORSDOF 19
