REMARK SMILES O=C(OCCOCCOC(=O)c1c(F)cccc1NS(=O)(=O)C(F)(F)F)c1ccc(-c2c3nc(c(-c4c(F)c(F)c(F)c(F)c4F)c4ccc([nH]4)c(-c4c(F)c(F)c(F)c(F)c4F)c4nc(c(-c5c(F)c(F)c(F)c(F)c5F)c5ccc2[nH]5)C=C4)C=C3)cc1
REMARK SMILES IDX 7 1 6 2 5 3 4 4 3 5 2 6 1 7 27 8 28 9 89 10 29 11 88 12
REMARK SMILES IDX 30 13 31 14 32 15 82 16 33 17 87 18 81 19 83 20 34 21 86 22
REMARK SMILES IDX 80 23 79 24 35 26 67 27 47 28 66 29 48 30 51 31 65 32 84 33
REMARK SMILES IDX 49 34 50 35 64 37 85 38 52 39 36 40 37 41 45 42 38 43 39 44
REMARK SMILES IDX 43 45 46 46 40 47 41 48 44 49 42 50 68 51 69 52 77 53 70 54
REMARK SMILES IDX 71 55 75 56 78 57 72 58 73 59 76 60 74 61 53 62 54 63 62 64
REMARK SMILES IDX 55 65 56 66 60 67 63 68 57 69 58 70 61 71 59 72 8 73 9 74
REMARK SMILES IDX 10 75 11 76 12 77 13 78 18 79 14 80 15 81 17 82 16 83 19 84
REMARK SMILES IDX 20 86 21 87 22 88 23 89 24 90 25 91 26 92
REMARK H PARENT 83 25 51 36 19 85
REMARK Flexibility Score: inf
ROOT
ATOM      1  C   UNL     1       2.648  -1.364  -1.781  1.00  0.00     0.202 C 
ENDROOT
BRANCH   1   2
ATOM      2  O   UNL     1       3.870  -0.878  -1.237  1.00  0.00    -0.374 OA
BRANCH   2   3
ATOM      3  C   UNL     1       4.242  -1.401   0.034  1.00  0.00     0.202 C 
BRANCH   3   4
ATOM      4  C   UNL     1       3.865  -0.490   1.204  1.00  0.00     0.261 C 
BRANCH   4   5
ATOM      5  O   UNL     1       2.468  -0.158   1.141  1.00  0.00    -0.460 OA
BRANCH   5   6
ATOM      6  C   UNL     1       1.916   0.971   0.639  1.00  0.00     0.338 C 
ATOM      7  O   UNL     1       0.692   1.094   0.664  1.00  0.00    -0.246 OA
BRANCH   6   8
ATOM      8  C   UNL     1       2.713   2.108   0.086  1.00  0.00     0.060 A 
ATOM      9  C   UNL     1       3.925   1.979  -0.595  1.00  0.00     0.016 A 
ATOM     10  C   UNL     1       2.147   3.389   0.179  1.00  0.00     0.016 A 
ATOM     11  C   UNL     1       4.576   3.066  -1.147  1.00  0.00     0.010 A 
ATOM     12  C   UNL     1       2.783   4.495  -0.391  1.00  0.00     0.010 A 
ATOM     13  C   UNL     1       4.003   4.326  -1.054  1.00  0.00    -0.014 A 
BRANCH  13  14
ATOM     14  C   UNL     1       4.777   5.460  -1.574  1.00  0.00     0.031 A 
ATOM     15  C   UNL     1       5.524   6.303  -0.597  1.00  0.00     0.074 A 
ATOM     16  C   UNL     1       4.905   5.618  -2.902  1.00  0.00     0.049 A 
ATOM     17  N   UNL     1       6.185   7.408  -0.796  1.00  0.00    -0.248 NA
ATOM     18  C   UNL     1       5.541   5.827   0.797  1.00  0.00     0.031 C 
ATOM     19  C   UNL     1       4.338   4.722  -3.913  1.00  0.00     0.029 A 
ATOM     20  N   UNL     1       5.574   6.563  -3.628  1.00  0.00    -0.354 N 
ATOM     21  C   UNL     1       6.658   7.784   0.452  1.00  0.00     0.074 A 
ATOM     22  C   UNL     1       6.225   6.785   1.401  1.00  0.00     0.031 C 
ATOM     23  C   UNL     1       4.701   5.154  -5.131  1.00  0.00     0.029 A 
ATOM     24  C   UNL     1       5.451   6.396  -4.985  1.00  0.00     0.049 A 
ATOM     25  H   UNL     1       6.094   7.291  -3.218  1.00  0.00     0.167 HD
ATOM     26  C   UNL     1       7.376   8.886   0.760  1.00  0.00     0.037 A 
ATOM     27  C   UNL     1       5.863   7.194  -5.986  1.00  0.00     0.037 A 
ATOM     28  C   UNL     1       7.787   9.847  -0.226  1.00  0.00     0.049 A 
ATOM     29  C   UNL     1       6.575   8.466  -5.615  1.00  0.00     0.074 A 
ATOM     30  C   UNL     1       8.440  11.050  -0.047  1.00  0.00     0.029 A 
ATOM     31  N   UNL     1       7.580   9.696  -1.593  1.00  0.00    -0.354 N 
ATOM     32  N   UNL     1       6.921   8.896  -4.423  1.00  0.00    -0.248 NA
ATOM     33  C   UNL     1       6.929   9.377  -6.708  1.00  0.00     0.031 C 
ATOM     34  C   UNL     1       8.592  11.646  -1.303  1.00  0.00     0.029 A 
ATOM     35  C   UNL     1       8.082  10.790  -2.271  1.00  0.00     0.049 A 
ATOM     36  H   UNL     1       7.141   8.923  -2.016  1.00  0.00     0.167 HD
ATOM     37  C   UNL     1       7.541  10.119  -4.619  1.00  0.00     0.074 A 
ATOM     38  C   UNL     1       7.535  10.358  -6.051  1.00  0.00     0.031 C 
ATOM     39  C   UNL     1       8.063  10.972  -3.703  1.00  0.00     0.037 A 
BRANCH  26  40
ATOM     40  C   UNL     1       7.664   9.134   2.209  1.00  0.00     0.064 A 
ATOM     41  C   UNL     1       6.977  10.146   2.897  1.00  0.00     0.173 A 
ATOM     42  C   UNL     1       8.583   8.359   2.931  1.00  0.00     0.173 A 
ATOM     43  F   UNL     1       6.078  10.909   2.256  1.00  0.00    -0.203 F 
ATOM     44  C   UNL     1       7.199  10.372   4.253  1.00  0.00     0.198 A 
ATOM     45  C   UNL     1       8.783   8.570   4.294  1.00  0.00     0.198 A 
ATOM     46  F   UNL     1       9.243   7.358   2.329  1.00  0.00    -0.203 F 
ATOM     47  F   UNL     1       6.534  11.348   4.885  1.00  0.00    -0.200 F 
ATOM     48  C   UNL     1       8.095   9.579   4.952  1.00  0.00     0.200 A 
ATOM     49  F   UNL     1       9.623   7.779   4.977  1.00  0.00    -0.200 F 
ATOM     50  F   UNL     1       8.284   9.776   6.264  1.00  0.00    -0.200 F 
ENDBRANCH  26  40
BRANCH  27  51
ATOM     51  C   UNL     1       5.566   6.826  -7.395  1.00  0.00     0.064 A 
ATOM     52  C   UNL     1       4.244   6.770  -7.869  1.00  0.00     0.173 A 
ATOM     53  C   UNL     1       6.587   6.465  -8.283  1.00  0.00     0.173 A 
ATOM     54  F   UNL     1       3.227   7.107  -7.063  1.00  0.00    -0.203 F 
ATOM     55  C   UNL     1       3.956   6.333  -9.160  1.00  0.00     0.198 A 
ATOM     56  C   UNL     1       6.299   6.055  -9.585  1.00  0.00     0.198 A 
ATOM     57  F   UNL     1       7.868   6.521  -7.888  1.00  0.00    -0.203 F 
ATOM     58  F   UNL     1       2.682   6.245  -9.567  1.00  0.00    -0.200 F 
ATOM     59  C   UNL     1       4.984   5.978 -10.018  1.00  0.00     0.200 A 
ATOM     60  F   UNL     1       7.297   5.732 -10.419  1.00  0.00    -0.200 F 
ATOM     61  F   UNL     1       4.707   5.561 -11.262  1.00  0.00    -0.200 F 
ENDBRANCH  27  51
BRANCH  39  62
ATOM     62  C   UNL     1       8.698  12.226  -4.218  1.00  0.00     0.064 A 
ATOM     63  C   UNL     1      10.091  12.378  -4.170  1.00  0.00     0.173 A 
ATOM     64  C   UNL     1       7.923  13.315  -4.635  1.00  0.00     0.173 A 
ATOM     65  F   UNL     1      10.868  11.361  -3.765  1.00  0.00    -0.203 F 
ATOM     66  C   UNL     1      10.686  13.591  -4.496  1.00  0.00     0.198 A 
ATOM     67  C   UNL     1       8.524  14.520  -4.985  1.00  0.00     0.198 A 
ATOM     68  F   UNL     1       6.587  13.208  -4.705  1.00  0.00    -0.203 F 
ATOM     69  F   UNL     1      12.015  13.731  -4.398  1.00  0.00    -0.200 F 
ATOM     70  C   UNL     1       9.902  14.661  -4.902  1.00  0.00     0.200 A 
ATOM     71  F   UNL     1       7.769  15.549  -5.395  1.00  0.00    -0.200 F 
ATOM     72  F   UNL     1      10.476  15.832  -5.210  1.00  0.00    -0.200 F 
ENDBRANCH  39  62
ENDBRANCH  13  14
ENDBRANCH   6   8
ENDBRANCH   5   6
ENDBRANCH   4   5
ENDBRANCH   3   4
ENDBRANCH   2   3
ENDBRANCH   1   2
BRANCH   1  73
ATOM     73  C   UNL     1       2.984  -2.191  -3.018  1.00  0.00     0.261 C 
BRANCH  73  74
ATOM     74  O   UNL     1       3.608  -3.414  -2.592  1.00  0.00    -0.460 OA
BRANCH  74  75
ATOM     75  C   UNL     1       4.956  -3.442  -2.459  1.00  0.00     0.343 C 
ATOM     76  O   UNL     1       5.761  -2.590  -2.802  1.00  0.00    -0.246 OA
BRANCH  75  77
ATOM     77  C   UNL     1       5.316  -4.609  -1.627  1.00  0.00     0.119 A 
ATOM     78  C   UNL     1       4.543  -5.773  -1.722  1.00  0.00     0.139 A 
ATOM     79  C   UNL     1       6.377  -4.549  -0.698  1.00  0.00     0.066 A 
ATOM     80  F   UNL     1       3.572  -5.895  -2.640  1.00  0.00    -0.206 F 
ATOM     81  C   UNL     1       4.769  -6.857  -0.885  1.00  0.00     0.040 A 
ATOM     82  C   UNL     1       6.606  -5.662   0.122  1.00  0.00     0.028 A 
ATOM     83  C   UNL     1       5.795  -6.797   0.047  1.00  0.00     0.005 A 
BRANCH  79  84
ATOM     84  N   UNL     1       7.301  -3.443  -0.656  1.00  0.00    -0.275 N 
ATOM     85  H   UNL     1       7.704  -3.118  -1.493  1.00  0.00     0.180 HD
BRANCH  84  86
ATOM     86  S   UNL     1       7.708  -2.688   0.815  1.00  0.00     0.333 S 
ATOM     87  O   UNL     1       8.237  -1.396   0.406  1.00  0.00    -0.197 OA
ATOM     88  O   UNL     1       6.524  -2.723   1.657  1.00  0.00    -0.197 OA
BRANCH  86  89
ATOM     89  C   UNL     1       9.078  -3.709   1.573  1.00  0.00     0.516 C 
ATOM     90  F   UNL     1       8.589  -4.595   2.490  1.00  0.00    -0.155 F 
ATOM     91  F   UNL     1       9.748  -4.447   0.644  1.00  0.00    -0.155 F 
ATOM     92  F   UNL     1       9.999  -2.947   2.224  1.00  0.00    -0.155 F 
ENDBRANCH  86  89
ENDBRANCH  84  86
ENDBRANCH  79  84
ENDBRANCH  75  77
ENDBRANCH  74  75
ENDBRANCH  73  74
ENDBRANCH   1  73
TORSDOF 17
