REMARK SMILES O=C(OCCOCCOC(=O)[C@@H]1CCCC[C@@H]1NS(=O)(=O)c1ccc2ccccc2c1)c1ccc(-c2c3nc(c(-c4c(F)c(F)c(F)c(F)c4F)c4ccc([nH]4)c(-c4c(F)c(F)c(F)c(F)c4F)c4nc(c(-c5c(F)c(F)c(F)c(F)c5F)c5ccc2[nH]5)C=C4)C=C3)cc1
REMARK SMILES IDX 7 1 6 2 5 3 4 4 3 5 2 6 1 7 32 8 33 9 94 10 34 11 93 12
REMARK SMILES IDX 35 13 36 14 37 15 87 16 38 17 92 18 86 19 88 20 39 21 91 22
REMARK SMILES IDX 85 23 84 24 40 26 72 27 52 28 71 29 53 30 56 31 70 32 89 33
REMARK SMILES IDX 54 34 55 35 69 37 90 38 57 39 41 40 42 41 50 42 43 43 44 44
REMARK SMILES IDX 48 45 51 46 45 47 46 48 49 49 47 50 73 51 74 52 82 53 75 54
REMARK SMILES IDX 76 55 80 56 83 57 77 58 78 59 81 60 79 61 58 62 59 63 67 64
REMARK SMILES IDX 60 65 61 66 65 67 68 68 62 69 63 70 66 71 64 72 8 73 9 74
REMARK SMILES IDX 10 75 11 76 12 77 13 78 17 79 14 80 16 81 15 82 18 83 19 85
REMARK SMILES IDX 20 86 21 87 22 88 23 89 31 90 24 91 30 92 25 93 29 94 26 95
REMARK SMILES IDX 28 96 27 97
REMARK H PARENT 88 25 56 36 18 84
REMARK Flexibility Score: inf
ROOT
ATOM      1  C   UNL     1       3.049  -1.681  -2.102  1.00  0.00     0.202 C 
ENDROOT
BRANCH   1   2
ATOM      2  O   UNL     1       4.443  -1.368  -1.988  1.00  0.00    -0.374 OA
BRANCH   2   3
ATOM      3  C   UNL     1       5.034  -1.262  -0.684  1.00  0.00     0.202 C 
BRANCH   3   4
ATOM      4  C   UNL     1       4.514  -0.193   0.286  1.00  0.00     0.261 C 
BRANCH   4   5
ATOM      5  O   UNL     1       3.082  -0.109   0.246  1.00  0.00    -0.460 OA
BRANCH   5   6
ATOM      6  C   UNL     1       2.312   0.668  -0.555  1.00  0.00     0.338 C 
ATOM      7  O   UNL     1       1.103   0.481  -0.657  1.00  0.00    -0.246 OA
BRANCH   6   8
ATOM      8  C   UNL     1       2.931   1.748  -1.324  1.00  0.00     0.060 A 
ATOM      9  C   UNL     1       4.184   1.602  -1.911  1.00  0.00     0.016 A 
ATOM     10  C   UNL     1       2.196   2.919  -1.517  1.00  0.00     0.016 A 
ATOM     11  C   UNL     1       4.801   2.634  -2.533  1.00  0.00     0.010 A 
ATOM     12  C   UNL     1       2.760   3.948  -2.244  1.00  0.00     0.010 A 
ATOM     13  C   UNL     1       4.060   3.781  -2.728  1.00  0.00    -0.014 A 
BRANCH  13  14
ATOM     14  C   UNL     1       4.720   4.777  -3.530  1.00  0.00     0.031 A 
ATOM     15  C   UNL     1       5.403   5.870  -2.813  1.00  0.00     0.074 A 
ATOM     16  C   UNL     1       4.758   4.521  -4.844  1.00  0.00     0.049 A 
ATOM     17  N   UNL     1       5.978   6.921  -3.304  1.00  0.00    -0.248 NA
ATOM     18  C   UNL     1       5.453   5.767  -1.342  1.00  0.00     0.031 C 
ATOM     19  C   UNL     1       4.203   3.317  -5.487  1.00  0.00     0.029 A 
ATOM     20  N   UNL     1       5.282   5.236  -5.868  1.00  0.00    -0.354 N 
ATOM     21  C   UNL     1       6.422   7.636  -2.207  1.00  0.00     0.074 A 
ATOM     22  C   UNL     1       6.067   6.894  -1.020  1.00  0.00     0.031 C 
ATOM     23  C   UNL     1       4.382   3.406  -6.810  1.00  0.00     0.029 A 
ATOM     24  C   UNL     1       4.979   4.699  -7.092  1.00  0.00     0.049 A 
ATOM     25  H   UNL     1       5.821   6.051  -5.747  1.00  0.00     0.167 HD
ATOM     26  C   UNL     1       7.040   8.834  -2.241  1.00  0.00     0.037 A 
ATOM     27  C   UNL     1       5.106   5.267  -8.299  1.00  0.00     0.037 A 
ATOM     28  C   UNL     1       7.290   9.500  -3.492  1.00  0.00     0.049 A 
ATOM     29  C   UNL     1       5.705   6.641  -8.306  1.00  0.00     0.074 A 
ATOM     30  C   UNL     1       7.843  10.739  -3.727  1.00  0.00     0.029 A 
ATOM     31  N   UNL     1       6.968   8.955  -4.739  1.00  0.00    -0.354 N 
ATOM     32  N   UNL     1       6.085   7.372  -7.280  1.00  0.00    -0.248 NA
ATOM     33  C   UNL     1       5.901   7.271  -9.608  1.00  0.00     0.031 C 
ATOM     34  C   UNL     1       7.797  10.967  -5.109  1.00  0.00     0.029 A 
ATOM     35  C   UNL     1       7.286   9.840  -5.747  1.00  0.00     0.049 A 
ATOM     36  H   UNL     1       6.569   8.065  -4.877  1.00  0.00     0.167 HD
ATOM     37  C   UNL     1       6.597   8.542  -7.805  1.00  0.00     0.074 A 
ATOM     38  C   UNL     1       6.471   8.415  -9.251  1.00  0.00     0.031 C 
ATOM     39  C   UNL     1       7.130   9.617  -7.170  1.00  0.00     0.037 A 
BRANCH  26  40
ATOM     40  C   UNL     1       7.333   9.483  -0.922  1.00  0.00     0.064 A 
ATOM     41  C   UNL     1       8.245   8.938  -0.004  1.00  0.00     0.173 A 
ATOM     42  C   UNL     1       6.605  10.613  -0.521  1.00  0.00     0.173 A 
ATOM     43  F   UNL     1       8.939   7.832  -0.316  1.00  0.00    -0.203 F 
ATOM     44  C   UNL     1       8.382   9.470   1.278  1.00  0.00     0.198 A 
ATOM     45  C   UNL     1       6.768  11.163   0.749  1.00  0.00     0.198 A 
ATOM     46  F   UNL     1       5.701  11.164  -1.345  1.00  0.00    -0.203 F 
ATOM     47  F   UNL     1       9.192   8.875   2.166  1.00  0.00    -0.200 F 
ATOM     48  C   UNL     1       7.645  10.582   1.652  1.00  0.00     0.200 A 
ATOM     49  F   UNL     1       6.051  12.236   1.109  1.00  0.00    -0.200 F 
ATOM     50  F   UNL     1       7.760  11.079   2.892  1.00  0.00    -0.200 F 
ENDBRANCH  26  40
BRANCH  27  51
ATOM     51  C   UNL     1       4.623   4.543  -9.497  1.00  0.00     0.064 A 
ATOM     52  C   UNL     1       5.521   4.009 -10.426  1.00  0.00     0.173 A 
ATOM     53  C   UNL     1       3.257   4.262  -9.675  1.00  0.00     0.173 A 
ATOM     54  F   UNL     1       6.836   4.238 -10.293  1.00  0.00    -0.203 F 
ATOM     55  C   UNL     1       5.075   3.226 -11.490  1.00  0.00     0.198 A 
ATOM     56  C   UNL     1       2.814   3.458 -10.724  1.00  0.00     0.198 A 
ATOM     57  F   UNL     1       2.354   4.723  -8.796  1.00  0.00    -0.203 F 
ATOM     58  F   UNL     1       5.956   2.733 -12.371  1.00  0.00    -0.200 F 
ATOM     59  C   UNL     1       3.724   2.944 -11.634  1.00  0.00     0.200 A 
ATOM     60  F   UNL     1       1.511   3.163 -10.838  1.00  0.00    -0.200 F 
ATOM     61  F   UNL     1       3.300   2.171 -12.643  1.00  0.00    -0.200 F 
ENDBRANCH  27  51
BRANCH  39  62
ATOM     62  C   UNL     1       7.662  10.697  -8.054  1.00  0.00     0.064 A 
ATOM     63  C   UNL     1       6.811  11.583  -8.724  1.00  0.00     0.173 A 
ATOM     64  C   UNL     1       9.047  10.893  -8.146  1.00  0.00     0.173 A 
ATOM     65  F   UNL     1       5.481  11.414  -8.672  1.00  0.00    -0.203 F 
ATOM     66  C   UNL     1       7.333  12.633  -9.468  1.00  0.00     0.198 A 
ATOM     67  C   UNL     1       9.563  11.964  -8.861  1.00  0.00     0.198 A 
ATOM     68  F   UNL     1       9.892  10.066  -7.511  1.00  0.00    -0.203 F 
ATOM     69  F   UNL     1       6.509  13.454 -10.132  1.00  0.00    -0.200 F 
ATOM     70  C   UNL     1       8.707  12.831  -9.523  1.00  0.00     0.200 A 
ATOM     71  F   UNL     1      10.887  12.166  -8.897  1.00  0.00    -0.200 F 
ATOM     72  F   UNL     1       9.206  13.861 -10.218  1.00  0.00    -0.200 F 
ENDBRANCH  39  62
ENDBRANCH  13  14
ENDBRANCH   6   8
ENDBRANCH   5   6
ENDBRANCH   4   5
ENDBRANCH   3   4
ENDBRANCH   2   3
ENDBRANCH   1   2
BRANCH   1  73
ATOM     73  C   UNL     1       2.766  -3.059  -2.672  1.00  0.00     0.261 C 
BRANCH  73  74
ATOM     74  O   UNL     1       2.978  -3.984  -1.595  1.00  0.00    -0.463 OA
BRANCH  74  75
ATOM     75  C   UNL     1       4.292  -4.199  -1.355  1.00  0.00     0.310 C 
ATOM     76  O   UNL     1       5.194  -4.043  -2.172  1.00  0.00    -0.252 OA
BRANCH  75  77
ATOM     77  C   UNL     1       4.545  -4.749   0.022  1.00  0.00     0.117 C 
ATOM     78  C   UNL     1       4.374  -6.255  -0.182  1.00  0.00     0.017 C 
ATOM     79  C   UNL     1       3.931  -4.101   1.328  1.00  0.00     0.084 C 
ATOM     80  C   UNL     1       4.750  -7.024   1.058  1.00  0.00     0.001 C 
ATOM     81  C   UNL     1       4.210  -5.055   2.505  1.00  0.00     0.021 C 
ATOM     82  C   UNL     1       3.904  -6.524   2.214  1.00  0.00     0.002 C 
BRANCH  79  83
ATOM     83  N   UNL     1       2.525  -3.632   1.247  1.00  0.00    -0.207 NA
ATOM     84  H   UNL     1       1.997  -4.448   0.936  1.00  0.00     0.141 HD
BRANCH  83  85
ATOM     85  S   UNL     1       1.571  -2.949   2.491  1.00  0.00     0.240 S 
ATOM     86  O   UNL     1       0.239  -2.893   1.919  1.00  0.00    -0.207 OA
ATOM     87  O   UNL     1       1.796  -3.667   3.723  1.00  0.00    -0.207 OA
BRANCH  85  88
ATOM     88  C   UNL     1       2.068  -1.250   2.799  1.00  0.00     0.083 A 
ATOM     89  C   UNL     1       3.239  -0.977   3.508  1.00  0.00     0.022 A 
ATOM     90  C   UNL     1       1.239  -0.177   2.421  1.00  0.00     0.030 A 
ATOM     91  C   UNL     1       3.672   0.353   3.660  1.00  0.00     0.010 A 
ATOM     92  C   UNL     1       1.686   1.167   2.528  1.00  0.00    -0.017 A 
ATOM     93  C   UNL     1       2.951   1.425   3.099  1.00  0.00    -0.018 A 
ATOM     94  C   UNL     1       0.967   2.245   1.968  1.00  0.00     0.009 A 
ATOM     95  C   UNL     1       3.488   2.728   3.030  1.00  0.00     0.009 A 
ATOM     96  C   UNL     1       1.526   3.526   1.882  1.00  0.00     0.001 A 
ATOM     97  C   UNL     1       2.796   3.762   2.394  1.00  0.00     0.001 A 
ENDBRANCH  85  88
ENDBRANCH  83  85
ENDBRANCH  79  83
ENDBRANCH  75  77
ENDBRANCH  74  75
ENDBRANCH  73  74
ENDBRANCH   1  73
TORSDOF 17
