REMARK SMILES COC(=O)C[C@H](c1ccc(C(=O)OCCOCCOC(=O)c2ccc(-c3c4nc(c(-c5c(F)c(F)c(F)c(F)c5F)c5ccc([nH]5)c(-c5c(F)c(F)c(F)c(F)c5F)c5nc(c(-c6c(F)c(F)c(F)c(F)c6F)c6ccc3[nH]6)C=C5)C=C4)cc2)cc1)c1c(O)n[nH]c1C
REMARK SMILES IDX 15 1 14 2 13 3 11 4 12 5 10 6 7 7 8 8 86 9 9 10 85 11 6 12
REMARK SMILES IDX 5 13 3 14 4 15 2 16 1 17 87 18 88 19 92 20 90 21 91 22 93 23
REMARK SMILES IDX 89 25 16 27 17 28 18 29 19 30 20 31 21 32 22 33 23 34 84 35
REMARK SMILES IDX 24 36 83 37 25 38 26 39 27 40 77 41 28 42 82 43 76 44 78 45
REMARK SMILES IDX 29 46 81 47 75 48 74 49 30 51 62 52 42 53 61 54 43 55 46 56
REMARK SMILES IDX 60 57 79 58 44 59 45 60 59 62 80 63 47 64 31 65 32 66 40 67
REMARK SMILES IDX 33 68 34 69 38 70 41 71 35 72 36 73 39 74 37 75 63 76 64 77
REMARK SMILES IDX 72 78 65 79 66 80 70 81 73 82 67 83 68 84 71 85 69 86 48 87
REMARK SMILES IDX 49 88 57 89 50 90 51 91 55 92 58 93 52 94 53 95 56 96 54 97
REMARK H PARENT 91 24 89 26 78 50 46 61
REMARK Flexibility Score: inf
ROOT
ATOM      1  C   UNL     1      -0.967  -6.962  -1.586  1.00  0.00     0.202 C 
ENDROOT
BRANCH   1   2
ATOM      2  C   UNL     1      -0.634  -5.534  -2.024  1.00  0.00     0.261 C 
BRANCH   2   3
ATOM      3  O   UNL     1      -0.028  -4.801  -0.948  1.00  0.00    -0.460 OA
BRANCH   3   4
ATOM      4  C   UNL     1      -0.774  -3.773  -0.483  1.00  0.00     0.338 C 
ATOM      5  O   UNL     1      -1.786  -3.310  -0.988  1.00  0.00    -0.246 OA
BRANCH   4   6
ATOM      6  C   UNL     1      -0.281  -3.332   0.835  1.00  0.00     0.060 A 
ATOM      7  C   UNL     1       0.471  -2.002   3.173  1.00  0.00    -0.040 A 
ATOM      8  C   UNL     1      -0.869  -2.382   2.976  1.00  0.00     0.005 A 
ATOM      9  C   UNL     1       1.446  -2.440   2.255  1.00  0.00     0.005 A 
ATOM     10  C   UNL     1      -1.244  -3.027   1.803  1.00  0.00     0.016 A 
ATOM     11  C   UNL     1       1.073  -3.109   1.087  1.00  0.00     0.016 A 
BRANCH   7  12
ATOM     12  C   UNL     1       0.840  -0.920   4.189  1.00  0.00     0.068 C 
BRANCH  12  13
ATOM     13  C   UNL     1       0.503   0.488   3.647  1.00  0.00     0.136 C 
BRANCH  13  14
ATOM     14  C   UNL     1      -0.518   0.557   2.529  1.00  0.00     0.306 C 
ATOM     15  O   UNL     1      -1.722   0.692   2.702  1.00  0.00    -0.252 OA
BRANCH  14  16
ATOM     16  O   UNL     1       0.099   0.427   1.319  1.00  0.00    -0.469 OA
ATOM     17  C   UNL     1      -0.778   0.277   0.198  1.00  0.00     0.282 C 
ENDBRANCH  14  16
ENDBRANCH  13  14
ENDBRANCH  12  13
BRANCH  12  18
ATOM     18  C   UNL     1       0.309  -1.323   5.550  1.00  0.00     0.044 A 
ATOM     19  C   UNL     1       0.365  -2.613   6.128  1.00  0.00     0.234 A 
ATOM     20  C   UNL     1      -0.188  -0.565   6.613  1.00  0.00     0.040 A 
ATOM     21  N   UNL     1      -0.105  -2.712   7.359  1.00  0.00    -0.137 NA
ATOM     22  N   UNL     1      -0.458  -1.450   7.630  1.00  0.00    -0.279 N 
ATOM     23  C   UNL     1      -0.416   0.885   6.832  1.00  0.00     0.066 C 
ATOM     24  H   UNL     1      -0.873  -1.180   8.481  1.00  0.00     0.190 HD
BRANCH  19  25
ATOM     25  O   UNL     1       0.850  -3.752   5.641  1.00  0.00    -0.492 OA
ATOM     26  H   UNL     1       1.205  -3.777   4.775  1.00  0.00     0.295 HD
ENDBRANCH  19  25
ENDBRANCH  12  18
ENDBRANCH   7  12
ENDBRANCH   4   6
ENDBRANCH   3   4
ENDBRANCH   2   3
ENDBRANCH   1   2
BRANCH   1  27
ATOM     27  O   UNL     1      -1.974  -7.096  -0.583  1.00  0.00    -0.374 OA
BRANCH  27  28
ATOM     28  C   UNL     1      -1.592  -6.850   0.771  1.00  0.00     0.202 C 
BRANCH  28  29
ATOM     29  C   UNL     1      -0.844  -7.983   1.483  1.00  0.00     0.261 C 
BRANCH  29  30
ATOM     30  O   UNL     1       0.462  -8.196   0.920  1.00  0.00    -0.460 OA
BRANCH  30  31
ATOM     31  C   UNL     1       0.608  -9.359   0.243  1.00  0.00     0.338 C 
ATOM     32  O   UNL     1      -0.204 -10.268   0.144  1.00  0.00    -0.246 OA
BRANCH  31  33
ATOM     33  C   UNL     1       1.853  -9.328  -0.544  1.00  0.00     0.060 A 
ATOM     34  C   UNL     1       1.761  -9.634  -1.907  1.00  0.00     0.016 A 
ATOM     35  C   UNL     1       3.093  -9.075   0.045  1.00  0.00     0.016 A 
ATOM     36  C   UNL     1       2.915  -9.742  -2.679  1.00  0.00     0.010 A 
ATOM     37  C   UNL     1       4.253  -9.194  -0.727  1.00  0.00     0.010 A 
ATOM     38  C   UNL     1       4.170  -9.564  -2.081  1.00  0.00    -0.014 A 
BRANCH  38  39
ATOM     39  C   UNL     1       5.391  -9.921  -2.840  1.00  0.00     0.031 A 
ATOM     40  C   UNL     1       6.006 -11.275  -2.631  1.00  0.00     0.074 A 
ATOM     41  C   UNL     1       5.924  -9.065  -3.729  1.00  0.00     0.049 A 
ATOM     42  N   UNL     1       7.074 -11.799  -3.178  1.00  0.00    -0.248 NA
ATOM     43  C   UNL     1       5.324 -12.160  -1.674  1.00  0.00     0.031 C 
ATOM     44  C   UNL     1       5.394  -7.743  -4.048  1.00  0.00     0.029 A 
ATOM     45  N   UNL     1       7.035  -9.188  -4.525  1.00  0.00    -0.354 N 
ATOM     46  C   UNL     1       7.191 -13.070  -2.632  1.00  0.00     0.074 A 
ATOM     47  C   UNL     1       6.107 -13.228  -1.687  1.00  0.00     0.031 C 
ATOM     48  C   UNL     1       6.183  -7.170  -4.973  1.00  0.00     0.029 A 
ATOM     49  C   UNL     1       7.287  -8.076  -5.288  1.00  0.00     0.049 A 
ATOM     50  H   UNL     1       7.597  -9.996  -4.546  1.00  0.00     0.167 HD
ATOM     51  C   UNL     1       8.115 -14.023  -2.903  1.00  0.00     0.037 A 
ATOM     52  C   UNL     1       8.303  -7.817  -6.133  1.00  0.00     0.037 A 
ATOM     53  C   UNL     1       9.195 -13.863  -3.840  1.00  0.00     0.049 A 
ATOM     54  C   UNL     1       9.364  -8.863  -6.359  1.00  0.00     0.074 A 
ATOM     55  C   UNL     1      10.170 -14.776  -4.200  1.00  0.00     0.029 A 
ATOM     56  N   UNL     1       9.447 -12.703  -4.559  1.00  0.00    -0.354 N 
ATOM     57  N   UNL     1       9.454 -10.072  -5.860  1.00  0.00    -0.248 NA
ATOM     58  C   UNL     1      10.463  -8.505  -7.266  1.00  0.00     0.031 C 
ATOM     59  C   UNL     1      11.041 -14.152  -5.101  1.00  0.00     0.029 A 
ATOM     60  C   UNL     1      10.580 -12.867  -5.340  1.00  0.00     0.049 A 
ATOM     61  H   UNL     1       8.901 -11.885  -4.521  1.00  0.00     0.167 HD
ATOM     62  C   UNL     1      10.601 -10.629  -6.411  1.00  0.00     0.074 A 
ATOM     63  C   UNL     1      11.169  -9.628  -7.290  1.00  0.00     0.031 C 
ATOM     64  C   UNL     1      11.132 -11.860  -6.211  1.00  0.00     0.037 A 
BRANCH  51  65
ATOM     65  C   UNL     1       8.008 -15.315  -2.146  1.00  0.00     0.064 A 
ATOM     66  C   UNL     1       6.981 -16.236  -2.401  1.00  0.00     0.173 A 
ATOM     67  C   UNL     1       8.949 -15.637  -1.157  1.00  0.00     0.173 A 
ATOM     68  F   UNL     1       6.048 -15.968  -3.327  1.00  0.00    -0.203 F 
ATOM     69  C   UNL     1       6.882 -17.418  -1.671  1.00  0.00     0.198 A 
ATOM     70  C   UNL     1       8.863 -16.832  -0.448  1.00  0.00     0.198 A 
ATOM     71  F   UNL     1       9.952 -14.792  -0.877  1.00  0.00    -0.203 F 
ATOM     72  F   UNL     1       5.862 -18.258  -1.894  1.00  0.00    -0.200 F 
ATOM     73  C   UNL     1       7.824 -17.716  -0.698  1.00  0.00     0.200 A 
ATOM     74  F   UNL     1       9.780 -17.123   0.485  1.00  0.00    -0.200 F 
ATOM     75  F   UNL     1       7.726 -18.853   0.005  1.00  0.00    -0.200 F 
ENDBRANCH  51  65
BRANCH  52  76
ATOM     76  C   UNL     1       8.364  -6.509  -6.832  1.00  0.00     0.064 A 
ATOM     77  C   UNL     1       8.134  -6.417  -8.211  1.00  0.00     0.173 A 
ATOM     78  C   UNL     1       8.648  -5.325  -6.135  1.00  0.00     0.173 A 
ATOM     79  F   UNL     1       7.884  -7.526  -8.923  1.00  0.00    -0.203 F 
ATOM     80  C   UNL     1       8.194  -5.191  -8.869  1.00  0.00     0.198 A 
ATOM     81  C   UNL     1       8.684  -4.096  -6.790  1.00  0.00     0.198 A 
ATOM     82  F   UNL     1       8.879  -5.362  -4.815  1.00  0.00    -0.203 F 
ATOM     83  F   UNL     1       8.004  -5.134 -10.194  1.00  0.00    -0.200 F 
ATOM     84  C   UNL     1       8.461  -4.030  -8.158  1.00  0.00     0.200 A 
ATOM     85  F   UNL     1       8.933  -2.977  -6.097  1.00  0.00    -0.200 F 
ATOM     86  F   UNL     1       8.511  -2.850  -8.790  1.00  0.00    -0.200 F 
ENDBRANCH  52  76
BRANCH  64  87
ATOM     87  C   UNL     1      12.376 -12.207  -6.976  1.00  0.00     0.064 A 
ATOM     88  C   UNL     1      13.621 -11.651  -6.647  1.00  0.00     0.173 A 
ATOM     89  C   UNL     1      12.329 -13.139  -8.024  1.00  0.00     0.173 A 
ATOM     90  F   UNL     1      13.716 -10.744  -5.663  1.00  0.00    -0.203 F 
ATOM     91  C   UNL     1      14.769 -11.999  -7.354  1.00  0.00     0.198 A 
ATOM     92  C   UNL     1      13.483 -13.505  -8.711  1.00  0.00     0.198 A 
ATOM     93  F   UNL     1      11.163 -13.704  -8.374  1.00  0.00    -0.203 F 
ATOM     94  F   UNL     1      15.941 -11.424  -7.051  1.00  0.00    -0.200 F 
ATOM     95  C   UNL     1      14.700 -12.931  -8.380  1.00  0.00     0.200 A 
ATOM     96  F   UNL     1      13.416 -14.414  -9.693  1.00  0.00    -0.200 F 
ATOM     97  F   UNL     1      15.808 -13.270  -9.055  1.00  0.00    -0.200 F 
ENDBRANCH  64  87
ENDBRANCH  38  39
ENDBRANCH  31  33
ENDBRANCH  30  31
ENDBRANCH  29  30
ENDBRANCH  28  29
ENDBRANCH  27  28
ENDBRANCH   1  27
TORSDOF 20
