REMARK SMILES COC(=O)c1sc(SCC(=O)OCCOCCOC(=O)c2ccc(-c3c4nc(c(-c5c(F)c(F)c(F)c(F)c5F)c5ccc([nH]5)c(-c5c(F)c(F)c(F)c(F)c5F)c5nc(c(-c6c(F)c(F)c(F)c(F)c6F)c6ccc3[nH]6)C=C5)C=C4)cc2)c(NC(=O)c2ccccc2)c1O
REMARK SMILES IDX 14 1 13 2 12 3 10 4 11 5 9 6 8 7 7 8 5 9 6 10 94 11 84 12
REMARK SMILES IDX 3 13 4 14 2 15 1 16 95 17 85 19 86 20 87 22 88 23 89 24
REMARK SMILES IDX 93 25 90 26 92 27 91 28 15 29 16 30 17 31 18 32 19 33 20 34
REMARK SMILES IDX 21 35 22 36 83 37 23 38 82 39 24 40 25 41 26 42 76 43 27 44
REMARK SMILES IDX 81 45 75 46 77 47 28 48 80 49 74 50 73 51 29 53 61 54 41 55
REMARK SMILES IDX 60 56 42 57 45 58 59 59 78 60 43 61 44 62 58 64 79 65 46 66
REMARK SMILES IDX 30 67 31 68 39 69 32 70 33 71 37 72 40 73 34 74 35 75 38 76
REMARK SMILES IDX 36 77 62 78 63 79 71 80 64 81 65 82 69 83 72 84 66 85 67 86
REMARK SMILES IDX 70 87 68 88 47 89 48 90 56 91 49 92 50 93 54 94 57 95 51 96
REMARK SMILES IDX 52 97 55 98 53 99
REMARK H PARENT 95 18 85 21 77 52 45 63
REMARK Flexibility Score: inf
ROOT
ATOM      1  C   UNL     1      -2.283   3.455  -8.185  1.00  0.00     0.202 C 
ENDROOT
BRANCH   1   2
ATOM      2  C   UNL     1      -2.675   4.912  -8.463  1.00  0.00     0.261 C 
BRANCH   2   3
ATOM      3  O   UNL     1      -1.934   5.827  -7.618  1.00  0.00    -0.463 OA
BRANCH   3   4
ATOM      4  C   UNL     1      -2.662   6.667  -6.806  1.00  0.00     0.316 C 
ATOM      5  O   UNL     1      -3.887   6.704  -6.792  1.00  0.00    -0.251 OA
BRANCH   4   6
ATOM      6  C   UNL     1      -1.652   7.782  -5.959  1.00  0.00     0.198 C 
BRANCH   6   7
ATOM      7  S   UNL     1      -0.576   7.589  -3.614  1.00  0.00    -0.101 SA
BRANCH   7   8
ATOM      8  C   UNL     1      -0.518   5.934  -2.767  1.00  0.00     0.089 A 
ATOM      9  C   UNL     1       0.335   3.901  -1.563  1.00  0.00     0.157 A 
ATOM     10  S   UNL     1       1.007   5.365  -2.165  1.00  0.00    -0.116 S 
ATOM     11  C   UNL     1      -1.030   3.894  -1.746  1.00  0.00     0.166 A 
ATOM     12  C   UNL     1      -1.527   5.028  -2.445  1.00  0.00     0.109 A 
BRANCH   9  13
ATOM     13  C   UNL     1       1.187   2.883  -0.976  1.00  0.00     0.352 C 
ATOM     14  O   UNL     1       2.380   2.977  -0.719  1.00  0.00    -0.245 OA
BRANCH  13  15
ATOM     15  O   UNL     1       0.436   1.756  -0.757  1.00  0.00    -0.465 OA
ATOM     16  C   UNL     1       1.107   0.620  -0.202  1.00  0.00     0.282 C 
ENDBRANCH  13  15
ENDBRANCH   9  13
BRANCH  11  17
ATOM     17  O   UNL     1      -1.846   2.878  -1.376  1.00  0.00    -0.504 OA
ATOM     18  H   UNL     1      -1.496   2.140  -0.916  1.00  0.00     0.293 HD
ENDBRANCH  11  17
BRANCH  12  19
ATOM     19  N   UNL     1      -2.879   5.073  -2.758  1.00  0.00    -0.317 N 
ATOM     20  C   UNL     1      -3.472   5.924  -3.635  1.00  0.00     0.255 C 
ATOM     21  H   UNL     1      -3.464   4.426  -2.301  1.00  0.00     0.170 HD
ATOM     22  O   UNL     1      -4.681   6.034  -3.761  1.00  0.00    -0.269 OA
BRANCH  20  23
ATOM     23  C   UNL     1      -2.546   6.726  -4.426  1.00  0.00     0.040 A 
ATOM     24  C   UNL     1      -2.661   8.498  -4.225  1.00  0.00     0.014 A 
ATOM     25  C   UNL     1      -1.054   5.983  -5.207  1.00  0.00     0.014 A 
ATOM     26  C   UNL     1      -1.300   9.536  -4.764  1.00  0.00     0.001 A 
ATOM     27  C   UNL     1       0.300   7.044  -5.735  1.00  0.00     0.001 A 
ATOM     28  C   UNL     1       0.161   8.822  -5.504  1.00  0.00     0.000 A 
ENDBRANCH  20  23
ENDBRANCH  12  19
ENDBRANCH   7   8
ENDBRANCH   6   7
ENDBRANCH   4   6
ENDBRANCH   3   4
ENDBRANCH   2   3
ENDBRANCH   1   2
BRANCH   1  29
ATOM     29  O   UNL     1      -3.160   2.762  -7.294  1.00  0.00    -0.374 OA
BRANCH  29  30
ATOM     30  C   UNL     1      -3.008   3.029  -5.905  1.00  0.00     0.202 C 
BRANCH  30  31
ATOM     31  C   UNL     1      -1.937   2.183  -5.219  1.00  0.00     0.261 C 
BRANCH  31  32
ATOM     32  O   UNL     1      -0.611   2.588  -5.570  1.00  0.00    -0.460 OA
BRANCH  32  33
ATOM     33  C   UNL     1       0.037   1.792  -6.449  1.00  0.00     0.338 C 
ATOM     34  O   UNL     1      -0.435   0.883  -7.108  1.00  0.00    -0.246 OA
BRANCH  33  35
ATOM     35  C   UNL     1       1.476   2.104  -6.384  1.00  0.00     0.060 A 
ATOM     36  C   UNL     1       2.345   1.148  -6.909  1.00  0.00     0.016 A 
ATOM     37  C   UNL     1       1.969   3.234  -5.707  1.00  0.00     0.016 A 
ATOM     38  C   UNL     1       3.695   1.260  -6.645  1.00  0.00     0.010 A 
ATOM     39  C   UNL     1       3.325   3.352  -5.450  1.00  0.00     0.010 A 
ATOM     40  C   UNL     1       4.173   2.337  -5.880  1.00  0.00    -0.014 A 
BRANCH  40  41
ATOM     41  C   UNL     1       5.612   2.402  -5.692  1.00  0.00     0.031 A 
ATOM     42  C   UNL     1       6.347   2.633  -6.953  1.00  0.00     0.074 A 
ATOM     43  C   UNL     1       6.242   2.250  -4.512  1.00  0.00     0.049 A 
ATOM     44  N   UNL     1       7.074   1.781  -7.594  1.00  0.00    -0.248 NA
ATOM     45  C   UNL     1       6.130   3.901  -7.663  1.00  0.00     0.031 C 
ATOM     46  C   UNL     1       5.653   2.301  -3.175  1.00  0.00     0.029 A 
ATOM     47  N   UNL     1       7.578   2.081  -4.268  1.00  0.00    -0.354 N 
ATOM     48  C   UNL     1       7.572   2.467  -8.695  1.00  0.00     0.074 A 
ATOM     49  C   UNL     1       6.835   3.700  -8.778  1.00  0.00     0.031 C 
ATOM     50  C   UNL     1       6.645   2.361  -2.257  1.00  0.00     0.029 A 
ATOM     51  C   UNL     1       7.925   2.205  -2.931  1.00  0.00     0.049 A 
ATOM     52  H   UNL     1       8.233   1.889  -4.977  1.00  0.00     0.167 HD
ATOM     53  C   UNL     1       8.744   2.078  -9.262  1.00  0.00     0.037 A 
ATOM     54  C   UNL     1       9.176   2.208  -2.412  1.00  0.00     0.037 A 
ATOM     55  C   UNL     1       9.095   0.737  -8.866  1.00  0.00     0.049 A 
ATOM     56  C   UNL     1      10.087   1.534  -3.364  1.00  0.00     0.074 A 
ATOM     57  C   UNL     1       8.763  -0.547  -9.234  1.00  0.00     0.029 A 
ATOM     58  N   UNL     1       9.713   0.662  -7.649  1.00  0.00    -0.354 N 
ATOM     59  N   UNL     1      10.072   0.252  -3.593  1.00  0.00    -0.248 NA
ATOM     60  C   UNL     1      10.867   2.328  -4.310  1.00  0.00     0.031 C 
ATOM     61  C   UNL     1       9.112  -1.389  -8.134  1.00  0.00     0.029 A 
ATOM     62  C   UNL     1       9.656  -0.601  -7.126  1.00  0.00     0.049 A 
ATOM     63  H   UNL     1      10.147   1.425  -7.203  1.00  0.00     0.167 HD
ATOM     64  C   UNL     1      10.456   0.142  -4.912  1.00  0.00     0.074 A 
ATOM     65  C   UNL     1      11.114   1.398  -5.236  1.00  0.00     0.031 C 
ATOM     66  C   UNL     1       9.899  -0.805  -5.718  1.00  0.00     0.037 A 
BRANCH  53  67
ATOM     67  C   UNL     1       9.816   3.042  -9.729  1.00  0.00     0.064 A 
ATOM     68  C   UNL     1      10.983   2.518 -10.326  1.00  0.00     0.173 A 
ATOM     69  C   UNL     1       9.904   4.390  -9.315  1.00  0.00     0.173 A 
ATOM     70  F   UNL     1      11.021   1.246 -10.751  1.00  0.00    -0.203 F 
ATOM     71  C   UNL     1      12.165   3.258 -10.416  1.00  0.00     0.198 A 
ATOM     72  C   UNL     1      11.070   5.140  -9.452  1.00  0.00     0.198 A 
ATOM     73  F   UNL     1       8.914   5.005  -8.659  1.00  0.00    -0.203 F 
ATOM     74  F   UNL     1      13.282   2.676 -10.874  1.00  0.00    -0.200 F 
ATOM     75  C   UNL     1      12.210   4.566  -9.970  1.00  0.00     0.200 A 
ATOM     76  F   UNL     1      11.099   6.401  -8.995  1.00  0.00    -0.200 F 
ATOM     77  F   UNL     1      13.357   5.257  -9.995  1.00  0.00    -0.200 F 
ENDBRANCH  53  67
BRANCH  54  78
ATOM     78  C   UNL     1       9.688   2.881  -1.200  1.00  0.00     0.064 A 
ATOM     79  C   UNL     1      10.878   2.463  -0.582  1.00  0.00     0.173 A 
ATOM     80  C   UNL     1       9.172   4.127  -0.800  1.00  0.00     0.173 A 
ATOM     81  F   UNL     1      11.452   1.303  -0.933  1.00  0.00    -0.203 F 
ATOM     82  C   UNL     1      11.536   3.265   0.354  1.00  0.00     0.198 A 
ATOM     83  C   UNL     1       9.826   4.923   0.140  1.00  0.00     0.198 A 
ATOM     84  F   UNL     1       8.081   4.637  -1.388  1.00  0.00    -0.203 F 
ATOM     85  F   UNL     1      12.707   2.866   0.869  1.00  0.00    -0.200 F 
ATOM     86  C   UNL     1      11.016   4.500   0.704  1.00  0.00     0.200 A 
ATOM     87  F   UNL     1       9.333   6.131   0.445  1.00  0.00    -0.200 F 
ATOM     88  F   UNL     1      11.683   5.300   1.547  1.00  0.00    -0.200 F 
ENDBRANCH  54  78
BRANCH  66  89
ATOM     89  C   UNL     1       9.367  -2.029  -5.049  1.00  0.00     0.064 A 
ATOM     90  C   UNL     1       8.275  -2.037  -4.166  1.00  0.00     0.173 A 
ATOM     91  C   UNL     1       9.993  -3.252  -5.323  1.00  0.00     0.173 A 
ATOM     92  F   UNL     1       7.580  -0.917  -3.918  1.00  0.00    -0.203 F 
ATOM     93  C   UNL     1       7.871  -3.214  -3.539  1.00  0.00     0.198 A 
ATOM     94  C   UNL     1       9.563  -4.431  -4.725  1.00  0.00     0.198 A 
ATOM     95  F   UNL     1      11.018  -3.304  -6.188  1.00  0.00    -0.203 F 
ATOM     96  F   UNL     1       6.851  -3.196  -2.668  1.00  0.00    -0.200 F 
ATOM     97  C   UNL     1       8.514  -4.410  -3.821  1.00  0.00     0.200 A 
ATOM     98  F   UNL     1      10.164  -5.590  -5.030  1.00  0.00    -0.200 F 
ATOM     99  F   UNL     1       8.113  -5.545  -3.232  1.00  0.00    -0.200 F 
ENDBRANCH  66  89
ENDBRANCH  40  41
ENDBRANCH  33  35
ENDBRANCH  32  33
ENDBRANCH  31  32
ENDBRANCH  30  31
ENDBRANCH  29  30
ENDBRANCH   1  29
TORSDOF 21
