REMARK SMILES COc1cc(/C=C2/N=C(c3ccccc3)OC2=O)ccc1OCC(=O)OCCOCCOC(=O)c1ccc(-c2c3nc(c(-c4c(F)c(F)c(F)c(F)c4F)c4ccc([nH]4)c(-c4c(F)c(F)c(F)c(F)c4F)c4nc(c(-c5c(F)c(F)c(F)c(F)c5F)c5ccc2[nH]5)C=C4)C=C3)cc1
REMARK SMILES IDX 28 1 27 2 26 3 24 4 25 5 23 6 22 7 21 8 3 9 4 10 5 11 20 12
REMARK SMILES IDX 19 13 2 14 1 15 6 16 7 17 8 18 17 19 9 20 16 21 18 22 10 23
REMARK SMILES IDX 11 24 15 25 12 26 14 27 13 28 29 29 30 30 31 31 32 32 33 33
REMARK SMILES IDX 34 34 35 35 36 36 97 37 37 38 96 39 38 40 39 41 40 42 90 43
REMARK SMILES IDX 41 44 95 45 89 46 91 47 42 48 94 49 88 50 87 51 43 53 75 54
REMARK SMILES IDX 55 55 74 56 56 57 59 58 73 59 92 60 57 61 58 62 72 64 93 65
REMARK SMILES IDX 60 66 44 67 45 68 53 69 46 70 47 71 51 72 54 73 48 74 49 75
REMARK SMILES IDX 52 76 50 77 76 78 77 79 85 80 78 81 79 82 83 83 86 84 80 85
REMARK SMILES IDX 81 86 84 87 82 88 61 89 62 90 70 91 63 92 64 93 68 94 71 95
REMARK SMILES IDX 65 96 66 97 69 98 67 99
REMARK H PARENT 91 52 59 63
REMARK Flexibility Score: inf
ROOT
ATOM      1  C   UNL     1      -0.244   2.962  -0.763  1.00  0.00     0.202 C 
ENDROOT
BRANCH   1   2
ATOM      2  C   UNL     1       1.009   2.817   0.110  1.00  0.00     0.261 C 
BRANCH   2   3
ATOM      3  O   UNL     1       1.926   1.823  -0.396  1.00  0.00    -0.461 OA
BRANCH   3   4
ATOM      4  C   UNL     1       2.483   1.009   0.543  1.00  0.00     0.344 C 
ATOM      5  O   UNL     1       2.305   1.128   1.752  1.00  0.00    -0.248 OA
BRANCH   4   6
ATOM      6  C   UNL     1       3.403  -0.071  -0.037  1.00  0.00     0.352 C 
BRANCH   6   7
ATOM      7  O   UNL     1       3.434  -0.343  -1.415  1.00  0.00    -0.478 OA
BRANCH   7   8
ATOM      8  C   UNL     1       2.512  -1.115  -2.055  1.00  0.00     0.162 A 
ATOM      9  C   UNL     1       1.504  -1.956  -1.563  1.00  0.00     0.161 A 
ATOM     10  C   UNL     1       0.625  -2.593  -2.474  1.00  0.00     0.058 A 
ATOM     11  C   UNL     1       0.782  -2.435  -3.865  1.00  0.00    -0.019 A 
ATOM     12  C   UNL     1       2.683  -1.016  -3.445  1.00  0.00     0.051 A 
ATOM     13  C   UNL     1       1.843  -1.669  -4.342  1.00  0.00     0.012 A 
BRANCH   9  14
ATOM     14  O   UNL     1       1.495  -2.413  -0.270  1.00  0.00    -0.493 OA
ATOM     15  C   UNL     1       0.695  -1.697   0.666  1.00  0.00     0.278 C 
ENDBRANCH   9  14
BRANCH  11  16
ATOM     16  C   UNL     1      -0.110  -3.054  -4.855  1.00  0.00     0.044 C 
ATOM     17  C   UNL     1       0.134  -4.206  -5.497  1.00  0.00     0.153 C 
ATOM     18  N   UNL     1      -0.680  -4.747  -6.467  1.00  0.00    -0.205 NA
ATOM     19  C   UNL     1       1.291  -5.111  -5.232  1.00  0.00     0.363 C 
ATOM     20  C   UNL     1      -0.113  -5.886  -6.692  1.00  0.00     0.231 C 
ATOM     21  O   UNL     1       1.029  -6.179  -6.029  1.00  0.00    -0.402 OA
ATOM     22  O   UNL     1       2.245  -4.982  -4.489  1.00  0.00    -0.244 OA
BRANCH  20  23
ATOM     23  C   UNL     1      -0.524  -6.967  -7.582  1.00  0.00     0.037 A 
ATOM     24  C   UNL     1      -0.658  -6.758  -8.955  1.00  0.00     0.014 A 
ATOM     25  C   UNL     1      -0.741  -8.233  -7.026  1.00  0.00     0.014 A 
ATOM     26  C   UNL     1      -0.987  -7.838  -9.779  1.00  0.00     0.001 A 
ATOM     27  C   UNL     1      -1.084  -9.301  -7.851  1.00  0.00     0.001 A 
ATOM     28  C   UNL     1      -1.199  -9.105  -9.227  1.00  0.00     0.000 A 
ENDBRANCH  20  23
ENDBRANCH  11  16
ENDBRANCH   7   8
ENDBRANCH   6   7
ENDBRANCH   4   6
ENDBRANCH   3   4
ENDBRANCH   2   3
ENDBRANCH   1   2
BRANCH   1  29
ATOM     29  O   UNL     1      -1.120   1.837  -0.816  1.00  0.00    -0.374 OA
BRANCH  29  30
ATOM     30  C   UNL     1      -0.674   0.718  -1.579  1.00  0.00     0.202 C 
BRANCH  30  31
ATOM     31  C   UNL     1      -0.873   0.785  -3.089  1.00  0.00     0.261 C 
BRANCH  31  32
ATOM     32  O   UNL     1      -0.019   1.772  -3.671  1.00  0.00    -0.460 OA
BRANCH  32  33
ATOM     33  C   UNL     1      -0.674   2.851  -4.142  1.00  0.00     0.338 C 
ATOM     34  O   UNL     1      -1.877   3.022  -4.236  1.00  0.00    -0.246 OA
BRANCH  33  35
ATOM     35  C   UNL     1       0.305   3.919  -4.364  1.00  0.00     0.060 A 
ATOM     36  C   UNL     1       0.007   5.174  -3.820  1.00  0.00     0.016 A 
ATOM     37  C   UNL     1       1.454   3.705  -5.127  1.00  0.00     0.016 A 
ATOM     38  C   UNL     1       0.816   6.257  -4.119  1.00  0.00     0.010 A 
ATOM     39  C   UNL     1       2.265   4.792  -5.430  1.00  0.00     0.010 A 
ATOM     40  C   UNL     1       1.905   6.074  -4.978  1.00  0.00    -0.014 A 
BRANCH  40  41
ATOM     41  C   UNL     1       2.518   7.255  -5.609  1.00  0.00     0.031 A 
ATOM     42  C   UNL     1       2.096   7.591  -7.009  1.00  0.00     0.074 A 
ATOM     43  C   UNL     1       3.405   7.999  -4.933  1.00  0.00     0.049 A 
ATOM     44  N   UNL     1       2.553   8.509  -7.818  1.00  0.00    -0.248 NA
ATOM     45  C   UNL     1       1.015   6.769  -7.584  1.00  0.00     0.031 C 
ATOM     46  C   UNL     1       3.825   7.763  -3.553  1.00  0.00     0.029 A 
ATOM     47  N   UNL     1       4.122   9.096  -5.326  1.00  0.00    -0.354 N 
ATOM     48  C   UNL     1       1.834   8.358  -8.997  1.00  0.00     0.074 A 
ATOM     49  C   UNL     1       0.933   7.245  -8.816  1.00  0.00     0.031 C 
ATOM     50  C   UNL     1       4.747   8.681  -3.217  1.00  0.00     0.029 A 
ATOM     51  C   UNL     1       5.007   9.534  -4.374  1.00  0.00     0.049 A 
ATOM     52  H   UNL     1       4.014   9.527  -6.204  1.00  0.00     0.167 HD
ATOM     53  C   UNL     1       1.922   9.098 -10.125  1.00  0.00     0.037 A 
ATOM     54  C   UNL     1       5.943  10.498  -4.457  1.00  0.00     0.037 A 
ATOM     55  C   UNL     1       2.827  10.206 -10.268  1.00  0.00     0.049 A 
ATOM     56  C   UNL     1       6.065  11.267  -5.747  1.00  0.00     0.074 A 
ATOM     57  C   UNL     1       3.004  11.043 -11.353  1.00  0.00     0.029 A 
ATOM     58  N   UNL     1       3.714  10.623  -9.284  1.00  0.00    -0.354 N 
ATOM     59  N   UNL     1       5.377  11.134  -6.858  1.00  0.00    -0.248 NA
ATOM     60  C   UNL     1       7.085  12.320  -5.798  1.00  0.00     0.031 C 
ATOM     61  C   UNL     1       4.041  11.928 -11.048  1.00  0.00     0.029 A 
ATOM     62  C   UNL     1       4.457  11.694  -9.745  1.00  0.00     0.049 A 
ATOM     63  H   UNL     1       3.800  10.217  -8.391  1.00  0.00     0.167 HD
ATOM     64  C   UNL     1       5.848  12.114  -7.721  1.00  0.00     0.074 A 
ATOM     65  C   UNL     1       6.883  12.832  -7.004  1.00  0.00     0.031 C 
ATOM     66  C   UNL     1       5.458  12.402  -8.987  1.00  0.00     0.037 A 
BRANCH  53  67
ATOM     67  C   UNL     1       1.054   8.714 -11.288  1.00  0.00     0.064 A 
ATOM     68  C   UNL     1      -0.341   8.868 -11.258  1.00  0.00     0.173 A 
ATOM     69  C   UNL     1       1.630   8.207 -12.463  1.00  0.00     0.173 A 
ATOM     70  F   UNL     1      -0.946   9.331 -10.154  1.00  0.00    -0.203 F 
ATOM     71  C   UNL     1      -1.126   8.507 -12.351  1.00  0.00     0.198 A 
ATOM     72  C   UNL     1       0.845   7.878 -13.565  1.00  0.00     0.198 A 
ATOM     73  F   UNL     1       2.958   8.035 -12.546  1.00  0.00    -0.203 F 
ATOM     74  F   UNL     1      -2.460   8.616 -12.280  1.00  0.00    -0.200 F 
ATOM     75  C   UNL     1      -0.532   8.022 -13.506  1.00  0.00     0.200 A 
ATOM     76  F   UNL     1       1.423   7.421 -14.684  1.00  0.00    -0.200 F 
ATOM     77  F   UNL     1      -1.288   7.685 -14.560  1.00  0.00    -0.200 F 
ENDBRANCH  53  67
BRANCH  54  78
ATOM     78  C   UNL     1       6.831  10.774  -3.298  1.00  0.00     0.064 A 
ATOM     79  C   UNL     1       6.758  11.989  -2.604  1.00  0.00     0.173 A 
ATOM     80  C   UNL     1       7.771   9.829  -2.859  1.00  0.00     0.173 A 
ATOM     81  F   UNL     1       5.884  12.930  -2.992  1.00  0.00    -0.203 F 
ATOM     82  C   UNL     1       7.607  12.259  -1.532  1.00  0.00     0.198 A 
ATOM     83  C   UNL     1       8.598  10.087  -1.768  1.00  0.00     0.198 A 
ATOM     84  F   UNL     1       7.878   8.646  -3.482  1.00  0.00    -0.203 F 
ATOM     85  F   UNL     1       7.549  13.448  -0.918  1.00  0.00    -0.200 F 
ATOM     86  C   UNL     1       8.523  11.306  -1.112  1.00  0.00     0.200 A 
ATOM     87  F   UNL     1       9.467   9.155  -1.353  1.00  0.00    -0.200 F 
ATOM     88  F   UNL     1       9.336  11.565  -0.079  1.00  0.00    -0.200 F 
ENDBRANCH  54  78
BRANCH  66  89
ATOM     89  C   UNL     1       6.092  13.587  -9.653  1.00  0.00     0.064 A 
ATOM     90  C   UNL     1       7.416  13.562 -10.110  1.00  0.00     0.173 A 
ATOM     91  C   UNL     1       5.324  14.733  -9.915  1.00  0.00     0.173 A 
ATOM     92  F   UNL     1       8.193  12.494  -9.873  1.00  0.00    -0.203 F 
ATOM     93  C   UNL     1       7.954  14.649 -10.793  1.00  0.00     0.198 A 
ATOM     94  C   UNL     1       5.854  15.802 -10.629  1.00  0.00     0.198 A 
ATOM     95  F   UNL     1       4.047  14.799  -9.506  1.00  0.00    -0.203 F 
ATOM     96  F   UNL     1       9.234  14.621 -11.189  1.00  0.00    -0.200 F 
ATOM     97  C   UNL     1       7.169  15.761 -11.063  1.00  0.00     0.200 A 
ATOM     98  F   UNL     1       5.087  16.865 -10.906  1.00  0.00    -0.200 F 
ATOM     99  F   UNL     1       7.683  16.796 -11.742  1.00  0.00    -0.200 F 
ENDBRANCH  66  89
ENDBRANCH  40  41
ENDBRANCH  33  35
ENDBRANCH  32  33
ENDBRANCH  31  32
ENDBRANCH  30  31
ENDBRANCH  29  30
ENDBRANCH   1  29
TORSDOF 19
