REMARK SMILES C[C@H]1CC[C@@](Nc2ccc(C(N)=O)nn2)(C(=O)OCCOCCOC(=O)c2ccc(-c3c4nc(c(-c5c(F)c(F)c(F)c(F)c5F)c5ccc([nH]5)c(-c5c(F)c(F)c(F)c(F)c5F)c5nc(c(-c6c(F)c(F)c(F)c(F)c6F)c6ccc3[nH]6)C=C5)C=C4)cc2)CC1
REMARK SMILES IDX 20 1 19 2 18 3 16 4 17 5 5 6 1 7 2 8 91 9 3 10 90 11 4 12
REMARK SMILES IDX 6 13 7 15 8 16 15 17 9 18 14 19 10 20 11 21 12 22 13 23
REMARK SMILES IDX 21 26 22 27 23 28 24 29 25 30 26 31 27 32 28 33 89 34 29 35
REMARK SMILES IDX 88 36 30 37 31 38 32 39 82 40 33 41 87 42 81 43 83 44 34 45
REMARK SMILES IDX 86 46 80 47 79 48 35 50 67 51 47 52 66 53 48 54 51 55 65 56
REMARK SMILES IDX 84 57 49 58 50 59 64 61 85 62 52 63 36 64 37 65 45 66 38 67
REMARK SMILES IDX 39 68 43 69 46 70 40 71 41 72 44 73 42 74 68 75 69 76 77 77
REMARK SMILES IDX 70 78 71 79 75 80 78 81 72 82 73 83 76 84 74 85 53 86 54 87
REMARK SMILES IDX 62 88 55 89 56 90 60 91 63 92 57 93 58 94 61 95 59 96
REMARK H PARENT 6 14 12 24 12 25 83 49 51 60
REMARK Flexibility Score: inf
ROOT
ATOM      1  C   UNL     1      -1.550   0.523  -4.803  1.00  0.00     0.202 C 
ENDROOT
BRANCH   1   2
ATOM      2  C   UNL     1      -2.629   0.152  -3.785  1.00  0.00     0.261 C 
BRANCH   2   3
ATOM      3  O   UNL     1      -2.301   0.489  -2.423  1.00  0.00    -0.461 OA
BRANCH   3   4
ATOM      4  C   UNL     1      -2.088  -0.583  -1.603  1.00  0.00     0.331 C 
ATOM      5  O   UNL     1      -1.943  -1.731  -2.014  1.00  0.00    -0.249 OA
BRANCH   4   6
ATOM      6  C   UNL     1      -2.178  -0.220  -0.088  1.00  0.00     0.137 C 
ATOM      7  C   UNL     1       2.194  -0.006   0.442  1.00  0.00     0.007 C 
ATOM      8  C   UNL     1       0.707   0.001   0.804  1.00  0.00    -0.014 C 
ATOM      9  C   UNL     1       0.061  -1.338   0.441  1.00  0.00     0.006 C 
ATOM     10  C   UNL     1      -0.000   1.177   0.120  1.00  0.00     0.006 C 
ATOM     11  C   UNL     1      -1.448  -1.328   0.708  1.00  0.00     0.041 C 
ATOM     12  C   UNL     1      -1.521   1.141   0.259  1.00  0.00     0.041 C 
BRANCH   6  13
ATOM     13  N   UNL     1      -3.593  -0.168   0.406  1.00  0.00    -0.353 N 
ATOM     14  H   UNL     1      -3.768  -0.121   1.373  1.00  0.00     0.163 HD
BRANCH  13  15
ATOM     15  C   UNL     1      -4.659  -0.184  -0.480  1.00  0.00     0.149 A 
ATOM     16  C   UNL     1      -4.935  -1.278  -1.288  1.00  0.00     0.051 A 
ATOM     17  N   UNL     1      -5.404   0.938  -0.579  1.00  0.00    -0.132 NA
ATOM     18  C   UNL     1      -5.922  -1.183  -2.264  1.00  0.00     0.040 A 
ATOM     19  N   UNL     1      -6.386   1.047  -1.534  1.00  0.00    -0.143 NA
ATOM     20  C   UNL     1      -6.615   0.006  -2.367  1.00  0.00     0.150 A 
BRANCH  20  21
ATOM     21  C   UNL     1      -7.632   0.210  -3.435  1.00  0.00     0.269 C 
ATOM     22  N   UNL     1      -8.329   1.388  -3.392  1.00  0.00    -0.364 N 
ATOM     23  O   UNL     1      -7.832  -0.620  -4.313  1.00  0.00    -0.268 OA
ATOM     24  H   UNL     1      -8.150   2.040  -2.677  1.00  0.00     0.160 HD
ATOM     25  H   UNL     1      -9.009   1.583  -4.077  1.00  0.00     0.160 HD
ENDBRANCH  20  21
ENDBRANCH  13  15
ENDBRANCH   6  13
ENDBRANCH   4   6
ENDBRANCH   3   4
ENDBRANCH   2   3
ENDBRANCH   1   2
BRANCH   1  26
ATOM     26  O   UNL     1      -0.335  -0.220  -4.768  1.00  0.00    -0.374 OA
BRANCH  26  27
ATOM     27  C   UNL     1       0.546  -0.003  -3.669  1.00  0.00     0.202 C 
BRANCH  27  28
ATOM     28  C   UNL     1       1.313   1.324  -3.667  1.00  0.00     0.261 C 
BRANCH  28  29
ATOM     29  O   UNL     1       0.426   2.457  -3.655  1.00  0.00    -0.460 OA
BRANCH  29  30
ATOM     30  C   UNL     1       0.694   3.378  -4.611  1.00  0.00     0.338 C 
ATOM     31  O   UNL     1       1.676   3.441  -5.330  1.00  0.00    -0.246 OA
BRANCH  30  32
ATOM     32  C   UNL     1      -0.471   4.256  -4.810  1.00  0.00     0.060 A 
ATOM     33  C   UNL     1      -1.166   4.144  -6.021  1.00  0.00     0.016 A 
ATOM     34  C   UNL     1      -0.794   5.254  -3.889  1.00  0.00     0.016 A 
ATOM     35  C   UNL     1      -2.161   5.066  -6.337  1.00  0.00     0.010 A 
ATOM     36  C   UNL     1      -1.787   6.185  -4.215  1.00  0.00     0.010 A 
ATOM     37  C   UNL     1      -2.448   6.116  -5.455  1.00  0.00    -0.014 A 
BRANCH  37  38
ATOM     38  C   UNL     1      -3.345   7.210  -5.900  1.00  0.00     0.031 A 
ATOM     39  C   UNL     1      -2.748   8.453  -6.496  1.00  0.00     0.074 A 
ATOM     40  C   UNL     1      -4.679   7.075  -5.812  1.00  0.00     0.049 A 
ATOM     41  N   UNL     1      -3.345   9.520  -6.964  1.00  0.00    -0.248 NA
ATOM     42  C   UNL     1      -1.279   8.500  -6.581  1.00  0.00     0.031 C 
ATOM     43  C   UNL     1      -5.374   5.903  -5.285  1.00  0.00     0.029 A 
ATOM     44  N   UNL     1      -5.687   7.936  -6.166  1.00  0.00    -0.354 N 
ATOM     45  C   UNL     1      -2.330  10.360  -7.402  1.00  0.00     0.074 A 
ATOM     46  C   UNL     1      -1.077   9.694  -7.120  1.00  0.00     0.031 C 
ATOM     47  C   UNL     1      -6.699   6.122  -5.340  1.00  0.00     0.029 A 
ATOM     48  C   UNL     1      -6.942   7.458  -5.884  1.00  0.00     0.049 A 
ATOM     49  H   UNL     1      -5.526   8.814  -6.583  1.00  0.00     0.167 HD
ATOM     50  C   UNL     1      -2.436  11.573  -7.996  1.00  0.00     0.037 A 
ATOM     51  C   UNL     1      -8.147   8.041  -6.033  1.00  0.00     0.037 A 
ATOM     52  C   UNL     1      -3.683  12.236  -8.274  1.00  0.00     0.049 A 
ATOM     53  C   UNL     1      -8.233   9.421  -6.628  1.00  0.00     0.074 A 
ATOM     54  C   UNL     1      -3.894  13.451  -8.901  1.00  0.00     0.029 A 
ATOM     55  N   UNL     1      -4.932  11.741  -7.930  1.00  0.00    -0.354 N 
ATOM     56  N   UNL     1      -7.271  10.191  -7.076  1.00  0.00    -0.248 NA
ATOM     57  C   UNL     1      -9.574  10.013  -6.740  1.00  0.00     0.031 C 
ATOM     58  C   UNL     1      -5.269  13.714  -8.893  1.00  0.00     0.029 A 
ATOM     59  C   UNL     1      -5.916  12.642  -8.301  1.00  0.00     0.049 A 
ATOM     60  H   UNL     1      -5.095  10.876  -7.487  1.00  0.00     0.167 HD
ATOM     61  C   UNL     1      -7.888  11.346  -7.537  1.00  0.00     0.074 A 
ATOM     62  C   UNL     1      -9.310  11.171  -7.330  1.00  0.00     0.031 C 
ATOM     63  C   UNL     1      -7.327  12.454  -8.081  1.00  0.00     0.037 A 
BRANCH  50  64
ATOM     64  C   UNL     1      -1.165  12.276  -8.367  1.00  0.00     0.064 A 
ATOM     65  C   UNL     1      -0.389  11.862  -9.460  1.00  0.00     0.173 A 
ATOM     66  C   UNL     1      -0.741  13.402  -7.648  1.00  0.00     0.173 A 
ATOM     67  F   UNL     1      -0.747  10.783 -10.172  1.00  0.00    -0.203 F 
ATOM     68  C   UNL     1       0.776  12.542  -9.808  1.00  0.00     0.198 A 
ATOM     69  C   UNL     1       0.412  14.092  -8.012  1.00  0.00     0.198 A 
ATOM     70  F   UNL     1      -1.450  13.839  -6.596  1.00  0.00    -0.203 F 
ATOM     71  F   UNL     1       1.521  12.109 -10.835  1.00  0.00    -0.200 F 
ATOM     72  C   UNL     1       1.172  13.659  -9.088  1.00  0.00     0.200 A 
ATOM     73  F   UNL     1       0.789  15.177  -7.321  1.00  0.00    -0.200 F 
ATOM     74  F   UNL     1       2.290  14.316  -9.428  1.00  0.00    -0.200 F 
ENDBRANCH  50  64
BRANCH  51  75
ATOM     75  C   UNL     1      -9.372   7.325  -5.593  1.00  0.00     0.064 A 
ATOM     76  C   UNL     1     -10.309   6.853  -6.521  1.00  0.00     0.173 A 
ATOM     77  C   UNL     1      -9.633   7.109  -4.232  1.00  0.00     0.173 A 
ATOM     78  F   UNL     1     -10.116   7.059  -7.832  1.00  0.00    -0.203 F 
ATOM     79  C   UNL     1     -11.467   6.200  -6.103  1.00  0.00     0.198 A 
ATOM     80  C   UNL     1     -10.778   6.433  -3.817  1.00  0.00     0.198 A 
ATOM     81  F   UNL     1      -8.768   7.544  -3.304  1.00  0.00    -0.203 F 
ATOM     82  F   UNL     1     -12.367   5.791  -7.008  1.00  0.00    -0.200 F 
ATOM     83  C   UNL     1     -11.697   5.985  -4.752  1.00  0.00     0.200 A 
ATOM     84  F   UNL     1     -10.989   6.215  -2.512  1.00  0.00    -0.200 F 
ATOM     85  F   UNL     1     -12.807   5.350  -4.352  1.00  0.00    -0.200 F 
ENDBRANCH  51  75
BRANCH  63  86
ATOM     86  C   UNL     1      -8.253  13.557  -8.500  1.00  0.00     0.064 A 
ATOM     87  C   UNL     1      -8.880  14.383  -7.555  1.00  0.00     0.173 A 
ATOM     88  C   UNL     1      -8.485  13.817  -9.859  1.00  0.00     0.173 A 
ATOM     89  F   UNL     1      -8.701  14.164  -6.244  1.00  0.00    -0.203 F 
ATOM     90  C   UNL     1      -9.722  15.417  -7.956  1.00  0.00     0.198 A 
ATOM     91  C   UNL     1      -9.308  14.868 -10.256  1.00  0.00     0.198 A 
ATOM     92  F   UNL     1      -7.905  13.059 -10.801  1.00  0.00    -0.203 F 
ATOM     93  F   UNL     1     -10.343  16.168  -7.036  1.00  0.00    -0.200 F 
ATOM     94  C   UNL     1      -9.930  15.663  -9.305  1.00  0.00     0.200 A 
ATOM     95  F   UNL     1      -9.499  15.111 -11.560  1.00  0.00    -0.200 F 
ATOM     96  F   UNL     1     -10.736  16.662  -9.689  1.00  0.00    -0.200 F 
ENDBRANCH  63  86
ENDBRANCH  37  38
ENDBRANCH  30  32
ENDBRANCH  29  30
ENDBRANCH  28  29
ENDBRANCH  27  28
ENDBRANCH  26  27
ENDBRANCH   1  26
TORSDOF 17
