REMARK SMILES C/C(=N\NC(N)=S)c1nnn(-c2ccc(C(=O)OCCOCCOC(=O)c3ccc(-c4c5nc(c(-c6c(F)c(F)c(F)c(F)c6F)c6ccc([nH]6)c(-c6c(F)c(F)c(F)c(F)c6F)c6nc(c(-c7c(F)c(F)c(F)c(F)c7F)c7ccc4[nH]7)C=C6)C=C5)cc3)cc2)c1C
REMARK SMILES IDX 19 1 18 2 16 3 17 4 15 5 12 6 13 7 91 8 14 9 90 10 11 11
REMARK SMILES IDX 8 12 9 13 92 14 10 15 93 16 2 17 1 18 3 19 4 20 5 22 7 23
REMARK SMILES IDX 6 24 20 27 21 28 22 29 23 30 24 31 25 32 26 33 27 34 28 35
REMARK SMILES IDX 89 36 29 37 88 38 30 39 31 40 32 41 82 42 33 43 87 44 81 45
REMARK SMILES IDX 83 46 34 47 86 48 80 49 79 50 35 52 67 53 47 54 66 55 48 56
REMARK SMILES IDX 51 57 65 58 84 59 49 60 50 61 64 63 85 64 52 65 36 66 37 67
REMARK SMILES IDX 45 68 38 69 39 70 43 71 46 72 40 73 41 74 44 75 42 76 68 77
REMARK SMILES IDX 69 78 77 79 70 80 71 81 75 82 78 83 72 84 73 85 76 86 74 87
REMARK SMILES IDX 53 88 54 89 62 90 55 91 56 92 60 93 63 94 57 95 58 96 61 97
REMARK SMILES IDX 59 98
REMARK H PARENT 4 21 6 25 6 26 83 51 51 62
REMARK Flexibility Score: inf
ROOT
ATOM      1  C   UNL     1       8.888   6.792   3.840  1.00  0.00     0.261 C 
ENDROOT
BRANCH   1   2
ATOM      2  O   UNL     1       7.678   6.474   3.135  1.00  0.00    -0.460 OA
BRANCH   2   3
ATOM      3  C   UNL     1       6.874   5.582   3.765  1.00  0.00     0.338 C 
ATOM      4  O   UNL     1       7.096   5.002   4.813  1.00  0.00    -0.246 OA
BRANCH   3   5
ATOM      5  C   UNL     1       5.574   5.488   3.064  1.00  0.00     0.060 A 
ATOM      6  C   UNL     1       3.181   4.877   1.813  1.00  0.00     0.067 A 
ATOM      7  C   UNL     1       3.209   4.963   3.209  1.00  0.00     0.029 A 
ATOM      8  C   UNL     1       4.293   5.241   1.043  1.00  0.00     0.029 A 
ATOM      9  C   UNL     1       4.424   5.243   3.833  1.00  0.00     0.018 A 
ATOM     10  C   UNL     1       5.494   5.559   1.671  1.00  0.00     0.018 A 
BRANCH   6  11
ATOM     11  N   UNL     1       2.115   4.189   1.197  1.00  0.00    -0.217 N 
ATOM     12  C   UNL     1       0.923   2.601   0.301  1.00  0.00     0.132 A 
ATOM     13  N   UNL     1       0.084   3.474   0.942  1.00  0.00    -0.128 NA
ATOM     14  C   UNL     1       2.229   3.025   0.452  1.00  0.00     0.071 A 
ATOM     15  N   UNL     1       0.825   4.397   1.541  1.00  0.00    -0.061 NA
ATOM     16  C   UNL     1       3.502   2.325   0.153  1.00  0.00     0.069 C 
BRANCH  12  17
ATOM     17  C   UNL     1       0.482   1.298  -0.168  1.00  0.00     0.087 C 
ATOM     18  C   UNL     1       0.586   0.190   0.844  1.00  0.00     0.071 C 
ATOM     19  N   UNL     1       0.035   1.260  -1.388  1.00  0.00    -0.176 NA
BRANCH  19  20
ATOM     20  N   UNL     1      -0.493   0.146  -1.973  1.00  0.00    -0.254 N 
ATOM     21  H   UNL     1      -1.408   0.262  -2.320  1.00  0.00     0.193 HD
BRANCH  20  22
ATOM     22  C   UNL     1       0.035  -1.115  -2.161  1.00  0.00     0.184 C 
ATOM     23  S   UNL     1       1.497  -1.754  -1.697  1.00  0.00    -0.040 S 
BRANCH  22  24
ATOM     24  N   UNL     1      -0.821  -1.925  -2.862  1.00  0.00    -0.375 N 
ATOM     25  H   UNL     1      -1.696  -1.581  -3.154  1.00  0.00     0.159 HD
ATOM     26  H   UNL     1      -0.560  -2.850  -3.074  1.00  0.00     0.159 HD
ENDBRANCH  22  24
ENDBRANCH  20  22
ENDBRANCH  19  20
ENDBRANCH  12  17
ENDBRANCH   6  11
ENDBRANCH   3   5
ENDBRANCH   2   3
ENDBRANCH   1   2
BRANCH   1  27
ATOM     27  C   UNL     1       8.871   8.210   4.415  1.00  0.00     0.202 C 
BRANCH  27  28
ATOM     28  O   UNL     1       7.907   8.511   5.423  1.00  0.00    -0.374 OA
BRANCH  28  29
ATOM     29  C   UNL     1       6.529   8.575   5.082  1.00  0.00     0.202 C 
BRANCH  29  30
ATOM     30  C   UNL     1       6.048   9.725   4.211  1.00  0.00     0.261 C 
BRANCH  30  31
ATOM     31  O   UNL     1       6.688   9.788   2.943  1.00  0.00    -0.460 OA
BRANCH  31  32
ATOM     32  C   UNL     1       7.597  10.790   2.862  1.00  0.00     0.338 C 
ATOM     33  O   UNL     1       8.217  11.295   3.776  1.00  0.00    -0.246 OA
BRANCH  32  34
ATOM     34  C   UNL     1       7.565  11.347   1.504  1.00  0.00     0.060 A 
ATOM     35  C   UNL     1       8.373  12.461   1.279  1.00  0.00     0.016 A 
ATOM     36  C   UNL     1       6.578  10.952   0.587  1.00  0.00     0.016 A 
ATOM     37  C   UNL     1       8.069  13.284   0.217  1.00  0.00     0.010 A 
ATOM     38  C   UNL     1       6.273  11.778  -0.473  1.00  0.00     0.010 A 
ATOM     39  C   UNL     1       6.977  12.969  -0.608  1.00  0.00    -0.014 A 
BRANCH  39  40
ATOM     40  C   UNL     1       6.751  13.821  -1.758  1.00  0.00     0.031 A 
ATOM     41  C   UNL     1       7.860  13.693  -2.723  1.00  0.00     0.074 A 
ATOM     42  C   UNL     1       5.674  14.608  -1.939  1.00  0.00     0.049 A 
ATOM     43  N   UNL     1       8.826  14.533  -2.875  1.00  0.00    -0.248 NA
ATOM     44  C   UNL     1       8.066  12.410  -3.412  1.00  0.00     0.031 C 
ATOM     45  C   UNL     1       4.435  14.631  -1.161  1.00  0.00     0.029 A 
ATOM     46  N   UNL     1       5.436  15.526  -2.922  1.00  0.00    -0.354 N 
ATOM     47  C   UNL     1       9.629  13.998  -3.872  1.00  0.00     0.074 A 
ATOM     48  C   UNL     1       9.246  12.618  -4.002  1.00  0.00     0.031 C 
ATOM     49  C   UNL     1       3.499  15.345  -1.831  1.00  0.00     0.029 A 
ATOM     50  C   UNL     1       4.111  15.944  -3.005  1.00  0.00     0.049 A 
ATOM     51  H   UNL     1       6.141  15.863  -3.521  1.00  0.00     0.167 HD
ATOM     52  C   UNL     1      10.255  14.847  -4.729  1.00  0.00     0.037 A 
ATOM     53  C   UNL     1       3.567  16.701  -3.993  1.00  0.00     0.037 A 
ATOM     54  C   UNL     1      10.284  16.181  -4.172  1.00  0.00     0.049 A 
ATOM     55  C   UNL     1       4.673  17.470  -4.606  1.00  0.00     0.074 A 
ATOM     56  C   UNL     1      10.900  16.820  -3.117  1.00  0.00     0.029 A 
ATOM     57  N   UNL     1       9.194  16.932  -4.518  1.00  0.00    -0.354 N 
ATOM     58  N   UNL     1       5.304  18.431  -3.991  1.00  0.00    -0.248 NA
ATOM     59  C   UNL     1       5.342  16.939  -5.788  1.00  0.00     0.031 C 
ATOM     60  C   UNL     1      10.023  17.881  -2.730  1.00  0.00     0.029 A 
ATOM     61  C   UNL     1       8.929  17.899  -3.594  1.00  0.00     0.049 A 
ATOM     62  H   UNL     1       8.664  16.792  -5.336  1.00  0.00     0.167 HD
ATOM     63  C   UNL     1       6.612  18.297  -4.411  1.00  0.00     0.074 A 
ATOM     64  C   UNL     1       6.540  17.510  -5.637  1.00  0.00     0.031 C 
ATOM     65  C   UNL     1       7.637  18.546  -3.544  1.00  0.00     0.037 A 
BRANCH  52  66
ATOM     66  C   UNL     1      10.264  14.648  -6.237  1.00  0.00     0.064 A 
ATOM     67  C   UNL     1      10.918  15.614  -7.032  1.00  0.00     0.173 A 
ATOM     68  C   UNL     1       9.382  13.792  -6.936  1.00  0.00     0.173 A 
ATOM     69  F   UNL     1      11.758  16.500  -6.475  1.00  0.00    -0.203 F 
ATOM     70  C   UNL     1      10.640  15.764  -8.394  1.00  0.00     0.198 A 
ATOM     71  C   UNL     1       9.145  13.915  -8.303  1.00  0.00     0.198 A 
ATOM     72  F   UNL     1       8.620  12.882  -6.323  1.00  0.00    -0.203 F 
ATOM     73  F   UNL     1      11.183  16.781  -9.076  1.00  0.00    -0.200 F 
ATOM     74  C   UNL     1       9.747  14.919  -9.026  1.00  0.00     0.200 A 
ATOM     75  F   UNL     1       8.251  13.104  -8.888  1.00  0.00    -0.200 F 
ATOM     76  F   UNL     1       9.428  15.100 -10.314  1.00  0.00    -0.200 F 
ENDBRANCH  52  66
BRANCH  53  77
ATOM     77  C   UNL     1       2.226  16.621  -4.629  1.00  0.00     0.064 A 
ATOM     78  C   UNL     1       1.802  17.605  -5.544  1.00  0.00     0.173 A 
ATOM     79  C   UNL     1       1.473  15.433  -4.604  1.00  0.00     0.173 A 
ATOM     80  F   UNL     1       2.476  18.758  -5.660  1.00  0.00    -0.203 F 
ATOM     81  C   UNL     1       0.734  17.386  -6.422  1.00  0.00     0.198 A 
ATOM     82  C   UNL     1       0.403  15.218  -5.477  1.00  0.00     0.198 A 
ATOM     83  F   UNL     1       1.821  14.414  -3.807  1.00  0.00    -0.203 F 
ATOM     84  F   UNL     1       0.418  18.314  -7.337  1.00  0.00    -0.200 F 
ATOM     85  C   UNL     1       0.047  16.185  -6.400  1.00  0.00     0.200 A 
ATOM     86  F   UNL     1      -0.233  14.038  -5.468  1.00  0.00    -0.200 F 
ATOM     87  F   UNL     1      -0.923  15.941  -7.292  1.00  0.00    -0.200 F 
ENDBRANCH  53  77
BRANCH  65  88
ATOM     88  C   UNL     1       7.350  19.448  -2.383  1.00  0.00     0.064 A 
ATOM     89  C   UNL     1       6.457  19.157  -1.339  1.00  0.00     0.173 A 
ATOM     90  C   UNL     1       8.081  20.641  -2.300  1.00  0.00     0.173 A 
ATOM     91  F   UNL     1       5.783  18.000  -1.307  1.00  0.00    -0.203 F 
ATOM     92  C   UNL     1       6.277  20.049  -0.283  1.00  0.00     0.198 A 
ATOM     93  C   UNL     1       7.930  21.508  -1.226  1.00  0.00     0.198 A 
ATOM     94  F   UNL     1       8.975  20.948  -3.253  1.00  0.00    -0.203 F 
ATOM     95  F   UNL     1       5.401  19.767   0.693  1.00  0.00    -0.200 F 
ATOM     96  C   UNL     1       7.018  21.219  -0.224  1.00  0.00     0.200 A 
ATOM     97  F   UNL     1       8.681  22.615  -1.154  1.00  0.00    -0.200 F 
ATOM     98  F   UNL     1       6.870  22.060   0.809  1.00  0.00    -0.200 F 
ENDBRANCH  65  88
ENDBRANCH  39  40
ENDBRANCH  32  34
ENDBRANCH  31  32
ENDBRANCH  30  31
ENDBRANCH  29  30
ENDBRANCH  28  29
ENDBRANCH  27  28
ENDBRANCH   1  27
TORSDOF 19
