REMARK SMILES Cc1ccc(-c2cnnc(-n3nc(C)c4c3NC(=O)C[C@@H]4c3ccc(C(=O)OCCOCCOC(=O)c4ccc(-c5c6nc(c(-c7c(F)c(F)c(F)c(F)c7F)c7ccc([nH]7)c(-c7c(F)c(F)c(F)c(F)c7F)c7nc(c(-c8c(F)c(F)c(F)c(F)c8F)c8ccc5[nH]8)C=C7)C=C6)cc4)cc3)n2)cc1
REMARK SMILES IDX 30 1 29 2 28 3 26 4 27 5 25 6 22 7 23 8 101 9 24 10 100 11
REMARK SMILES IDX 21 12 11 13 12 14 16 15 13 16 15 17 17 18 14 19 18 20 20 22
REMARK SMILES IDX 19 23 10 24 6 25 7 26 102 27 8 28 9 29 5 30 1 31 2 32 3 33
REMARK SMILES IDX 104 34 4 35 103 36 31 37 32 38 33 39 34 40 35 41 36 42 37 43
REMARK SMILES IDX 38 44 99 45 39 46 98 47 40 48 41 49 42 50 92 51 43 52 97 53
REMARK SMILES IDX 91 54 93 55 44 56 96 57 90 58 89 59 45 61 77 62 57 63 76 64
REMARK SMILES IDX 58 65 61 66 75 67 94 68 59 69 60 70 74 72 95 73 62 74 46 75
REMARK SMILES IDX 47 76 55 77 48 78 49 79 53 80 56 81 50 82 51 83 54 84 52 85
REMARK SMILES IDX 78 86 79 87 87 88 80 89 81 90 85 91 88 92 82 93 83 94 86 95
REMARK SMILES IDX 84 96 63 97 64 98 72 99 65 100 66 101 70 102 73 103 67 104
REMARK SMILES IDX 68 105 71 106 69 107
REMARK H PARENT 17 21 93 60 61 71
REMARK Flexibility Score: inf
ROOT
ATOM      1  C   UNL     1      -9.710   7.291  -7.939  1.00  0.00     0.202 C 
ENDROOT
BRANCH   1   2
ATOM      2  C   UNL     1     -10.850   6.418  -7.554  1.00  0.00     0.261 C 
BRANCH   2   3
ATOM      3  O   UNL     1     -10.474   5.032  -7.480  1.00  0.00    -0.460 OA
BRANCH   3   4
ATOM      4  C   UNL     1     -10.069   4.318  -8.577  1.00  0.00     0.338 C 
ATOM      5  O   UNL     1     -10.505   4.291  -9.693  1.00  0.00    -0.246 OA
BRANCH   4   6
ATOM      6  C   UNL     1      -8.989   3.478  -8.042  1.00  0.00     0.060 A 
ATOM      7  C   UNL     1      -7.306   1.850  -6.588  1.00  0.00    -0.040 A 
ATOM      8  C   UNL     1      -7.887   1.378  -7.783  1.00  0.00     0.005 A 
ATOM      9  C   UNL     1      -7.412   3.204  -6.269  1.00  0.00     0.005 A 
ATOM     10  C   UNL     1      -8.731   2.202  -8.527  1.00  0.00     0.016 A 
ATOM     11  C   UNL     1      -8.273   3.997  -6.965  1.00  0.00     0.016 A 
BRANCH   7  12
ATOM     12  C   UNL     1      -6.584   0.894  -5.674  1.00  0.00     0.064 C 
ATOM     13  N   UNL     1      -5.693   2.129  -2.395  1.00  0.00    -0.180 N 
ATOM     14  N   UNL     1      -6.996   2.496  -2.285  1.00  0.00    -0.168 NA
ATOM     15  C   UNL     1      -5.395   1.984  -3.736  1.00  0.00     0.143 A 
ATOM     16  C   UNL     1      -7.562   1.990  -3.390  1.00  0.00     0.066 A 
ATOM     17  C   UNL     1      -6.561   1.483  -4.290  1.00  0.00     0.026 A 
ATOM     18  N   UNL     1      -4.318   2.323  -4.537  1.00  0.00    -0.310 N 
ATOM     19  C   UNL     1      -9.020   2.234  -3.562  1.00  0.00     0.069 C 
ATOM     20  C   UNL     1      -4.331   1.884  -5.903  1.00  0.00     0.226 C 
ATOM     21  H   UNL     1      -3.566   2.848  -4.179  1.00  0.00     0.171 HD
ATOM     22  C   UNL     1      -5.164   0.660  -6.190  1.00  0.00     0.113 C 
ATOM     23  O   UNL     1      -3.630   2.482  -6.700  1.00  0.00    -0.275 OA
BRANCH  13  24
ATOM     24  C   UNL     1      -5.049   1.414  -1.347  1.00  0.00     0.272 A 
ATOM     25  C   UNL     1      -3.257   0.302  -0.487  1.00  0.00     0.095 A 
ATOM     26  C   UNL     1      -4.096  -0.330   0.414  1.00  0.00     0.164 A 
ATOM     27  N   UNL     1      -3.730   1.152  -1.436  1.00  0.00    -0.208 NA
ATOM     28  N   UNL     1      -5.409  -0.062   0.439  1.00  0.00    -0.153 NA
ATOM     29  N   UNL     1      -5.881   0.856  -0.428  1.00  0.00    -0.109 NA
BRANCH  25  30
ATOM     30  C   UNL     1      -1.802   0.184  -0.388  1.00  0.00     0.002 A 
ATOM     31  C   UNL     1       2.491  -0.047   0.070  1.00  0.00     0.044 C 
ATOM     32  C   UNL     1       1.001   0.040  -0.071  1.00  0.00    -0.051 A 
ATOM     33  C   UNL     1       0.232  -1.128  -0.130  1.00  0.00     0.004 A 
ATOM     34  C   UNL     1       0.365   1.279  -0.162  1.00  0.00     0.004 A 
ATOM     35  C   UNL     1      -1.156  -1.057  -0.285  1.00  0.00     0.011 A 
ATOM     36  C   UNL     1      -1.018   1.348  -0.323  1.00  0.00     0.011 A 
ENDBRANCH  25  30
ENDBRANCH  13  24
ENDBRANCH   7  12
ENDBRANCH   4   6
ENDBRANCH   3   4
ENDBRANCH   2   3
ENDBRANCH   1   2
BRANCH   1  37
ATOM     37  O   UNL     1      -9.395   6.880  -9.254  1.00  0.00    -0.374 OA
BRANCH  37  38
ATOM     38  C   UNL     1      -8.282   7.511  -9.838  1.00  0.00     0.202 C 
BRANCH  38  39
ATOM     39  C   UNL     1      -8.495   9.022  -9.967  1.00  0.00     0.261 C 
BRANCH  39  40
ATOM     40  O   UNL     1      -9.674   9.270 -10.766  1.00  0.00    -0.460 OA
BRANCH  40  41
ATOM     41  C   UNL     1     -10.801   9.647 -10.093  1.00  0.00     0.338 C 
ATOM     42  O   UNL     1     -10.847  10.495  -9.218  1.00  0.00    -0.246 OA
BRANCH  41  43
ATOM     43  C   UNL     1     -11.898   8.659 -10.342  1.00  0.00     0.060 A 
ATOM     44  C   UNL     1     -13.040   8.638  -9.512  1.00  0.00     0.016 A 
ATOM     45  C   UNL     1     -11.614   7.561 -11.146  1.00  0.00     0.016 A 
ATOM     46  C   UNL     1     -13.791   7.457  -9.357  1.00  0.00     0.010 A 
ATOM     47  C   UNL     1     -12.282   6.380 -10.904  1.00  0.00     0.010 A 
ATOM     48  C   UNL     1     -13.346   6.296  -9.985  1.00  0.00    -0.014 A 
BRANCH  48  49
ATOM     49  C   UNL     1     -13.809   4.923  -9.729  1.00  0.00     0.031 A 
ATOM     50  C   UNL     1     -14.386   4.190 -10.874  1.00  0.00     0.074 A 
ATOM     51  C   UNL     1     -13.470   4.237  -8.606  1.00  0.00     0.049 A 
ATOM     52  N   UNL     1     -15.029   3.081 -10.771  1.00  0.00    -0.248 NA
ATOM     53  C   UNL     1     -14.349   4.688 -12.245  1.00  0.00     0.031 C 
ATOM     54  C   UNL     1     -13.316   2.787  -8.431  1.00  0.00     0.029 A 
ATOM     55  N   UNL     1     -13.093   4.722  -7.348  1.00  0.00    -0.354 N 
ATOM     56  C   UNL     1     -15.172   2.564 -12.038  1.00  0.00     0.074 A 
ATOM     57  C   UNL     1     -14.886   3.667 -12.912  1.00  0.00     0.031 C 
ATOM     58  C   UNL     1     -13.155   2.497  -7.125  1.00  0.00     0.029 A 
ATOM     59  C   UNL     1     -13.319   3.736  -6.380  1.00  0.00     0.049 A 
ATOM     60  H   UNL     1     -12.726   5.619  -7.172  1.00  0.00     0.167 HD
ATOM     61  C   UNL     1     -15.363   1.219 -12.161  1.00  0.00     0.037 A 
ATOM     62  C   UNL     1     -14.125   3.992  -5.317  1.00  0.00     0.037 A 
ATOM     63  C   UNL     1     -15.487   0.609 -10.819  1.00  0.00     0.049 A 
ATOM     64  C   UNL     1     -15.345   3.142  -5.489  1.00  0.00     0.074 A 
ATOM     65  C   UNL     1     -14.626  -0.154 -10.046  1.00  0.00     0.029 A 
ATOM     66  N   UNL     1     -16.479   1.069  -9.943  1.00  0.00    -0.354 N 
ATOM     67  N   UNL     1     -15.674   2.652  -6.653  1.00  0.00    -0.248 NA
ATOM     68  C   UNL     1     -16.210   2.679  -4.415  1.00  0.00     0.031 C 
ATOM     69  C   UNL     1     -15.069  -0.084  -8.691  1.00  0.00     0.029 A 
ATOM     70  C   UNL     1     -16.215   0.697  -8.634  1.00  0.00     0.049 A 
ATOM     71  H   UNL     1     -17.265   1.591 -10.222  1.00  0.00     0.167 HD
ATOM     72  C   UNL     1     -16.674   1.756  -6.502  1.00  0.00     0.074 A 
ATOM     73  C   UNL     1     -17.016   1.838  -5.090  1.00  0.00     0.031 C 
ATOM     74  C   UNL     1     -17.144   1.025  -7.551  1.00  0.00     0.037 A 
BRANCH  61  75
ATOM     75  C   UNL     1     -15.186   0.412 -13.447  1.00  0.00     0.064 A 
ATOM     76  C   UNL     1     -15.137  -1.000 -13.398  1.00  0.00     0.173 A 
ATOM     77  C   UNL     1     -15.013   0.934 -14.750  1.00  0.00     0.173 A 
ATOM     78  F   UNL     1     -15.327  -1.663 -12.250  1.00  0.00    -0.203 F 
ATOM     79  C   UNL     1     -14.890  -1.796 -14.526  1.00  0.00     0.198 A 
ATOM     80  C   UNL     1     -14.752   0.142 -15.874  1.00  0.00     0.198 A 
ATOM     81  F   UNL     1     -15.115   2.230 -15.030  1.00  0.00    -0.203 F 
ATOM     82  F   UNL     1     -14.843  -3.129 -14.400  1.00  0.00    -0.200 F 
ATOM     83  C   UNL     1     -14.687  -1.225 -15.764  1.00  0.00     0.200 A 
ATOM     84  F   UNL     1     -14.570   0.729 -17.067  1.00  0.00    -0.200 F 
ATOM     85  F   UNL     1     -14.445  -1.982 -16.842  1.00  0.00    -0.200 F 
ENDBRANCH  61  75
BRANCH  62  86
ATOM     86  C   UNL     1     -14.001   5.408  -4.851  1.00  0.00     0.064 A 
ATOM     87  C   UNL     1     -12.790   5.763  -4.210  1.00  0.00     0.173 A 
ATOM     88  C   UNL     1     -14.732   6.448  -5.445  1.00  0.00     0.173 A 
ATOM     89  F   UNL     1     -12.012   4.808  -3.672  1.00  0.00    -0.203 F 
ATOM     90  C   UNL     1     -12.277   7.061  -4.276  1.00  0.00     0.198 A 
ATOM     91  C   UNL     1     -14.202   7.743  -5.529  1.00  0.00     0.198 A 
ATOM     92  F   UNL     1     -15.880   6.185  -6.084  1.00  0.00    -0.203 F 
ATOM     93  F   UNL     1     -11.038   7.314  -3.825  1.00  0.00    -0.200 F 
ATOM     94  C   UNL     1     -12.963   8.039  -4.976  1.00  0.00     0.200 A 
ATOM     95  F   UNL     1     -14.834   8.679  -6.254  1.00  0.00    -0.200 F 
ATOM     96  F   UNL     1     -12.380   9.224  -5.212  1.00  0.00    -0.200 F 
ENDBRANCH  62  86
BRANCH  74  97
ATOM     97  C   UNL     1     -18.541   0.497  -7.573  1.00  0.00     0.064 A 
ATOM     98  C   UNL     1     -19.589   1.102  -6.856  1.00  0.00     0.173 A 
ATOM     99  C   UNL     1     -18.910  -0.528  -8.467  1.00  0.00     0.173 A 
ATOM    100  F   UNL     1     -19.387   2.188  -6.095  1.00  0.00    -0.203 F 
ATOM    101  C   UNL     1     -20.896   0.642  -6.945  1.00  0.00     0.198 A 
ATOM    102  C   UNL     1     -20.232  -0.927  -8.616  1.00  0.00     0.198 A 
ATOM    103  F   UNL     1     -18.007  -1.142  -9.246  1.00  0.00    -0.203 F 
ATOM    104  F   UNL     1     -21.846   1.203  -6.184  1.00  0.00    -0.200 F 
ATOM    105  C   UNL     1     -21.220  -0.364  -7.833  1.00  0.00     0.200 A 
ATOM    106  F   UNL     1     -20.544  -1.847  -9.538  1.00  0.00    -0.200 F 
ATOM    107  F   UNL     1     -22.488  -0.775  -7.951  1.00  0.00    -0.200 F 
ENDBRANCH  74  97
ENDBRANCH  48  49
ENDBRANCH  41  43
ENDBRANCH  40  41
ENDBRANCH  39  40
ENDBRANCH  38  39
ENDBRANCH  37  38
ENDBRANCH   1  37
TORSDOF 17
