REMARK SMILES O=C(OCCOCCOC(=O)[C@@H]1CC2(CC[NH+](C(=O)C3(c4ccccc4F)CC3)CC2)C[NH2+]1)c1ccc(-c2c3nc(c(-c4c(F)c(F)c(F)c(F)c4F)c4ccc([nH]4)c(-c4c(F)c(F)c(F)c(F)c4F)c4nc(c(-c5c(F)c(F)c(F)c(F)c5F)c5ccc2[nH]5)C=C4)C=C3)cc1
REMARK SMILES IDX 7 1 6 2 5 3 4 4 3 5 2 6 1 7 34 8 35 9 96 10 36 11 95 12
REMARK SMILES IDX 37 13 38 14 39 15 89 16 40 17 94 18 88 19 90 20 41 21 93 22
REMARK SMILES IDX 87 23 86 24 42 26 74 27 54 28 73 29 55 30 58 31 72 32 91 33
REMARK SMILES IDX 56 34 57 35 71 37 92 38 59 39 43 40 44 41 52 42 45 43 46 44
REMARK SMILES IDX 50 45 53 46 47 47 48 48 51 49 49 50 75 51 76 52 84 53 77 54
REMARK SMILES IDX 78 55 82 56 85 57 79 58 80 59 83 60 81 61 60 62 61 63 69 64
REMARK SMILES IDX 62 65 63 66 67 67 70 68 64 69 65 70 68 71 66 72 8 73 9 74
REMARK SMILES IDX 10 75 11 76 12 77 13 78 33 79 14 80 32 81 15 84 31 85 16 86
REMARK SMILES IDX 30 87 17 88 18 90 19 91 20 92 28 93 29 94 21 95 22 96 26 97
REMARK SMILES IDX 23 98 25 99 27 100 24 101
REMARK H PARENT 90 25 58 36 33 82 33 83 17 89
REMARK Flexibility Score: inf
ROOT
ATOM      1  C   UNL     1       2.810  -0.204  -2.234  1.00  0.00     0.202 C 
ENDROOT
BRANCH   1   2
ATOM      2  O   UNL     1       4.085  -0.072  -1.611  1.00  0.00    -0.374 OA
BRANCH   2   3
ATOM      3  C   UNL     1       4.428  -1.039  -0.624  1.00  0.00     0.202 C 
BRANCH   3   4
ATOM      4  C   UNL     1       4.047  -0.716   0.821  1.00  0.00     0.261 C 
BRANCH   4   5
ATOM      5  O   UNL     1       2.631  -0.485   0.916  1.00  0.00    -0.460 OA
BRANCH   5   6
ATOM      6  C   UNL     1       2.002   0.714   0.969  1.00  0.00     0.338 C 
ATOM      7  O   UNL     1       0.780   0.755   1.081  1.00  0.00    -0.246 OA
BRANCH   6   8
ATOM      8  C   UNL     1       2.750   2.000   0.919  1.00  0.00     0.060 A 
ATOM      9  C   UNL     1       3.926   2.172   0.199  1.00  0.00     0.016 A 
ATOM     10  C   UNL     1       2.211   3.117   1.569  1.00  0.00     0.016 A 
ATOM     11  C   UNL     1       4.597   3.362   0.145  1.00  0.00     0.010 A 
ATOM     12  C   UNL     1       2.857   4.356   1.490  1.00  0.00     0.010 A 
ATOM     13  C   UNL     1       4.051   4.467   0.770  1.00  0.00    -0.014 A 
BRANCH  13  14
ATOM     14  C   UNL     1       4.879   5.669   0.709  1.00  0.00     0.031 A 
ATOM     15  C   UNL     1       5.710   5.992   1.901  1.00  0.00     0.074 A 
ATOM     16  C   UNL     1       5.063   6.255  -0.488  1.00  0.00     0.049 A 
ATOM     17  N   UNL     1       6.505   7.004   2.098  1.00  0.00    -0.248 NA
ATOM     18  C   UNL     1       5.664   5.029   3.018  1.00  0.00     0.031 C 
ATOM     19  C   UNL     1       4.448   5.810  -1.746  1.00  0.00     0.029 A 
ATOM     20  N   UNL     1       5.865   7.293  -0.862  1.00  0.00    -0.354 N 
ATOM     21  C   UNL     1       7.011   6.830   3.375  1.00  0.00     0.074 A 
ATOM     22  C   UNL     1       6.458   5.606   3.905  1.00  0.00     0.031 C 
ATOM     23  C   UNL     1       4.928   6.551  -2.756  1.00  0.00     0.029 A 
ATOM     24  C   UNL     1       5.793   7.582  -2.202  1.00  0.00     0.049 A 
ATOM     25  H   UNL     1       6.439   7.787  -0.233  1.00  0.00     0.167 HD
ATOM     26  C   UNL     1       7.850   7.655   4.036  1.00  0.00     0.037 A 
ATOM     27  C   UNL     1       6.332   8.609  -2.881  1.00  0.00     0.037 A 
ATOM     28  C   UNL     1       8.371   8.855   3.444  1.00  0.00     0.049 A 
ATOM     29  C   UNL     1       7.149   9.591  -2.089  1.00  0.00     0.074 A 
ATOM     30  C   UNL     1       9.138   9.846   4.021  1.00  0.00     0.029 A 
ATOM     31  N   UNL     1       8.173   9.215   2.114  1.00  0.00    -0.354 N 
ATOM     32  N   UNL     1       7.510   9.528  -0.827  1.00  0.00    -0.248 NA
ATOM     33  C   UNL     1       7.602  10.796  -2.788  1.00  0.00     0.031 C 
ATOM     34  C   UNL     1       9.363  10.829   3.051  1.00  0.00     0.029 A 
ATOM     35  C   UNL     1       8.787  10.424   1.853  1.00  0.00     0.049 A 
ATOM     36  H   UNL     1       7.669   8.684   1.455  1.00  0.00     0.167 HD
ATOM     37  C   UNL     1       8.236  10.680  -0.577  1.00  0.00     0.074 A 
ATOM     38  C   UNL     1       8.281  11.414  -1.830  1.00  0.00     0.031 C 
ATOM     39  C   UNL     1       8.805  11.103   0.579  1.00  0.00     0.037 A 
BRANCH  26  40
ATOM     40  C   UNL     1       8.141   7.333   5.469  1.00  0.00     0.064 A 
ATOM     41  C   UNL     1       7.556   8.100   6.488  1.00  0.00     0.173 A 
ATOM     42  C   UNL     1       8.954   6.254   5.845  1.00  0.00     0.173 A 
ATOM     43  F   UNL     1       6.753   9.130   6.183  1.00  0.00    -0.203 F 
ATOM     44  C   UNL     1       7.779   7.803   7.830  1.00  0.00     0.198 A 
ATOM     45  C   UNL     1       9.155   5.944   7.189  1.00  0.00     0.198 A 
ATOM     46  F   UNL     1       9.504   5.465   4.910  1.00  0.00    -0.203 F 
ATOM     47  F   UNL     1       7.214   8.555   8.784  1.00  0.00    -0.200 F 
ATOM     48  C   UNL     1       8.572   6.721   8.179  1.00  0.00     0.200 A 
ATOM     49  F   UNL     1       9.888   4.874   7.526  1.00  0.00    -0.200 F 
ATOM     50  F   UNL     1       8.762   6.418   9.471  1.00  0.00    -0.200 F 
ENDBRANCH  26  40
BRANCH  27  51
ATOM     51  C   UNL     1       6.045   8.781  -4.330  1.00  0.00     0.064 A 
ATOM     52  C   UNL     1       4.734   8.996  -4.790  1.00  0.00     0.173 A 
ATOM     53  C   UNL     1       7.060   8.695  -5.290  1.00  0.00     0.173 A 
ATOM     54  F   UNL     1       3.721   9.092  -3.917  1.00  0.00    -0.203 F 
ATOM     55  C   UNL     1       4.448   9.084  -6.151  1.00  0.00     0.198 A 
ATOM     56  C   UNL     1       6.777   8.814  -6.652  1.00  0.00     0.198 A 
ATOM     57  F   UNL     1       8.331   8.510  -4.906  1.00  0.00    -0.203 F 
ATOM     58  F   UNL     1       3.181   9.243  -6.559  1.00  0.00    -0.200 F 
ATOM     59  C   UNL     1       5.470   8.997  -7.081  1.00  0.00     0.200 A 
ATOM     60  F   UNL     1       7.771   8.754  -7.548  1.00  0.00    -0.200 F 
ATOM     61  F   UNL     1       5.198   9.093  -8.390  1.00  0.00    -0.200 F 
ENDBRANCH  27  51
BRANCH  39  62
ATOM     62  C   UNL     1       9.543  12.403   0.533  1.00  0.00     0.064 A 
ATOM     63  C   UNL     1      10.941  12.421   0.639  1.00  0.00     0.173 A 
ATOM     64  C   UNL     1       8.861  13.626   0.493  1.00  0.00     0.173 A 
ATOM     65  F   UNL     1      11.630  11.270   0.690  1.00  0.00    -0.203 F 
ATOM     66  C   UNL     1      11.631  13.623   0.736  1.00  0.00     0.198 A 
ATOM     67  C   UNL     1       9.558  14.828   0.559  1.00  0.00     0.198 A 
ATOM     68  F   UNL     1       7.525  13.652   0.378  1.00  0.00    -0.203 F 
ATOM     69  F   UNL     1      12.962  13.618   0.887  1.00  0.00    -0.200 F 
ATOM     70  C   UNL     1      10.939  14.824   0.694  1.00  0.00     0.200 A 
ATOM     71  F   UNL     1       8.893  15.989   0.496  1.00  0.00    -0.200 F 
ATOM     72  F   UNL     1      11.606  15.983   0.787  1.00  0.00    -0.200 F 
ENDBRANCH  39  62
ENDBRANCH  13  14
ENDBRANCH   6   8
ENDBRANCH   5   6
ENDBRANCH   4   5
ENDBRANCH   3   4
ENDBRANCH   2   3
ENDBRANCH   1   2
BRANCH   1  73
ATOM     73  C   UNL     1       3.020  -0.413  -3.734  1.00  0.00     0.261 C 
BRANCH  73  74
ATOM     74  O   UNL     1       3.597  -1.712  -3.962  1.00  0.00    -0.459 OA
BRANCH  74  75
ATOM     75  C   UNL     1       4.932  -1.862  -3.762  1.00  0.00     0.364 C 
ATOM     76  O   UNL     1       5.738  -0.942  -3.660  1.00  0.00    -0.245 OA
BRANCH  75  77
ATOM     77  C   UNL     1       5.319  -3.339  -3.600  1.00  0.00     0.294 C 
ATOM     78  C   UNL     1       4.355  -4.323  -4.225  1.00  0.00     0.090 C 
ATOM     79  N   UNL     1       5.394  -3.809  -2.205  1.00  0.00    -0.334 N 
ATOM     80  C   UNL     1       3.380  -4.742  -3.099  1.00  0.00     0.036 C 
ATOM     81  C   UNL     1       4.117  -4.397  -1.808  1.00  0.00     0.268 C 
ATOM     82  H   UNL     1       5.608  -3.021  -1.594  1.00  0.00     0.347 HD
ATOM     83  H   UNL     1       6.126  -4.515  -2.129  1.00  0.00     0.347 HD
ATOM     84  C   UNL     1       3.102  -6.243  -3.178  1.00  0.00     0.075 C 
ATOM     85  C   UNL     1       1.992  -4.064  -3.145  1.00  0.00     0.075 C 
ATOM     86  C   UNL     1       2.387  -6.588  -4.477  1.00  0.00     0.271 C 
ATOM     87  C   UNL     1       1.272  -4.367  -4.447  1.00  0.00     0.271 C 
ATOM     88  N   UNL     1       1.166  -5.812  -4.671  1.00  0.00    -0.271 N 
ATOM     89  H   UNL     1       1.388  -4.999  -5.179  1.00  0.00     0.356 HD
BRANCH  88  90
ATOM     90  C   UNL     1      -0.062  -6.263  -5.156  1.00  0.00     0.322 C 
ATOM     91  O   UNL     1      -1.023  -5.488  -5.157  1.00  0.00    -0.230 OA
BRANCH  90  92
ATOM     92  C   UNL     1      -0.308  -7.660  -5.721  1.00  0.00     0.113 C 
ATOM     93  C   UNL     1       0.728  -8.731  -6.045  1.00  0.00     0.028 C 
ATOM     94  C   UNL     1      -0.066  -8.834  -4.777  1.00  0.00     0.028 C 
BRANCH  92  95
ATOM     95  C   UNL     1      -1.521  -7.689  -6.660  1.00  0.00     0.007 A 
ATOM     96  C   UNL     1      -1.359  -7.571  -8.053  1.00  0.00     0.008 A 
ATOM     97  C   UNL     1      -2.831  -7.690  -6.160  1.00  0.00     0.127 A 
ATOM     98  C   UNL     1      -2.460  -7.440  -8.899  1.00  0.00     0.001 A 
ATOM     99  C   UNL     1      -3.934  -7.542  -6.993  1.00  0.00     0.039 A 
ATOM    100  F   UNL     1      -3.035  -7.794  -4.837  1.00  0.00    -0.207 F 
ATOM    101  C   UNL     1      -3.747  -7.412  -8.367  1.00  0.00     0.003 A 
ENDBRANCH  92  95
ENDBRANCH  90  92
ENDBRANCH  88  90
ENDBRANCH  75  77
ENDBRANCH  74  75
ENDBRANCH  73  74
ENDBRANCH   1  73
TORSDOF 17
