REMARK SMILES Cn1c(SCC(=O)OCCOCCOC(=O)c2ccc(-c3c4nc(c(-c5c(F)c(F)c(F)c(F)c5F)c5ccc([nH]5)c(-c5c(F)c(F)c(F)c(F)c5F)c5nc(c(-c6c(F)c(F)c(F)c(F)c6F)c6ccc3[nH]6)C=C5)C=C4)cc2)nnc1-c1ccccc1Br
REMARK SMILES IDX 10 1 9 2 8 3 6 4 7 5 5 6 4 7 3 8 1 9 2 10 82 11 80 12 81 13
REMARK SMILES IDX 83 14 84 15 88 16 85 17 87 18 89 19 86 20 11 21 12 22 13 23
REMARK SMILES IDX 14 24 15 25 16 26 17 27 18 28 79 29 19 30 78 31 20 32 21 33
REMARK SMILES IDX 22 34 72 35 23 36 77 37 71 38 73 39 24 40 76 41 70 42 69 43
REMARK SMILES IDX 25 45 57 46 37 47 56 48 38 49 41 50 55 51 74 52 39 53 40 54
REMARK SMILES IDX 54 56 75 57 42 58 26 59 27 60 35 61 28 62 29 63 33 64 36 65
REMARK SMILES IDX 30 66 31 67 34 68 32 69 58 70 59 71 67 72 60 73 61 74 65 75
REMARK SMILES IDX 68 76 62 77 63 78 66 79 64 80 43 81 44 82 52 83 45 84 46 85
REMARK SMILES IDX 50 86 53 87 47 88 48 89 51 90 49 91
REMARK H PARENT 73 44 41 55
REMARK Flexibility Score: inf
ROOT
ATOM      1  C   UNL     1       3.664   1.877   3.851  1.00  0.00     0.202 C 
ENDROOT
BRANCH   1   2
ATOM      2  C   UNL     1       3.679   3.035   2.844  1.00  0.00     0.261 C 
BRANCH   2   3
ATOM      3  O   UNL     1       2.699   2.965   1.774  1.00  0.00    -0.463 OA
BRANCH   3   4
ATOM      4  C   UNL     1       3.196   2.820   0.517  1.00  0.00     0.316 C 
ATOM      5  O   UNL     1       4.395   2.679   0.277  1.00  0.00    -0.251 OA
BRANCH   4   6
ATOM      6  C   UNL     1       2.215   2.931  -0.631  1.00  0.00     0.200 C 
BRANCH   6   7
ATOM      7  S   UNL     1       0.496   2.511  -0.430  1.00  0.00    -0.074 SA
BRANCH   7   8
ATOM      8  C   UNL     1       0.162   0.807  -0.399  1.00  0.00     0.191 A 
ATOM      9  C   UNL     1       2.186  -0.341  -1.398  1.00  0.00     0.154 C 
ATOM     10  N   UNL     1       0.915  -0.299  -0.730  1.00  0.00    -0.305 N 
ATOM     11  C   UNL     1       0.173  -1.412  -0.324  1.00  0.00     0.165 A 
ATOM     12  N   UNL     1      -0.994   0.392   0.073  1.00  0.00    -0.123 NA
ATOM     13  N   UNL     1      -0.989  -0.975   0.121  1.00  0.00    -0.129 NA
BRANCH  11  14
ATOM     14  C   UNL     1       0.498  -2.838  -0.496  1.00  0.00     0.034 A 
ATOM     15  C   UNL     1       0.087  -3.441  -1.698  1.00  0.00     0.013 A 
ATOM     16  C   UNL     1       1.072  -3.680   0.477  1.00  0.00     0.029 A 
ATOM     17  C   UNL     1       0.289  -4.806  -1.940  1.00  0.00     0.001 A 
ATOM     18  C   UNL     1       1.313  -5.037   0.213  1.00  0.00     0.016 A 
ATOM     19  Br  UNL     1       1.490  -3.195   2.252  1.00  0.00    -0.050 Br
ATOM     20  C   UNL     1       0.923  -5.600  -0.992  1.00  0.00     0.001 A 
ENDBRANCH  11  14
ENDBRANCH   7   8
ENDBRANCH   6   7
ENDBRANCH   4   6
ENDBRANCH   3   4
ENDBRANCH   2   3
ENDBRANCH   1   2
BRANCH   1  21
ATOM     21  O   UNL     1       3.896   0.566   3.358  1.00  0.00    -0.374 OA
BRANCH  21  22
ATOM     22  C   UNL     1       3.041   0.055   2.350  1.00  0.00     0.202 C 
BRANCH  22  23
ATOM     23  C   UNL     1       1.535   0.292   2.464  1.00  0.00     0.261 C 
BRANCH  23  24
ATOM     24  O   UNL     1       1.108   0.724   3.732  1.00  0.00    -0.460 OA
BRANCH  24  25
ATOM     25  C   UNL     1       0.192  -0.022   4.362  1.00  0.00     0.338 C 
ATOM     26  O   UNL     1      -0.285  -1.097   4.092  1.00  0.00    -0.246 OA
BRANCH  25  27
ATOM     27  C   UNL     1      -0.131   0.798   5.515  1.00  0.00     0.060 A 
ATOM     28  C   UNL     1       0.696   0.703   6.632  1.00  0.00     0.016 A 
ATOM     29  C   UNL     1      -1.192   1.702   5.428  1.00  0.00     0.016 A 
ATOM     30  C   UNL     1       0.395   1.472   7.737  1.00  0.00     0.010 A 
ATOM     31  C   UNL     1      -1.477   2.492   6.530  1.00  0.00     0.010 A 
ATOM     32  C   UNL     1      -0.713   2.333   7.696  1.00  0.00    -0.014 A 
BRANCH  32  33
ATOM     33  C   UNL     1      -1.151   2.943   8.958  1.00  0.00     0.031 A 
ATOM     34  C   UNL     1      -2.271   2.288   9.704  1.00  0.00     0.074 A 
ATOM     35  C   UNL     1      -0.473   3.993   9.443  1.00  0.00     0.049 A 
ATOM     36  N   UNL     1      -2.750   2.568  10.886  1.00  0.00    -0.248 NA
ATOM     37  C   UNL     1      -2.941   1.161   9.032  1.00  0.00     0.031 C 
ATOM     38  C   UNL     1       0.643   4.657   8.769  1.00  0.00     0.029 A 
ATOM     39  N   UNL     1      -0.606   4.665  10.624  1.00  0.00    -0.354 N 
ATOM     40  C   UNL     1      -3.768   1.650  11.100  1.00  0.00     0.074 A 
ATOM     41  C   UNL     1      -3.871   0.831   9.914  1.00  0.00     0.031 C 
ATOM     42  C   UNL     1       1.110   5.634   9.563  1.00  0.00     0.029 A 
ATOM     43  C   UNL     1       0.310   5.672  10.783  1.00  0.00     0.049 A 
ATOM     44  H   UNL     1      -1.293   4.448  11.296  1.00  0.00     0.167 HD
ATOM     45  C   UNL     1      -4.534   1.502  12.204  1.00  0.00     0.037 A 
ATOM     46  C   UNL     1       0.474   6.521  11.812  1.00  0.00     0.037 A 
ATOM     47  C   UNL     1      -4.410   2.342  13.365  1.00  0.00     0.049 A 
ATOM     48  C   UNL     1      -0.418   6.356  13.013  1.00  0.00     0.074 A 
ATOM     49  C   UNL     1      -5.129   2.304  14.544  1.00  0.00     0.029 A 
ATOM     50  N   UNL     1      -3.497   3.384  13.482  1.00  0.00    -0.354 N 
ATOM     51  N   UNL     1      -1.365   5.472  13.225  1.00  0.00    -0.248 NA
ATOM     52  C   UNL     1      -0.210   7.294  14.120  1.00  0.00     0.031 C 
ATOM     53  C   UNL     1      -4.684   3.354  15.356  1.00  0.00     0.029 A 
ATOM     54  C   UNL     1      -3.648   4.011  14.706  1.00  0.00     0.049 A 
ATOM     55  H   UNL     1      -2.840   3.639  12.794  1.00  0.00     0.167 HD
ATOM     56  C   UNL     1      -1.855   5.733  14.496  1.00  0.00     0.074 A 
ATOM     57  C   UNL     1      -1.078   6.843  15.014  1.00  0.00     0.031 C 
ATOM     58  C   UNL     1      -2.856   5.119  15.177  1.00  0.00     0.037 A 
BRANCH  45  59
ATOM     59  C   UNL     1      -5.579   0.425  12.182  1.00  0.00     0.064 A 
ATOM     60  C   UNL     1      -5.239  -0.936  12.215  1.00  0.00     0.173 A 
ATOM     61  C   UNL     1      -6.940   0.759  12.127  1.00  0.00     0.173 A 
ATOM     62  F   UNL     1      -3.951  -1.311  12.246  1.00  0.00    -0.203 F 
ATOM     63  C   UNL     1      -6.222  -1.923  12.170  1.00  0.00     0.198 A 
ATOM     64  C   UNL     1      -7.921  -0.229  12.111  1.00  0.00     0.198 A 
ATOM     65  F   UNL     1      -7.320   2.045  12.087  1.00  0.00    -0.203 F 
ATOM     66  F   UNL     1      -5.872  -3.216  12.154  1.00  0.00    -0.200 F 
ATOM     67  C   UNL     1      -7.562  -1.569  12.125  1.00  0.00     0.200 A 
ATOM     68  F   UNL     1      -9.216   0.115  12.075  1.00  0.00    -0.200 F 
ATOM     69  F   UNL     1      -8.507  -2.518  12.087  1.00  0.00    -0.200 F 
ENDBRANCH  45  59
BRANCH  46  70
ATOM     70  C   UNL     1       1.523   7.569  11.748  1.00  0.00     0.064 A 
ATOM     71  C   UNL     1       2.643   7.532  12.590  1.00  0.00     0.173 A 
ATOM     72  C   UNL     1       1.435   8.625  10.827  1.00  0.00     0.173 A 
ATOM     73  F   UNL     1       2.768   6.551  13.495  1.00  0.00    -0.203 F 
ATOM     74  C   UNL     1       3.624   8.519  12.526  1.00  0.00     0.198 A 
ATOM     75  C   UNL     1       2.432   9.594  10.744  1.00  0.00     0.198 A 
ATOM     76  F   UNL     1       0.389   8.703   9.992  1.00  0.00    -0.203 F 
ATOM     77  F   UNL     1       4.665   8.482  13.370  1.00  0.00    -0.200 F 
ATOM     78  C   UNL     1       3.522   9.546  11.599  1.00  0.00     0.200 A 
ATOM     79  F   UNL     1       2.337  10.573   9.834  1.00  0.00    -0.200 F 
ATOM     80  F   UNL     1       4.470  10.489  11.533  1.00  0.00    -0.200 F 
ENDBRANCH  46  70
BRANCH  58  81
ATOM     81  C   UNL     1      -3.139   5.633  16.557  1.00  0.00     0.064 A 
ATOM     82  C   UNL     1      -3.737   6.885  16.766  1.00  0.00     0.173 A 
ATOM     83  C   UNL     1      -2.820   4.857  17.681  1.00  0.00     0.173 A 
ATOM     84  F   UNL     1      -4.046   7.668  15.722  1.00  0.00    -0.203 F 
ATOM     85  C   UNL     1      -3.967   7.358  18.054  1.00  0.00     0.198 A 
ATOM     86  C   UNL     1      -3.084   5.319  18.966  1.00  0.00     0.198 A 
ATOM     87  F   UNL     1      -2.256   3.649  17.532  1.00  0.00    -0.203 F 
ATOM     88  F   UNL     1      -4.479   8.584  18.232  1.00  0.00    -0.200 F 
ATOM     89  C   UNL     1      -3.646   6.574  19.151  1.00  0.00     0.200 A 
ATOM     90  F   UNL     1      -2.787   4.554  20.025  1.00  0.00    -0.200 F 
ATOM     91  F   UNL     1      -3.867   7.032  20.391  1.00  0.00    -0.200 F 
ENDBRANCH  58  81
ENDBRANCH  32  33
ENDBRANCH  25  27
ENDBRANCH  24  25
ENDBRANCH  23  24
ENDBRANCH  22  23
ENDBRANCH  21  22
ENDBRANCH   1  21
TORSDOF 17
