REMARK SMILES O=C(OCCOCCOC(=O)c1ccc(-c2c3nc(c(-c4c(F)c(F)c(F)c(F)c4F)c4ccc([nH]4)c(-c4c(F)c(F)c(F)c(F)c4F)c4nc(c(-c5c(F)c(F)c(F)c(F)c5F)c5ccc2[nH]5)C=C4)C=C3)cc1)C1=Cc2c(ccc(Cl)c2Sc2ccccc2)O[C@H]1C(F)(F)F
REMARK SMILES IDX 6 1 5 2 4 3 3 4 2 5 1 6 75 7 76 8 92 9 77 10 91 11 78 12
REMARK SMILES IDX 83 13 79 14 81 15 80 16 82 17 93 18 94 19 95 20 96 21 84 22
REMARK SMILES IDX 85 23 86 24 90 25 87 26 89 27 88 28 7 29 8 30 9 31 10 32
REMARK SMILES IDX 11 33 12 34 13 35 74 36 14 37 73 38 15 39 16 40 17 41 67 42
REMARK SMILES IDX 18 43 72 44 66 45 68 46 19 47 71 48 65 49 64 50 20 52 52 53
REMARK SMILES IDX 32 54 51 55 33 56 36 57 50 58 69 59 34 60 35 61 49 63 70 64
REMARK SMILES IDX 37 65 21 66 22 67 30 68 23 69 24 70 28 71 31 72 25 73 26 74
REMARK SMILES IDX 29 75 27 76 53 77 54 78 62 79 55 80 56 81 60 82 63 83 57 84
REMARK SMILES IDX 58 85 61 86 59 87 38 88 39 89 47 90 40 91 41 92 45 93 48 94
REMARK SMILES IDX 42 95 43 96 46 97 44 98
REMARK H PARENT 68 51 36 62
REMARK Flexibility Score: inf
ROOT
ATOM      1  O   UNL     1       3.982  -2.960  -2.019  1.00  0.00    -0.374 OA
ENDROOT
BRANCH   1   2
ATOM      2  C   UNL     1       2.896  -2.273  -1.427  1.00  0.00     0.202 C 
BRANCH   2   3
ATOM      3  C   UNL     1       2.245  -1.188  -2.309  1.00  0.00     0.261 C 
BRANCH   3   4
ATOM      4  O   UNL     1       3.152  -0.472  -3.165  1.00  0.00    -0.460 OA
BRANCH   4   5
ATOM      5  C   UNL     1       3.239   0.869  -2.944  1.00  0.00     0.338 C 
ATOM      6  O   UNL     1       2.758   1.727  -3.638  1.00  0.00    -0.246 OA
BRANCH   5   7
ATOM      7  C   UNL     1       4.142   1.192  -1.823  1.00  0.00     0.087 C 
ATOM      8  C   UNL     1       4.096   0.399  -0.752  1.00  0.00     0.028 C 
ATOM      9  C   UNL     1       5.380   2.007  -2.090  1.00  0.00     0.316 C 
ATOM     10  C   UNL     1       4.648   0.910   0.474  1.00  0.00     0.033 A 
ATOM     11  O   UNL     1       6.340   1.941  -0.973  1.00  0.00    -0.475 OA
ATOM     12  C   UNL     1       5.845   1.635   0.277  1.00  0.00     0.129 A 
ATOM     13  C   UNL     1       4.102   0.631   1.748  1.00  0.00     0.042 A 
ATOM     14  C   UNL     1       6.618   1.984   1.367  1.00  0.00     0.049 A 
ATOM     15  C   UNL     1       4.862   1.135   2.828  1.00  0.00     0.055 A 
ATOM     16  C   UNL     1       6.121   1.740   2.643  1.00  0.00     0.025 A 
ATOM     17  Cl  UNL     1       4.284   1.093   4.463  1.00  0.00    -0.083 Cl
BRANCH   9  18
ATOM     18  C   UNL     1       6.087   1.514  -3.379  1.00  0.00     0.430 C 
ATOM     19  F   UNL     1       6.317   0.179  -3.342  1.00  0.00    -0.167 F 
ATOM     20  F   UNL     1       5.356   1.764  -4.490  1.00  0.00    -0.167 F 
ATOM     21  F   UNL     1       7.282   2.122  -3.562  1.00  0.00    -0.167 F 
ENDBRANCH   9  18
BRANCH  13  22
ATOM     22  S   UNL     1       2.752  -0.494   2.200  1.00  0.00    -0.088 SA
BRANCH  22  23
ATOM     23  C   UNL     1       1.340  -0.644   1.137  1.00  0.00     0.012 A 
ATOM     24  C   UNL     1       0.530   0.402   0.699  1.00  0.00     0.015 A 
ATOM     25  C   UNL     1       0.902  -1.955   0.845  1.00  0.00     0.015 A 
ATOM     26  C   UNL     1      -0.588   0.149  -0.125  1.00  0.00     0.001 A 
ATOM     27  C   UNL     1      -0.182  -2.211  -0.008  1.00  0.00     0.001 A 
ATOM     28  C   UNL     1      -0.915  -1.150  -0.518  1.00  0.00     0.000 A 
ENDBRANCH  22  23
ENDBRANCH  13  22
ENDBRANCH   5   7
ENDBRANCH   4   5
ENDBRANCH   3   4
ENDBRANCH   2   3
ENDBRANCH   1   2
BRANCH   1  29
ATOM     29  C   UNL     1       3.877  -4.363  -1.818  1.00  0.00     0.202 C 
BRANCH  29  30
ATOM     30  C   UNL     1       3.938  -4.933  -0.375  1.00  0.00     0.261 C 
BRANCH  30  31
ATOM     31  O   UNL     1       4.098  -4.048   0.758  1.00  0.00    -0.460 OA
BRANCH  31  32
ATOM     32  C   UNL     1       5.373  -3.943   1.220  1.00  0.00     0.338 C 
ATOM     33  O   UNL     1       6.369  -4.257   0.583  1.00  0.00    -0.246 OA
BRANCH  32  34
ATOM     34  C   UNL     1       5.480  -3.498   2.652  1.00  0.00     0.060 A 
ATOM     35  C   UNL     1       6.701  -2.944   3.067  1.00  0.00     0.016 A 
ATOM     36  C   UNL     1       4.511  -3.766   3.629  1.00  0.00     0.016 A 
ATOM     37  C   UNL     1       6.978  -2.713   4.427  1.00  0.00     0.010 A 
ATOM     38  C   UNL     1       4.790  -3.530   4.999  1.00  0.00     0.010 A 
ATOM     39  C   UNL     1       6.042  -3.038   5.417  1.00  0.00    -0.014 A 
BRANCH  39  40
ATOM     40  C   UNL     1       6.441  -2.987   6.864  1.00  0.00     0.031 A 
ATOM     41  C   UNL     1       6.896  -4.244   7.561  1.00  0.00     0.074 A 
ATOM     42  C   UNL     1       6.472  -1.835   7.564  1.00  0.00     0.049 A 
ATOM     43  N   UNL     1       7.366  -4.399   8.775  1.00  0.00    -0.248 NA
ATOM     44  C   UNL     1       6.829  -5.485   6.779  1.00  0.00     0.031 C 
ATOM     45  C   UNL     1       6.123  -0.532   7.025  1.00  0.00     0.029 A 
ATOM     46  N   UNL     1       6.807  -1.569   8.874  1.00  0.00    -0.354 N 
ATOM     47  C   UNL     1       7.683  -5.746   8.892  1.00  0.00     0.074 A 
ATOM     48  C   UNL     1       7.298  -6.374   7.644  1.00  0.00     0.031 C 
ATOM     49  C   UNL     1       6.209   0.395   7.994  1.00  0.00     0.029 A 
ATOM     50  C   UNL     1       6.641  -0.250   9.232  1.00  0.00     0.049 A 
ATOM     51  H   UNL     1       7.134  -2.258   9.497  1.00  0.00     0.167 HD
ATOM     52  C   UNL     1       8.263  -6.398   9.929  1.00  0.00     0.037 A 
ATOM     53  C   UNL     1       6.816   0.375  10.416  1.00  0.00     0.037 A 
ATOM     54  C   UNL     1       8.629  -5.795  11.185  1.00  0.00     0.049 A 
ATOM     55  C   UNL     1       7.360  -0.394  11.592  1.00  0.00     0.074 A 
ATOM     56  C   UNL     1       9.241  -6.383  12.280  1.00  0.00     0.029 A 
ATOM     57  N   UNL     1       8.397  -4.471  11.525  1.00  0.00    -0.354 N 
ATOM     58  N   UNL     1       7.723  -1.650  11.661  1.00  0.00    -0.248 NA
ATOM     59  C   UNL     1       7.546   0.350  12.849  1.00  0.00     0.031 C 
ATOM     60  C   UNL     1       9.327  -5.431  13.302  1.00  0.00     0.029 A 
ATOM     61  C   UNL     1       8.820  -4.234  12.825  1.00  0.00     0.049 A 
ATOM     62  H   UNL     1       7.993  -3.797  10.932  1.00  0.00     0.167 HD
ATOM     63  C   UNL     1       8.216  -1.838  12.946  1.00  0.00     0.074 A 
ATOM     64  C   UNL     1       8.110  -0.565  13.626  1.00  0.00     0.031 C 
ATOM     65  C   UNL     1       8.721  -2.966  13.503  1.00  0.00     0.037 A 
BRANCH  52  66
ATOM     66  C   UNL     1       8.530  -7.865   9.749  1.00  0.00     0.064 A 
ATOM     67  C   UNL     1       9.542  -8.325   8.893  1.00  0.00     0.173 A 
ATOM     68  C   UNL     1       7.785  -8.818  10.458  1.00  0.00     0.173 A 
ATOM     69  F   UNL     1      10.277  -7.453   8.186  1.00  0.00    -0.203 F 
ATOM     70  C   UNL     1       9.777  -9.688   8.729  1.00  0.00     0.198 A 
ATOM     71  C   UNL     1       8.040 -10.179  10.312  1.00  0.00     0.198 A 
ATOM     72  F   UNL     1       6.812  -8.430  11.296  1.00  0.00    -0.203 F 
ATOM     73  F   UNL     1      10.715 -10.106   7.868  1.00  0.00    -0.200 F 
ATOM     74  C   UNL     1       9.029 -10.613   9.441  1.00  0.00     0.200 A 
ATOM     75  F   UNL     1       7.325 -11.072  11.010  1.00  0.00    -0.200 F 
ATOM     76  F   UNL     1       9.255 -11.924   9.283  1.00  0.00    -0.200 F 
ENDBRANCH  52  66
BRANCH  53  77
ATOM     77  C   UNL     1       6.489   1.821  10.552  1.00  0.00     0.064 A 
ATOM     78  C   UNL     1       7.492   2.783  10.734  1.00  0.00     0.173 A 
ATOM     79  C   UNL     1       5.157   2.264  10.534  1.00  0.00     0.173 A 
ATOM     80  F   UNL     1       8.778   2.407  10.791  1.00  0.00    -0.203 F 
ATOM     81  C   UNL     1       7.176   4.130  10.908  1.00  0.00     0.198 A 
ATOM     82  C   UNL     1       4.844   3.614  10.683  1.00  0.00     0.198 A 
ATOM     83  F   UNL     1       4.159   1.384  10.376  1.00  0.00    -0.203 F 
ATOM     84  F   UNL     1       8.152   5.022  11.127  1.00  0.00    -0.200 F 
ATOM     85  C   UNL     1       5.853   4.545  10.877  1.00  0.00     0.200 A 
ATOM     86  F   UNL     1       3.565   4.012  10.649  1.00  0.00    -0.200 F 
ATOM     87  F   UNL     1       5.551   5.840  11.045  1.00  0.00    -0.200 F 
ENDBRANCH  53  77
BRANCH  65  88
ATOM     88  C   UNL     1       9.235  -2.876  14.912  1.00  0.00     0.064 A 
ATOM     89  C   UNL     1       8.371  -2.736  16.008  1.00  0.00     0.173 A 
ATOM     90  C   UNL     1      10.612  -2.972  15.173  1.00  0.00     0.173 A 
ATOM     91  F   UNL     1       7.048  -2.623  15.813  1.00  0.00    -0.203 F 
ATOM     92  C   UNL     1       8.866  -2.673  17.308  1.00  0.00     0.198 A 
ATOM     93  C   UNL     1      11.101  -2.938  16.476  1.00  0.00     0.198 A 
ATOM     94  F   UNL     1      11.483  -3.112  14.162  1.00  0.00    -0.203 F 
ATOM     95  F   UNL     1       8.024  -2.494  18.336  1.00  0.00    -0.200 F 
ATOM     96  C   UNL     1      10.228  -2.782  17.542  1.00  0.00     0.200 A 
ATOM     97  F   UNL     1      12.416  -3.057  16.700  1.00  0.00    -0.200 F 
ATOM     98  F   UNL     1      10.701  -2.730  18.795  1.00  0.00    -0.200 F 
ENDBRANCH  65  88
ENDBRANCH  39  40
ENDBRANCH  32  34
ENDBRANCH  31  32
ENDBRANCH  30  31
ENDBRANCH  29  30
ENDBRANCH   1  29
TORSDOF 17
