REMARK SMILES Cc1ccc(Nc2c(C)cccc2Cl)c(CC(=O)OCCOCCOC(=O)c2ccc(-c3c4nc(c(-c5c(F)c(F)c(F)c(F)c5F)c5ccc([nH]5)c(-c5c(F)c(F)c(F)c(F)c5F)c5nc(c(-c6c(F)c(F)c(F)c(F)c6F)c6ccc3[nH]6)C=C5)C=C4)cc2)c1
REMARK SMILES IDX 21 1 20 2 19 3 17 4 18 5 16 6 15 7 1 8 2 9 3 10 91 11 4 12
REMARK SMILES IDX 5 13 6 14 7 16 8 17 13 18 9 19 10 20 12 21 14 22 11 23 22 24
REMARK SMILES IDX 23 25 24 26 25 27 26 28 27 29 28 30 29 31 90 32 30 33 89 34
REMARK SMILES IDX 31 35 32 36 33 37 83 38 34 39 88 40 82 41 84 42 35 43 87 44
REMARK SMILES IDX 81 45 80 46 36 48 68 49 48 50 67 51 49 52 52 53 66 54 85 55
REMARK SMILES IDX 50 56 51 57 65 59 86 60 53 61 37 62 38 63 46 64 39 65 40 66
REMARK SMILES IDX 44 67 47 68 41 69 42 70 45 71 43 72 69 73 70 74 78 75 71 76
REMARK SMILES IDX 72 77 76 78 79 79 73 80 74 81 77 82 75 83 54 84 55 85 63 86
REMARK SMILES IDX 56 87 57 88 61 89 64 90 58 91 59 92 62 93 60 94
REMARK H PARENT 6 15 84 47 52 58
REMARK Flexibility Score: inf
ROOT
ATOM      1  C   UNL     1      -1.525   1.209  -3.200  1.00  0.00     0.202 C 
ENDROOT
BRANCH   1   2
ATOM      2  C   UNL     1      -1.117   2.367  -2.306  1.00  0.00     0.261 C 
BRANCH   2   3
ATOM      3  O   UNL     1      -1.119   2.028  -0.931  1.00  0.00    -0.463 OA
BRANCH   3   4
ATOM      4  C   UNL     1      -2.019   2.627  -0.093  1.00  0.00     0.310 C 
ATOM      5  O   UNL     1      -2.855   3.467  -0.395  1.00  0.00    -0.252 OA
BRANCH   4   6
ATOM      6  C   UNL     1      -1.820   2.117   1.326  1.00  0.00     0.160 C 
BRANCH   6   7
ATOM      7  C   UNL     1      -1.148   0.757   1.278  1.00  0.00    -0.013 A 
ATOM      8  C   UNL     1       2.376  -0.189   0.132  1.00  0.00     0.044 C 
ATOM      9  C   UNL     1       0.937  -0.307   0.541  1.00  0.00    -0.051 A 
ATOM     10  C   UNL     1       0.224  -1.480   0.322  1.00  0.00     0.005 A 
ATOM     11  C   UNL     1       0.261   0.781   1.088  1.00  0.00     0.009 A 
ATOM     12  C   UNL     1      -1.153  -1.538   0.586  1.00  0.00     0.026 A 
ATOM     13  C   UNL     1      -1.884  -0.420   1.034  1.00  0.00     0.042 A 
BRANCH  13  14
ATOM     14  N   UNL     1      -3.299  -0.476   1.199  1.00  0.00    -0.354 N 
ATOM     15  H   UNL     1      -3.755   0.388   1.316  1.00  0.00     0.167 HD
BRANCH  14  16
ATOM     16  C   UNL     1      -4.133  -1.629   1.216  1.00  0.00     0.060 A 
ATOM     17  C   UNL     1      -3.757  -2.779   1.935  1.00  0.00    -0.026 A 
ATOM     18  C   UNL     1      -5.265  -1.732   0.380  1.00  0.00     0.064 A 
ATOM     19  C   UNL     1      -2.840  -2.691   3.126  1.00  0.00     0.046 C 
ATOM     20  C   UNL     1      -4.311  -4.026   1.603  1.00  0.00     0.005 A 
ATOM     21  C   UNL     1      -5.797  -2.978   0.034  1.00  0.00     0.023 A 
ATOM     22  Cl  UNL     1      -6.114  -0.327  -0.162  1.00  0.00    -0.082 Cl
ATOM     23  C   UNL     1      -5.281  -4.133   0.610  1.00  0.00     0.002 A 
ENDBRANCH  14  16
ENDBRANCH  13  14
ENDBRANCH   6   7
ENDBRANCH   4   6
ENDBRANCH   3   4
ENDBRANCH   2   3
ENDBRANCH   1   2
BRANCH   1  24
ATOM     24  O   UNL     1      -2.920   1.012  -3.089  1.00  0.00    -0.374 OA
BRANCH  24  25
ATOM     25  C   UNL     1      -3.300  -0.012  -2.187  1.00  0.00     0.202 C 
BRANCH  25  26
ATOM     26  C   UNL     1      -3.661  -1.280  -2.960  1.00  0.00     0.261 C 
BRANCH  26  27
ATOM     27  O   UNL     1      -4.892  -1.108  -3.696  1.00  0.00    -0.460 OA
BRANCH  27  28
ATOM     28  C   UNL     1      -4.731  -0.608  -4.950  1.00  0.00     0.338 C 
ATOM     29  O   UNL     1      -4.210  -1.216  -5.880  1.00  0.00    -0.246 OA
BRANCH  28  30
ATOM     30  C   UNL     1      -5.077   0.839  -4.981  1.00  0.00     0.060 A 
ATOM     31  C   UNL     1      -4.455   1.661  -5.938  1.00  0.00     0.016 A 
ATOM     32  C   UNL     1      -5.692   1.400  -3.863  1.00  0.00     0.016 A 
ATOM     33  C   UNL     1      -4.271   3.021  -5.669  1.00  0.00     0.010 A 
ATOM     34  C   UNL     1      -5.388   2.708  -3.545  1.00  0.00     0.010 A 
ATOM     35  C   UNL     1      -4.642   3.515  -4.421  1.00  0.00    -0.014 A 
BRANCH  35  36
ATOM     36  C   UNL     1      -4.207   4.793  -3.855  1.00  0.00     0.031 A 
ATOM     37  C   UNL     1      -5.218   5.730  -3.326  1.00  0.00     0.074 A 
ATOM     38  C   UNL     1      -2.903   5.023  -3.579  1.00  0.00     0.049 A 
ATOM     39  N   UNL     1      -4.920   6.875  -2.825  1.00  0.00    -0.248 NA
ATOM     40  C   UNL     1      -6.660   5.500  -3.374  1.00  0.00     0.031 C 
ATOM     41  C   UNL     1      -2.334   5.876  -2.530  1.00  0.00     0.029 A 
ATOM     42  N   UNL     1      -1.775   4.499  -4.177  1.00  0.00    -0.354 N 
ATOM     43  C   UNL     1      -6.028   7.352  -2.182  1.00  0.00     0.074 A 
ATOM     44  C   UNL     1      -7.114   6.541  -2.668  1.00  0.00     0.031 C 
ATOM     45  C   UNL     1      -1.003   5.968  -2.693  1.00  0.00     0.029 A 
ATOM     46  C   UNL     1      -0.677   5.327  -3.951  1.00  0.00     0.049 A 
ATOM     47  H   UNL     1      -1.750   3.660  -4.690  1.00  0.00     0.167 HD
ATOM     48  C   UNL     1      -5.840   8.309  -1.233  1.00  0.00     0.037 A 
ATOM     49  C   UNL     1       0.004   5.897  -4.987  1.00  0.00     0.037 A 
ATOM     50  C   UNL     1      -4.473   8.854  -1.304  1.00  0.00     0.049 A 
ATOM     51  C   UNL     1      -0.338   7.377  -5.077  1.00  0.00     0.074 A 
ATOM     52  C   UNL     1      -3.335   8.802  -0.518  1.00  0.00     0.029 A 
ATOM     53  N   UNL     1      -4.053   9.368  -2.524  1.00  0.00    -0.354 N 
ATOM     54  N   UNL     1      -1.071   7.992  -4.188  1.00  0.00    -0.248 NA
ATOM     55  C   UNL     1       0.044   8.270  -6.167  1.00  0.00     0.031 C 
ATOM     56  C   UNL     1      -2.225   9.239  -1.321  1.00  0.00     0.029 A 
ATOM     57  C   UNL     1      -2.694   9.603  -2.574  1.00  0.00     0.049 A 
ATOM     58  H   UNL     1      -4.662   9.547  -3.276  1.00  0.00     0.167 HD
ATOM     59  C   UNL     1      -1.325   9.271  -4.565  1.00  0.00     0.074 A 
ATOM     60  C   UNL     1      -0.612   9.398  -5.830  1.00  0.00     0.031 C 
ATOM     61  C   UNL     1      -2.111  10.107  -3.819  1.00  0.00     0.037 A 
BRANCH  48  62
ATOM     62  C   UNL     1      -6.853   8.697  -0.183  1.00  0.00     0.064 A 
ATOM     63  C   UNL     1      -6.619   9.823   0.634  1.00  0.00     0.173 A 
ATOM     64  C   UNL     1      -8.017   7.964   0.141  1.00  0.00     0.173 A 
ATOM     65  F   UNL     1      -5.543  10.600   0.449  1.00  0.00    -0.203 F 
ATOM     66  C   UNL     1      -7.477  10.182   1.680  1.00  0.00     0.198 A 
ATOM     67  C   UNL     1      -8.902   8.356   1.150  1.00  0.00     0.198 A 
ATOM     68  F   UNL     1      -8.323   6.808  -0.456  1.00  0.00    -0.203 F 
ATOM     69  F   UNL     1      -7.176  11.233   2.454  1.00  0.00    -0.200 F 
ATOM     70  C   UNL     1      -8.626   9.457   1.929  1.00  0.00     0.200 A 
ATOM     71  F   UNL     1     -10.011   7.636   1.376  1.00  0.00    -0.200 F 
ATOM     72  F   UNL     1      -9.451   9.805   2.925  1.00  0.00    -0.200 F 
ENDBRANCH  48  62
BRANCH  49  73
ATOM     73  C   UNL     1       0.191   4.895  -6.083  1.00  0.00     0.064 A 
ATOM     74  C   UNL     1       0.965   3.762  -5.731  1.00  0.00     0.173 A 
ATOM     75  C   UNL     1      -0.789   4.724  -7.071  1.00  0.00     0.173 A 
ATOM     76  F   UNL     1       1.909   3.867  -4.782  1.00  0.00    -0.203 F 
ATOM     77  C   UNL     1       0.611   2.485  -6.165  1.00  0.00     0.198 A 
ATOM     78  C   UNL     1      -1.116   3.441  -7.527  1.00  0.00     0.198 A 
ATOM     79  F   UNL     1      -1.573   5.751  -7.428  1.00  0.00    -0.203 F 
ATOM     80  F   UNL     1       1.196   1.410  -5.616  1.00  0.00    -0.200 F 
ATOM     81  C   UNL     1      -0.458   2.324  -7.028  1.00  0.00     0.200 A 
ATOM     82  F   UNL     1      -2.181   3.272  -8.324  1.00  0.00    -0.200 F 
ATOM     83  F   UNL     1      -0.920   1.094  -7.298  1.00  0.00    -0.200 F 
ENDBRANCH  49  73
BRANCH  61  84
ATOM     84  C   UNL     1      -2.411  11.506  -4.269  1.00  0.00     0.064 A 
ATOM     85  C   UNL     1      -1.414  12.341  -4.793  1.00  0.00     0.173 A 
ATOM     86  C   UNL     1      -3.697  12.075  -4.149  1.00  0.00     0.173 A 
ATOM     87  F   UNL     1      -0.134  11.943  -4.831  1.00  0.00    -0.203 F 
ATOM     88  C   UNL     1      -1.712  13.607  -5.293  1.00  0.00     0.198 A 
ATOM     89  C   UNL     1      -3.975  13.369  -4.576  1.00  0.00     0.198 A 
ATOM     90  F   UNL     1      -4.736  11.387  -3.657  1.00  0.00    -0.203 F 
ATOM     91  F   UNL     1      -0.753  14.323  -5.896  1.00  0.00    -0.200 F 
ATOM     92  C   UNL     1      -2.992  14.120  -5.185  1.00  0.00     0.200 A 
ATOM     93  F   UNL     1      -5.209  13.868  -4.419  1.00  0.00    -0.200 F 
ATOM     94  F   UNL     1      -3.280  15.334  -5.673  1.00  0.00    -0.200 F 
ENDBRANCH  61  84
ENDBRANCH  35  36
ENDBRANCH  28  30
ENDBRANCH  27  28
ENDBRANCH  26  27
ENDBRANCH  25  26
ENDBRANCH  24  25
ENDBRANCH   1  24
TORSDOF 17
