REMARK SMILES COc1cc2cc(C(=O)OCCOCCOC(=O)c3ccc(-c4c5nc(c(-c6c(F)c(F)c(F)c(F)c6F)c6ccc([nH]6)c(-c6c(F)c(F)c(F)c(F)c6F)c6nc(c(-c7c(F)c(F)c(F)c(F)c7F)c7ccc4[nH]7)C=C6)C=C5)cc3)n(Cc3ccccc3)c2c(OC)c1OC
REMARK SMILES IDX 13 1 12 2 11 3 10 4 8 5 9 6 7 7 3 8 4 9 94 10 5 11 91 12
REMARK SMILES IDX 6 13 90 14 82 15 2 16 1 17 95 18 96 19 92 20 93 21 83 22
REMARK SMILES IDX 84 23 85 24 89 25 86 26 88 27 87 28 14 29 15 30 16 31 17 32
REMARK SMILES IDX 18 33 19 34 20 35 81 36 21 37 80 38 22 39 23 40 24 41 74 42
REMARK SMILES IDX 25 43 79 44 73 45 75 46 26 47 78 48 72 49 71 50 27 52 59 53
REMARK SMILES IDX 39 54 58 55 40 56 43 57 57 58 76 59 41 60 42 61 56 63 77 64
REMARK SMILES IDX 44 65 28 66 29 67 37 68 30 69 31 70 35 71 38 72 32 73 33 74
REMARK SMILES IDX 36 75 34 76 60 77 61 78 69 79 62 80 63 81 67 82 70 83 64 84
REMARK SMILES IDX 65 85 68 86 66 87 45 88 46 89 54 90 47 91 48 92 52 93 55 94
REMARK SMILES IDX 49 95 50 96 53 97 51 98
REMARK H PARENT 75 51 43 62
REMARK Flexibility Score: inf
ROOT
ATOM      1  O   UNL     1      -1.957   1.731  -9.880  1.00  0.00    -0.374 OA
ENDROOT
BRANCH   1   2
ATOM      2  C   UNL     1      -1.157   2.786 -10.404  1.00  0.00     0.202 C 
BRANCH   2   3
ATOM      3  C   UNL     1      -0.339   3.659  -9.440  1.00  0.00     0.261 C 
BRANCH   3   4
ATOM      4  O   UNL     1       0.396   2.916  -8.459  1.00  0.00    -0.459 OA
BRANCH   4   5
ATOM      5  C   UNL     1      -0.251   2.865  -7.263  1.00  0.00     0.355 C 
ATOM      6  O   UNL     1      -1.299   3.452  -7.021  1.00  0.00    -0.244 OA
BRANCH   5   7
ATOM      7  C   UNL     1       0.343   1.925  -6.338  1.00  0.00     0.129 A 
ATOM      8  C   UNL     1       1.031  -0.115  -2.287  1.00  0.00     0.165 A 
ATOM      9  C   UNL     1       0.035   0.066  -3.240  1.00  0.00     0.061 A 
ATOM     10  C   UNL     1       2.375   0.181  -2.565  1.00  0.00     0.205 A 
ATOM     11  C   UNL     1       0.363   0.683  -4.451  1.00  0.00     0.008 A 
ATOM     12  C   UNL     1       2.739   0.744  -3.827  1.00  0.00     0.189 A 
ATOM     13  C   UNL     1      -0.447   1.178  -5.484  1.00  0.00     0.044 A 
ATOM     14  C   UNL     1       1.689   1.008  -4.753  1.00  0.00     0.096 A 
ATOM     15  N   UNL     1       1.663   1.604  -6.029  1.00  0.00    -0.327 N 
BRANCH   8  16
ATOM     16  O   UNL     1       0.606  -0.589  -1.068  1.00  0.00    -0.493 OA
ATOM     17  C   UNL     1       0.325   0.503  -0.187  1.00  0.00     0.278 C 
ENDBRANCH   8  16
BRANCH  10  18
ATOM     18  O   UNL     1       3.371   0.038  -1.628  1.00  0.00    -0.490 OA
ATOM     19  C   UNL     1       3.257  -1.002  -0.665  1.00  0.00     0.278 C 
ENDBRANCH  10  18
BRANCH  12  20
ATOM     20  O   UNL     1       3.996   1.096  -4.235  1.00  0.00    -0.491 OA
ATOM     21  C   UNL     1       5.087   1.012  -3.333  1.00  0.00     0.278 C 
ENDBRANCH  12  20
BRANCH  15  22
ATOM     22  C   UNL     1       2.849   1.990  -6.805  1.00  0.00     0.158 C 
BRANCH  22  23
ATOM     23  C   UNL     1       3.392   0.876  -7.683  1.00  0.00    -0.028 A 
ATOM     24  C   UNL     1       2.579   0.253  -8.635  1.00  0.00     0.005 A 
ATOM     25  C   UNL     1       4.740   0.490  -7.635  1.00  0.00     0.005 A 
ATOM     26  C   UNL     1       3.078  -0.721  -9.506  1.00  0.00     0.000 A 
ATOM     27  C   UNL     1       5.246  -0.481  -8.513  1.00  0.00     0.000 A 
ATOM     28  C   UNL     1       4.415  -1.083  -9.453  1.00  0.00     0.000 A 
ENDBRANCH  22  23
ENDBRANCH  15  22
ENDBRANCH   5   7
ENDBRANCH   4   5
ENDBRANCH   3   4
ENDBRANCH   2   3
ENDBRANCH   1   2
BRANCH   1  29
ATOM     29  C   UNL     1      -1.310   0.519  -9.473  1.00  0.00     0.202 C 
BRANCH  29  30
ATOM     30  C   UNL     1      -0.561  -0.296 -10.544  1.00  0.00     0.261 C 
BRANCH  30  31
ATOM     31  O   UNL     1       0.571   0.449 -11.010  1.00  0.00    -0.460 OA
BRANCH  31  32
ATOM     32  C   UNL     1       0.892   0.320 -12.324  1.00  0.00     0.338 C 
ATOM     33  O   UNL     1       0.613  -0.590 -13.067  1.00  0.00    -0.246 OA
BRANCH  32  34
ATOM     34  C   UNL     1       1.281   1.688 -12.740  1.00  0.00     0.060 A 
ATOM     35  C   UNL     1       2.156   2.462 -11.970  1.00  0.00     0.016 A 
ATOM     36  C   UNL     1       0.465   2.276 -13.716  1.00  0.00     0.016 A 
ATOM     37  C   UNL     1       2.132   3.846 -12.116  1.00  0.00     0.010 A 
ATOM     38  C   UNL     1       0.431   3.659 -13.844  1.00  0.00     0.010 A 
ATOM     39  C   UNL     1       1.226   4.448 -13.010  1.00  0.00    -0.014 A 
BRANCH  39  40
ATOM     40  C   UNL     1       1.292   5.903 -13.203  1.00  0.00     0.031 A 
ATOM     41  C   UNL     1       2.613   6.339 -13.740  1.00  0.00     0.074 A 
ATOM     42  C   UNL     1       0.258   6.768 -13.090  1.00  0.00     0.049 A 
ATOM     43  N   UNL     1       3.458   7.161 -13.209  1.00  0.00    -0.248 NA
ATOM     44  C   UNL     1       3.115   5.664 -14.950  1.00  0.00     0.031 C 
ATOM     45  C   UNL     1      -1.151   6.465 -12.832  1.00  0.00     0.029 A 
ATOM     46  N   UNL     1       0.235   8.126 -13.280  1.00  0.00    -0.354 N 
ATOM     47  C   UNL     1       4.524   7.243 -14.104  1.00  0.00     0.074 A 
ATOM     48  C   UNL     1       4.334   6.190 -15.064  1.00  0.00     0.031 C 
ATOM     49  C   UNL     1      -1.909   7.552 -13.112  1.00  0.00     0.029 A 
ATOM     50  C   UNL     1      -1.040   8.668 -13.449  1.00  0.00     0.049 A 
ATOM     51  H   UNL     1       1.052   8.674 -13.295  1.00  0.00     0.167 HD
ATOM     52  C   UNL     1       5.343   8.329 -14.118  1.00  0.00     0.037 A 
ATOM     53  C   UNL     1      -1.355   9.920 -13.882  1.00  0.00     0.037 A 
ATOM     54  C   UNL     1       5.273   9.044 -12.870  1.00  0.00     0.049 A 
ATOM     55  C   UNL     1      -0.157  10.769 -13.684  1.00  0.00     0.074 A 
ATOM     56  C   UNL     1       5.551   8.742 -11.552  1.00  0.00     0.029 A 
ATOM     57  N   UNL     1       4.534  10.198 -12.838  1.00  0.00    -0.354 N 
ATOM     58  N   UNL     1       0.306  11.116 -12.518  1.00  0.00    -0.248 NA
ATOM     59  C   UNL     1       0.775  10.876 -14.794  1.00  0.00     0.031 C 
ATOM     60  C   UNL     1       4.569   9.448 -10.796  1.00  0.00     0.029 A 
ATOM     61  C   UNL     1       3.792  10.183 -11.691  1.00  0.00     0.049 A 
ATOM     62  H   UNL     1       4.537  10.909 -13.519  1.00  0.00     0.167 HD
ATOM     63  C   UNL     1       1.680  11.046 -12.664  1.00  0.00     0.074 A 
ATOM     64  C   UNL     1       1.913  10.974 -14.104  1.00  0.00     0.031 C 
ATOM     65  C   UNL     1       2.477  10.761 -11.595  1.00  0.00     0.037 A 
BRANCH  52  66
ATOM     66  C   UNL     1       5.853   8.986 -15.386  1.00  0.00     0.064 A 
ATOM     67  C   UNL     1       6.679  10.124 -15.268  1.00  0.00     0.173 A 
ATOM     68  C   UNL     1       5.304   8.771 -16.669  1.00  0.00     0.173 A 
ATOM     69  F   UNL     1       7.260  10.431 -14.097  1.00  0.00    -0.203 F 
ATOM     70  C   UNL     1       6.833  11.039 -16.312  1.00  0.00     0.198 A 
ATOM     71  C   UNL     1       5.503   9.660 -17.724  1.00  0.00     0.198 A 
ATOM     72  F   UNL     1       4.464   7.766 -16.935  1.00  0.00    -0.203 F 
ATOM     73  F   UNL     1       7.496  12.183 -16.100  1.00  0.00    -0.200 F 
ATOM     74  C   UNL     1       6.232  10.813 -17.535  1.00  0.00     0.200 A 
ATOM     75  F   UNL     1       4.901   9.429 -18.899  1.00  0.00    -0.200 F 
ATOM     76  F   UNL     1       6.312  11.725 -18.513  1.00  0.00    -0.200 F 
ENDBRANCH  52  66
BRANCH  53  77
ATOM     77  C   UNL     1      -2.474  10.381 -14.754  1.00  0.00     0.064 A 
ATOM     78  C   UNL     1      -2.733  11.755 -14.940  1.00  0.00     0.173 A 
ATOM     79  C   UNL     1      -3.096   9.509 -15.666  1.00  0.00     0.173 A 
ATOM     80  F   UNL     1      -2.151  12.666 -14.146  1.00  0.00    -0.203 F 
ATOM     81  C   UNL     1      -3.523  12.225 -15.997  1.00  0.00     0.198 A 
ATOM     82  C   UNL     1      -3.889   9.979 -16.718  1.00  0.00     0.198 A 
ATOM     83  F   UNL     1      -2.865   8.191 -15.622  1.00  0.00    -0.203 F 
ATOM     84  F   UNL     1      -3.679  13.543 -16.185  1.00  0.00    -0.200 F 
ATOM     85  C   UNL     1      -4.088  11.336 -16.895  1.00  0.00     0.200 A 
ATOM     86  F   UNL     1      -4.400   9.111 -17.602  1.00  0.00    -0.200 F 
ATOM     87  F   UNL     1      -4.782  11.785 -17.950  1.00  0.00    -0.200 F 
ENDBRANCH  53  77
BRANCH  65  88
ATOM     88  C   UNL     1       1.875  10.820 -10.222  1.00  0.00     0.064 A 
ATOM     89  C   UNL     1       0.872   9.951  -9.763  1.00  0.00     0.173 A 
ATOM     90  C   UNL     1       2.481  11.668  -9.285  1.00  0.00     0.173 A 
ATOM     91  F   UNL     1       0.305   9.054 -10.580  1.00  0.00    -0.203 F 
ATOM     92  C   UNL     1       0.488   9.944  -8.422  1.00  0.00     0.198 A 
ATOM     93  C   UNL     1       2.122  11.632  -7.943  1.00  0.00     0.198 A 
ATOM     94  F   UNL     1       3.476  12.486  -9.665  1.00  0.00    -0.203 F 
ATOM     95  F   UNL     1      -0.464   9.098  -8.001  1.00  0.00    -0.200 F 
ATOM     96  C   UNL     1       1.125  10.773  -7.512  1.00  0.00     0.200 A 
ATOM     97  F   UNL     1       2.776  12.399  -7.059  1.00  0.00    -0.200 F 
ATOM     98  F   UNL     1       0.801  10.720  -6.212  1.00  0.00    -0.200 F 
ENDBRANCH  65  88
ENDBRANCH  39  40
ENDBRANCH  32  34
ENDBRANCH  31  32
ENDBRANCH  30  31
ENDBRANCH  29  30
ENDBRANCH   1  29
TORSDOF 19
