REMARK SMILES C[C@@H]1[C@@H](C(=O)OCCOCCOC(=O)c2ccc(-c3c4nc(c(-c5c(F)c(F)c(F)c(F)c5F)c5ccc([nH]5)c(-c5c(F)c(F)c(F)c(F)c5F)c5nc(c(-c6c(F)c(F)c(F)c(F)c6F)c6ccc3[nH]6)C=C5)C=C4)cc2)CCN1C(=O)[C@@H]1CCCN(C(N)=O)C1
REMARK SMILES IDX 8 1 7 2 6 3 4 4 5 5 3 6 1 7 2 8 80 9 78 10 79 11 81 12 82 13
REMARK SMILES IDX 83 14 84 15 91 16 85 17 87 18 86 19 88 20 89 21 90 22 9 25
REMARK SMILES IDX 10 26 11 27 12 28 13 29 14 30 15 31 16 32 77 33 17 34 76 35
REMARK SMILES IDX 18 36 19 37 20 38 70 39 21 40 75 41 69 42 71 43 22 44 74 45
REMARK SMILES IDX 68 46 67 47 23 49 55 50 35 51 54 52 36 53 39 54 53 55 72 56
REMARK SMILES IDX 37 57 38 58 52 60 73 61 40 62 24 63 25 64 33 65 26 66 27 67
REMARK SMILES IDX 31 68 34 69 28 70 29 71 32 72 30 73 56 74 57 75 65 76 58 77
REMARK SMILES IDX 59 78 63 79 66 80 60 81 61 82 64 83 62 84 41 85 42 86 50 87
REMARK SMILES IDX 43 88 44 89 48 90 51 91 45 92 46 93 49 94 47 95
REMARK H PARENT 89 23 89 24 71 48 39 59
REMARK Flexibility Score: inf
ROOT
ATOM      1  C   UNL     1      -1.609   2.487  -4.510  1.00  0.00     0.202 C 
ENDROOT
BRANCH   1   2
ATOM      2  C   UNL     1      -2.425   1.675  -3.501  1.00  0.00     0.261 C 
BRANCH   2   3
ATOM      3  O   UNL     1      -1.947   1.791  -2.156  1.00  0.00    -0.463 OA
BRANCH   3   4
ATOM      4  C   UNL     1      -1.393   0.651  -1.651  1.00  0.00     0.311 C 
ATOM      5  O   UNL     1      -1.352  -0.422  -2.239  1.00  0.00    -0.252 OA
BRANCH   4   6
ATOM      6  C   UNL     1      -0.849   0.898  -0.255  1.00  0.00     0.123 C 
ATOM      7  C   UNL     1       1.154   0.513   1.231  1.00  0.00     0.032 C 
ATOM      8  C   UNL     1       0.350  -0.019   0.035  1.00  0.00     0.096 C 
ATOM      9  N   UNL     1      -0.285  -1.301   0.347  1.00  0.00    -0.339 N 
ATOM     10  C   UNL     1      -1.874   0.438   0.778  1.00  0.00     0.039 C 
ATOM     11  C   UNL     1      -1.650  -1.072   0.828  1.00  0.00     0.121 C 
BRANCH   9  12
ATOM     12  C   UNL     1       0.059  -2.585  -0.017  1.00  0.00     0.227 C 
ATOM     13  O   UNL     1      -0.752  -3.500   0.203  1.00  0.00    -0.275 OA
BRANCH  12  14
ATOM     14  C   UNL     1       1.379  -2.988  -0.701  1.00  0.00     0.098 C 
ATOM     15  C   UNL     1       2.677  -2.781   0.073  1.00  0.00     0.017 C 
ATOM     16  C   UNL     1       1.493  -2.648  -2.182  1.00  0.00     0.134 C 
ATOM     17  C   UNL     1       3.479  -1.548  -0.317  1.00  0.00     0.022 C 
ATOM     18  N   UNL     1       2.192  -1.395  -2.451  1.00  0.00    -0.324 N 
ATOM     19  C   UNL     1       3.490  -1.228  -1.806  1.00  0.00     0.121 C 
BRANCH  18  20
ATOM     20  C   UNL     1       1.883  -0.539  -3.484  1.00  0.00     0.314 C 
ATOM     21  N   UNL     1       0.688  -0.709  -4.087  1.00  0.00    -0.351 N 
ATOM     22  O   UNL     1       2.621   0.367  -3.859  1.00  0.00    -0.249 OA
ATOM     23  H   UNL     1       0.087  -1.432  -3.794  1.00  0.00     0.161 HD
ATOM     24  H   UNL     1       0.416  -0.109  -4.819  1.00  0.00     0.161 HD
ENDBRANCH  18  20
ENDBRANCH  12  14
ENDBRANCH   9  12
ENDBRANCH   4   6
ENDBRANCH   3   4
ENDBRANCH   2   3
ENDBRANCH   1   2
BRANCH   1  25
ATOM     25  O   UNL     1      -0.196   2.356  -4.514  1.00  0.00    -0.374 OA
BRANCH  25  26
ATOM     26  C   UNL     1       0.558   2.827  -3.397  1.00  0.00     0.202 C 
BRANCH  26  27
ATOM     27  C   UNL     1       0.504   4.308  -2.991  1.00  0.00     0.261 C 
BRANCH  27  28
ATOM     28  O   UNL     1      -0.818   4.801  -2.733  1.00  0.00    -0.460 OA
BRANCH  28  29
ATOM     29  C   UNL     1      -1.262   5.709  -3.635  1.00  0.00     0.338 C 
ATOM     30  O   UNL     1      -0.666   6.159  -4.605  1.00  0.00    -0.246 OA
BRANCH  29  31
ATOM     31  C   UNL     1      -2.689   5.961  -3.406  1.00  0.00     0.060 A 
ATOM     32  C   UNL     1      -3.588   5.632  -4.430  1.00  0.00     0.016 A 
ATOM     33  C   UNL     1      -3.127   6.580  -2.235  1.00  0.00     0.016 A 
ATOM     34  C   UNL     1      -4.935   5.944  -4.296  1.00  0.00     0.010 A 
ATOM     35  C   UNL     1      -4.477   6.909  -2.110  1.00  0.00     0.010 A 
ATOM     36  C   UNL     1      -5.377   6.619  -3.152  1.00  0.00    -0.014 A 
BRANCH  36  37
ATOM     37  C   UNL     1      -6.748   7.169  -3.125  1.00  0.00     0.031 A 
ATOM     38  C   UNL     1      -6.945   8.623  -3.440  1.00  0.00     0.074 A 
ATOM     39  C   UNL     1      -7.795   6.372  -2.855  1.00  0.00     0.049 A 
ATOM     40  N   UNL     1      -8.042   9.334  -3.434  1.00  0.00    -0.248 NA
ATOM     41  C   UNL     1      -5.738   9.380  -3.811  1.00  0.00     0.031 C 
ATOM     42  C   UNL     1      -7.715   4.938  -2.583  1.00  0.00     0.029 A 
ATOM     43  N   UNL     1      -9.131   6.661  -2.759  1.00  0.00    -0.354 N 
ATOM     44  C   UNL     1      -7.657  10.620  -3.789  1.00  0.00     0.074 A 
ATOM     45  C   UNL     1      -6.223  10.602  -3.972  1.00  0.00     0.031 C 
ATOM     46  C   UNL     1      -8.951   4.472  -2.339  1.00  0.00     0.029 A 
ATOM     47  C   UNL     1      -9.899   5.582  -2.401  1.00  0.00     0.049 A 
ATOM     48  H   UNL     1      -9.503   7.556  -2.930  1.00  0.00     0.167 HD
ATOM     49  C   UNL     1      -8.437  11.714  -3.955  1.00  0.00     0.037 A 
ATOM     50  C   UNL     1     -11.216   5.513  -2.130  1.00  0.00     0.037 A 
ATOM     51  C   UNL     1      -9.864  11.715  -3.767  1.00  0.00     0.049 A 
ATOM     52  C   UNL     1     -12.050   6.763  -2.247  1.00  0.00     0.074 A 
ATOM     53  C   UNL     1     -10.755  12.762  -3.921  1.00  0.00     0.029 A 
ATOM     54  N   UNL     1     -10.607  10.611  -3.372  1.00  0.00    -0.354 N 
ATOM     55  N   UNL     1     -11.687   7.972  -2.604  1.00  0.00    -0.248 NA
ATOM     56  C   UNL     1     -13.478   6.638  -1.927  1.00  0.00     0.031 C 
ATOM     57  C   UNL     1     -12.027  12.308  -3.560  1.00  0.00     0.029 A 
ATOM     58  C   UNL     1     -11.942  10.960  -3.248  1.00  0.00     0.049 A 
ATOM     59  H   UNL     1     -10.240   9.713  -3.205  1.00  0.00     0.167 HD
ATOM     60  C   UNL     1     -12.843   8.742  -2.585  1.00  0.00     0.074 A 
ATOM     61  C   UNL     1     -13.922   7.858  -2.194  1.00  0.00     0.031 C 
ATOM     62  C   UNL     1     -13.001  10.059  -2.866  1.00  0.00     0.037 A 
BRANCH  49  63
ATOM     63  C   UNL     1      -7.760  13.002  -4.326  1.00  0.00     0.064 A 
ATOM     64  C   UNL     1      -7.177  13.197  -5.588  1.00  0.00     0.173 A 
ATOM     65  C   UNL     1      -7.717  14.067  -3.413  1.00  0.00     0.173 A 
ATOM     66  F   UNL     1      -7.176  12.206  -6.492  1.00  0.00    -0.203 F 
ATOM     67  C   UNL     1      -6.554  14.400  -5.911  1.00  0.00     0.198 A 
ATOM     68  C   UNL     1      -7.122  15.279  -3.752  1.00  0.00     0.198 A 
ATOM     69  F   UNL     1      -8.259  13.935  -2.193  1.00  0.00    -0.203 F 
ATOM     70  F   UNL     1      -5.958  14.546  -7.103  1.00  0.00    -0.200 F 
ATOM     71  C   UNL     1      -6.534  15.443  -4.996  1.00  0.00     0.200 A 
ATOM     72  F   UNL     1      -7.116  16.289  -2.871  1.00  0.00    -0.200 F 
ATOM     73  F   UNL     1      -5.941  16.602  -5.312  1.00  0.00    -0.200 F 
ENDBRANCH  49  63
BRANCH  50  74
ATOM     74  C   UNL     1     -11.824   4.223  -1.709  1.00  0.00     0.064 A 
ATOM     75  C   UNL     1     -12.757   3.563  -2.521  1.00  0.00     0.173 A 
ATOM     76  C   UNL     1     -11.498   3.632  -0.479  1.00  0.00     0.173 A 
ATOM     77  F   UNL     1     -13.119   4.098  -3.696  1.00  0.00    -0.203 F 
ATOM     78  C   UNL     1     -13.357   2.375  -2.108  1.00  0.00     0.198 A 
ATOM     79  C   UNL     1     -12.074   2.427  -0.083  1.00  0.00     0.198 A 
ATOM     80  F   UNL     1     -10.609   4.220   0.335  1.00  0.00    -0.203 F 
ATOM     81  F   UNL     1     -14.285   1.793  -2.880  1.00  0.00    -0.200 F 
ATOM     82  C   UNL     1     -13.011   1.805  -0.892  1.00  0.00     0.200 A 
ATOM     83  F   UNL     1     -11.723   1.872   1.086  1.00  0.00    -0.200 F 
ATOM     84  F   UNL     1     -13.586   0.661  -0.498  1.00  0.00    -0.200 F 
ENDBRANCH  50  74
BRANCH  62  85
ATOM     85  C   UNL     1     -14.396  10.614  -2.805  1.00  0.00     0.064 A 
ATOM     86  C   UNL     1     -15.076  10.779  -1.590  1.00  0.00     0.173 A 
ATOM     87  C   UNL     1     -15.045  11.024  -3.981  1.00  0.00     0.173 A 
ATOM     88  F   UNL     1     -14.506  10.391  -0.439  1.00  0.00    -0.203 F 
ATOM     89  C   UNL     1     -16.365  11.305  -1.557  1.00  0.00     0.198 A 
ATOM     90  C   UNL     1     -16.319  11.583  -3.940  1.00  0.00     0.198 A 
ATOM     91  F   UNL     1     -14.436  10.898  -5.170  1.00  0.00    -0.203 F 
ATOM     92  F   UNL     1     -17.017  11.401  -0.390  1.00  0.00    -0.200 F 
ATOM     93  C   UNL     1     -16.982  11.714  -2.730  1.00  0.00     0.200 A 
ATOM     94  F   UNL     1     -16.905  11.995  -5.073  1.00  0.00    -0.200 F 
ATOM     95  F   UNL     1     -18.219  12.228  -2.694  1.00  0.00    -0.200 F 
ENDBRANCH  62  85
ENDBRANCH  36  37
ENDBRANCH  29  31
ENDBRANCH  28  29
ENDBRANCH  27  28
ENDBRANCH  26  27
ENDBRANCH  25  26
ENDBRANCH   1  25
TORSDOF 17
