REMARK SMILES CC(C)Oc1ccc([C@H](O)[C@H](F)C(=O)OCCOCCOC(=O)c2ccc(-c3c4nc(c(-c5c(F)c(F)c(F)c(F)c5F)c5ccc([nH]5)c(-c5c(F)c(F)c(F)c(F)c5F)c5nc(c(-c6c(F)c(F)c(F)c(F)c6F)c6ccc3[nH]6)C=C5)C=C4)cc2)cc1
REMARK SMILES IDX 17 1 16 2 15 3 13 4 14 5 11 6 12 7 9 8 8 9 5 10 6 11 88 12
REMARK SMILES IDX 7 13 87 14 4 15 2 16 1 17 3 18 10 19 18 21 19 22 20 23 21 24
REMARK SMILES IDX 22 25 23 26 24 27 25 28 86 29 26 30 85 31 27 32 28 33 29 34
REMARK SMILES IDX 79 35 30 36 84 37 78 38 80 39 31 40 83 41 77 42 76 43 32 45
REMARK SMILES IDX 64 46 44 47 63 48 45 49 48 50 62 51 81 52 46 53 47 54 61 56
REMARK SMILES IDX 82 57 49 58 33 59 34 60 42 61 35 62 36 63 40 64 43 65 37 66
REMARK SMILES IDX 38 67 41 68 39 69 65 70 66 71 74 72 67 73 68 74 72 75 75 76
REMARK SMILES IDX 69 77 70 78 73 79 71 80 50 81 51 82 59 83 52 84 53 85 57 86
REMARK SMILES IDX 60 87 54 88 55 89 58 90 56 91
REMARK H PARENT 10 20 80 44 48 55
REMARK Flexibility Score: inf
ROOT
ATOM      1  C   UNL     1      -6.466  -4.019   7.231  1.00  0.00     0.202 C 
ENDROOT
BRANCH   1   2
ATOM      2  C   UNL     1      -5.285  -4.941   6.918  1.00  0.00     0.261 C 
BRANCH   2   3
ATOM      3  O   UNL     1      -4.483  -4.354   5.880  1.00  0.00    -0.461 OA
BRANCH   3   4
ATOM      4  C   UNL     1      -4.134  -5.183   4.861  1.00  0.00     0.343 C 
ATOM      5  O   UNL     1      -4.185  -6.406   4.911  1.00  0.00    -0.249 OA
BRANCH   4   6
ATOM      6  C   UNL     1      -3.707  -4.411   3.633  1.00  0.00     0.308 C 
ATOM      7  F   UNL     1      -4.116  -3.105   3.633  1.00  0.00    -0.232 F 
BRANCH   6   8
ATOM      8  C   UNL     1      -2.185  -4.507   3.431  1.00  0.00     0.190 C 
BRANCH   8   9
ATOM      9  C   UNL     1      -1.436  -3.205   3.686  1.00  0.00    -0.016 A 
ATOM     10  C   UNL     1      -0.112  -0.764   4.193  1.00  0.00     0.119 A 
ATOM     11  C   UNL     1      -0.082  -1.326   2.921  1.00  0.00     0.047 A 
ATOM     12  C   UNL     1      -0.816  -1.399   5.210  1.00  0.00     0.047 A 
ATOM     13  C   UNL     1      -0.725  -2.541   2.672  1.00  0.00     0.010 A 
ATOM     14  C   UNL     1      -1.458  -2.618   4.963  1.00  0.00     0.010 A 
BRANCH  10  15
ATOM     15  O   UNL     1       0.460   0.465   4.340  1.00  0.00    -0.491 OA
BRANCH  15  16
ATOM     16  C   UNL     1       1.575   0.586   5.240  1.00  0.00     0.167 C 
ATOM     17  C   UNL     1       1.134   0.796   6.685  1.00  0.00     0.052 C 
ATOM     18  C   UNL     1       2.635  -0.506   5.099  1.00  0.00     0.052 C 
ENDBRANCH  15  16
ENDBRANCH  10  15
ENDBRANCH   8   9
BRANCH   8  19
ATOM     19  O   UNL     1      -1.928  -4.982   2.097  1.00  0.00    -0.385 OA
ATOM     20  H   UNL     1      -2.274  -4.344   1.454  1.00  0.00     0.211 HD
ENDBRANCH   8  19
ENDBRANCH   6   8
ENDBRANCH   4   6
ENDBRANCH   3   4
ENDBRANCH   2   3
ENDBRANCH   1   2
BRANCH   1  21
ATOM     21  O   UNL     1      -7.443  -3.911   6.193  1.00  0.00    -0.374 OA
BRANCH  21  22
ATOM     22  C   UNL     1      -7.119  -3.079   5.077  1.00  0.00     0.202 C 
BRANCH  22  23
ATOM     23  C   UNL     1      -7.325  -1.573   5.274  1.00  0.00     0.261 C 
BRANCH  23  24
ATOM     24  O   UNL     1      -6.473  -1.035   6.300  1.00  0.00    -0.460 OA
BRANCH  24  25
ATOM     25  C   UNL     1      -7.115  -0.691   7.439  1.00  0.00     0.338 C 
ATOM     26  O   UNL     1      -8.320  -0.713   7.647  1.00  0.00    -0.246 OA
BRANCH  25  27
ATOM     27  C   UNL     1      -6.146  -0.415   8.515  1.00  0.00     0.060 A 
ATOM     28  C   UNL     1      -6.371  -1.040   9.747  1.00  0.00     0.016 A 
ATOM     29  C   UNL     1      -5.106   0.506   8.365  1.00  0.00     0.016 A 
ATOM     30  C   UNL     1      -5.606  -0.691  10.856  1.00  0.00     0.010 A 
ATOM     31  C   UNL     1      -4.341   0.862   9.483  1.00  0.00     0.010 A 
ATOM     32  C   UNL     1      -4.623   0.301  10.742  1.00  0.00    -0.014 A 
BRANCH  32  33
ATOM     33  C   UNL     1      -4.040   0.867  11.984  1.00  0.00     0.031 A 
ATOM     34  C   UNL     1      -4.621   2.137  12.544  1.00  0.00     0.074 A 
ATOM     35  C   UNL     1      -3.066   0.221  12.647  1.00  0.00     0.049 A 
ATOM     36  N   UNL     1      -4.319   2.776  13.646  1.00  0.00    -0.248 NA
ATOM     37  C   UNL     1      -5.690   2.772  11.756  1.00  0.00     0.031 C 
ATOM     38  C   UNL     1      -2.445  -1.032  12.224  1.00  0.00     0.029 A 
ATOM     39  N   UNL     1      -2.437   0.530  13.826  1.00  0.00    -0.354 N 
ATOM     40  C   UNL     1      -5.159   3.881  13.684  1.00  0.00     0.074 A 
ATOM     41  C   UNL     1      -5.958   3.849  12.478  1.00  0.00     0.031 C 
ATOM     42  C   UNL     1      -1.520  -1.387  13.133  1.00  0.00     0.029 A 
ATOM     43  C   UNL     1      -1.476  -0.380  14.192  1.00  0.00     0.049 A 
ATOM     44  H   UNL     1      -2.653   1.329  14.360  1.00  0.00     0.167 HD
ATOM     45  C   UNL     1      -5.268   4.830  14.644  1.00  0.00     0.037 A 
ATOM     46  C   UNL     1      -0.655  -0.393  15.260  1.00  0.00     0.037 A 
ATOM     47  C   UNL     1      -4.476   4.864  15.845  1.00  0.00     0.049 A 
ATOM     48  C   UNL     1      -0.766   0.698  16.294  1.00  0.00     0.074 A 
ATOM     49  C   UNL     1      -4.515   5.781  16.881  1.00  0.00     0.029 A 
ATOM     50  N   UNL     1      -3.496   3.938  16.168  1.00  0.00    -0.354 N 
ATOM     51  N   UNL     1      -1.585   1.721  16.336  1.00  0.00    -0.248 NA
ATOM     52  C   UNL     1       0.155   0.622  17.437  1.00  0.00     0.031 C 
ATOM     53  C   UNL     1      -3.531   5.431  17.812  1.00  0.00     0.029 A 
ATOM     54  C   UNL     1      -2.912   4.270  17.380  1.00  0.00     0.049 A 
ATOM     55  H   UNL     1      -3.252   3.159  15.617  1.00  0.00     0.167 HD
ATOM     56  C   UNL     1      -1.301   2.390  17.520  1.00  0.00     0.074 A 
ATOM     57  C   UNL     1      -0.242   1.649  18.173  1.00  0.00     0.031 C 
ATOM     58  C   UNL     1      -1.867   3.515  18.022  1.00  0.00     0.037 A 
BRANCH  45  59
ATOM     59  C   UNL     1      -6.270   5.924  14.421  1.00  0.00     0.064 A 
ATOM     60  C   UNL     1      -7.650   5.689  14.523  1.00  0.00     0.173 A 
ATOM     61  C   UNL     1      -5.846   7.228  14.126  1.00  0.00     0.173 A 
ATOM     62  F   UNL     1      -8.106   4.455  14.788  1.00  0.00    -0.203 F 
ATOM     63  C   UNL     1      -8.568   6.714  14.313  1.00  0.00     0.198 A 
ATOM     64  C   UNL     1      -6.766   8.256  13.942  1.00  0.00     0.198 A 
ATOM     65  F   UNL     1      -4.538   7.505  14.020  1.00  0.00    -0.203 F 
ATOM     66  F   UNL     1      -9.882   6.457  14.371  1.00  0.00    -0.200 F 
ATOM     67  C   UNL     1      -8.126   7.998  14.029  1.00  0.00     0.200 A 
ATOM     68  F   UNL     1      -6.337   9.498  13.678  1.00  0.00    -0.200 F 
ATOM     69  F   UNL     1      -9.010   8.985  13.831  1.00  0.00    -0.200 F 
ENDBRANCH  45  59
BRANCH  46  70
ATOM     70  C   UNL     1       0.340  -1.484  15.416  1.00  0.00     0.064 A 
ATOM     71  C   UNL     1       0.210  -2.445  16.429  1.00  0.00     0.173 A 
ATOM     72  C   UNL     1       1.454  -1.574  14.569  1.00  0.00     0.173 A 
ATOM     73  F   UNL     1      -0.825  -2.385  17.279  1.00  0.00    -0.203 F 
ATOM     74  C   UNL     1       1.168  -3.443  16.600  1.00  0.00     0.198 A 
ATOM     75  C   UNL     1       2.396  -2.588  14.724  1.00  0.00     0.198 A 
ATOM     76  F   UNL     1       1.624  -0.678  13.585  1.00  0.00    -0.203 F 
ATOM     77  F   UNL     1       1.045  -4.321  17.605  1.00  0.00    -0.200 F 
ATOM     78  C   UNL     1       2.257  -3.517  15.745  1.00  0.00     0.200 A 
ATOM     79  F   UNL     1       3.442  -2.662  13.889  1.00  0.00    -0.200 F 
ATOM     80  F   UNL     1       3.177  -4.477  15.909  1.00  0.00    -0.200 F 
ENDBRANCH  46  70
BRANCH  58  81
ATOM     81  C   UNL     1      -1.382   3.990  19.361  1.00  0.00     0.064 A 
ATOM     82  C   UNL     1      -0.115   4.569  19.525  1.00  0.00     0.173 A 
ATOM     83  C   UNL     1      -2.208   3.886  20.491  1.00  0.00     0.173 A 
ATOM     84  F   UNL     1       0.717   4.679  18.478  1.00  0.00    -0.203 F 
ATOM     85  C   UNL     1       0.319   4.997  20.777  1.00  0.00     0.198 A 
ATOM     86  C   UNL     1      -1.781   4.342  21.735  1.00  0.00     0.198 A 
ATOM     87  F   UNL     1      -3.432   3.347  20.387  1.00  0.00    -0.203 F 
ATOM     88  F   UNL     1       1.554   5.500  20.919  1.00  0.00    -0.200 F 
ATOM     89  C   UNL     1      -0.515   4.888  21.879  1.00  0.00     0.200 A 
ATOM     90  F   UNL     1      -2.594   4.247  22.797  1.00  0.00    -0.200 F 
ATOM     91  F   UNL     1      -0.095   5.302  23.083  1.00  0.00    -0.200 F 
ENDBRANCH  58  81
ENDBRANCH  32  33
ENDBRANCH  25  27
ENDBRANCH  24  25
ENDBRANCH  23  24
ENDBRANCH  22  23
ENDBRANCH  21  22
ENDBRANCH   1  21
TORSDOF 19
