REMARK SMILES C=CC[N@H+](CC(=O)OCCOCCOC(=O)c1ccc(-c2c3nc(c(-c4c(F)c(F)c(F)c(F)c4F)c4ccc([nH]4)c(-c4c(F)c(F)c(F)c(F)c4F)c4nc(c(-c5c(F)c(F)c(F)c(F)c5F)c5ccc2[nH]5)C=C4)C=C3)cc1)[C@@H]1CCC[C@H](C(C)(C)C)CC1
REMARK SMILES IDX 9 1 8 2 6 3 7 4 5 5 4 6 3 8 2 9 1 10 80 11 81 12 82 13 90 15
REMARK SMILES IDX 89 16 84 17 83 18 85 20 86 21 87 22 88 23 10 24 11 25 12 26
REMARK SMILES IDX 13 27 14 28 15 29 16 30 17 31 18 32 79 33 19 34 78 35 20 36
REMARK SMILES IDX 21 37 22 38 72 39 23 40 77 41 71 42 73 43 24 44 76 45 70 46
REMARK SMILES IDX 69 47 25 49 57 50 37 51 56 52 38 53 41 54 55 55 74 56 39 57
REMARK SMILES IDX 40 58 54 60 75 61 42 62 26 63 27 64 35 65 28 66 29 67 33 68
REMARK SMILES IDX 36 69 30 70 31 71 34 72 32 73 58 74 59 75 67 76 60 77 61 78
REMARK SMILES IDX 65 79 68 80 62 81 63 82 66 83 64 84 43 85 44 86 52 87 45 88
REMARK SMILES IDX 46 89 50 90 53 91 47 92 48 93 51 94 49 95
REMARK H PARENT 4 7 73 48 41 59
REMARK Flexibility Score: 90.00
ROOT
ATOM      1  C   UNL     1      -4.904  -0.351   0.945  1.00  0.00     0.261 C 
ENDROOT
BRANCH   1   2
ATOM      2  O   UNL     1      -3.814  -0.231   0.006  1.00  0.00    -0.459 OA
BRANCH   2   3
ATOM      3  C   UNL     1      -3.995  -0.796  -1.222  1.00  0.00     0.361 C 
ATOM      4  O   UNL     1      -4.913  -1.563  -1.492  1.00  0.00    -0.245 OA
BRANCH   3   5
ATOM      5  C   UNL     1      -3.008  -0.266  -2.291  1.00  0.00     0.387 C 
BRANCH   5   6
ATOM      6  N   UNL     1      -1.753   0.299  -1.746  1.00  0.00    -0.320 N 
ATOM      7  H   UNL     1      -2.010   1.052  -1.107  1.00  0.00     0.349 HD
BRANCH   6   8
ATOM      8  C   UNL     1      -1.060  -0.704  -0.903  1.00  0.00     0.291 C 
BRANCH   8   9
ATOM      9  C   UNL     1       0.363  -1.095  -1.187  1.00  0.00     0.025 C 
ATOM     10  C   UNL     1       1.323  -1.113  -0.249  1.00  0.00     0.010 C 
ENDBRANCH   8   9
ENDBRANCH   6   8
BRANCH   6  11
ATOM     11  C   UNL     1      -0.941   1.161  -2.655  1.00  0.00     0.184 C 
BRANCH  11  12
ATOM     12  C   UNL     1       0.160   1.888  -1.846  1.00  0.00     0.065 C 
BRANCH  12  13
ATOM     13  C   UNL     1       0.603   3.263  -2.319  1.00  0.00     0.006 CG0
ATOM     14  G   UNL     1      -0.364   4.367  -1.905  1.00  0.00     0.000 G0
ENDBRANCH  12  13
ENDBRANCH  11  12
BRANCH  11  15
ATOM     15  C   UNL     1      -1.665   2.116  -3.669  1.00  0.00     0.065 C 
BRANCH  15  16
ATOM     16  C   UNL     1      -2.369   3.429  -3.244  1.00  0.00     0.010 C 
BRANCH  16  17
ATOM     17  C   UNL     1      -1.489   4.671  -2.906  1.00  0.00    -0.005 C 
BRANCH  17  18
ATOM     18  C   UNL     1      -0.364   4.367  -1.905  1.00  0.00     0.004 CG0
ATOM     19  G   UNL     1       0.603   3.263  -2.319  1.00  0.00     0.000 G0
ENDBRANCH  17  18
BRANCH  17  20
ATOM     20  C   UNL     1      -2.314   5.995  -2.516  1.00  0.00    -0.035 C 
ATOM     21  C   UNL     1      -1.363   7.181  -2.219  1.00  0.00     0.011 C 
ATOM     22  C   UNL     1      -3.235   6.411  -3.679  1.00  0.00     0.011 C 
ATOM     23  C   UNL     1      -3.213   5.875  -1.278  1.00  0.00     0.011 C 
ENDBRANCH  17  20
ENDBRANCH  16  17
ENDBRANCH  15  16
ENDBRANCH  11  15
ENDBRANCH   6  11
ENDBRANCH   5   6
ENDBRANCH   3   5
ENDBRANCH   2   3
ENDBRANCH   1   2
BRANCH   1  24
ATOM     24  C   UNL     1      -4.997   0.902   1.829  1.00  0.00     0.202 C 
BRANCH  24  25
ATOM     25  O   UNL     1      -5.397   2.108   1.171  1.00  0.00    -0.374 OA
BRANCH  25  26
ATOM     26  C   UNL     1      -4.713   2.427  -0.031  1.00  0.00     0.202 C 
BRANCH  26  27
ATOM     27  C   UNL     1      -3.224   2.752   0.086  1.00  0.00     0.261 C 
BRANCH  27  28
ATOM     28  O   UNL     1      -2.532   2.246   1.211  1.00  0.00    -0.460 OA
BRANCH  28  29
ATOM     29  C   UNL     1      -1.631   3.114   1.714  1.00  0.00     0.338 C 
ATOM     30  O   UNL     1      -1.333   4.238   1.364  1.00  0.00    -0.246 OA
BRANCH  29  31
ATOM     31  C   UNL     1      -1.095   2.506   2.911  1.00  0.00     0.060 A 
ATOM     32  C   UNL     1      -1.733   2.822   4.107  1.00  0.00     0.016 A 
ATOM     33  C   UNL     1       0.041   1.699   2.839  1.00  0.00     0.016 A 
ATOM     34  C   UNL     1      -1.200   2.333   5.280  1.00  0.00     0.010 A 
ATOM     35  C   UNL     1       0.557   1.186   4.019  1.00  0.00     0.010 A 
ATOM     36  C   UNL     1      -0.052   1.524   5.237  1.00  0.00    -0.014 A 
BRANCH  36  37
ATOM     37  C   UNL     1       0.506   1.072   6.518  1.00  0.00     0.031 A 
ATOM     38  C   UNL     1       1.674   1.795   7.103  1.00  0.00     0.074 A 
ATOM     39  C   UNL     1      -0.132   0.087   7.169  1.00  0.00     0.049 A 
ATOM     40  N   UNL     1       2.209   1.665   8.287  1.00  0.00    -0.248 NA
ATOM     41  C   UNL     1       2.327   2.800   6.248  1.00  0.00     0.031 C 
ATOM     42  C   UNL     1      -1.285  -0.651   6.650  1.00  0.00     0.029 A 
ATOM     43  N   UNL     1       0.071  -0.432   8.416  1.00  0.00    -0.354 N 
ATOM     44  C   UNL     1       3.254   2.576   8.324  1.00  0.00     0.074 A 
ATOM     45  C   UNL     1       3.306   3.225   7.032  1.00  0.00     0.031 C 
ATOM     46  C   UNL     1      -1.712  -1.507   7.591  1.00  0.00     0.029 A 
ATOM     47  C   UNL     1      -0.852  -1.385   8.763  1.00  0.00     0.049 A 
ATOM     48  H   UNL     1       0.807  -0.150   9.007  1.00  0.00     0.167 HD
ATOM     49  C   UNL     1       4.081   2.848   9.359  1.00  0.00     0.037 A 
ATOM     50  C   UNL     1      -0.987  -2.067   9.913  1.00  0.00     0.037 A 
ATOM     51  C   UNL     1       4.004   2.183  10.632  1.00  0.00     0.049 A 
ATOM     52  C   UNL     1      -0.047  -1.749  11.041  1.00  0.00     0.074 A 
ATOM     53  C   UNL     1       4.786   2.369  11.757  1.00  0.00     0.029 A 
ATOM     54  N   UNL     1       3.081   1.192  10.943  1.00  0.00    -0.354 N 
ATOM     55  N   UNL     1       0.920  -0.863  11.085  1.00  0.00    -0.248 NA
ATOM     56  C   UNL     1      -0.222  -2.515  12.280  1.00  0.00     0.031 C 
ATOM     57  C   UNL     1       4.359   1.465  12.736  1.00  0.00     0.029 A 
ATOM     58  C   UNL     1       3.284   0.744  12.237  1.00  0.00     0.049 A 
ATOM     59  H   UNL     1       2.384   0.858  10.333  1.00  0.00     0.167 HD
ATOM     60  C   UNL     1       1.463  -0.954  12.357  1.00  0.00     0.074 A 
ATOM     61  C   UNL     1       0.698  -1.966  13.061  1.00  0.00     0.031 C 
ATOM     62  C   UNL     1       2.503  -0.271  12.897  1.00  0.00     0.037 A 
BRANCH  49  63
ATOM     63  C   UNL     1       5.140   3.886   9.141  1.00  0.00     0.064 A 
ATOM     64  C   UNL     1       4.826   5.251   9.054  1.00  0.00     0.173 A 
ATOM     65  C   UNL     1       6.487   3.513   9.023  1.00  0.00     0.173 A 
ATOM     66  F   UNL     1       3.550   5.657   9.138  1.00  0.00    -0.203 F 
ATOM     67  C   UNL     1       5.820   6.202   8.836  1.00  0.00     0.198 A 
ATOM     68  C   UNL     1       7.481   4.468   8.829  1.00  0.00     0.198 A 
ATOM     69  F   UNL     1       6.839   2.220   9.095  1.00  0.00    -0.203 F 
ATOM     70  F   UNL     1       5.493   7.496   8.712  1.00  0.00    -0.200 F 
ATOM     71  C   UNL     1       7.146   5.811   8.730  1.00  0.00     0.200 A 
ATOM     72  F   UNL     1       8.762   4.090   8.732  1.00  0.00    -0.200 F 
ATOM     73  F   UNL     1       8.102   6.727   8.522  1.00  0.00    -0.200 F 
ENDBRANCH  49  63
BRANCH  50  74
ATOM     74  C   UNL     1      -2.064  -3.077  10.047  1.00  0.00     0.064 A 
ATOM     75  C   UNL     1      -3.164  -2.859  10.886  1.00  0.00     0.173 A 
ATOM     76  C   UNL     1      -2.030  -4.271   9.312  1.00  0.00     0.173 A 
ATOM     77  F   UNL     1      -3.237  -1.736  11.617  1.00  0.00    -0.203 F 
ATOM     78  C   UNL     1      -4.183  -3.803  10.996  1.00  0.00     0.198 A 
ATOM     79  C   UNL     1      -3.061  -5.203   9.402  1.00  0.00     0.198 A 
ATOM     80  F   UNL     1      -1.003  -4.522   8.486  1.00  0.00    -0.203 F 
ATOM     81  F   UNL     1      -5.209  -3.585  11.830  1.00  0.00    -0.200 F 
ATOM     82  C   UNL     1      -4.134  -4.971  10.249  1.00  0.00     0.200 A 
ATOM     83  F   UNL     1      -3.017  -6.321   8.665  1.00  0.00    -0.200 F 
ATOM     84  F   UNL     1      -5.118  -5.875  10.348  1.00  0.00    -0.200 F 
ENDBRANCH  50  74
BRANCH  62  85
ATOM     85  C   UNL     1       2.857  -0.602  14.315  1.00  0.00     0.064 A 
ATOM     86  C   UNL     1       3.507  -1.801  14.642  1.00  0.00     0.173 A 
ATOM     87  C   UNL     1       2.568   0.299  15.348  1.00  0.00     0.173 A 
ATOM     88  F   UNL     1       3.789  -2.699  13.686  1.00  0.00    -0.203 F 
ATOM     89  C   UNL     1       3.831  -2.097  15.962  1.00  0.00     0.198 A 
ATOM     90  C   UNL     1       2.917   0.011  16.664  1.00  0.00     0.198 A 
ATOM     91  F   UNL     1       1.952   1.461  15.081  1.00  0.00    -0.203 F 
ATOM     92  F   UNL     1       4.408  -3.269  16.260  1.00  0.00    -0.200 F 
ATOM     93  C   UNL     1       3.541  -1.190  16.970  1.00  0.00     0.200 A 
ATOM     94  F   UNL     1       2.645   0.892  17.636  1.00  0.00    -0.200 F 
ATOM     95  F   UNL     1       3.854  -1.477  18.241  1.00  0.00    -0.200 F 
ENDBRANCH  62  85
ENDBRANCH  36  37
ENDBRANCH  29  31
ENDBRANCH  28  29
ENDBRANCH  27  28
ENDBRANCH  26  27
ENDBRANCH  25  26
ENDBRANCH  24  25
ENDBRANCH   1  24
TORSDOF 19
