REMARK SMILES C[C@@H](C(=O)OCCOCCOC(=O)c1ccc(-c2c3nc(c(-c4c(F)c(F)c(F)c(F)c4F)c4ccc([nH]4)c(-c4c(F)c(F)c(F)c(F)c4F)c4nc(c(-c5c(F)c(F)c(F)c(F)c5F)c5ccc2[nH]5)C=C4)C=C3)cc1)c1cc(C(=O)c2ccccc2)ccc1O
REMARK SMILES IDX 7 1 6 2 5 3 3 4 4 5 2 6 1 7 77 8 78 9 90 10 79 11 89 12
REMARK SMILES IDX 88 13 91 14 80 16 81 17 82 18 83 19 87 20 84 21 86 22 85 23
REMARK SMILES IDX 8 24 9 25 10 26 11 27 12 28 13 29 14 30 15 31 76 32 16 33
REMARK SMILES IDX 75 34 17 35 18 36 19 37 69 38 20 39 74 40 68 41 70 42 21 43
REMARK SMILES IDX 73 44 67 45 66 46 22 48 54 49 34 50 53 51 35 52 38 53 52 54
REMARK SMILES IDX 71 55 36 56 37 57 51 59 72 60 39 61 23 62 24 63 32 64 25 65
REMARK SMILES IDX 26 66 30 67 33 68 27 69 28 70 31 71 29 72 55 73 56 74 64 75
REMARK SMILES IDX 57 76 58 77 62 78 65 79 59 80 60 81 63 82 61 83 40 84 41 85
REMARK SMILES IDX 49 86 42 87 43 88 47 89 50 90 44 91 45 92 48 93 46 94
REMARK H PARENT 91 15 70 47 38 58
REMARK Flexibility Score: inf
ROOT
ATOM      1  C   UNL     1       2.115   4.601  -0.247  1.00  0.00     0.202 C 
ENDROOT
BRANCH   1   2
ATOM      2  C   UNL     1       2.089   3.973   1.149  1.00  0.00     0.261 C 
BRANCH   2   3
ATOM      3  O   UNL     1       1.875   2.557   1.036  1.00  0.00    -0.463 OA
BRANCH   3   4
ATOM      4  C   UNL     1       1.196   1.978   2.061  1.00  0.00     0.313 C 
ATOM      5  O   UNL     1       1.012   2.506   3.152  1.00  0.00    -0.252 OA
BRANCH   4   6
ATOM      6  C   UNL     1       0.604   0.620   1.669  1.00  0.00     0.130 C 
ATOM      7  C   UNL     1       1.281   0.013   0.427  1.00  0.00     0.025 C 
BRANCH   6   8
ATOM      8  C   UNL     1      -0.926   0.611   1.544  1.00  0.00     0.009 A 
ATOM      9  C   UNL     1      -1.682   1.806   1.548  1.00  0.00     0.020 A 
ATOM     10  C   UNL     1      -1.646  -0.588   1.400  1.00  0.00     0.119 A 
ATOM     11  C   UNL     1      -3.084   1.796   1.424  1.00  0.00     0.023 A 
ATOM     12  C   UNL     1      -3.029  -0.601   1.213  1.00  0.00     0.047 A 
ATOM     13  C   UNL     1      -3.752   0.587   1.222  1.00  0.00     0.016 A 
BRANCH  10  14
ATOM     14  O   UNL     1      -1.059  -1.821   1.430  1.00  0.00    -0.508 OA
ATOM     15  H   UNL     1      -0.133  -1.896   1.551  1.00  0.00     0.293 HD
ENDBRANCH  10  14
BRANCH  11  16
ATOM     16  C   UNL     1      -3.828   3.086   1.465  1.00  0.00     0.193 C 
ATOM     17  O   UNL     1      -3.286   4.106   1.050  1.00  0.00    -0.289 OA
BRANCH  16  18
ATOM     18  C   UNL     1      -5.222   3.159   1.979  1.00  0.00     0.022 A 
ATOM     19  C   UNL     1      -6.133   4.000   1.329  1.00  0.00     0.012 A 
ATOM     20  C   UNL     1      -5.631   2.424   3.099  1.00  0.00     0.012 A 
ATOM     21  C   UNL     1      -7.457   4.069   1.769  1.00  0.00     0.001 A 
ATOM     22  C   UNL     1      -6.956   2.496   3.535  1.00  0.00     0.001 A 
ATOM     23  C   UNL     1      -7.869   3.311   2.865  1.00  0.00     0.000 A 
ENDBRANCH  16  18
ENDBRANCH  11  16
ENDBRANCH   6   8
ENDBRANCH   4   6
ENDBRANCH   3   4
ENDBRANCH   2   3
ENDBRANCH   1   2
BRANCH   1  24
ATOM     24  O   UNL     1       0.878   4.579  -0.962  1.00  0.00    -0.374 OA
BRANCH  24  25
ATOM     25  C   UNL     1       0.406   3.319  -1.438  1.00  0.00     0.202 C 
BRANCH  25  26
ATOM     26  C   UNL     1       1.093   2.775  -2.698  1.00  0.00     0.261 C 
BRANCH  26  27
ATOM     27  O   UNL     1       2.499   2.527  -2.502  1.00  0.00    -0.460 OA
BRANCH  27  28
ATOM     28  C   UNL     1       3.318   3.298  -3.257  1.00  0.00     0.338 C 
ATOM     29  O   UNL     1       2.998   4.097  -4.126  1.00  0.00    -0.246 OA
BRANCH  28  30
ATOM     30  C   UNL     1       4.713   3.175  -2.798  1.00  0.00     0.060 A 
ATOM     31  C   UNL     1       5.374   4.352  -2.423  1.00  0.00     0.016 A 
ATOM     32  C   UNL     1       5.398   1.959  -2.839  1.00  0.00     0.016 A 
ATOM     33  C   UNL     1       6.736   4.326  -2.133  1.00  0.00     0.010 A 
ATOM     34  C   UNL     1       6.769   1.937  -2.556  1.00  0.00     0.010 A 
ATOM     35  C   UNL     1       7.452   3.125  -2.237  1.00  0.00    -0.014 A 
BRANCH  35  36
ATOM     36  C   UNL     1       8.933   3.152  -2.153  1.00  0.00     0.031 A 
ATOM     37  C   UNL     1       9.738   3.173  -3.424  1.00  0.00     0.074 A 
ATOM     38  C   UNL     1       9.555   3.202  -0.962  1.00  0.00     0.049 A 
ATOM     39  N   UNL     1      11.037   3.192  -3.585  1.00  0.00    -0.248 NA
ATOM     40  C   UNL     1       8.975   3.176  -4.682  1.00  0.00     0.031 C 
ATOM     41  C   UNL     1       8.887   3.229   0.337  1.00  0.00     0.029 A 
ATOM     42  N   UNL     1      10.893   3.239  -0.656  1.00  0.00    -0.354 N 
ATOM     43  C   UNL     1      11.247   3.207  -4.958  1.00  0.00     0.074 A 
ATOM     44  C   UNL     1       9.944   3.165  -5.586  1.00  0.00     0.031 C 
ATOM     45  C   UNL     1       9.819   3.269   1.304  1.00  0.00     0.029 A 
ATOM     46  C   UNL     1      11.147   3.244   0.693  1.00  0.00     0.049 A 
ATOM     47  H   UNL     1      11.602   3.259  -1.339  1.00  0.00     0.167 HD
ATOM     48  C   UNL     1      12.419   3.261  -5.634  1.00  0.00     0.037 A 
ATOM     49  C   UNL     1      12.320   3.215   1.356  1.00  0.00     0.037 A 
ATOM     50  C   UNL     1      13.716   3.305  -5.011  1.00  0.00     0.049 A 
ATOM     51  C   UNL     1      13.611   3.206   0.581  1.00  0.00     0.074 A 
ATOM     52  C   UNL     1      14.961   3.380  -5.612  1.00  0.00     0.029 A 
ATOM     53  N   UNL     1      13.934   3.272  -3.642  1.00  0.00    -0.354 N 
ATOM     54  N   UNL     1      13.800   3.246  -0.716  1.00  0.00    -0.248 NA
ATOM     55  C   UNL     1      14.855   3.153   1.363  1.00  0.00     0.031 C 
ATOM     56  C   UNL     1      15.934   3.346  -4.607  1.00  0.00     0.029 A 
ATOM     57  C   UNL     1      15.295   3.299  -3.379  1.00  0.00     0.049 A 
ATOM     58  H   UNL     1      13.227   3.236  -2.958  1.00  0.00     0.167 HD
ATOM     59  C   UNL     1      15.176   3.249  -0.904  1.00  0.00     0.074 A 
ATOM     60  C   UNL     1      15.777   3.219   0.413  1.00  0.00     0.031 C 
ATOM     61  C   UNL     1      15.878   3.276  -2.063  1.00  0.00     0.037 A 
BRANCH  48  62
ATOM     62  C   UNL     1      12.355   3.253  -7.132  1.00  0.00     0.064 A 
ATOM     63  C   UNL     1      11.919   4.372  -7.856  1.00  0.00     0.173 A 
ATOM     64  C   UNL     1      12.769   2.123  -7.854  1.00  0.00     0.173 A 
ATOM     65  F   UNL     1      11.500   5.472  -7.212  1.00  0.00    -0.203 F 
ATOM     66  C   UNL     1      11.879   4.353  -9.248  1.00  0.00     0.198 A 
ATOM     67  C   UNL     1      12.752   2.117  -9.246  1.00  0.00     0.198 A 
ATOM     68  F   UNL     1      13.199   1.028  -7.209  1.00  0.00    -0.203 F 
ATOM     69  F   UNL     1      11.420   5.419  -9.919  1.00  0.00    -0.200 F 
ATOM     70  C   UNL     1      12.301   3.228  -9.942  1.00  0.00     0.200 A 
ATOM     71  F   UNL     1      13.171   1.033  -9.915  1.00  0.00    -0.200 F 
ATOM     72  F   UNL     1      12.268   3.213 -11.281  1.00  0.00    -0.200 F 
ENDBRANCH  48  62
BRANCH  49  73
ATOM     73  C   UNL     1      12.329   3.180   2.842  1.00  0.00     0.064 A 
ATOM     74  C   UNL     1      12.785   4.274   3.589  1.00  0.00     0.173 A 
ATOM     75  C   UNL     1      11.900   2.043   3.543  1.00  0.00     0.173 A 
ATOM     76  F   UNL     1      13.232   5.373   2.963  1.00  0.00    -0.203 F 
ATOM     77  C   UNL     1      12.825   4.228   4.981  1.00  0.00     0.198 A 
ATOM     78  C   UNL     1      11.916   2.008   4.935  1.00  0.00     0.198 A 
ATOM     79  F   UNL     1      11.459   0.968   2.873  1.00  0.00    -0.203 F 
ATOM     80  F   UNL     1      13.307   5.271   5.671  1.00  0.00    -0.200 F 
ATOM     81  C   UNL     1      12.386   3.097   5.653  1.00  0.00     0.200 A 
ATOM     82  F   UNL     1      11.481   0.916   5.580  1.00  0.00    -0.200 F 
ATOM     83  F   UNL     1      12.423   3.053   6.992  1.00  0.00    -0.200 F 
ENDBRANCH  49  73
BRANCH  61  84
ATOM     84  C   UNL     1      17.376   3.307  -1.962  1.00  0.00     0.064 A 
ATOM     85  C   UNL     1      18.111   2.175  -1.582  1.00  0.00     0.173 A 
ATOM     86  C   UNL     1      18.086   4.471  -2.294  1.00  0.00     0.173 A 
ATOM     87  F   UNL     1      17.478   1.042  -1.241  1.00  0.00    -0.203 F 
ATOM     88  C   UNL     1      19.501   2.214  -1.515  1.00  0.00     0.198 A 
ATOM     89  C   UNL     1      19.477   4.499  -2.253  1.00  0.00     0.198 A 
ATOM     90  F   UNL     1      17.430   5.579  -2.671  1.00  0.00    -0.203 F 
ATOM     91  F   UNL     1      20.181   1.134  -1.108  1.00  0.00    -0.200 F 
ATOM     92  C   UNL     1      20.183   3.373  -1.857  1.00  0.00     0.200 A 
ATOM     93  F   UNL     1      20.134   5.615  -2.596  1.00  0.00    -0.200 F 
ATOM     94  F   UNL     1      21.521   3.406  -1.800  1.00  0.00    -0.200 F 
ENDBRANCH  61  84
ENDBRANCH  35  36
ENDBRANCH  28  30
ENDBRANCH  27  28
ENDBRANCH  26  27
ENDBRANCH  25  26
ENDBRANCH  24  25
ENDBRANCH   1  24
TORSDOF 18
