REMARK SMILES Cc1ncccc1NC(=O)Nc1ccc(C(=O)OCCOCCOC(=O)c2ccc(-c3c4nc(c(-c5c(F)c(F)c(F)c(F)c5F)c5ccc([nH]5)c(-c5c(F)c(F)c(F)c(F)c5F)c5nc(c(-c6c(F)c(F)c(F)c(F)c6F)c6ccc3[nH]6)C=C5)C=C4)cc2)c(O)c1
REMARK SMILES IDX 21 1 20 2 19 3 18 4 16 5 17 6 15 7 12 8 13 9 92 10 14 11
REMARK SMILES IDX 90 12 11 13 8 14 9 15 10 17 7 19 1 20 2 21 3 22 4 23 6 24
REMARK SMILES IDX 5 25 91 26 22 28 23 29 24 30 25 31 26 32 27 33 28 34 89 35
REMARK SMILES IDX 29 36 88 37 30 38 31 39 32 40 82 41 33 42 87 43 81 44 83 45
REMARK SMILES IDX 34 46 86 47 80 48 79 49 35 51 67 52 47 53 66 54 48 55 51 56
REMARK SMILES IDX 65 57 84 58 49 59 50 60 64 62 85 63 52 64 36 65 37 66 45 67
REMARK SMILES IDX 38 68 39 69 43 70 46 71 40 72 41 73 44 74 42 75 68 76 69 77
REMARK SMILES IDX 77 78 70 79 71 80 75 81 78 82 72 83 73 84 76 85 74 86 53 87
REMARK SMILES IDX 54 88 62 89 55 90 56 91 60 92 63 93 57 94 58 95 61 96 59 97
REMARK H PARENT 8 16 11 18 91 27 83 50 51 61
REMARK Flexibility Score: inf
ROOT
ATOM      1  O   UNL     1      -4.106   4.038   0.117  1.00  0.00    -0.374 OA
ENDROOT
BRANCH   1   2
ATOM      2  C   UNL     1      -5.392   3.620   0.572  1.00  0.00     0.202 C 
BRANCH   2   3
ATOM      3  C   UNL     1      -6.045   2.548  -0.304  1.00  0.00     0.261 C 
BRANCH   3   4
ATOM      4  O   UNL     1      -5.394   1.269  -0.134  1.00  0.00    -0.460 OA
BRANCH   4   5
ATOM      5  C   UNL     1      -4.775   0.771  -1.238  1.00  0.00     0.341 C 
ATOM      6  O   UNL     1      -4.765   1.275  -2.348  1.00  0.00    -0.246 OA
BRANCH   5   7
ATOM      7  C   UNL     1      -4.004  -0.453  -0.897  1.00  0.00     0.101 A 
ATOM      8  C   UNL     1      -2.330  -2.636  -0.304  1.00  0.00     0.046 A 
ATOM      9  C   UNL     1      -2.056  -1.826  -1.406  1.00  0.00     0.027 A 
ATOM     10  C   UNL     1      -3.498  -2.418   0.437  1.00  0.00     0.073 A 
ATOM     11  C   UNL     1      -2.897  -0.749  -1.709  1.00  0.00     0.022 A 
ATOM     12  C   UNL     1      -4.297  -1.300   0.178  1.00  0.00     0.132 A 
BRANCH   8  13
ATOM     13  N   UNL     1      -1.449  -3.629   0.156  1.00  0.00    -0.308 N 
ATOM     14  N   UNL     1       0.756  -2.709   0.005  1.00  0.00    -0.306 N 
ATOM     15  C   UNL     1      -0.103  -3.758   0.062  1.00  0.00     0.323 C 
ATOM     16  H   UNL     1       1.645  -2.952  -0.341  1.00  0.00     0.171 HD
ATOM     17  O   UNL     1       0.379  -4.895   0.071  1.00  0.00    -0.248 OA
ATOM     18  H   UNL     1      -1.891  -4.368   0.635  1.00  0.00     0.171 HD
BRANCH  14  19
ATOM     19  C   UNL     1       0.641  -1.342   0.340  1.00  0.00     0.064 A 
ATOM     20  C   UNL     1       2.964  -0.737  -0.565  1.00  0.00     0.069 C 
ATOM     21  C   UNL     1       1.582  -0.396  -0.095  1.00  0.00     0.061 A 
ATOM     22  N   UNL     1       1.359   0.946  -0.017  1.00  0.00    -0.259 NA
ATOM     23  C   UNL     1       0.226   1.363   0.574  1.00  0.00     0.111 A 
ATOM     24  C   UNL     1      -0.410  -0.855   1.114  1.00  0.00     0.030 A 
ATOM     25  C   UNL     1      -0.654   0.508   1.200  1.00  0.00     0.022 A 
ENDBRANCH  14  19
ENDBRANCH   8  13
BRANCH  12  26
ATOM     26  O   UNL     1      -5.322  -1.091   1.061  1.00  0.00    -0.507 OA
ATOM     27  H   UNL     1      -5.897  -0.361   0.947  1.00  0.00     0.293 HD
ENDBRANCH  12  26
ENDBRANCH   5   7
ENDBRANCH   4   5
ENDBRANCH   3   4
ENDBRANCH   2   3
ENDBRANCH   1   2
BRANCH   1  28
ATOM     28  C   UNL     1      -2.999   3.266   0.586  1.00  0.00     0.202 C 
BRANCH  28  29
ATOM     29  C   UNL     1      -2.465   3.728   1.947  1.00  0.00     0.261 C 
BRANCH  29  30
ATOM     30  O   UNL     1      -3.418   3.430   2.980  1.00  0.00    -0.460 OA
BRANCH  30  31
ATOM     31  C   UNL     1      -3.900   4.519   3.622  1.00  0.00     0.338 C 
ATOM     32  O   UNL     1      -3.501   5.667   3.546  1.00  0.00    -0.246 OA
BRANCH  31  33
ATOM     33  C   UNL     1      -5.147   4.160   4.316  1.00  0.00     0.060 A 
ATOM     34  C   UNL     1      -6.272   4.943   4.034  1.00  0.00     0.016 A 
ATOM     35  C   UNL     1      -5.205   3.132   5.260  1.00  0.00     0.016 A 
ATOM     36  C   UNL     1      -7.449   4.744   4.745  1.00  0.00     0.010 A 
ATOM     37  C   UNL     1      -6.389   2.935   5.976  1.00  0.00     0.010 A 
ATOM     38  C   UNL     1      -7.500   3.768   5.750  1.00  0.00    -0.014 A 
BRANCH  38  39
ATOM     39  C   UNL     1      -8.666   3.739   6.660  1.00  0.00     0.031 A 
ATOM     40  C   UNL     1      -8.555   4.395   8.007  1.00  0.00     0.074 A 
ATOM     41  C   UNL     1      -9.821   3.173   6.271  1.00  0.00     0.049 A 
ATOM     42  N   UNL     1      -9.447   4.500   8.957  1.00  0.00    -0.248 NA
ATOM     43  C   UNL     1      -7.259   5.014   8.326  1.00  0.00     0.031 C 
ATOM     44  C   UNL     1     -10.049   2.532   4.978  1.00  0.00     0.029 A 
ATOM     45  N   UNL     1     -11.017   3.046   6.929  1.00  0.00    -0.354 N 
ATOM     46  C   UNL     1      -8.820   5.187   9.988  1.00  0.00     0.074 A 
ATOM     47  C   UNL     1      -7.462   5.447   9.561  1.00  0.00     0.031 C 
ATOM     48  C   UNL     1     -11.309   2.066   4.941  1.00  0.00     0.029 A 
ATOM     49  C   UNL     1     -11.963   2.355   6.216  1.00  0.00     0.049 A 
ATOM     50  H   UNL     1     -11.180   3.415   7.827  1.00  0.00     0.167 HD
ATOM     51  C   UNL     1      -9.335   5.573  11.180  1.00  0.00     0.037 A 
ATOM     52  C   UNL     1     -13.209   1.982   6.564  1.00  0.00     0.037 A 
ATOM     53  C   UNL     1     -10.689   5.315  11.594  1.00  0.00     0.049 A 
ATOM     54  C   UNL     1     -13.748   2.385   7.911  1.00  0.00     0.074 A 
ATOM     55  C   UNL     1     -11.324   5.700  12.761  1.00  0.00     0.029 A 
ATOM     56  N   UNL     1     -11.614   4.591  10.854  1.00  0.00    -0.354 N 
ATOM     57  N   UNL     1     -13.165   3.074   8.862  1.00  0.00    -0.248 NA
ATOM     58  C   UNL     1     -15.119   1.965   8.229  1.00  0.00     0.031 C 
ATOM     59  C   UNL     1     -12.615   5.160  12.753  1.00  0.00     0.029 A 
ATOM     60  C   UNL     1     -12.804   4.488  11.555  1.00  0.00     0.049 A 
ATOM     61  H   UNL     1     -11.448   4.208   9.963  1.00  0.00     0.167 HD
ATOM     62  C   UNL     1     -14.101   3.188   9.882  1.00  0.00     0.074 A 
ATOM     63  C   UNL     1     -15.296   2.509   9.425  1.00  0.00     0.031 C 
ATOM     64  C   UNL     1     -13.982   3.801  11.086  1.00  0.00     0.037 A 
BRANCH  51  65
ATOM     65  C   UNL     1      -8.414   6.280  12.133  1.00  0.00     0.064 A 
ATOM     66  C   UNL     1      -7.954   7.584  11.892  1.00  0.00     0.173 A 
ATOM     67  C   UNL     1      -7.992   5.644  13.310  1.00  0.00     0.173 A 
ATOM     68  F   UNL     1      -8.316   8.232  10.774  1.00  0.00    -0.203 F 
ATOM     69  C   UNL     1      -7.077   8.209  12.775  1.00  0.00     0.198 A 
ATOM     70  C   UNL     1      -7.139   6.283  14.206  1.00  0.00     0.198 A 
ATOM     71  F   UNL     1      -8.404   4.398  13.591  1.00  0.00    -0.203 F 
ATOM     72  F   UNL     1      -6.604   9.431  12.495  1.00  0.00    -0.200 F 
ATOM     73  C   UNL     1      -6.675   7.561  13.933  1.00  0.00     0.200 A 
ATOM     74  F   UNL     1      -6.760   5.659  15.329  1.00  0.00    -0.200 F 
ATOM     75  F   UNL     1      -5.830   8.163  14.782  1.00  0.00    -0.200 F 
ENDBRANCH  51  65
BRANCH  52  76
ATOM     76  C   UNL     1     -14.022   1.178   5.616  1.00  0.00     0.064 A 
ATOM     77  C   UNL     1     -15.136   1.726   4.966  1.00  0.00     0.173 A 
ATOM     78  C   UNL     1     -13.682  -0.151   5.323  1.00  0.00     0.173 A 
ATOM     79  F   UNL     1     -15.512   2.985   5.230  1.00  0.00    -0.203 F 
ATOM     80  C   UNL     1     -15.883   0.972   4.064  1.00  0.00     0.198 A 
ATOM     81  C   UNL     1     -14.414  -0.895   4.401  1.00  0.00     0.198 A 
ATOM     82  F   UNL     1     -12.623  -0.720   5.917  1.00  0.00    -0.203 F 
ATOM     83  F   UNL     1     -16.962   1.509   3.478  1.00  0.00    -0.200 F 
ATOM     84  C   UNL     1     -15.517  -0.335   3.775  1.00  0.00     0.200 A 
ATOM     85  F   UNL     1     -14.047  -2.152   4.114  1.00  0.00    -0.200 F 
ATOM     86  F   UNL     1     -16.227  -1.054   2.895  1.00  0.00    -0.200 F 
ENDBRANCH  52  76
BRANCH  64  87
ATOM     87  C   UNL     1     -15.182   3.783  11.988  1.00  0.00     0.064 A 
ATOM     88  C   UNL     1     -15.595   2.612  12.641  1.00  0.00     0.173 A 
ATOM     89  C   UNL     1     -15.901   4.962  12.238  1.00  0.00     0.173 A 
ATOM     90  F   UNL     1     -14.950   1.456  12.424  1.00  0.00    -0.203 F 
ATOM     91  C   UNL     1     -16.697   2.618  13.492  1.00  0.00     0.198 A 
ATOM     92  C   UNL     1     -16.983   4.971  13.113  1.00  0.00     0.198 A 
ATOM     93  F   UNL     1     -15.543   6.111  11.645  1.00  0.00    -0.203 F 
ATOM     94  F   UNL     1     -17.101   1.478  14.069  1.00  0.00    -0.200 F 
ATOM     95  C   UNL     1     -17.385   3.797  13.733  1.00  0.00     0.200 A 
ATOM     96  F   UNL     1     -17.637   6.115  13.357  1.00  0.00    -0.200 F 
ATOM     97  F   UNL     1     -18.440   3.802  14.560  1.00  0.00    -0.200 F 
ENDBRANCH  64  87
ENDBRANCH  38  39
ENDBRANCH  31  33
ENDBRANCH  30  31
ENDBRANCH  29  30
ENDBRANCH  28  29
ENDBRANCH   1  28
TORSDOF 17
