REMARK SMILES C[C@H]1CC[C@H]([NH2+]Cc2c(C(=O)OCCOCCOC(=O)c3ccc(-c4c5nc(c(-c6c(F)c(F)c(F)c(F)c6F)c6ccc([nH]6)c(-c6c(F)c(F)c(F)c(F)c6F)c6nc(c(-c7c(F)c(F)c(F)c(F)c7F)c7ccc4[nH]7)C=C6)C=C5)cc3)n(Cc3ccccc3F)c3ccccc23)CC1
REMARK SMILES IDX 14 1 13 2 12 3 10 4 11 5 9 6 8 7 98 8 84 9 93 10 97 11 94 12
REMARK SMILES IDX 96 13 95 14 7 15 6 16 5 19 1 20 2 21 3 22 100 23 4 24 99 25
REMARK SMILES IDX 85 26 86 27 87 28 91 29 88 30 90 31 92 32 89 33 15 34 16 35
REMARK SMILES IDX 17 36 18 37 19 38 20 39 21 40 22 41 83 42 23 43 82 44 24 45
REMARK SMILES IDX 25 46 26 47 76 48 27 49 81 50 75 51 77 52 28 53 80 54 74 55
REMARK SMILES IDX 73 56 29 58 61 59 41 60 60 61 42 62 45 63 59 64 78 65 43 66
REMARK SMILES IDX 44 67 58 69 79 70 46 71 30 72 31 73 39 74 32 75 33 76 37 77
REMARK SMILES IDX 40 78 34 79 35 80 38 81 36 82 62 83 63 84 71 85 64 86 65 87
REMARK SMILES IDX 69 88 72 89 66 90 67 91 70 92 68 93 47 94 48 95 56 96 49 97
REMARK SMILES IDX 50 98 54 99 57 100 51 101 52 102 55 103 53 104
REMARK H PARENT 6 17 6 18 77 57 45 68
REMARK Flexibility Score: inf
ROOT
ATOM      1  C   UNL     1      -0.399   0.259   4.250  1.00  0.00     0.202 C 
ENDROOT
BRANCH   1   2
ATOM      2  C   UNL     1      -0.316   0.025   2.737  1.00  0.00     0.261 C 
BRANCH   2   3
ATOM      3  O   UNL     1      -1.345  -0.811   2.179  1.00  0.00    -0.459 OA
BRANCH   3   4
ATOM      4  C   UNL     1      -0.922  -2.060   1.821  1.00  0.00     0.355 C 
ATOM      5  O   UNL     1       0.237  -2.442   1.950  1.00  0.00    -0.244 OA
BRANCH   4   6
ATOM      6  C   UNL     1      -1.986  -2.870   1.235  1.00  0.00     0.137 A 
ATOM      7  C   UNL     1      -3.054  -2.526   0.381  1.00  0.00     0.047 A 
ATOM      8  C   UNL     1      -3.696  -3.755  -0.012  1.00  0.00     0.009 A 
ATOM      9  N   UNL     1      -1.985  -4.265   1.323  1.00  0.00    -0.330 N 
ATOM     10  C   UNL     1      -2.928  -4.808   0.467  1.00  0.00     0.050 A 
ATOM     11  C   UNL     1      -4.816  -4.053  -0.825  1.00  0.00     0.011 A 
ATOM     12  C   UNL     1      -3.171  -6.136   0.071  1.00  0.00     0.027 A 
ATOM     13  C   UNL     1      -5.102  -5.378  -1.168  1.00  0.00     0.001 A 
ATOM     14  C   UNL     1      -4.271  -6.404  -0.744  1.00  0.00     0.002 A 
BRANCH   7  15
ATOM     15  C   UNL     1      -3.509  -1.213  -0.220  1.00  0.00     0.300 C 
BRANCH  15  16
ATOM     16  N   UNL     1      -2.517  -0.158  -0.246  1.00  0.00    -0.340 N 
ATOM     17  H   UNL     1      -3.025   0.726  -0.230  1.00  0.00     0.346 HD
ATOM     18  H   UNL     1      -1.925  -0.369   0.557  1.00  0.00     0.346 HD
BRANCH  16  19
ATOM     19  C   UNL     1      -1.560  -0.081  -1.367  1.00  0.00     0.182 C 
ATOM     20  C   UNL     1       2.778  -0.193  -0.560  1.00  0.00     0.007 C 
ATOM     21  C   UNL     1       1.272  -0.165  -0.757  1.00  0.00    -0.014 C 
ATOM     22  C   UNL     1       0.779  -1.219  -1.740  1.00  0.00     0.009 C 
ATOM     23  C   UNL     1       0.753   1.170  -1.268  1.00  0.00     0.009 C 
ATOM     24  C   UNL     1      -0.735  -1.362  -1.634  1.00  0.00     0.065 C 
ATOM     25  C   UNL     1      -0.759   1.223  -1.111  1.00  0.00     0.065 C 
ENDBRANCH  16  19
ENDBRANCH  15  16
ENDBRANCH   7  15
BRANCH   9  26
ATOM     26  C   UNL     1      -1.066  -5.092   2.113  1.00  0.00     0.161 C 
BRANCH  26  27
ATOM     27  C   UNL     1      -1.661  -5.570   3.414  1.00  0.00     0.008 A 
ATOM     28  C   UNL     1      -2.516  -6.681   3.469  1.00  0.00     0.008 A 
ATOM     29  C   UNL     1      -1.327  -4.946   4.618  1.00  0.00     0.128 A 
ATOM     30  C   UNL     1      -3.008  -7.152   4.689  1.00  0.00     0.001 A 
ATOM     31  C   UNL     1      -1.806  -5.413   5.841  1.00  0.00     0.039 A 
ATOM     32  F   UNL     1      -0.505  -3.888   4.617  1.00  0.00    -0.207 F 
ATOM     33  C   UNL     1      -2.648  -6.522   5.877  1.00  0.00     0.003 A 
ENDBRANCH  26  27
ENDBRANCH   9  26
ENDBRANCH   4   6
ENDBRANCH   3   4
ENDBRANCH   2   3
ENDBRANCH   1   2
BRANCH   1  34
ATOM     34  O   UNL     1      -0.881  -0.787   5.077  1.00  0.00    -0.374 OA
BRANCH  34  35
ATOM     35  C   UNL     1      -2.249  -1.182   4.940  1.00  0.00     0.202 C 
BRANCH  35  36
ATOM     36  C   UNL     1      -3.327  -0.094   5.074  1.00  0.00     0.261 C 
BRANCH  36  37
ATOM     37  O   UNL     1      -3.224   0.879   4.023  1.00  0.00    -0.460 OA
BRANCH  37  38
ATOM     38  C   UNL     1      -3.441   2.164   4.405  1.00  0.00     0.338 C 
ATOM     39  O   UNL     1      -3.973   2.558   5.429  1.00  0.00    -0.246 OA
BRANCH  38  40
ATOM     40  C   UNL     1      -2.622   3.011   3.519  1.00  0.00     0.060 A 
ATOM     41  C   UNL     1      -2.766   2.953   2.137  1.00  0.00     0.016 A 
ATOM     42  C   UNL     1      -1.577   3.748   4.101  1.00  0.00     0.016 A 
ATOM     43  C   UNL     1      -1.834   3.611   1.340  1.00  0.00     0.010 A 
ATOM     44  C   UNL     1      -0.617   4.362   3.295  1.00  0.00     0.010 A 
ATOM     45  C   UNL     1      -0.726   4.273   1.907  1.00  0.00    -0.014 A 
BRANCH  45  46
ATOM     46  C   UNL     1       0.193   4.951   0.980  1.00  0.00     0.031 A 
ATOM     47  C   UNL     1      -0.426   6.029   0.160  1.00  0.00     0.074 A 
ATOM     48  C   UNL     1       1.531   4.797   0.874  1.00  0.00     0.049 A 
ATOM     49  N   UNL     1      -0.472   6.128  -1.130  1.00  0.00    -0.248 NA
ATOM     50  C   UNL     1      -1.097   7.120   0.881  1.00  0.00     0.031 C 
ATOM     51  C   UNL     1       2.427   4.084   1.782  1.00  0.00     0.029 A 
ATOM     52  N   UNL     1       2.390   5.344  -0.054  1.00  0.00    -0.354 N 
ATOM     53  C   UNL     1      -1.070   7.355  -1.391  1.00  0.00     0.074 A 
ATOM     54  C   UNL     1      -1.500   7.896  -0.126  1.00  0.00     0.031 C 
ATOM     55  C   UNL     1       3.707   4.405   1.482  1.00  0.00     0.029 A 
ATOM     56  C   UNL     1       3.729   5.237   0.285  1.00  0.00     0.049 A 
ATOM     57  H   UNL     1       2.079   5.773  -0.884  1.00  0.00     0.167 HD
ATOM     58  C   UNL     1      -1.020   7.944  -2.614  1.00  0.00     0.037 A 
ATOM     59  C   UNL     1       4.788   5.819  -0.330  1.00  0.00     0.037 A 
ATOM     60  C   UNL     1      -0.573   7.065  -3.651  1.00  0.00     0.049 A 
ATOM     61  C   UNL     1       4.431   6.199  -1.718  1.00  0.00     0.074 A 
ATOM     62  C   UNL     1      -1.113   6.069  -4.431  1.00  0.00     0.029 A 
ATOM     63  N   UNL     1       0.778   7.040  -3.842  1.00  0.00    -0.354 N 
ATOM     64  N   UNL     1       4.278   5.363  -2.704  1.00  0.00    -0.248 NA
ATOM     65  C   UNL     1       4.099   7.588  -2.023  1.00  0.00     0.031 C 
ATOM     66  C   UNL     1      -0.014   5.325  -4.954  1.00  0.00     0.029 A 
ATOM     67  C   UNL     1       1.164   5.878  -4.457  1.00  0.00     0.049 A 
ATOM     68  H   UNL     1       1.393   7.761  -3.575  1.00  0.00     0.167 HD
ATOM     69  C   UNL     1       3.464   6.027  -3.596  1.00  0.00     0.074 A 
ATOM     70  C   UNL     1       3.561   7.429  -3.233  1.00  0.00     0.031 C 
ATOM     71  C   UNL     1       2.502   5.355  -4.288  1.00  0.00     0.037 A 
BRANCH  58  72
ATOM     72  C   UNL     1      -1.018   9.431  -2.822  1.00  0.00     0.064 A 
ATOM     73  C   UNL     1      -1.376   9.967  -4.072  1.00  0.00     0.173 A 
ATOM     74  C   UNL     1      -0.381  10.312  -1.924  1.00  0.00     0.173 A 
ATOM     75  F   UNL     1      -1.940   9.191  -5.009  1.00  0.00    -0.203 F 
ATOM     76  C   UNL     1      -1.095  11.294  -4.405  1.00  0.00     0.198 A 
ATOM     77  C   UNL     1      -0.144  11.647  -2.242  1.00  0.00     0.198 A 
ATOM     78  F   UNL     1       0.123   9.874  -0.761  1.00  0.00    -0.203 F 
ATOM     79  F   UNL     1      -1.370  11.745  -5.637  1.00  0.00    -0.200 F 
ATOM     80  C   UNL     1      -0.483  12.133  -3.490  1.00  0.00     0.200 A 
ATOM     81  F   UNL     1       0.478  12.438  -1.357  1.00  0.00    -0.200 F 
ATOM     82  F   UNL     1      -0.176  13.394  -3.823  1.00  0.00    -0.200 F 
ENDBRANCH  58  72
BRANCH  59  83
ATOM     83  C   UNL     1       6.108   6.210   0.224  1.00  0.00     0.064 A 
ATOM     84  C   UNL     1       7.208   6.441  -0.625  1.00  0.00     0.173 A 
ATOM     85  C   UNL     1       6.245   6.641   1.555  1.00  0.00     0.173 A 
ATOM     86  F   UNL     1       7.152   6.097  -1.919  1.00  0.00    -0.203 F 
ATOM     87  C   UNL     1       8.355   7.099  -0.178  1.00  0.00     0.198 A 
ATOM     88  C   UNL     1       7.400   7.283   2.005  1.00  0.00     0.198 A 
ATOM     89  F   UNL     1       5.226   6.535   2.419  1.00  0.00    -0.203 F 
ATOM     90  F   UNL     1       9.347   7.371  -1.039  1.00  0.00    -0.200 F 
ATOM     91  C   UNL     1       8.447   7.529   1.134  1.00  0.00     0.200 A 
ATOM     92  F   UNL     1       7.466   7.721   3.270  1.00  0.00    -0.200 F 
ATOM     93  F   UNL     1       9.521   8.215   1.548  1.00  0.00    -0.200 F 
ENDBRANCH  59  83
BRANCH  71  94
ATOM     94  C   UNL     1       2.792   3.941  -4.686  1.00  0.00     0.064 A 
ATOM     95  C   UNL     1       3.095   2.901  -3.797  1.00  0.00     0.173 A 
ATOM     96  C   UNL     1       2.748   3.626  -6.056  1.00  0.00     0.173 A 
ATOM     97  F   UNL     1       3.053   3.083  -2.469  1.00  0.00    -0.203 F 
ATOM     98  C   UNL     1       3.415   1.629  -4.272  1.00  0.00     0.198 A 
ATOM     99  C   UNL     1       3.005   2.338  -6.516  1.00  0.00     0.198 A 
ATOM    100  F   UNL     1       2.438   4.573  -6.956  1.00  0.00    -0.203 F 
ATOM    101  F   UNL     1       3.785   0.666  -3.423  1.00  0.00    -0.200 F 
ATOM    102  C   UNL     1       3.356   1.344  -5.624  1.00  0.00     0.200 A 
ATOM    103  F   UNL     1       2.915   2.063  -7.824  1.00  0.00    -0.200 F 
ATOM    104  F   UNL     1       3.628   0.107  -6.062  1.00  0.00    -0.200 F 
ENDBRANCH  71  94
ENDBRANCH  45  46
ENDBRANCH  38  40
ENDBRANCH  37  38
ENDBRANCH  36  37
ENDBRANCH  35  36
ENDBRANCH  34  35
ENDBRANCH   1  34
TORSDOF 19
