REMARK SMILES CCN(Cc1ccc(Br)s1)C(=O)C[N@@H+](C)CC(=O)OCCOCCOC(=O)c1ccc(-c2c3nc(c(-c4c(F)c(F)c(F)c(F)c4F)c4ccc([nH]4)c(-c4c(F)c(F)c(F)c(F)c4F)c4nc(c(-c5c(F)c(F)c(F)c(F)c5F)c5ccc2[nH]5)C=C4)C=C3)cc1
REMARK SMILES IDX 20 1 19 2 17 3 18 4 16 5 14 6 15 7 13 9 11 10 12 11 3 12
REMARK SMILES IDX 2 13 1 14 4 15 5 16 6 17 10 18 7 19 8 20 9 21 21 22 22 23
REMARK SMILES IDX 23 24 24 25 25 26 26 27 27 28 28 29 29 30 90 31 30 32 89 33
REMARK SMILES IDX 31 34 32 35 33 36 83 37 34 38 88 39 82 40 84 41 35 42 87 43
REMARK SMILES IDX 81 44 80 45 36 47 68 48 48 49 67 50 49 51 52 52 66 53 85 54
REMARK SMILES IDX 50 55 51 56 65 58 86 59 53 60 37 61 38 62 46 63 39 64 40 65
REMARK SMILES IDX 44 66 47 67 41 68 42 69 45 70 43 71 69 72 70 73 78 74 71 75
REMARK SMILES IDX 72 76 76 77 79 78 73 79 74 80 77 81 75 82 54 83 55 84 63 85
REMARK SMILES IDX 56 86 57 87 61 88 64 89 58 90 59 91 62 92 60 93
REMARK H PARENT 14 8 84 46 52 57
REMARK Flexibility Score: inf
ROOT
ATOM      1  C   UNL     1       6.341   2.209  -4.139  1.00  0.00     0.261 C 
ENDROOT
BRANCH   1   2
ATOM      2  O   UNL     1       4.981   2.649  -3.921  1.00  0.00    -0.459 OA
BRANCH   2   3
ATOM      3  C   UNL     1       4.056   1.667  -3.760  1.00  0.00     0.361 C 
ATOM      4  O   UNL     1       4.322   0.468  -3.775  1.00  0.00    -0.245 OA
BRANCH   3   5
ATOM      5  C   UNL     1       2.610   2.148  -3.690  1.00  0.00     0.386 C 
BRANCH   5   6
ATOM      6  N   UNL     1       2.284   3.500  -3.178  1.00  0.00    -0.320 N 
ATOM      7  C   UNL     1       2.703   4.578  -4.069  1.00  0.00     0.333 C 
ATOM      8  H   UNL     1       1.265   3.478  -3.153  1.00  0.00     0.348 HD
BRANCH   6   9
ATOM      9  C   UNL     1       2.713   3.780  -1.797  1.00  0.00     0.364 C 
BRANCH   9  10
ATOM     10  C   UNL     1       2.301   2.709  -0.775  1.00  0.00     0.278 C 
ATOM     11  O   UNL     1       3.185   2.033  -0.238  1.00  0.00    -0.268 OA
BRANCH  10  12
ATOM     12  N   UNL     1       0.961   2.534  -0.450  1.00  0.00    -0.333 N 
BRANCH  12  13
ATOM     13  C   UNL     1       0.621   1.503   0.534  1.00  0.00     0.116 C 
ATOM     14  C   UNL     1       0.796   0.090  -0.011  1.00  0.00     0.027 C 
ENDBRANCH  12  13
BRANCH  12  15
ATOM     15  C   UNL     1      -0.137   3.326  -1.006  1.00  0.00     0.166 C 
BRANCH  15  16
ATOM     16  C   UNL     1      -0.095   4.753  -0.529  1.00  0.00     0.025 A 
ATOM     17  C   UNL     1      -0.247   5.896  -1.298  1.00  0.00     0.018 A 
ATOM     18  S   UNL     1       0.187   5.155   1.119  1.00  0.00    -0.131 S 
ATOM     19  C   UNL     1      -0.021   7.091  -0.552  1.00  0.00     0.028 A 
ATOM     20  C   UNL     1       0.253   6.809   0.761  1.00  0.00     0.070 A 
ATOM     21  Br  UNL     1       0.663   8.118   2.036  1.00  0.00    -0.039 Br
ENDBRANCH  15  16
ENDBRANCH  12  15
ENDBRANCH  10  12
ENDBRANCH   9  10
ENDBRANCH   6   9
ENDBRANCH   5   6
ENDBRANCH   3   5
ENDBRANCH   2   3
ENDBRANCH   1   2
BRANCH   1  22
ATOM     22  C   UNL     1       7.307   2.818  -3.121  1.00  0.00     0.202 C 
BRANCH  22  23
ATOM     23  O   UNL     1       7.309   2.223  -1.824  1.00  0.00    -0.374 OA
BRANCH  23  24
ATOM     24  C   UNL     1       6.183   2.503  -0.993  1.00  0.00     0.202 C 
BRANCH  24  25
ATOM     25  C   UNL     1       6.236   3.850  -0.257  1.00  0.00     0.261 C 
BRANCH  25  26
ATOM     26  O   UNL     1       6.218   4.969  -1.170  1.00  0.00    -0.460 OA
BRANCH  26  27
ATOM     27  C   UNL     1       7.373   5.671  -1.233  1.00  0.00     0.338 C 
ATOM     28  O   UNL     1       8.364   5.542  -0.527  1.00  0.00    -0.246 OA
BRANCH  27  29
ATOM     29  C   UNL     1       7.376   6.549  -2.420  1.00  0.00     0.060 A 
ATOM     30  C   UNL     1       8.469   6.447  -3.292  1.00  0.00     0.016 A 
ATOM     31  C   UNL     1       6.386   7.508  -2.636  1.00  0.00     0.016 A 
ATOM     32  C   UNL     1       8.608   7.342  -4.351  1.00  0.00     0.010 A 
ATOM     33  C   UNL     1       6.532   8.414  -3.694  1.00  0.00     0.010 A 
ATOM     34  C   UNL     1       7.665   8.360  -4.530  1.00  0.00    -0.014 A 
BRANCH  34  35
ATOM     35  C   UNL     1       7.955   9.476  -5.465  1.00  0.00     0.031 A 
ATOM     36  C   UNL     1       8.482  10.768  -4.904  1.00  0.00     0.074 A 
ATOM     37  C   UNL     1       7.771   9.347  -6.789  1.00  0.00     0.049 A 
ATOM     38  N   UNL     1       8.716  11.906  -5.508  1.00  0.00    -0.248 NA
ATOM     39  C   UNL     1       8.782  10.776  -3.464  1.00  0.00     0.031 C 
ATOM     40  C   UNL     1       7.321   8.133  -7.463  1.00  0.00     0.029 A 
ATOM     41  N   UNL     1       7.925  10.262  -7.802  1.00  0.00    -0.354 N 
ATOM     42  C   UNL     1       9.169  12.769  -4.519  1.00  0.00     0.074 A 
ATOM     43  C   UNL     1       9.158  12.031  -3.274  1.00  0.00     0.031 C 
ATOM     44  C   UNL     1       7.209   8.384  -8.779  1.00  0.00     0.029 A 
ATOM     45  C   UNL     1       7.541   9.786  -9.030  1.00  0.00     0.049 A 
ATOM     46  H   UNL     1       8.277  11.170  -7.660  1.00  0.00     0.167 HD
ATOM     47  C   UNL     1       9.559  14.061  -4.638  1.00  0.00     0.037 A 
ATOM     48  C   UNL     1       7.435  10.421 -10.215  1.00  0.00     0.037 A 
ATOM     49  C   UNL     1       9.578  14.790  -5.878  1.00  0.00     0.049 A 
ATOM     50  C   UNL     1       7.811  11.876 -10.318  1.00  0.00     0.074 A 
ATOM     51  C   UNL     1       9.983  16.093  -6.107  1.00  0.00     0.029 A 
ATOM     52  N   UNL     1       9.163  14.279  -7.099  1.00  0.00    -0.354 N 
ATOM     53  N   UNL     1       8.247  12.685  -9.383  1.00  0.00    -0.248 NA
ATOM     54  C   UNL     1       7.680  12.506 -11.639  1.00  0.00     0.031 C 
ATOM     55  C   UNL     1       9.760  16.389  -7.456  1.00  0.00     0.029 A 
ATOM     56  C   UNL     1       9.272  15.251  -8.081  1.00  0.00     0.049 A 
ATOM     57  H   UNL     1       8.838  13.362  -7.247  1.00  0.00     0.167 HD
ATOM     58  C   UNL     1       8.470  13.907 -10.005  1.00  0.00     0.074 A 
ATOM     59  C   UNL     1       8.120  13.734 -11.400  1.00  0.00     0.031 C 
ATOM     60  C   UNL     1       8.928  15.065  -9.468  1.00  0.00     0.037 A 
BRANCH  47  61
ATOM     61  C   UNL     1       9.952  14.778  -3.379  1.00  0.00     0.064 A 
ATOM     62  C   UNL     1      11.133  14.473  -2.686  1.00  0.00     0.173 A 
ATOM     63  C   UNL     1       9.129  15.789  -2.859  1.00  0.00     0.173 A 
ATOM     64  F   UNL     1      11.947  13.505  -3.133  1.00  0.00    -0.203 F 
ATOM     65  C   UNL     1      11.455  15.125  -1.498  1.00  0.00     0.198 A 
ATOM     66  C   UNL     1       9.470  16.461  -1.688  1.00  0.00     0.198 A 
ATOM     67  F   UNL     1       7.991  16.124  -3.485  1.00  0.00    -0.203 F 
ATOM     68  F   UNL     1      12.557  14.774  -0.820  1.00  0.00    -0.200 F 
ATOM     69  C   UNL     1      10.626  16.121  -1.003  1.00  0.00     0.200 A 
ATOM     70  F   UNL     1       8.674  17.431  -1.219  1.00  0.00    -0.200 F 
ATOM     71  F   UNL     1      10.936  16.745   0.142  1.00  0.00    -0.200 F 
ENDBRANCH  47  61
BRANCH  48  72
ATOM     72  C   UNL     1       6.923   9.677 -11.394  1.00  0.00     0.064 A 
ATOM     73  C   UNL     1       7.765   9.329 -12.457  1.00  0.00     0.173 A 
ATOM     74  C   UNL     1       5.580   9.276 -11.466  1.00  0.00     0.173 A 
ATOM     75  F   UNL     1       9.050   9.712 -12.446  1.00  0.00    -0.203 F 
ATOM     76  C   UNL     1       7.284   8.608 -13.549  1.00  0.00     0.198 A 
ATOM     77  C   UNL     1       5.106   8.534 -12.545  1.00  0.00     0.198 A 
ATOM     78  F   UNL     1       4.732   9.587 -10.473  1.00  0.00    -0.203 F 
ATOM     79  F   UNL     1       8.104   8.310 -14.566  1.00  0.00    -0.200 F 
ATOM     80  C   UNL     1       5.958   8.203 -13.587  1.00  0.00     0.200 A 
ATOM     81  F   UNL     1       3.828   8.134 -12.570  1.00  0.00    -0.200 F 
ATOM     82  F   UNL     1       5.500   7.496 -14.629  1.00  0.00    -0.200 F 
ENDBRANCH  48  72
BRANCH  60  83
ATOM     83  C   UNL     1       9.124  16.233 -10.391  1.00  0.00     0.064 A 
ATOM     84  C   UNL     1       8.040  16.962 -10.900  1.00  0.00     0.173 A 
ATOM     85  C   UNL     1      10.419  16.672 -10.710  1.00  0.00     0.173 A 
ATOM     86  F   UNL     1       6.783  16.576 -10.636  1.00  0.00    -0.203 F 
ATOM     87  C   UNL     1       8.245  18.080 -11.706  1.00  0.00     0.198 A 
ATOM     88  C   UNL     1      10.620  17.806 -11.492  1.00  0.00     0.198 A 
ATOM     89  F   UNL     1      11.490  16.014 -10.242  1.00  0.00    -0.203 F 
ATOM     90  F   UNL     1       7.195  18.743 -12.209  1.00  0.00    -0.200 F 
ATOM     91  C   UNL     1       9.534  18.506 -11.993  1.00  0.00     0.200 A 
ATOM     92  F   UNL     1      11.866  18.224 -11.756  1.00  0.00    -0.200 F 
ATOM     93  F   UNL     1       9.729  19.591 -12.755  1.00  0.00    -0.200 F 
ENDBRANCH  60  83
ENDBRANCH  34  35
ENDBRANCH  27  29
ENDBRANCH  26  27
ENDBRANCH  25  26
ENDBRANCH  24  25
ENDBRANCH  23  24
ENDBRANCH  22  23
ENDBRANCH   1  22
TORSDOF 21
