REMARK SMILES Nc1ccc(N2CC3(CCC3)C2)c(C(=O)OCCOCCOC(=O)c2ccc(-c3c4nc(c(-c5c(F)c(F)c(F)c(F)c5F)c5ccc([nH]5)c(-c5c(F)c(F)c(F)c(F)c5F)c5nc(c(-c6c(F)c(F)c(F)c(F)c6F)c6ccc3[nH]6)C=C5)C=C4)cc2)c1
REMARK SMILES IDX 20 1 19 2 18 3 17 4 16 5 14 6 15 7 13 8 2 9 3 10 88 11 4 12
REMARK SMILES IDX 5 13 1 14 6 17 7 18 12 19 8 20 9 21 11 22 10 23 21 24 22 25
REMARK SMILES IDX 23 26 24 27 25 28 26 29 87 30 27 31 86 32 28 33 29 34 30 35
REMARK SMILES IDX 80 36 31 37 85 38 79 39 81 40 32 41 84 42 78 43 77 44 33 46
REMARK SMILES IDX 65 47 45 48 64 49 46 50 49 51 63 52 82 53 47 54 48 55 62 57
REMARK SMILES IDX 83 58 50 59 34 60 35 61 43 62 36 63 37 64 41 65 44 66 38 67
REMARK SMILES IDX 39 68 42 69 40 70 66 71 67 72 75 73 68 74 69 75 73 76 76 77
REMARK SMILES IDX 70 78 71 79 74 80 72 81 51 82 52 83 60 84 53 85 54 86 58 87
REMARK SMILES IDX 61 88 55 89 56 90 59 91 57 92
REMARK H PARENT 1 15 1 16 81 45 49 56
REMARK Flexibility Score: inf
ROOT
ATOM      1  C   UNL     1      -2.572   3.064  -1.905  1.00  0.00     0.202 C 
ENDROOT
BRANCH   1   2
ATOM      2  O   UNL     1      -3.351   4.064  -1.242  1.00  0.00    -0.374 OA
BRANCH   2   3
ATOM      3  C   UNL     1      -2.597   5.009  -0.480  1.00  0.00     0.202 C 
BRANCH   3   4
ATOM      4  C   UNL     1      -2.211   4.529   0.923  1.00  0.00     0.261 C 
BRANCH   4   5
ATOM      5  O   UNL     1      -1.419   3.334   0.820  1.00  0.00    -0.460 OA
BRANCH   5   6
ATOM      6  C   UNL     1      -1.953   2.224   1.394  1.00  0.00     0.340 C 
ATOM      7  O   UNL     1      -2.844   2.210   2.224  1.00  0.00    -0.246 OA
BRANCH   6   8
ATOM      8  C   UNL     1      -1.305   1.023   0.804  1.00  0.00     0.085 A 
ATOM      9  C   UNL     1       0.763  -0.075   0.123  1.00  0.00     0.032 A 
ATOM     10  C   UNL     1       0.017  -1.202  -0.219  1.00  0.00     0.027 A 
ATOM     11  C   UNL     1       0.095   1.029   0.651  1.00  0.00     0.043 A 
ATOM     12  C   UNL     1      -1.379  -1.198  -0.118  1.00  0.00     0.029 A 
ATOM     13  C   UNL     1      -2.067  -0.088   0.385  1.00  0.00     0.051 A 
BRANCH   9  14
ATOM     14  N   UNL     1       2.144  -0.091   0.041  1.00  0.00    -0.399 N 
ATOM     15  H   UNL     1       2.605  -0.876  -0.335  1.00  0.00     0.156 HD
ATOM     16  H   UNL     1       2.665   0.681   0.357  1.00  0.00     0.156 HD
ENDBRANCH   9  14
BRANCH  13  17
ATOM     17  N   UNL     1      -3.461  -0.118   0.415  1.00  0.00    -0.370 N 
ATOM     18  C   UNL     1      -4.401  -0.385   1.467  1.00  0.00     0.125 C 
ATOM     19  C   UNL     1      -4.471  -0.013  -0.590  1.00  0.00     0.125 C 
ATOM     20  C   UNL     1      -5.390   0.296   0.563  1.00  0.00     0.005 C 
ATOM     21  C   UNL     1      -6.845  -0.047   0.468  1.00  0.00     0.011 C 
ATOM     22  C   UNL     1      -5.705   1.748   0.870  1.00  0.00     0.011 C 
ATOM     23  C   UNL     1      -7.112   1.476   0.298  1.00  0.00     0.001 C 
ENDBRANCH  13  17
ENDBRANCH   6   8
ENDBRANCH   5   6
ENDBRANCH   4   5
ENDBRANCH   3   4
ENDBRANCH   2   3
ENDBRANCH   1   2
BRANCH   1  24
ATOM     24  C   UNL     1      -2.350   3.327  -3.391  1.00  0.00     0.261 C 
BRANCH  24  25
ATOM     25  O   UNL     1      -1.342   4.334  -3.539  1.00  0.00    -0.460 OA
BRANCH  25  26
ATOM     26  C   UNL     1      -1.821   5.587  -3.690  1.00  0.00     0.338 C 
ATOM     27  O   UNL     1      -2.969   5.924  -3.924  1.00  0.00    -0.246 OA
BRANCH  26  28
ATOM     28  C   UNL     1      -0.755   6.537  -3.326  1.00  0.00     0.060 A 
ATOM     29  C   UNL     1      -1.132   7.671  -2.598  1.00  0.00     0.016 A 
ATOM     30  C   UNL     1       0.581   6.323  -3.677  1.00  0.00     0.016 A 
ATOM     31  C   UNL     1      -0.183   8.632  -2.273  1.00  0.00     0.010 A 
ATOM     32  C   UNL     1       1.534   7.287  -3.351  1.00  0.00     0.010 A 
ATOM     33  C   UNL     1       1.144   8.462  -2.687  1.00  0.00    -0.014 A 
BRANCH  33  34
ATOM     34  C   UNL     1       2.084   9.598  -2.582  1.00  0.00     0.031 A 
ATOM     35  C   UNL     1       2.361  10.410  -3.814  1.00  0.00     0.074 A 
ATOM     36  C   UNL     1       2.644   9.914  -1.403  1.00  0.00     0.049 A 
ATOM     37  N   UNL     1       3.174  11.421  -3.977  1.00  0.00    -0.248 NA
ATOM     38  C   UNL     1       1.625  10.027  -5.032  1.00  0.00     0.031 C 
ATOM     39  C   UNL     1       2.409   9.215  -0.141  1.00  0.00     0.029 A 
ATOM     40  N   UNL     1       3.534  10.905  -1.081  1.00  0.00    -0.354 N 
ATOM     41  C   UNL     1       3.050  11.791  -5.310  1.00  0.00     0.074 A 
ATOM     42  C   UNL     1       2.115  10.874  -5.923  1.00  0.00     0.031 C 
ATOM     43  C   UNL     1       3.146   9.795   0.821  1.00  0.00     0.029 A 
ATOM     44  C   UNL     1       3.929  10.880   0.233  1.00  0.00     0.049 A 
ATOM     45  H   UNL     1       3.858  11.571  -1.730  1.00  0.00     0.167 HD
ATOM     46  C   UNL     1       3.654  12.814  -5.957  1.00  0.00     0.037 A 
ATOM     47  C   UNL     1       4.840  11.636   0.874  1.00  0.00     0.037 A 
ATOM     48  C   UNL     1       4.580  13.721  -5.333  1.00  0.00     0.049 A 
ATOM     49  C   UNL     1       5.555  12.721   0.109  1.00  0.00     0.074 A 
ATOM     50  C   UNL     1       5.241  14.799  -5.892  1.00  0.00     0.029 A 
ATOM     51  N   UNL     1       4.979  13.649  -4.006  1.00  0.00    -0.354 N 
ATOM     52  N   UNL     1       5.417  13.082  -1.145  1.00  0.00    -0.248 NA
ATOM     53  C   UNL     1       6.551  13.507   0.851  1.00  0.00     0.031 C 
ATOM     54  C   UNL     1       6.084  15.345  -4.920  1.00  0.00     0.029 A 
ATOM     55  C   UNL     1       5.900  14.648  -3.736  1.00  0.00     0.049 A 
ATOM     56  H   UNL     1       4.657  12.986  -3.353  1.00  0.00     0.167 HD
ATOM     57  C   UNL     1       6.280  14.155  -1.332  1.00  0.00     0.074 A 
ATOM     58  C   UNL     1       6.925  14.395  -0.058  1.00  0.00     0.031 C 
ATOM     59  C   UNL     1       6.519  14.876  -2.455  1.00  0.00     0.037 A 
BRANCH  46  60
ATOM     60  C   UNL     1       3.351  12.993  -7.415  1.00  0.00     0.064 A 
ATOM     61  C   UNL     1       2.099  13.444  -7.860  1.00  0.00     0.173 A 
ATOM     62  C   UNL     1       4.342  12.753  -8.379  1.00  0.00     0.173 A 
ATOM     63  F   UNL     1       1.111  13.671  -6.981  1.00  0.00    -0.203 F 
ATOM     64  C   UNL     1       1.845  13.629  -9.217  1.00  0.00     0.198 A 
ATOM     65  C   UNL     1       4.094  12.969  -9.732  1.00  0.00     0.198 A 
ATOM     66  F   UNL     1       5.556  12.320  -8.008  1.00  0.00    -0.203 F 
ATOM     67  F   UNL     1       0.628  14.019  -9.622  1.00  0.00    -0.200 F 
ATOM     68  C   UNL     1       2.845  13.401 -10.150  1.00  0.00     0.200 A 
ATOM     69  F   UNL     1       5.066  12.760 -10.631  1.00  0.00    -0.200 F 
ATOM     70  F   UNL     1       2.603  13.593 -11.454  1.00  0.00    -0.200 F 
ENDBRANCH  46  60
BRANCH  47  71
ATOM     71  C   UNL     1       5.145  11.386   2.308  1.00  0.00     0.064 A 
ATOM     72  C   UNL     1       4.843  12.339   3.290  1.00  0.00     0.173 A 
ATOM     73  C   UNL     1       5.776  10.203   2.720  1.00  0.00     0.173 A 
ATOM     74  F   UNL     1       4.260  13.496   2.944  1.00  0.00    -0.203 F 
ATOM     75  C   UNL     1       5.188  12.132   4.625  1.00  0.00     0.198 A 
ATOM     76  C   UNL     1       6.089   9.982   4.059  1.00  0.00     0.198 A 
ATOM     77  F   UNL     1       6.085   9.257   1.821  1.00  0.00    -0.203 F 
ATOM     78  F   UNL     1       4.943  13.085   5.533  1.00  0.00    -0.200 F 
ATOM     79  C   UNL     1       5.806  10.951   5.009  1.00  0.00     0.200 A 
ATOM     80  F   UNL     1       6.674   8.833   4.427  1.00  0.00    -0.200 F 
ATOM     81  F   UNL     1       6.141  10.754   6.291  1.00  0.00    -0.200 F 
ENDBRANCH  47  71
BRANCH  59  82
ATOM     82  C   UNL     1       7.484  16.022  -2.345  1.00  0.00     0.064 A 
ATOM     83  C   UNL     1       8.861  15.816  -2.174  1.00  0.00     0.173 A 
ATOM     84  C   UNL     1       7.027  17.345  -2.456  1.00  0.00     0.173 A 
ATOM     85  F   UNL     1       9.347  14.571  -2.050  1.00  0.00    -0.203 F 
ATOM     86  C   UNL     1       9.740  16.892  -2.087  1.00  0.00     0.198 A 
ATOM     87  C   UNL     1       7.913  18.416  -2.405  1.00  0.00     0.198 A 
ATOM     88  F   UNL     1       5.721  17.597  -2.632  1.00  0.00    -0.203 F 
ATOM     89  F   UNL     1      11.044  16.673  -1.868  1.00  0.00    -0.200 F 
ATOM     90  C   UNL     1       9.267  18.190  -2.210  1.00  0.00     0.200 A 
ATOM     91  F   UNL     1       7.456  19.669  -2.543  1.00  0.00    -0.200 F 
ATOM     92  F   UNL     1      10.116  19.224  -2.135  1.00  0.00    -0.200 F 
ENDBRANCH  59  82
ENDBRANCH  33  34
ENDBRANCH  26  28
ENDBRANCH  25  26
ENDBRANCH  24  25
ENDBRANCH   1  24
TORSDOF 16
