REMARK SMILES [NH3+][C@@]1(C(=O)OCCOCCOC(=O)c2ccc(-c3c4nc(c(-c5c(F)c(F)c(F)c(F)c5F)c5ccc([nH]5)c(-c5c(F)c(F)c(F)c(F)c5F)c5nc(c(-c6c(F)c(F)c(F)c(F)c6F)c6ccc3[nH]6)C=C5)C=C4)cc2)CC[C@@H]([N@H+]2CC[C@H]([NH+]3CCOCC3)C2)C1
REMARK SMILES IDX 8 1 7 2 6 3 5 4 3 5 4 6 2 7 77 8 91 9 78 10 79 11 1 12 80 16
REMARK SMILES IDX 81 17 90 18 82 20 83 21 84 22 85 23 89 24 86 26 88 27 87 28
REMARK SMILES IDX 9 29 10 30 11 31 12 32 13 33 14 34 15 35 76 36 16 37 75 38
REMARK SMILES IDX 17 39 18 40 19 41 69 42 20 43 74 44 68 45 70 46 21 47 73 48
REMARK SMILES IDX 67 49 66 50 22 52 54 53 34 54 53 55 35 56 38 57 52 58 71 59
REMARK SMILES IDX 36 60 37 61 51 63 72 64 39 65 23 66 24 67 32 68 25 69 26 70
REMARK SMILES IDX 30 71 33 72 27 73 28 74 31 75 29 76 55 77 56 78 64 79 57 80
REMARK SMILES IDX 58 81 62 82 65 83 59 84 60 85 63 86 61 87 40 88 41 89 49 90
REMARK SMILES IDX 42 91 43 92 47 93 50 94 44 95 45 96 48 97 46 98
REMARK H PARENT 1 13 1 14 1 15 80 19 84 25 70 51 38 62
REMARK Flexibility Score: inf
ROOT
ATOM      1  O   UNL     1       2.035  -0.322  -4.304  1.00  0.00    -0.374 OA
ENDROOT
BRANCH   1   2
ATOM      2  C   UNL     1       1.006   0.455  -4.915  1.00  0.00     0.202 C 
BRANCH   2   3
ATOM      3  C   UNL     1      -0.357   0.453  -4.218  1.00  0.00     0.261 C 
BRANCH   3   4
ATOM      4  O   UNL     1      -0.290   1.124  -2.949  1.00  0.00    -0.459 OA
BRANCH   4   5
ATOM      5  C   UNL     1      -0.398   0.321  -1.859  1.00  0.00     0.368 C 
ATOM      6  O   UNL     1      -0.698  -0.869  -1.893  1.00  0.00    -0.245 OA
BRANCH   5   7
ATOM      7  C   UNL     1      -0.077   1.057  -0.531  1.00  0.00     0.198 C 
ATOM      8  C   UNL     1      -1.386   1.627   0.033  1.00  0.00     0.087 C 
ATOM      9  C   UNL     1       0.898   2.251  -0.656  1.00  0.00     0.145 C 
ATOM     10  C   UNL     1      -1.310   3.122  -0.249  1.00  0.00     0.072 C 
ATOM     11  C   UNL     1       0.172   3.494  -0.118  1.00  0.00     0.191 C 
BRANCH   7  12
ATOM     12  N   UNL     1       0.481   0.045   0.407  1.00  0.00    -0.343 N 
ATOM     13  H   UNL     1      -0.166  -0.739   0.486  1.00  0.00     0.345 HD
ATOM     14  H   UNL     1       0.614   0.470   1.325  1.00  0.00     0.345 HD
ATOM     15  H   UNL     1       1.378  -0.288   0.054  1.00  0.00     0.345 HD
ENDBRANCH   7  12
BRANCH  11  16
ATOM     16  N   UNL     1       0.535   3.942   1.230  1.00  0.00    -0.327 N 
ATOM     17  C   UNL     1       0.542   2.942   2.295  1.00  0.00     0.269 C 
ATOM     18  C   UNL     1       1.851   4.597   1.300  1.00  0.00     0.328 C 
ATOM     19  H   UNL     1      -0.236   4.587   1.400  1.00  0.00     0.348 HD
ATOM     20  C   UNL     1       1.164   3.697   3.453  1.00  0.00     0.132 C 
ATOM     21  C   UNL     1       2.219   4.597   2.807  1.00  0.00     0.245 C 
BRANCH  21  22
ATOM     22  N   UNL     1       2.497   5.902   3.425  1.00  0.00    -0.324 N 
ATOM     23  C   UNL     1       2.895   5.830   4.844  1.00  0.00     0.291 C 
ATOM     24  C   UNL     1       1.480   6.956   3.249  1.00  0.00     0.291 C 
ATOM     25  H   UNL     1       3.299   6.195   2.867  1.00  0.00     0.348 HD
ATOM     26  C   UNL     1       1.737   5.883   5.858  1.00  0.00     0.221 C 
ATOM     27  C   UNL     1       0.354   6.982   4.294  1.00  0.00     0.221 C 
ATOM     28  O   UNL     1       0.874   7.000   5.627  1.00  0.00    -0.370 OA
ENDBRANCH  21  22
ENDBRANCH  11  16
ENDBRANCH   5   7
ENDBRANCH   4   5
ENDBRANCH   3   4
ENDBRANCH   2   3
ENDBRANCH   1   2
BRANCH   1  29
ATOM     29  C   UNL     1       2.736   0.253  -3.202  1.00  0.00     0.202 C 
BRANCH  29  30
ATOM     30  C   UNL     1       3.756   1.353  -3.526  1.00  0.00     0.261 C 
BRANCH  30  31
ATOM     31  O   UNL     1       3.130   2.546  -4.037  1.00  0.00    -0.460 OA
BRANCH  31  32
ATOM     32  C   UNL     1       3.460   2.865  -5.311  1.00  0.00     0.338 C 
ATOM     33  O   UNL     1       4.284   2.312  -6.028  1.00  0.00    -0.246 OA
BRANCH  32  34
ATOM     34  C   UNL     1       2.534   3.888  -5.826  1.00  0.00     0.060 A 
ATOM     35  C   UNL     1       1.762   3.560  -6.948  1.00  0.00     0.016 A 
ATOM     36  C   UNL     1       2.462   5.164  -5.263  1.00  0.00     0.016 A 
ATOM     37  C   UNL     1       0.923   4.513  -7.523  1.00  0.00     0.010 A 
ATOM     38  C   UNL     1       1.631   6.124  -5.852  1.00  0.00     0.010 A 
ATOM     39  C   UNL     1       0.871   5.809  -6.994  1.00  0.00    -0.014 A 
BRANCH  39  40
ATOM     40  C   UNL     1       0.082   6.857  -7.685  1.00  0.00     0.031 A 
ATOM     41  C   UNL     1       0.774   7.818  -8.608  1.00  0.00     0.074 A 
ATOM     42  C   UNL     1      -1.247   6.941  -7.496  1.00  0.00     0.049 A 
ATOM     43  N   UNL     1       0.282   8.840  -9.262  1.00  0.00    -0.248 NA
ATOM     44  C   UNL     1       2.212   7.598  -8.826  1.00  0.00     0.031 C 
ATOM     45  C   UNL     1      -2.037   6.040  -6.659  1.00  0.00     0.029 A 
ATOM     46  N   UNL     1      -2.163   7.837  -7.988  1.00  0.00    -0.354 N 
ATOM     47  C   UNL     1       1.348   9.386  -9.965  1.00  0.00     0.074 A 
ATOM     48  C   UNL     1       2.518   8.597  -9.642  1.00  0.00     0.031 C 
ATOM     49  C   UNL     1      -3.319   6.441  -6.679  1.00  0.00     0.029 A 
ATOM     50  C   UNL     1      -3.432   7.646  -7.499  1.00  0.00     0.049 A 
ATOM     51  H   UNL     1      -1.933   8.547  -8.629  1.00  0.00     0.167 HD
ATOM     52  C   UNL     1       1.346  10.447 -10.808  1.00  0.00     0.037 A 
ATOM     53  C   UNL     1      -4.549   8.379  -7.669  1.00  0.00     0.037 A 
ATOM     54  C   UNL     1       0.181  11.231 -11.127  1.00  0.00     0.049 A 
ATOM     55  C   UNL     1      -4.502   9.609  -8.539  1.00  0.00     0.074 A 
ATOM     56  C   UNL     1       0.073  12.300 -12.000  1.00  0.00     0.029 A 
ATOM     57  N   UNL     1      -1.076  11.039 -10.574  1.00  0.00    -0.354 N 
ATOM     58  N   UNL     1      -3.500  10.099  -9.226  1.00  0.00    -0.248 NA
ATOM     59  C   UNL     1      -5.743  10.390  -8.650  1.00  0.00     0.031 C 
ATOM     60  C   UNL     1      -1.236  12.790 -11.933  1.00  0.00     0.029 A 
ATOM     61  C   UNL     1      -1.956  11.994 -11.056  1.00  0.00     0.049 A 
ATOM     62  H   UNL     1      -1.309  10.328  -9.933  1.00  0.00     0.167 HD
ATOM     63  C   UNL     1      -3.990  11.232  -9.862  1.00  0.00     0.074 A 
ATOM     64  C   UNL     1      -5.386  11.347  -9.495  1.00  0.00     0.031 C 
ATOM     65  C   UNL     1      -3.341  12.102 -10.675  1.00  0.00     0.037 A 
BRANCH  52  66
ATOM     66  C   UNL     1       2.652  10.843 -11.430  1.00  0.00     0.064 A 
ATOM     67  C   UNL     1       3.244  10.082 -12.449  1.00  0.00     0.173 A 
ATOM     68  C   UNL     1       3.292  12.028 -11.038  1.00  0.00     0.173 A 
ATOM     69  F   UNL     1       2.676   8.935 -12.851  1.00  0.00    -0.203 F 
ATOM     70  C   UNL     1       4.439  10.485 -13.039  1.00  0.00     0.198 A 
ATOM     71  C   UNL     1       4.473  12.440 -11.648  1.00  0.00     0.198 A 
ATOM     72  F   UNL     1       2.764  12.794 -10.071  1.00  0.00    -0.203 F 
ATOM     73  F   UNL     1       5.006   9.724 -13.987  1.00  0.00    -0.200 F 
ATOM     74  C   UNL     1       5.049  11.666 -12.644  1.00  0.00     0.200 A 
ATOM     75  F   UNL     1       5.055  13.588 -11.273  1.00  0.00    -0.200 F 
ATOM     76  F   UNL     1       6.194  12.057 -13.221  1.00  0.00    -0.200 F 
ENDBRANCH  52  66
BRANCH  53  77
ATOM     77  C   UNL     1      -5.802   7.993  -6.971  1.00  0.00     0.064 A 
ATOM     78  C   UNL     1      -6.916   7.529  -7.683  1.00  0.00     0.173 A 
ATOM     79  C   UNL     1      -5.918   8.101  -5.577  1.00  0.00     0.173 A 
ATOM     80  F   UNL     1      -6.864   7.436  -9.020  1.00  0.00    -0.203 F 
ATOM     81  C   UNL     1      -8.102   7.202  -7.029  1.00  0.00     0.198 A 
ATOM     82  C   UNL     1      -7.094   7.747  -4.921  1.00  0.00     0.198 A 
ATOM     83  F   UNL     1      -4.882   8.545  -4.849  1.00  0.00    -0.203 F 
ATOM     84  F   UNL     1      -9.167   6.803  -7.739  1.00  0.00    -0.200 F 
ATOM     85  C   UNL     1      -8.188   7.304  -5.649  1.00  0.00     0.200 A 
ATOM     86  F   UNL     1      -7.169   7.838  -3.587  1.00  0.00    -0.200 F 
ATOM     87  F   UNL     1      -9.328   6.986  -5.021  1.00  0.00    -0.200 F 
ENDBRANCH  53  77
BRANCH  65  88
ATOM     88  C   UNL     1      -4.135  13.249 -11.231  1.00  0.00     0.064 A 
ATOM     89  C   UNL     1      -4.525  14.327 -10.424  1.00  0.00     0.173 A 
ATOM     90  C   UNL     1      -4.473  13.290 -12.592  1.00  0.00     0.173 A 
ATOM     91  F   UNL     1      -4.241  14.327  -9.113  1.00  0.00    -0.203 F 
ATOM     92  C   UNL     1      -5.244  15.396 -10.955  1.00  0.00     0.198 A 
ATOM     93  C   UNL     1      -5.167  14.373 -13.126  1.00  0.00     0.198 A 
ATOM     94  F   UNL     1      -4.119  12.286 -13.408  1.00  0.00    -0.203 F 
ATOM     95  F   UNL     1      -5.644  16.394 -10.156  1.00  0.00    -0.200 F 
ATOM     96  C   UNL     1      -5.557  15.421 -12.306  1.00  0.00     0.200 A 
ATOM     97  F   UNL     1      -5.458  14.402 -14.434  1.00  0.00    -0.200 F 
ATOM     98  F   UNL     1      -6.242  16.454 -12.817  1.00  0.00    -0.200 F 
ENDBRANCH  65  88
ENDBRANCH  39  40
ENDBRANCH  32  34
ENDBRANCH  31  32
ENDBRANCH  30  31
ENDBRANCH  29  30
ENDBRANCH   1  29
TORSDOF 17
