REMARK SMILES Cc1ccc2cc(C[N@H+]3CC[NH2+][C@H](C(=O)OCCOCCOC(=O)c4ccc(-c5c6nc(c(-c7c(F)c(F)c(F)c(F)c7F)c7ccc([nH]7)c(-c7c(F)c(F)c(F)c(F)c7F)c7nc(c(-c8c(F)c(F)c(F)c(F)c8F)c8ccc5[nH]8)C=C7)C=C6)cc4)C3)c(N3CCOCC3)nc2c1
REMARK SMILES IDX 18 1 17 2 16 3 14 4 15 5 13 6 9 7 10 8 88 9 11 11 12 12 8 15
REMARK SMILES IDX 7 16 1 17 2 18 3 19 98 20 4 21 97 22 5 23 96 24 6 25 89 26
REMARK SMILES IDX 90 27 91 28 95 29 92 30 94 31 93 32 19 33 20 34 21 35 22 36
REMARK SMILES IDX 23 37 24 38 25 39 26 40 87 41 27 42 86 43 28 44 29 45 30 46
REMARK SMILES IDX 80 47 31 48 85 49 79 50 81 51 32 52 84 53 78 54 77 55 33 57
REMARK SMILES IDX 65 58 45 59 64 60 46 61 49 62 63 63 82 64 47 65 48 66 62 68
REMARK SMILES IDX 83 69 50 70 34 71 35 72 43 73 36 74 37 75 41 76 44 77 38 78
REMARK SMILES IDX 39 79 42 80 40 81 66 82 67 83 75 84 68 85 69 86 73 87 76 88
REMARK SMILES IDX 70 89 71 90 74 91 72 92 51 93 52 94 60 95 53 96 54 97 58 98
REMARK SMILES IDX 61 99 55 100 56 101 59 102 57 103
REMARK H PARENT 9 10 12 13 12 14 81 56 49 67
REMARK Flexibility Score: inf
ROOT
ATOM      1  C   UNL     1       2.995  -6.087   2.237  1.00  0.00     0.202 C 
ENDROOT
BRANCH   1   2
ATOM      2  C   UNL     1       1.664  -5.773   1.536  1.00  0.00     0.261 C 
BRANCH   2   3
ATOM      3  O   UNL     1       0.719  -5.230   2.476  1.00  0.00    -0.459 OA
BRANCH   3   4
ATOM      4  C   UNL     1      -0.591  -5.645   2.455  1.00  0.00     0.371 C 
ATOM      5  O   UNL     1      -1.043  -6.522   1.739  1.00  0.00    -0.245 OA
BRANCH   4   6
ATOM      6  C   UNL     1      -1.348  -4.801   3.483  1.00  0.00     0.348 C 
ATOM      7  N   UNL     1      -1.593  -4.422   5.972  1.00  0.00    -0.321 N 
ATOM      8  C   UNL     1      -2.938  -3.903   5.678  1.00  0.00     0.324 C 
ATOM      9  C   UNL     1      -1.127  -5.325   4.915  1.00  0.00     0.341 C 
ATOM     10  H   UNL     1      -1.701  -4.996   6.809  1.00  0.00     0.348 HD
ATOM     11  C   UNL     1      -3.240  -3.555   4.191  1.00  0.00     0.323 C 
ATOM     12  N   UNL     1      -2.788  -4.574   3.208  1.00  0.00    -0.325 N 
ATOM     13  H   UNL     1      -2.916  -4.230   2.256  1.00  0.00     0.347 HD
ATOM     14  H   UNL     1      -3.324  -5.438   3.292  1.00  0.00     0.347 HD
BRANCH   7  15
ATOM     15  C   UNL     1      -0.602  -3.452   6.489  1.00  0.00     0.303 C 
BRANCH  15  16
ATOM     16  C   UNL     1      -0.229  -2.258   5.631  1.00  0.00     0.049 A 
ATOM     17  C   UNL     1       0.653   1.306   0.261  1.00  0.00     0.044 C 
ATOM     18  C   UNL     1       0.529   0.314   1.378  1.00  0.00    -0.049 A 
ATOM     19  C   UNL     1       0.915  -0.999   1.132  1.00  0.00     0.004 A 
ATOM     20  C   UNL     1       0.074   0.664   2.668  1.00  0.00     0.032 A 
ATOM     21  C   UNL     1       0.970  -1.897   2.184  1.00  0.00     0.010 A 
ATOM     22  C   UNL     1       0.003  -0.263   3.719  1.00  0.00     0.073 A 
ATOM     23  C   UNL     1       0.544  -1.529   3.468  1.00  0.00     0.001 A 
ATOM     24  N   UNL     1      -0.577   0.019   4.915  1.00  0.00    -0.230 NA
ATOM     25  C   UNL     1       0.553  -2.464   4.498  1.00  0.00     0.023 A 
ATOM     26  C   UNL     1      -0.723  -0.966   5.845  1.00  0.00     0.138 A 
BRANCH  26  27
ATOM     27  N   UNL     1      -1.428  -0.694   6.998  1.00  0.00    -0.352 N 
ATOM     28  C   UNL     1      -0.724  -0.634   8.285  1.00  0.00     0.146 C 
ATOM     29  C   UNL     1      -2.620   0.146   6.940  1.00  0.00     0.146 C 
ATOM     30  C   UNL     1      -1.714  -1.035   9.395  1.00  0.00     0.181 C 
ATOM     31  C   UNL     1      -3.551  -0.302   8.085  1.00  0.00     0.181 C 
ATOM     32  O   UNL     1      -2.899  -0.218   9.369  1.00  0.00    -0.378 OA
ENDBRANCH  26  27
ENDBRANCH  15  16
ENDBRANCH   7  15
ENDBRANCH   4   6
ENDBRANCH   3   4
ENDBRANCH   2   3
ENDBRANCH   1   2
BRANCH   1  33
ATOM     33  O   UNL     1       2.943  -7.189   3.146  1.00  0.00    -0.374 OA
BRANCH  33  34
ATOM     34  C   UNL     1       2.382  -6.907   4.425  1.00  0.00     0.202 C 
BRANCH  34  35
ATOM     35  C   UNL     1       3.372  -6.450   5.500  1.00  0.00     0.261 C 
BRANCH  35  36
ATOM     36  O   UNL     1       3.931  -5.158   5.206  1.00  0.00    -0.460 OA
BRANCH  36  37
ATOM     37  C   UNL     1       5.181  -5.201   4.679  1.00  0.00     0.338 C 
ATOM     38  O   UNL     1       5.843  -6.186   4.431  1.00  0.00    -0.246 OA
BRANCH  37  39
ATOM     39  C   UNL     1       5.630  -3.839   4.332  1.00  0.00     0.060 A 
ATOM     40  C   UNL     1       5.591  -2.796   5.260  1.00  0.00     0.016 A 
ATOM     41  C   UNL     1       6.218  -3.653   3.076  1.00  0.00     0.016 A 
ATOM     42  C   UNL     1       6.194  -1.575   4.943  1.00  0.00     0.010 A 
ATOM     43  C   UNL     1       6.824  -2.437   2.764  1.00  0.00     0.010 A 
ATOM     44  C   UNL     1       6.843  -1.401   3.707  1.00  0.00    -0.014 A 
BRANCH  44  45
ATOM     45  C   UNL     1       7.677  -0.198   3.465  1.00  0.00     0.031 A 
ATOM     46  C   UNL     1       7.237   0.888   2.536  1.00  0.00     0.074 A 
ATOM     47  C   UNL     1       8.879  -0.123   4.069  1.00  0.00     0.049 A 
ATOM     48  N   UNL     1       7.821   2.029   2.270  1.00  0.00    -0.248 NA
ATOM     49  C   UNL     1       5.990   0.659   1.795  1.00  0.00     0.031 C 
ATOM     50  C   UNL     1       9.441  -1.155   4.940  1.00  0.00     0.029 A 
ATOM     51  N   UNL     1       9.840   0.856   4.044  1.00  0.00    -0.354 N 
ATOM     52  C   UNL     1       7.007   2.664   1.345  1.00  0.00     0.074 A 
ATOM     53  C   UNL     1       5.915   1.757   1.054  1.00  0.00     0.031 C 
ATOM     54  C   UNL     1      10.633  -0.742   5.394  1.00  0.00     0.029 A 
ATOM     55  C   UNL     1      10.930   0.571   4.828  1.00  0.00     0.049 A 
ATOM     56  H   UNL     1       9.755   1.682   3.516  1.00  0.00     0.167 HD
ATOM     57  C   UNL     1       7.151   3.901   0.809  1.00  0.00     0.037 A 
ATOM     58  C   UNL     1      12.042   1.290   5.073  1.00  0.00     0.037 A 
ATOM     59  C   UNL     1       8.250   4.788   1.098  1.00  0.00     0.049 A 
ATOM     60  C   UNL     1      12.190   2.651   4.455  1.00  0.00     0.074 A 
ATOM     61  C   UNL     1       8.448   6.087   0.660  1.00  0.00     0.029 A 
ATOM     62  N   UNL     1       9.349   4.462   1.881  1.00  0.00    -0.354 N 
ATOM     63  N   UNL     1      11.362   3.291   3.666  1.00  0.00    -0.248 NA
ATOM     64  C   UNL     1      13.419   3.393   4.765  1.00  0.00     0.031 C 
ATOM     65  C   UNL     1       9.693   6.522   1.126  1.00  0.00     0.029 A 
ATOM     66  C   UNL     1      10.247   5.519   1.905  1.00  0.00     0.049 A 
ATOM     67  H   UNL     1       9.473   3.606   2.352  1.00  0.00     0.167 HD
ATOM     68  C   UNL     1      11.960   4.513   3.394  1.00  0.00     0.074 A 
ATOM     69  C   UNL     1      13.215   4.533   4.117  1.00  0.00     0.031 C 
ATOM     70  C   UNL     1      11.504   5.524   2.614  1.00  0.00     0.037 A 
BRANCH  57  71
ATOM     71  C   UNL     1       6.093   4.370  -0.148  1.00  0.00     0.064 A 
ATOM     72  C   UNL     1       4.791   4.665   0.284  1.00  0.00     0.173 A 
ATOM     73  C   UNL     1       6.395   4.574  -1.504  1.00  0.00     0.173 A 
ATOM     74  F   UNL     1       4.448   4.483   1.568  1.00  0.00    -0.203 F 
ATOM     75  C   UNL     1       3.823   5.116  -0.609  1.00  0.00     0.198 A 
ATOM     76  C   UNL     1       5.433   5.056  -2.388  1.00  0.00     0.198 A 
ATOM     77  F   UNL     1       7.626   4.317  -1.970  1.00  0.00    -0.203 F 
ATOM     78  F   UNL     1       2.572   5.341  -0.182  1.00  0.00    -0.200 F 
ATOM     79  C   UNL     1       4.146   5.319  -1.942  1.00  0.00     0.200 A 
ATOM     80  F   UNL     1       5.750   5.264  -3.673  1.00  0.00    -0.200 F 
ATOM     81  F   UNL     1       3.215   5.759  -2.799  1.00  0.00    -0.200 F 
ENDBRANCH  57  71
BRANCH  58  82
ATOM     82  C   UNL     1      13.063   0.738   5.998  1.00  0.00     0.064 A 
ATOM     83  C   UNL     1      13.206   1.249   7.295  1.00  0.00     0.173 A 
ATOM     84  C   UNL     1      13.854  -0.362   5.636  1.00  0.00     0.173 A 
ATOM     85  F   UNL     1      12.482   2.310   7.679  1.00  0.00    -0.203 F 
ATOM     86  C   UNL     1      14.096   0.674   8.199  1.00  0.00     0.198 A 
ATOM     87  C   UNL     1      14.726  -0.952   6.549  1.00  0.00     0.198 A 
ATOM     88  F   UNL     1      13.747  -0.891   4.409  1.00  0.00    -0.203 F 
ATOM     89  F   UNL     1      14.221   1.187   9.431  1.00  0.00    -0.200 F 
ATOM     90  C   UNL     1      14.846  -0.433   7.830  1.00  0.00     0.200 A 
ATOM     91  F   UNL     1      15.434  -2.033   6.195  1.00  0.00    -0.200 F 
ATOM     92  F   UNL     1      15.680  -1.004   8.710  1.00  0.00    -0.200 F 
ENDBRANCH  58  82
BRANCH  70  93
ATOM     93  C   UNL     1      12.368   6.747   2.486  1.00  0.00     0.064 A 
ATOM     94  C   UNL     1      13.553   6.730   1.736  1.00  0.00     0.173 A 
ATOM     95  C   UNL     1      11.967   7.967   3.052  1.00  0.00     0.173 A 
ATOM     96  F   UNL     1      13.988   5.585   1.187  1.00  0.00    -0.203 F 
ATOM     97  C   UNL     1      14.309   7.887   1.565  1.00  0.00     0.198 A 
ATOM     98  C   UNL     1      12.710   9.128   2.854  1.00  0.00     0.198 A 
ATOM     99  F   UNL     1      10.839   8.039   3.774  1.00  0.00    -0.203 F 
ATOM    100  F   UNL     1      15.454   7.840   0.870  1.00  0.00    -0.200 F 
ATOM    101  C   UNL     1      13.882   9.086   2.114  1.00  0.00     0.200 A 
ATOM    102  F   UNL     1      12.287  10.289   3.372  1.00  0.00    -0.200 F 
ATOM    103  F   UNL     1      14.600  10.203   1.930  1.00  0.00    -0.200 F 
ENDBRANCH  70  93
ENDBRANCH  44  45
ENDBRANCH  37  39
ENDBRANCH  36  37
ENDBRANCH  35  36
ENDBRANCH  34  35
ENDBRANCH  33  34
ENDBRANCH   1  33
TORSDOF 17
