REMARK SMILES O=C(COc1ccccc1C[NH+]1CCC2(CC[NH2+]CC2)CC1)OCCOCCOC(=O)c1ccc(-c2c3nc(c(-c4c(F)c(F)c(F)c(F)c4F)c4ccc([nH]4)c(-c4c(F)c(F)c(F)c(F)c4F)c4nc(c(-c5c(F)c(F)c(F)c(F)c5F)c5ccc2[nH]5)C=C4)C=C3)cc1
REMARK SMILES IDX 25 1 24 2 23 3 2 4 1 5 3 6 4 7 5 8 6 9 10 10 7 11 9 12 8 13
REMARK SMILES IDX 11 14 12 15 13 16 22 17 14 19 21 20 15 21 16 22 20 23 17 24
REMARK SMILES IDX 19 25 18 26 26 29 27 30 28 31 29 32 30 33 31 34 32 35 33 36
REMARK SMILES IDX 94 37 34 38 93 39 35 40 36 41 37 42 87 43 38 44 92 45 86 46
REMARK SMILES IDX 88 47 39 48 91 49 85 50 84 51 40 53 72 54 52 55 71 56 53 57
REMARK SMILES IDX 56 58 70 59 89 60 54 61 55 62 69 64 90 65 57 66 41 67 42 68
REMARK SMILES IDX 50 69 43 70 44 71 48 72 51 73 45 74 46 75 49 76 47 77 73 78
REMARK SMILES IDX 74 79 82 80 75 81 76 82 80 83 83 84 77 85 78 86 81 87 79 88
REMARK SMILES IDX 58 89 59 90 67 91 60 92 61 93 65 94 68 95 62 96 63 97 66 98
REMARK SMILES IDX 64 99
REMARK H PARENT 12 18 18 27 18 28 88 52 56 63
REMARK Flexibility Score: inf
ROOT
ATOM      1  C   UNL     1       5.404  -1.086  -1.639  1.00  0.00     0.202 C 
ENDROOT
BRANCH   1   2
ATOM      2  C   UNL     1       4.658  -0.325  -0.542  1.00  0.00     0.261 C 
BRANCH   2   3
ATOM      3  O   UNL     1       3.289  -0.755  -0.415  1.00  0.00    -0.461 OA
BRANCH   3   4
ATOM      4  C   UNL     1       2.224   0.046  -0.680  1.00  0.00     0.344 C 
ATOM      5  O   UNL     1       1.110  -0.447  -0.857  1.00  0.00    -0.248 OA
BRANCH   4   6
ATOM      6  C   UNL     1       2.454   1.540  -0.793  1.00  0.00     0.351 C 
BRANCH   6   7
ATOM      7  O   UNL     1       3.144   1.984   0.369  1.00  0.00    -0.481 OA
BRANCH   7   8
ATOM      8  C   UNL     1       2.593   3.103   0.922  1.00  0.00     0.129 A 
ATOM      9  C   UNL     1       3.291   4.296   0.713  1.00  0.00     0.047 A 
ATOM     10  C   UNL     1       1.491   3.039   1.788  1.00  0.00     0.048 A 
ATOM     11  C   UNL     1       2.863   5.469   1.326  1.00  0.00     0.004 A 
ATOM     12  C   UNL     1       1.050   4.246   2.360  1.00  0.00     0.013 A 
ATOM     13  C   UNL     1       1.734   5.446   2.140  1.00  0.00     0.001 A 
BRANCH  10  14
ATOM     14  C   UNL     1       0.768   1.751   2.132  1.00  0.00     0.302 C 
BRANCH  14  15
ATOM     15  N   UNL     1       1.250   0.927   3.244  1.00  0.00    -0.331 N 
ATOM     16  C   UNL     1       2.528   0.253   3.082  1.00  0.00     0.263 C 
ATOM     17  C   UNL     1       1.067   1.447   4.587  1.00  0.00     0.263 C 
ATOM     18  H   UNL     1       0.559   0.182   3.155  1.00  0.00     0.348 HD
ATOM     19  C   UNL     1       3.744   1.093   3.471  1.00  0.00     0.069 C 
ATOM     20  C   UNL     1       2.197   2.356   5.061  1.00  0.00     0.069 C 
ATOM     21  C   UNL     1       3.626   1.795   4.847  1.00  0.00    -0.008 C 
ATOM     22  C   UNL     1       4.002   0.819   5.989  1.00  0.00     0.069 C 
ATOM     23  C   UNL     1       4.607   2.996   4.897  1.00  0.00     0.069 C 
ATOM     24  C   UNL     1       5.502   0.495   6.032  1.00  0.00     0.261 C 
ATOM     25  C   UNL     1       6.069   2.566   4.926  1.00  0.00     0.261 C 
ATOM     26  N   UNL     1       6.337   1.697   6.073  1.00  0.00    -0.346 N 
ATOM     27  H   UNL     1       7.319   1.420   6.059  1.00  0.00     0.346 HD
ATOM     28  H   UNL     1       6.121   2.212   6.926  1.00  0.00     0.346 HD
ENDBRANCH  14  15
ENDBRANCH  10  14
ENDBRANCH   7   8
ENDBRANCH   6   7
ENDBRANCH   4   6
ENDBRANCH   3   4
ENDBRANCH   2   3
ENDBRANCH   1   2
BRANCH   1  29
ATOM     29  O   UNL     1       4.884  -1.002  -2.962  1.00  0.00    -0.374 OA
BRANCH  29  30
ATOM     30  C   UNL     1       3.584  -1.522  -3.229  1.00  0.00     0.202 C 
BRANCH  30  31
ATOM     31  C   UNL     1       3.279  -3.005  -2.957  1.00  0.00     0.261 C 
BRANCH  31  32
ATOM     32  O   UNL     1       3.629  -3.478  -1.645  1.00  0.00    -0.460 OA
BRANCH  32  33
ATOM     33  C   UNL     1       4.626  -4.396  -1.631  1.00  0.00     0.338 C 
ATOM     34  O   UNL     1       5.248  -4.827  -2.587  1.00  0.00    -0.246 OA
BRANCH  33  35
ATOM     35  C   UNL     1       5.000  -4.762  -0.254  1.00  0.00     0.060 A 
ATOM     36  C   UNL     1       6.310  -4.482   0.154  1.00  0.00     0.016 A 
ATOM     37  C   UNL     1       4.165  -5.559   0.531  1.00  0.00     0.016 A 
ATOM     38  C   UNL     1       6.814  -5.061   1.315  1.00  0.00     0.010 A 
ATOM     39  C   UNL     1       4.677  -6.149   1.694  1.00  0.00     0.010 A 
ATOM     40  C   UNL     1       6.020  -5.945   2.058  1.00  0.00    -0.014 A 
BRANCH  40  41
ATOM     41  C   UNL     1       6.678  -6.783   3.091  1.00  0.00     0.031 A 
ATOM     42  C   UNL     1       7.170  -8.155   2.712  1.00  0.00     0.074 A 
ATOM     43  C   UNL     1       6.920  -6.294   4.318  1.00  0.00     0.049 A 
ATOM     44  N   UNL     1       7.861  -9.015   3.418  1.00  0.00    -0.248 NA
ATOM     45  C   UNL     1       6.847  -8.617   1.353  1.00  0.00     0.031 C 
ATOM     46  C   UNL     1       6.515  -4.974   4.795  1.00  0.00     0.029 A 
ATOM     47  N   UNL     1       7.580  -6.853   5.384  1.00  0.00    -0.354 N 
ATOM     48  C   UNL     1       8.070 -10.106   2.585  1.00  0.00     0.074 A 
ATOM     49  C   UNL     1       7.399  -9.821   1.335  1.00  0.00     0.031 C 
ATOM     50  C   UNL     1       6.936  -4.823   6.063  1.00  0.00     0.029 A 
ATOM     51  C   UNL     1       7.632  -6.037   6.485  1.00  0.00     0.049 A 
ATOM     52  H   UNL     1       7.978  -7.753   5.360  1.00  0.00     0.167 HD
ATOM     53  C   UNL     1       8.773 -11.238   2.832  1.00  0.00     0.037 A 
ATOM     54  C   UNL     1       8.182  -6.249   7.697  1.00  0.00     0.037 A 
ATOM     55  C   UNL     1       9.430 -11.533   4.078  1.00  0.00     0.049 A 
ATOM     56  C   UNL     1       8.925  -7.532   7.960  1.00  0.00     0.074 A 
ATOM     57  C   UNL     1      10.153 -12.658   4.430  1.00  0.00     0.029 A 
ATOM     58  N   UNL     1       9.437 -10.691   5.179  1.00  0.00    -0.354 N 
ATOM     59  N   UNL     1       9.137  -8.546   7.157  1.00  0.00    -0.248 NA
ATOM     60  C   UNL     1       9.520  -7.690   9.295  1.00  0.00     0.031 C 
ATOM     61  C   UNL     1      10.574 -12.511   5.757  1.00  0.00     0.029 A 
ATOM     62  C   UNL     1      10.143 -11.277   6.218  1.00  0.00     0.049 A 
ATOM     63  H   UNL     1       9.005  -9.807   5.218  1.00  0.00     0.167 HD
ATOM     64  C   UNL     1       9.898  -9.454   7.881  1.00  0.00     0.074 A 
ATOM     65  C   UNL     1      10.131  -8.861   9.181  1.00  0.00     0.031 C 
ATOM     66  C   UNL     1      10.359 -10.673   7.506  1.00  0.00     0.037 A 
BRANCH  53  67
ATOM     67  C   UNL     1       8.862 -12.247   1.727  1.00  0.00     0.064 A 
ATOM     68  C   UNL     1       9.687 -12.035   0.612  1.00  0.00     0.173 A 
ATOM     69  C   UNL     1       8.145 -13.449   1.796  1.00  0.00     0.173 A 
ATOM     70  F   UNL     1      10.383 -10.894   0.494  1.00  0.00    -0.203 F 
ATOM     71  C   UNL     1       9.776 -12.985  -0.403  1.00  0.00     0.198 A 
ATOM     72  C   UNL     1       8.252 -14.406   0.790  1.00  0.00     0.198 A 
ATOM     73  F   UNL     1       7.344 -13.700   2.843  1.00  0.00    -0.203 F 
ATOM     74  F   UNL     1      10.544 -12.748  -1.475  1.00  0.00    -0.200 F 
ATOM     75  C   UNL     1       9.064 -14.171  -0.310  1.00  0.00     0.200 A 
ATOM     76  F   UNL     1       7.570 -15.555   0.884  1.00  0.00    -0.200 F 
ATOM     77  F   UNL     1       9.155 -15.086  -1.285  1.00  0.00    -0.200 F 
ENDBRANCH  53  67
BRANCH  54  78
ATOM     78  C   UNL     1       8.053  -5.215   8.754  1.00  0.00     0.064 A 
ATOM     79  C   UNL     1       9.158  -4.462   9.174  1.00  0.00     0.173 A 
ATOM     80  C   UNL     1       6.819  -4.967   9.372  1.00  0.00     0.173 A 
ATOM     81  F   UNL     1      10.364  -4.683   8.630  1.00  0.00    -0.203 F 
ATOM     82  C   UNL     1       9.036  -3.512  10.186  1.00  0.00     0.198 A 
ATOM     83  C   UNL     1       6.693  -4.000  10.365  1.00  0.00     0.198 A 
ATOM     84  F   UNL     1       5.733  -5.664   9.005  1.00  0.00    -0.203 F 
ATOM     85  F   UNL     1      10.116  -2.836  10.601  1.00  0.00    -0.200 F 
ATOM     86  C   UNL     1       7.803  -3.277  10.776  1.00  0.00     0.200 A 
ATOM     87  F   UNL     1       5.498  -3.771  10.928  1.00  0.00    -0.200 F 
ATOM     88  F   UNL     1       7.686  -2.362  11.748  1.00  0.00    -0.200 F 
ENDBRANCH  54  78
BRANCH  66  89
ATOM     89  C   UNL     1      11.165 -11.437   8.514  1.00  0.00     0.064 A 
ATOM     90  C   UNL     1      10.560 -12.045   9.624  1.00  0.00     0.173 A 
ATOM     91  C   UNL     1      12.551 -11.583   8.356  1.00  0.00     0.173 A 
ATOM     92  F   UNL     1       9.239 -11.921   9.824  1.00  0.00    -0.203 F 
ATOM     93  C   UNL     1      11.319 -12.747  10.556  1.00  0.00     0.198 A 
ATOM     94  C   UNL     1      13.303 -12.306   9.278  1.00  0.00     0.198 A 
ATOM     95  F   UNL     1      13.175 -11.026   7.308  1.00  0.00    -0.203 F 
ATOM     96  F   UNL     1      10.727 -13.280  11.634  1.00  0.00    -0.200 F 
ATOM     97  C   UNL     1      12.688 -12.881  10.380  1.00  0.00     0.200 A 
ATOM     98  F   UNL     1      14.625 -12.442   9.103  1.00  0.00    -0.200 F 
ATOM     99  F   UNL     1      13.417 -13.556  11.280  1.00  0.00    -0.200 F 
ENDBRANCH  66  89
ENDBRANCH  40  41
ENDBRANCH  33  35
ENDBRANCH  32  33
ENDBRANCH  31  32
ENDBRANCH  30  31
ENDBRANCH  29  30
ENDBRANCH   1  29
TORSDOF 18
