REMARK SMILES C=CC[NH+](CC=C)[C@@H](C(=O)OCCOCCOC(=O)c1ccc(-c2c3nc(c(-c4c(F)c(F)c(F)c(F)c4F)c4ccc([nH]4)c(-c4c(F)c(F)c(F)c(F)c4F)c4nc(c(-c5c(F)c(F)c(F)c(F)c5F)c5ccc2[nH]5)C=C4)C=C3)cc1)c1ccc(F)c(C)c1
REMARK SMILES IDX 13 1 12 2 11 3 9 4 10 5 8 6 4 7 3 9 2 10 1 11 5 12 6 13 7 14
REMARK SMILES IDX 83 15 84 16 90 17 85 18 88 19 86 20 89 21 87 22 14 23 15 24
REMARK SMILES IDX 16 25 17 26 18 27 19 28 20 29 21 30 82 31 22 32 81 33 23 34
REMARK SMILES IDX 24 35 25 36 75 37 26 38 80 39 74 40 76 41 27 42 79 43 73 44
REMARK SMILES IDX 72 45 28 47 60 48 40 49 59 50 41 51 44 52 58 53 77 54 42 55
REMARK SMILES IDX 43 56 57 58 78 59 45 60 29 61 30 62 38 63 31 64 32 65 36 66
REMARK SMILES IDX 39 67 33 68 34 69 37 70 35 71 61 72 62 73 70 74 63 75 64 76
REMARK SMILES IDX 68 77 71 78 65 79 66 80 69 81 67 82 46 83 47 84 55 85 48 86
REMARK SMILES IDX 49 87 53 88 56 89 50 90 51 91 54 92 52 93
REMARK H PARENT 4 8 76 46 44 57
REMARK Flexibility Score: inf
ROOT
ATOM      1  C   UNL     1      -3.078   1.711  -2.893  1.00  0.00     0.202 C 
ENDROOT
BRANCH   1   2
ATOM      2  C   UNL     1      -2.872   0.385  -3.618  1.00  0.00     0.261 C 
BRANCH   2   3
ATOM      3  O   UNL     1      -2.514  -0.614  -2.643  1.00  0.00    -0.459 OA
BRANCH   3   4
ATOM      4  C   UNL     1      -1.493  -1.434  -2.967  1.00  0.00     0.369 C 
ATOM      5  O   UNL     1      -0.972  -1.434  -4.082  1.00  0.00    -0.245 OA
BRANCH   4   6
ATOM      6  C   UNL     1      -1.017  -2.374  -1.834  1.00  0.00     0.326 C 
BRANCH   6   7
ATOM      7  N   UNL     1      -1.690  -2.363  -0.500  1.00  0.00    -0.313 N 
ATOM      8  H   UNL     1      -1.077  -3.114  -0.181  1.00  0.00     0.349 HD
BRANCH   7   9
ATOM      9  C   UNL     1      -1.353  -1.433   0.571  1.00  0.00     0.291 C 
BRANCH   9  10
ATOM     10  C   UNL     1       0.056  -1.461   1.090  1.00  0.00     0.025 C 
ATOM     11  C   UNL     1       0.836  -0.388   1.287  1.00  0.00     0.010 C 
ENDBRANCH   9  10
ENDBRANCH   7   9
BRANCH   7  12
ATOM     12  C   UNL     1      -3.089  -2.795  -0.477  1.00  0.00     0.291 C 
BRANCH  12  13
ATOM     13  C   UNL     1      -4.130  -1.717  -0.619  1.00  0.00     0.025 C 
ATOM     14  C   UNL     1      -5.177  -1.777  -1.454  1.00  0.00     0.010 C 
ENDBRANCH  12  13
ENDBRANCH   7  12
ENDBRANCH   6   7
BRANCH   6  15
ATOM     15  C   UNL     1       0.513  -2.376  -1.746  1.00  0.00     0.021 A 
ATOM     16  C   UNL     1       1.197  -3.572  -1.476  1.00  0.00     0.013 A 
ATOM     17  C   UNL     1       1.256  -1.182  -1.860  1.00  0.00     0.017 A 
ATOM     18  C   UNL     1       2.581  -3.568  -1.303  1.00  0.00     0.040 A 
ATOM     19  C   UNL     1       2.638  -1.164  -1.640  1.00  0.00    -0.015 A 
ATOM     20  C   UNL     1       3.285  -2.370  -1.374  1.00  0.00     0.126 A 
ATOM     21  C   UNL     1       3.401   0.125  -1.645  1.00  0.00     0.047 C 
ATOM     22  F   UNL     1       4.607  -2.382  -1.154  1.00  0.00    -0.207 F 
ENDBRANCH   6  15
ENDBRANCH   4   6
ENDBRANCH   3   4
ENDBRANCH   2   3
ENDBRANCH   1   2
BRANCH   1  23
ATOM     23  O   UNL     1      -1.870   2.341  -2.453  1.00  0.00    -0.374 OA
BRANCH  23  24
ATOM     24  C   UNL     1      -1.292   1.820  -1.257  1.00  0.00     0.202 C 
BRANCH  24  25
ATOM     25  C   UNL     1      -1.865   2.395   0.044  1.00  0.00     0.261 C 
BRANCH  25  26
ATOM     26  O   UNL     1      -3.242   2.021   0.230  1.00  0.00    -0.460 OA
BRANCH  26  27
ATOM     27  C   UNL     1      -4.120   3.019  -0.018  1.00  0.00     0.338 C 
ATOM     28  O   UNL     1      -3.862   4.195  -0.236  1.00  0.00    -0.246 OA
BRANCH  27  29
ATOM     29  C   UNL     1      -5.479   2.475  -0.192  1.00  0.00     0.060 A 
ATOM     30  C   UNL     1      -6.192   2.924  -1.311  1.00  0.00     0.016 A 
ATOM     31  C   UNL     1      -6.074   1.611   0.729  1.00  0.00     0.016 A 
ATOM     32  C   UNL     1      -7.530   2.583  -1.467  1.00  0.00     0.010 A 
ATOM     33  C   UNL     1      -7.421   1.265   0.569  1.00  0.00     0.010 A 
ATOM     34  C   UNL     1      -8.168   1.796  -0.500  1.00  0.00    -0.014 A 
BRANCH  34  35
ATOM     35  C   UNL     1      -9.648   1.701  -0.532  1.00  0.00     0.031 A 
ATOM     36  C   UNL     1     -10.450   2.547   0.421  1.00  0.00     0.074 A 
ATOM     37  C   UNL     1     -10.270   0.951  -1.458  1.00  0.00     0.049 A 
ATOM     38  N   UNL     1     -11.748   2.662   0.541  1.00  0.00    -0.248 NA
ATOM     39  C   UNL     1      -9.685   3.380   1.363  1.00  0.00     0.031 C 
ATOM     40  C   UNL     1      -9.601   0.134  -2.469  1.00  0.00     0.029 A 
ATOM     41  N   UNL     1     -11.607   0.767  -1.706  1.00  0.00    -0.354 N 
ATOM     42  C   UNL     1     -11.953   3.569   1.574  1.00  0.00     0.074 A 
ATOM     43  C   UNL     1     -10.649   3.948   2.071  1.00  0.00     0.031 C 
ATOM     44  C   UNL     1     -10.533  -0.459  -3.235  1.00  0.00     0.029 A 
ATOM     45  C   UNL     1     -11.861  -0.092  -2.745  1.00  0.00     0.049 A 
ATOM     46  H   UNL     1     -12.317   1.210  -1.187  1.00  0.00     0.167 HD
ATOM     47  C   UNL     1     -13.123   4.053   2.055  1.00  0.00     0.037 A 
ATOM     48  C   UNL     1     -13.033  -0.541  -3.235  1.00  0.00     0.037 A 
ATOM     49  C   UNL     1     -14.419   3.682   1.548  1.00  0.00     0.049 A 
ATOM     50  C   UNL     1     -14.322  -0.048  -2.628  1.00  0.00     0.074 A 
ATOM     51  C   UNL     1     -15.663   4.134   1.951  1.00  0.00     0.029 A 
ATOM     52  N   UNL     1     -14.637   2.762   0.534  1.00  0.00    -0.354 N 
ATOM     53  N   UNL     1     -14.506   0.830  -1.671  1.00  0.00    -0.248 NA
ATOM     54  C   UNL     1     -15.566  -0.606  -3.174  1.00  0.00     0.031 C 
ATOM     55  C   UNL     1     -16.636   3.438   1.227  1.00  0.00     0.029 A 
ATOM     56  C   UNL     1     -15.998   2.605   0.322  1.00  0.00     0.049 A 
ATOM     57  H   UNL     1     -13.930   2.290   0.037  1.00  0.00     0.167 HD
ATOM     58  C   UNL     1     -15.883   0.953  -1.524  1.00  0.00     0.074 A 
ATOM     59  C   UNL     1     -16.485   0.071  -2.501  1.00  0.00     0.031 C 
ATOM     60  C   UNL     1     -16.584   1.728  -0.660  1.00  0.00     0.037 A 
BRANCH  47  61
ATOM     61  C   UNL     1     -13.060   5.009   3.212  1.00  0.00     0.064 A 
ATOM     62  C   UNL     1     -12.565   6.314   3.073  1.00  0.00     0.173 A 
ATOM     63  C   UNL     1     -13.537   4.621   4.474  1.00  0.00     0.173 A 
ATOM     64  F   UNL     1     -12.084   6.732   1.892  1.00  0.00    -0.203 F 
ATOM     65  C   UNL     1     -12.523   7.185   4.160  1.00  0.00     0.198 A 
ATOM     66  C   UNL     1     -13.525   5.504   5.549  1.00  0.00     0.198 A 
ATOM     67  F   UNL     1     -14.024   3.385   4.662  1.00  0.00    -0.203 F 
ATOM     68  F   UNL     1     -11.998   8.409   4.016  1.00  0.00    -0.200 F 
ATOM     69  C   UNL     1     -13.011   6.782   5.394  1.00  0.00     0.200 A 
ATOM     70  F   UNL     1     -14.010   5.117   6.737  1.00  0.00    -0.200 F 
ATOM     71  F   UNL     1     -12.978   7.623   6.437  1.00  0.00    -0.200 F 
ENDBRANCH  47  61
BRANCH  48  72
ATOM     72  C   UNL     1     -13.046  -1.522  -4.353  1.00  0.00     0.064 A 
ATOM     73  C   UNL     1     -13.562  -1.183  -5.611  1.00  0.00     0.173 A 
ATOM     74  C   UNL     1     -12.565  -2.828  -4.178  1.00  0.00     0.173 A 
ATOM     75  F   UNL     1     -14.057   0.046  -5.823  1.00  0.00    -0.203 F 
ATOM     76  C   UNL     1     -13.617  -2.118  -6.644  1.00  0.00     0.198 A 
ATOM     77  C   UNL     1     -12.590  -3.752  -5.220  1.00  0.00     0.198 A 
ATOM     78  F   UNL     1     -12.062  -3.206  -2.993  1.00  0.00    -0.203 F 
ATOM     79  F   UNL     1     -14.164  -1.782  -7.820  1.00  0.00    -0.200 F 
ATOM     80  C   UNL     1     -13.124  -3.400  -6.449  1.00  0.00     0.200 A 
ATOM     81  F   UNL     1     -12.099  -4.985  -5.031  1.00  0.00    -0.200 F 
ATOM     82  F   UNL     1     -13.175  -4.297  -7.442  1.00  0.00    -0.200 F 
ENDBRANCH  48  72
BRANCH  60  83
ATOM     83  C   UNL     1     -18.084   1.692  -0.757  1.00  0.00     0.064 A 
ATOM     84  C   UNL     1     -18.825   0.566  -0.371  1.00  0.00     0.173 A 
ATOM     85  C   UNL     1     -18.791   2.820  -1.204  1.00  0.00     0.173 A 
ATOM     86  F   UNL     1     -18.198  -0.542   0.052  1.00  0.00    -0.203 F 
ATOM     87  C   UNL     1     -20.215   0.558  -0.458  1.00  0.00     0.198 A 
ATOM     88  C   UNL     1     -20.182   2.821  -1.255  1.00  0.00     0.198 A 
ATOM     89  F   UNL     1     -18.133   3.928  -1.577  1.00  0.00    -0.203 F 
ATOM     90  F   UNL     1     -20.898  -0.549  -0.135  1.00  0.00    -0.200 F 
ATOM     91  C   UNL     1     -20.892   1.688  -0.891  1.00  0.00     0.200 A 
ATOM     92  F   UNL     1     -20.835   3.921  -1.657  1.00  0.00    -0.200 F 
ATOM     93  F   UNL     1     -22.230   1.682  -0.966  1.00  0.00    -0.200 F 
ENDBRANCH  60  83
ENDBRANCH  34  35
ENDBRANCH  27  29
ENDBRANCH  26  27
ENDBRANCH  25  26
ENDBRANCH  24  25
ENDBRANCH  23  24
ENDBRANCH   1  23
TORSDOF 20
