REMARK SMILES CCC(=O)N1CCC[C@](C[C@H]2CC(c3ccc(C)cc3)=NO2)(C(=O)OCCOCCOC(=O)c2ccc(-c3c4nc(c(-c5c(F)c(F)c(F)c(F)c5F)c5ccc([nH]5)c(-c5c(F)c(F)c(F)c(F)c5F)c5nc(c(-c6c(F)c(F)c(F)c(F)c6F)c6ccc3[nH]6)C=C5)C=C4)cc2)C1
REMARK SMILES IDX 27 1 26 2 25 3 23 4 24 5 9 6 5 7 6 8 97 9 7 10 8 11 3 12
REMARK SMILES IDX 4 13 2 14 1 15 10 16 11 17 12 18 22 19 13 20 21 21 14 22
REMARK SMILES IDX 15 23 20 24 16 25 19 26 17 27 18 28 28 29 29 30 30 31 31 32
REMARK SMILES IDX 32 33 33 34 34 35 35 36 96 37 36 38 95 39 37 40 38 41 39 42
REMARK SMILES IDX 89 43 40 44 94 45 88 46 90 47 41 48 93 49 87 50 86 51 42 53
REMARK SMILES IDX 74 54 54 55 73 56 55 57 58 58 72 59 91 60 56 61 57 62 71 64
REMARK SMILES IDX 92 65 59 66 43 67 44 68 52 69 45 70 46 71 50 72 53 73 47 74
REMARK SMILES IDX 48 75 51 76 49 77 75 78 76 79 84 80 77 81 78 82 82 83 85 84
REMARK SMILES IDX 79 85 80 86 83 87 81 88 60 89 61 90 69 91 62 92 63 93 67 94
REMARK SMILES IDX 70 95 64 96 65 97 68 98 66 99
REMARK H PARENT 90 52 58 63
REMARK Flexibility Score: inf
ROOT
ATOM      1  C   UNL     1       3.924   5.258   3.154  1.00  0.00     0.202 C 
ENDROOT
BRANCH   1   2
ATOM      2  C   UNL     1       3.333   3.929   3.486  1.00  0.00     0.261 C 
BRANCH   2   3
ATOM      3  O   UNL     1       4.164   2.857   3.050  1.00  0.00    -0.463 OA
BRANCH   3   4
ATOM      4  C   UNL     1       3.909   2.259   1.844  1.00  0.00     0.314 C 
ATOM      5  O   UNL     1       3.051   2.597   1.044  1.00  0.00    -0.252 OA
BRANCH   4   6
ATOM      6  C   UNL     1       4.956   1.160   1.613  1.00  0.00     0.089 C 
ATOM      7  N   UNL     1       3.334  -0.760   1.498  1.00  0.00    -0.342 N 
ATOM      8  C   UNL     1       3.726  -1.236   2.827  1.00  0.00     0.119 C 
ATOM      9  C   UNL     1       4.341   0.016   0.785  1.00  0.00     0.138 C 
ATOM     10  C   UNL     1       4.284  -0.130   3.709  1.00  0.00     0.023 C 
ATOM     11  C   UNL     1       5.402   0.605   2.982  1.00  0.00     0.022 C 
BRANCH   7  12
ATOM     12  C   UNL     1       2.257  -1.389   0.888  1.00  0.00     0.222 C 
ATOM     13  O   UNL     1       1.600  -2.231   1.514  1.00  0.00    -0.275 OA
BRANCH  12  14
ATOM     14  C   UNL     1       1.952  -1.189  -0.597  1.00  0.00     0.097 C 
ATOM     15  C   UNL     1       1.811   0.201  -1.189  1.00  0.00     0.014 C 
ENDBRANCH  12  14
ENDBRANCH   7  12
BRANCH   6  16
ATOM     16  C   UNL     1       6.077   1.888   0.813  1.00  0.00     0.069 C 
BRANCH  16  17
ATOM     17  C   UNL     1       7.430   1.210   0.560  1.00  0.00     0.212 C 
ATOM     18  C   UNL     1       8.315   1.030   1.772  1.00  0.00     0.108 C 
ATOM     19  O   UNL     1       7.281  -0.079  -0.038  1.00  0.00    -0.392 OA
ATOM     20  C   UNL     1       8.273  -0.450   1.873  1.00  0.00     0.091 C 
ATOM     21  N   UNL     1       7.733  -1.063   0.870  1.00  0.00    -0.090 NA
BRANCH  20  22
ATOM     22  C   UNL     1       8.861  -1.152   3.022  1.00  0.00    -0.001 A 
ATOM     23  C   UNL     1       8.570  -0.793   4.342  1.00  0.00     0.010 A 
ATOM     24  C   UNL     1       9.753  -2.185   2.749  1.00  0.00     0.010 A 
ATOM     25  C   UNL     1       9.214  -1.451   5.393  1.00  0.00     0.004 A 
ATOM     26  C   UNL     1      10.415  -2.818   3.797  1.00  0.00     0.004 A 
ATOM     27  C   UNL     1      10.162  -2.448   5.125  1.00  0.00    -0.051 A 
ATOM     28  C   UNL     1      10.946  -3.093   6.228  1.00  0.00     0.044 C 
ENDBRANCH  20  22
ENDBRANCH  16  17
ENDBRANCH   6  16
ENDBRANCH   4   6
ENDBRANCH   3   4
ENDBRANCH   2   3
ENDBRANCH   1   2
BRANCH   1  29
ATOM     29  O   UNL     1       3.871   5.371   1.742  1.00  0.00    -0.374 OA
BRANCH  29  30
ATOM     30  C   UNL     1       4.642   6.435   1.217  1.00  0.00     0.202 C 
BRANCH  30  31
ATOM     31  C   UNL     1       4.235   7.805   1.778  1.00  0.00     0.261 C 
BRANCH  31  32
ATOM     32  O   UNL     1       2.844   8.051   1.481  1.00  0.00    -0.460 OA
BRANCH  32  33
ATOM     33  C   UNL     1       1.994   8.047   2.543  1.00  0.00     0.338 C 
ATOM     34  O   UNL     1       2.203   8.594   3.620  1.00  0.00    -0.246 OA
BRANCH  33  35
ATOM     35  C   UNL     1       0.947   7.003   2.342  1.00  0.00     0.060 A 
ATOM     36  C   UNL     1       0.184   6.559   3.439  1.00  0.00     0.016 A 
ATOM     37  C   UNL     1       1.011   6.228   1.190  1.00  0.00     0.016 A 
ATOM     38  C   UNL     1      -0.330   5.253   3.461  1.00  0.00     0.010 A 
ATOM     39  C   UNL     1       0.596   4.917   1.258  1.00  0.00     0.010 A 
ATOM     40  C   UNL     1      -0.018   4.395   2.412  1.00  0.00    -0.014 A 
BRANCH  40  41
ATOM     41  C   UNL     1      -0.237   2.939   2.347  1.00  0.00     0.031 A 
ATOM     42  C   UNL     1      -0.976   2.489   1.146  1.00  0.00     0.074 A 
ATOM     43  C   UNL     1       0.383   2.045   3.151  1.00  0.00     0.049 A 
ATOM     44  N   UNL     1      -0.800   1.387   0.509  1.00  0.00    -0.248 NA
ATOM     45  C   UNL     1      -1.949   3.384   0.511  1.00  0.00     0.031 C 
ATOM     46  C   UNL     1       0.465   0.593   2.995  1.00  0.00     0.029 A 
ATOM     47  N   UNL     1       1.047   2.262   4.370  1.00  0.00    -0.354 N 
ATOM     48  C   UNL     1      -1.665   1.388  -0.557  1.00  0.00     0.074 A 
ATOM     49  C   UNL     1      -2.280   2.694  -0.580  1.00  0.00     0.031 C 
ATOM     50  C   UNL     1       0.819   0.037   4.165  1.00  0.00     0.029 A 
ATOM     51  C   UNL     1       0.866   1.103   5.141  1.00  0.00     0.049 A 
ATOM     52  H   UNL     1       1.543   3.070   4.633  1.00  0.00     0.167 HD
ATOM     53  C   UNL     1      -2.175   0.221  -1.034  1.00  0.00     0.037 A 
ATOM     54  C   UNL     1       0.144   1.173   6.287  1.00  0.00     0.037 A 
ATOM     55  C   UNL     1      -2.133  -0.790   0.034  1.00  0.00     0.049 A 
ATOM     56  C   UNL     1      -1.104   0.377   5.999  1.00  0.00     0.074 A 
ATOM     57  C   UNL     1      -1.492  -1.994   0.245  1.00  0.00     0.029 A 
ATOM     58  N   UNL     1      -2.709  -0.458   1.283  1.00  0.00    -0.354 N 
ATOM     59  N   UNL     1      -1.772   0.404   4.859  1.00  0.00    -0.248 NA
ATOM     60  C   UNL     1      -1.365  -0.809   6.810  1.00  0.00     0.031 C 
ATOM     61  C   UNL     1      -1.516  -2.267   1.648  1.00  0.00     0.029 A 
ATOM     62  C   UNL     1      -2.315  -1.323   2.288  1.00  0.00     0.049 A 
ATOM     63  H   UNL     1      -3.320   0.302   1.421  1.00  0.00     0.167 HD
ATOM     64  C   UNL     1      -2.396  -0.821   4.714  1.00  0.00     0.074 A 
ATOM     65  C   UNL     1      -2.106  -1.531   5.961  1.00  0.00     0.031 C 
ATOM     66  C   UNL     1      -2.969  -1.377   3.596  1.00  0.00     0.037 A 
BRANCH  53  67
ATOM     67  C   UNL     1      -2.415   0.047  -2.535  1.00  0.00     0.064 A 
ATOM     68  C   UNL     1      -2.329  -1.220  -3.150  1.00  0.00     0.173 A 
ATOM     69  C   UNL     1      -2.627   1.105  -3.457  1.00  0.00     0.173 A 
ATOM     70  F   UNL     1      -2.109  -2.328  -2.432  1.00  0.00    -0.203 F 
ATOM     71  C   UNL     1      -2.428  -1.403  -4.543  1.00  0.00     0.198 A 
ATOM     72  C   UNL     1      -2.744   0.921  -4.841  1.00  0.00     0.198 A 
ATOM     73  F   UNL     1      -2.716   2.382  -3.080  1.00  0.00    -0.203 F 
ATOM     74  F   UNL     1      -2.302  -2.632  -5.064  1.00  0.00    -0.200 F 
ATOM     75  C   UNL     1      -2.636  -0.333  -5.388  1.00  0.00     0.200 A 
ATOM     76  F   UNL     1      -2.948   1.984  -5.635  1.00  0.00    -0.200 F 
ATOM     77  F   UNL     1      -2.725  -0.505  -6.713  1.00  0.00    -0.200 F 
ENDBRANCH  53  67
BRANCH  54  78
ATOM     78  C   UNL     1       0.492   2.419   7.044  1.00  0.00     0.064 A 
ATOM     79  C   UNL     1       1.853   2.477   7.455  1.00  0.00     0.173 A 
ATOM     80  C   UNL     1      -0.150   3.649   6.860  1.00  0.00     0.173 A 
ATOM     81  F   UNL     1       2.526   1.337   7.684  1.00  0.00    -0.203 F 
ATOM     82  C   UNL     1       2.586   3.664   7.417  1.00  0.00     0.198 A 
ATOM     83  C   UNL     1       0.585   4.850   6.875  1.00  0.00     0.198 A 
ATOM     84  F   UNL     1      -1.444   3.695   6.516  1.00  0.00    -0.203 F 
ATOM     85  F   UNL     1       3.919   3.633   7.567  1.00  0.00    -0.200 F 
ATOM     86  C   UNL     1       1.958   4.845   7.077  1.00  0.00     0.200 A 
ATOM     87  F   UNL     1      -0.021   6.009   6.577  1.00  0.00    -0.200 F 
ATOM     88  F   UNL     1       2.686   5.954   6.870  1.00  0.00    -0.200 F 
ENDBRANCH  54  78
BRANCH  66  89
ATOM     89  C   UNL     1      -4.155  -2.317   3.733  1.00  0.00     0.064 A 
ATOM     90  C   UNL     1      -4.910  -2.425   4.915  1.00  0.00     0.173 A 
ATOM     91  C   UNL     1      -4.678  -3.022   2.621  1.00  0.00     0.173 A 
ATOM     92  F   UNL     1      -4.639  -1.683   5.998  1.00  0.00    -0.203 F 
ATOM     93  C   UNL     1      -6.016  -3.263   5.013  1.00  0.00     0.198 A 
ATOM     94  C   UNL     1      -5.810  -3.825   2.711  1.00  0.00     0.198 A 
ATOM     95  F   UNL     1      -4.164  -2.913   1.390  1.00  0.00    -0.203 F 
ATOM     96  F   UNL     1      -6.663  -3.361   6.183  1.00  0.00    -0.200 F 
ATOM     97  C   UNL     1      -6.467  -3.963   3.913  1.00  0.00     0.200 A 
ATOM     98  F   UNL     1      -6.278  -4.435   1.613  1.00  0.00    -0.200 F 
ATOM     99  F   UNL     1      -7.557  -4.733   4.001  1.00  0.00    -0.200 F 
ENDBRANCH  66  89
ENDBRANCH  40  41
ENDBRANCH  33  35
ENDBRANCH  32  33
ENDBRANCH  31  32
ENDBRANCH  30  31
ENDBRANCH  29  30
ENDBRANCH   1  29
TORSDOF 19
