REMARK SMILES C[C@@H]1C(C(=O)OCCOCCOC(=O)c2ccc(-c3c4nc(c(-c5c(F)c(F)c(F)c(F)c5F)c5ccc([nH]5)c(-c5c(F)c(F)c(F)c(F)c5F)c5nc(c(-c6c(F)c(F)c(F)c(F)c6F)c6ccc3[nH]6)C=C5)C=C4)cc2)=NC2=C1C(=O)C[C@H](c1ccccc1)C2
REMARK SMILES IDX 10 1 9 2 8 3 7 4 6 5 4 6 5 7 3 8 1 9 2 10 80 11 78 12 79 13
REMARK SMILES IDX 81 14 91 15 82 16 83 17 84 18 85 19 86 20 90 21 87 22 89 23
REMARK SMILES IDX 88 24 11 25 12 26 13 27 14 28 15 29 16 30 77 31 17 32 76 33
REMARK SMILES IDX 18 34 19 35 20 36 70 37 21 38 75 39 69 40 71 41 22 42 74 43
REMARK SMILES IDX 68 44 67 45 23 47 55 48 35 49 54 50 36 51 39 52 53 53 72 54
REMARK SMILES IDX 37 55 38 56 52 58 73 59 40 60 24 61 25 62 33 63 26 64 27 65
REMARK SMILES IDX 31 66 34 67 28 68 29 69 32 70 30 71 56 72 57 73 65 74 58 75
REMARK SMILES IDX 59 76 63 77 66 78 60 79 61 80 64 81 62 82 41 83 42 84 50 85
REMARK SMILES IDX 43 86 44 87 48 88 51 89 45 90 46 91 49 92 47 93
REMARK H PARENT 71 46 39 57
REMARK Flexibility Score: inf
ROOT
ATOM      1  C   UNL     1      -2.749   1.074   0.349  1.00  0.00     0.202 C 
ENDROOT
BRANCH   1   2
ATOM      2  O   UNL     1      -3.054   1.788  -0.844  1.00  0.00    -0.374 OA
BRANCH   2   3
ATOM      3  C   UNL     1      -2.505   1.208  -2.025  1.00  0.00     0.202 C 
BRANCH   3   4
ATOM      4  C   UNL     1      -1.022   1.555  -2.213  1.00  0.00     0.261 C 
BRANCH   4   5
ATOM      5  O   UNL     1      -0.233   1.136  -1.071  1.00  0.00    -0.459 OA
BRANCH   5   6
ATOM      6  C   UNL     1       0.296   2.115  -0.295  1.00  0.00     0.353 C 
ATOM      7  O   UNL     1       0.404   3.292  -0.577  1.00  0.00    -0.245 OA
BRANCH   6   8
ATOM      8  C   UNL     1       0.562   1.569   1.114  1.00  0.00     0.133 C 
ATOM      9  C   UNL     1       2.381  -0.073   1.340  1.00  0.00     0.020 C 
ATOM     10  C   UNL     1       0.862   0.103   1.334  1.00  0.00     0.078 C 
ATOM     11  C   UNL     1       0.330   0.129   2.723  1.00  0.00     0.026 C 
ATOM     12  N   UNL     1       0.486   2.297   2.204  1.00  0.00    -0.249 NA
ATOM     13  C   UNL     1       0.352   1.367   3.212  1.00  0.00     0.049 C 
ATOM     14  C   UNL     1      -0.565  -0.833   3.375  1.00  0.00     0.161 C 
ATOM     15  C   UNL     1      -0.186   1.668   4.579  1.00  0.00     0.065 C 
ATOM     16  O   UNL     1      -0.435  -2.033   3.141  1.00  0.00    -0.294 OA
ATOM     17  C   UNL     1      -1.712  -0.287   4.260  1.00  0.00     0.089 C 
ATOM     18  C   UNL     1      -1.665   1.241   4.629  1.00  0.00     0.033 C 
BRANCH  18  19
ATOM     19  C   UNL     1      -2.582   2.204   3.847  1.00  0.00    -0.044 A 
ATOM     20  C   UNL     1      -2.104   3.437   3.351  1.00  0.00     0.004 A 
ATOM     21  C   UNL     1      -3.933   1.927   3.606  1.00  0.00     0.004 A 
ATOM     22  C   UNL     1      -2.842   4.230   2.472  1.00  0.00     0.000 A 
ATOM     23  C   UNL     1      -4.693   2.741   2.743  1.00  0.00     0.000 A 
ATOM     24  C   UNL     1      -4.129   3.858   2.131  1.00  0.00     0.000 A 
ENDBRANCH  18  19
ENDBRANCH   6   8
ENDBRANCH   5   6
ENDBRANCH   4   5
ENDBRANCH   3   4
ENDBRANCH   2   3
ENDBRANCH   1   2
BRANCH   1  25
ATOM     25  C   UNL     1      -3.951   0.334   0.889  1.00  0.00     0.261 C 
BRANCH  25  26
ATOM     26  O   UNL     1      -3.980  -0.934   0.273  1.00  0.00    -0.460 OA
BRANCH  26  27
ATOM     27  C   UNL     1      -4.617  -1.070  -0.895  1.00  0.00     0.338 C 
ATOM     28  O   UNL     1      -5.324  -0.267  -1.485  1.00  0.00    -0.246 OA
BRANCH  27  29
ATOM     29  C   UNL     1      -4.404  -2.477  -1.230  1.00  0.00     0.060 A 
ATOM     30  C   UNL     1      -5.388  -3.096  -1.993  1.00  0.00     0.016 A 
ATOM     31  C   UNL     1      -3.450  -3.202  -0.491  1.00  0.00     0.016 A 
ATOM     32  C   UNL     1      -5.591  -4.440  -1.789  1.00  0.00     0.010 A 
ATOM     33  C   UNL     1      -3.699  -4.516  -0.232  1.00  0.00     0.010 A 
ATOM     34  C   UNL     1      -4.819  -5.092  -0.820  1.00  0.00    -0.014 A 
BRANCH  34  35
ATOM     35  C   UNL     1      -5.066  -6.482  -0.536  1.00  0.00     0.031 A 
ATOM     36  C   UNL     1      -4.375  -7.326  -1.530  1.00  0.00     0.074 A 
ATOM     37  C   UNL     1      -5.697  -6.892   0.578  1.00  0.00     0.049 A 
ATOM     38  N   UNL     1      -4.890  -7.843  -2.597  1.00  0.00    -0.248 NA
ATOM     39  C   UNL     1      -2.900  -7.322  -1.522  1.00  0.00     0.031 C 
ATOM     40  C   UNL     1      -6.122  -6.103   1.736  1.00  0.00     0.029 A 
ATOM     41  N   UNL     1      -6.023  -8.163   0.937  1.00  0.00    -0.354 N 
ATOM     42  C   UNL     1      -3.819  -8.455  -3.234  1.00  0.00     0.074 A 
ATOM     43  C   UNL     1      -2.640  -7.810  -2.735  1.00  0.00     0.031 C 
ATOM     44  C   UNL     1      -6.450  -6.937   2.753  1.00  0.00     0.029 A 
ATOM     45  C   UNL     1      -6.387  -8.306   2.275  1.00  0.00     0.049 A 
ATOM     46  H   UNL     1      -6.005  -8.918   0.305  1.00  0.00     0.167 HD
ATOM     47  C   UNL     1      -3.965  -9.698  -3.765  1.00  0.00     0.037 A 
ATOM     48  C   UNL     1      -6.529  -9.498   2.911  1.00  0.00     0.037 A 
ATOM     49  C   UNL     1      -5.368 -10.011  -3.919  1.00  0.00     0.049 A 
ATOM     50  C   UNL     1      -6.686 -10.532   1.850  1.00  0.00     0.074 A 
ATOM     51  C   UNL     1      -6.423  -9.475  -4.631  1.00  0.00     0.029 A 
ATOM     52  N   UNL     1      -5.927 -10.772  -2.922  1.00  0.00    -0.354 N 
ATOM     53  N   UNL     1      -7.716 -10.596   1.050  1.00  0.00    -0.248 NA
ATOM     54  C   UNL     1      -5.478 -11.178   1.362  1.00  0.00     0.031 C 
ATOM     55  C   UNL     1      -7.563  -9.616  -3.783  1.00  0.00     0.029 A 
ATOM     56  C   UNL     1      -7.177 -10.299  -2.628  1.00  0.00     0.049 A 
ATOM     57  H   UNL     1      -5.494 -11.540  -2.485  1.00  0.00     0.167 HD
ATOM     58  C   UNL     1      -7.179 -10.891  -0.196  1.00  0.00     0.074 A 
ATOM     59  C   UNL     1      -5.809 -11.321   0.076  1.00  0.00     0.031 C 
ATOM     60  C   UNL     1      -7.804 -10.466  -1.335  1.00  0.00     0.037 A 
BRANCH  47  61
ATOM     61  C   UNL     1      -2.906 -10.784  -3.670  1.00  0.00     0.064 A 
ATOM     62  C   UNL     1      -3.163 -12.014  -4.307  1.00  0.00     0.173 A 
ATOM     63  C   UNL     1      -1.815 -10.798  -2.767  1.00  0.00     0.173 A 
ATOM     64  F   UNL     1      -4.175 -12.130  -5.180  1.00  0.00    -0.203 F 
ATOM     65  C   UNL     1      -2.452 -13.175  -3.993  1.00  0.00     0.198 A 
ATOM     66  C   UNL     1      -1.077 -11.947  -2.494  1.00  0.00     0.198 A 
ATOM     67  F   UNL     1      -1.461  -9.747  -2.024  1.00  0.00    -0.203 F 
ATOM     68  F   UNL     1      -2.821 -14.344  -4.531  1.00  0.00    -0.200 F 
ATOM     69  C   UNL     1      -1.416 -13.143  -3.079  1.00  0.00     0.200 A 
ATOM     70  F   UNL     1      -0.087 -11.890  -1.590  1.00  0.00    -0.200 F 
ATOM     71  F   UNL     1      -0.775 -14.264  -2.728  1.00  0.00    -0.200 F 
ENDBRANCH  47  61
BRANCH  48  72
ATOM     72  C   UNL     1      -6.156  -9.859   4.301  1.00  0.00     0.064 A 
ATOM     73  C   UNL     1      -6.618 -11.049   4.892  1.00  0.00     0.173 A 
ATOM     74  C   UNL     1      -5.104  -9.201   4.966  1.00  0.00     0.173 A 
ATOM     75  F   UNL     1      -7.579 -11.768   4.295  1.00  0.00    -0.203 F 
ATOM     76  C   UNL     1      -6.046 -11.559   6.064  1.00  0.00     0.198 A 
ATOM     77  C   UNL     1      -4.536  -9.710   6.136  1.00  0.00     0.198 A 
ATOM     78  F   UNL     1      -4.539  -8.106   4.439  1.00  0.00    -0.203 F 
ATOM     79  F   UNL     1      -6.471 -12.729   6.564  1.00  0.00    -0.200 F 
ATOM     80  C   UNL     1      -4.998 -10.894   6.679  1.00  0.00     0.200 A 
ATOM     81  F   UNL     1      -3.494  -9.079   6.697  1.00  0.00    -0.200 F 
ATOM     82  F   UNL     1      -4.407 -11.414   7.764  1.00  0.00    -0.200 F 
ENDBRANCH  48  72
BRANCH  60  83
ATOM     83  C   UNL     1      -9.218  -9.965  -1.199  1.00  0.00     0.064 A 
ATOM     84  C   UNL     1      -9.591  -8.807  -0.492  1.00  0.00     0.173 A 
ATOM     85  C   UNL     1     -10.218 -10.625  -1.924  1.00  0.00     0.173 A 
ATOM     86  F   UNL     1      -8.677  -8.069   0.152  1.00  0.00    -0.203 F 
ATOM     87  C   UNL     1     -10.913  -8.360  -0.482  1.00  0.00     0.198 A 
ATOM     88  C   UNL     1     -11.528 -10.156  -1.944  1.00  0.00     0.198 A 
ATOM     89  F   UNL     1      -9.911 -11.706  -2.657  1.00  0.00    -0.203 F 
ATOM     90  F   UNL     1     -11.248  -7.261   0.210  1.00  0.00    -0.200 F 
ATOM     91  C   UNL     1     -11.878  -9.031  -1.215  1.00  0.00     0.200 A 
ATOM     92  F   UNL     1     -12.446 -10.781  -2.693  1.00  0.00    -0.200 F 
ATOM     93  F   UNL     1     -13.140  -8.581  -1.240  1.00  0.00    -0.200 F 
ENDBRANCH  60  83
ENDBRANCH  34  35
ENDBRANCH  27  29
ENDBRANCH  26  27
ENDBRANCH  25  26
ENDBRANCH   1  25
TORSDOF 15
