REMARK SMILES CC(=O)OCC1=C(C(=O)OCCOCCOC(=O)c2ccc(-c3c4nc(c(-c5c(F)c(F)c(F)c(F)c5F)c5ccc([nH]5)c(-c5c(F)c(F)c(F)c(F)c5F)c5nc(c(-c6c(F)c(F)c(F)c(F)c6F)c6ccc3[nH]6)C=C5)C=C4)cc2)N2C(=O)[C@H](NC(=O)c3c(C)nn(C(F)F)c3C)[C@@H]2SC1
REMARK SMILES IDX 12 1 11 2 10 3 8 4 9 5 7 6 6 7 101 8 82 9 100 10 83 11 99 12
REMARK SMILES IDX 84 13 85 14 5 15 4 16 2 17 1 18 3 19 86 20 87 21 88 23 89 24
REMARK SMILES IDX 90 25 97 26 91 27 92 28 93 29 98 30 94 31 95 32 96 33 13 34
REMARK SMILES IDX 14 35 15 36 16 37 17 38 18 39 19 40 20 41 81 42 21 43 80 44
REMARK SMILES IDX 22 45 23 46 24 47 74 48 25 49 79 50 73 51 75 52 26 53 78 54
REMARK SMILES IDX 72 55 71 56 27 58 59 59 39 60 58 61 40 62 43 63 57 64 76 65
REMARK SMILES IDX 41 66 42 67 56 69 77 70 44 71 28 72 29 73 37 74 30 75 31 76
REMARK SMILES IDX 35 77 38 78 32 79 33 80 36 81 34 82 60 83 61 84 69 85 62 86
REMARK SMILES IDX 63 87 67 88 70 89 64 90 65 91 68 92 66 93 45 94 46 95 54 96
REMARK SMILES IDX 47 97 48 98 52 99 55 100 49 101 50 102 53 103 51 104
REMARK H PARENT 86 22 75 57 43 68
REMARK Flexibility Score: inf
ROOT
ATOM      1  C   UNL     1       2.707   0.238   0.912  1.00  0.00     0.202 C 
ENDROOT
BRANCH   1   2
ATOM      2  C   UNL     1       3.402  -0.846   0.071  1.00  0.00     0.261 C 
BRANCH   2   3
ATOM      3  O   UNL     1       2.564  -2.012  -0.030  1.00  0.00    -0.459 OA
BRANCH   3   4
ATOM      4  C   UNL     1       3.196  -3.210  -0.049  1.00  0.00     0.355 C 
ATOM      5  O   UNL     1       4.396  -3.394  -0.173  1.00  0.00    -0.244 OA
BRANCH   4   6
ATOM      6  C   UNL     1       2.215  -4.316   0.222  1.00  0.00     0.134 C 
ATOM      7  C   UNL     1       1.329  -4.774  -0.701  1.00  0.00     0.008 C 
ATOM      8  C   UNL     1       0.462  -6.002  -0.485  1.00  0.00     0.108 C 
ATOM      9  N   UNL     1       2.348  -4.956   1.418  1.00  0.00    -0.289 N 
ATOM     10  S   UNL     1       1.229  -7.217   0.613  1.00  0.00    -0.129 SA
ATOM     11  C   UNL     1       3.172  -4.915   2.487  1.00  0.00     0.253 C 
ATOM     12  C   UNL     1       1.474  -5.991   1.919  1.00  0.00     0.181 C 
ATOM     13  O   UNL     1       4.034  -4.149   2.833  1.00  0.00    -0.272 OA
ATOM     14  C   UNL     1       2.567  -6.281   2.994  1.00  0.00     0.206 C 
BRANCH   7  15
ATOM     15  C   UNL     1       1.071  -4.186  -2.070  1.00  0.00     0.267 C 
BRANCH  15  16
ATOM     16  O   UNL     1       0.968  -2.770  -2.062  1.00  0.00    -0.461 OA
BRANCH  16  17
ATOM     17  C   UNL     1      -0.166  -2.309  -1.474  1.00  0.00     0.302 C 
ATOM     18  C   UNL     1      -0.187  -0.831  -1.541  1.00  0.00     0.139 C 
ATOM     19  O   UNL     1      -1.031  -2.986  -0.937  1.00  0.00    -0.253 OA
ENDBRANCH  16  17
ENDBRANCH  15  16
ENDBRANCH   7  15
BRANCH  14  20
ATOM     20  N   UNL     1       3.419  -7.476   2.758  1.00  0.00    -0.337 N 
ATOM     21  C   UNL     1       3.585  -8.594   3.537  1.00  0.00     0.255 C 
ATOM     22  H   UNL     1       3.940  -7.464   1.923  1.00  0.00     0.164 HD
ATOM     23  O   UNL     1       4.384  -9.457   3.185  1.00  0.00    -0.269 OA
BRANCH  21  24
ATOM     24  C   UNL     1       2.849  -8.683   4.784  1.00  0.00     0.083 A 
ATOM     25  C   UNL     1       3.394  -8.946   6.069  1.00  0.00     0.073 A 
ATOM     26  C   UNL     1       1.475  -8.632   4.993  1.00  0.00     0.054 A 
ATOM     27  C   UNL     1       4.807  -9.217   6.441  1.00  0.00     0.069 C 
ATOM     28  N   UNL     1       2.459  -8.908   7.023  1.00  0.00    -0.172 NA
ATOM     29  N   UNL     1       1.303  -8.678   6.363  1.00  0.00    -0.208 N 
ATOM     30  C   UNL     1       0.340  -8.576   4.039  1.00  0.00     0.067 C 
BRANCH  29  31
ATOM     31  C   UNL     1       0.058  -8.486   7.112  1.00  0.00     0.465 C 
ATOM     32  F   UNL     1      -0.320  -9.609   7.778  1.00  0.00    -0.184 F 
ATOM     33  F   UNL     1       0.165  -7.485   8.027  1.00  0.00    -0.184 F 
ENDBRANCH  29  31
ENDBRANCH  21  24
ENDBRANCH  14  20
ENDBRANCH   4   6
ENDBRANCH   3   4
ENDBRANCH   2   3
ENDBRANCH   1   2
BRANCH   1  34
ATOM     34  O   UNL     1       2.350  -0.187   2.227  1.00  0.00    -0.374 OA
BRANCH  34  35
ATOM     35  C   UNL     1       1.156  -0.966   2.337  1.00  0.00     0.202 C 
BRANCH  35  36
ATOM     36  C   UNL     1      -0.098  -0.136   2.629  1.00  0.00     0.261 C 
BRANCH  36  37
ATOM     37  O   UNL     1      -0.623   0.447   1.417  1.00  0.00    -0.460 OA
BRANCH  37  38
ATOM     38  C   UNL     1      -0.502   1.790   1.280  1.00  0.00     0.338 C 
ATOM     39  O   UNL     1      -0.042   2.579   2.084  1.00  0.00    -0.246 OA
BRANCH  38  40
ATOM     40  C   UNL     1      -0.838   2.147  -0.118  1.00  0.00     0.060 A 
ATOM     41  C   UNL     1       0.116   2.849  -0.863  1.00  0.00     0.016 A 
ATOM     42  C   UNL     1      -2.023   1.722  -0.726  1.00  0.00     0.016 A 
ATOM     43  C   UNL     1      -0.096   3.098  -2.224  1.00  0.00     0.010 A 
ATOM     44  C   UNL     1      -2.216   1.939  -2.098  1.00  0.00     0.010 A 
ATOM     45  C   UNL     1      -1.260   2.642  -2.859  1.00  0.00    -0.014 A 
BRANCH  45  46
ATOM     46  C   UNL     1      -1.568   3.045  -4.261  1.00  0.00     0.031 A 
ATOM     47  C   UNL     1      -2.632   4.087  -4.481  1.00  0.00     0.074 A 
ATOM     48  C   UNL     1      -0.918   2.537  -5.327  1.00  0.00     0.049 A 
ATOM     49  N   UNL     1      -3.107   4.575  -5.599  1.00  0.00    -0.248 NA
ATOM     50  C   UNL     1      -3.248   4.650  -3.269  1.00  0.00     0.031 C 
ATOM     51  C   UNL     1       0.165   1.557  -5.279  1.00  0.00     0.029 A 
ATOM     52  N   UNL     1      -1.084   2.782  -6.672  1.00  0.00    -0.354 N 
ATOM     53  C   UNL     1      -4.073   5.498  -5.224  1.00  0.00     0.074 A 
ATOM     54  C   UNL     1      -4.160   5.460  -3.781  1.00  0.00     0.031 C 
ATOM     55  C   UNL     1       0.569   1.288  -6.534  1.00  0.00     0.029 A 
ATOM     56  C   UNL     1      -0.248   2.049  -7.481  1.00  0.00     0.049 A 
ATOM     57  H   UNL     1      -1.742   3.424  -7.023  1.00  0.00     0.167 HD
ATOM     58  C   UNL     1      -4.809   6.326  -6.002  1.00  0.00     0.037 A 
ATOM     59  C   UNL     1      -0.160   1.988  -8.827  1.00  0.00     0.037 A 
ATOM     60  C   UNL     1      -4.736   6.378  -7.436  1.00  0.00     0.049 A 
ATOM     61  C   UNL     1      -1.077   2.834  -9.681  1.00  0.00     0.074 A 
ATOM     62  C   UNL     1      -5.438   7.197  -8.303  1.00  0.00     0.029 A 
ATOM     63  N   UNL     1      -3.923   5.572  -8.216  1.00  0.00    -0.354 N 
ATOM     64  N   UNL     1      -1.964   3.727  -9.315  1.00  0.00    -0.248 NA
ATOM     65  C   UNL     1      -0.982   2.657 -11.140  1.00  0.00     0.031 C 
ATOM     66  C   UNL     1      -5.097   6.843  -9.612  1.00  0.00     0.029 A 
ATOM     67  C   UNL     1      -4.135   5.847  -9.558  1.00  0.00     0.049 A 
ATOM     68  H   UNL     1      -3.289   4.904  -7.869  1.00  0.00     0.167 HD
ATOM     69  C   UNL     1      -2.503   4.239 -10.491  1.00  0.00     0.074 A 
ATOM     70  C   UNL     1      -1.838   3.566 -11.585  1.00  0.00     0.031 C 
ATOM     71  C   UNL     1      -3.463   5.184 -10.647  1.00  0.00     0.037 A 
BRANCH  58  72
ATOM     72  C   UNL     1      -5.782   7.230  -5.304  1.00  0.00     0.064 A 
ATOM     73  C   UNL     1      -5.351   8.300  -4.505  1.00  0.00     0.173 A 
ATOM     74  C   UNL     1      -7.162   7.023  -5.438  1.00  0.00     0.173 A 
ATOM     75  F   UNL     1      -4.041   8.527  -4.329  1.00  0.00    -0.203 F 
ATOM     76  C   UNL     1      -6.268   9.106  -3.835  1.00  0.00     0.198 A 
ATOM     77  C   UNL     1      -8.076   7.853  -4.796  1.00  0.00     0.198 A 
ATOM     78  F   UNL     1      -7.625   6.014  -6.192  1.00  0.00    -0.203 F 
ATOM     79  F   UNL     1      -5.832  10.080  -3.024  1.00  0.00    -0.200 F 
ATOM     80  C   UNL     1      -7.628   8.886  -3.986  1.00  0.00     0.200 A 
ATOM     81  F   UNL     1      -9.391   7.646  -4.953  1.00  0.00    -0.200 F 
ATOM     82  F   UNL     1      -8.509   9.662  -3.341  1.00  0.00    -0.200 F 
ENDBRANCH  58  72
BRANCH  59  83
ATOM     83  C   UNL     1       0.827   1.082  -9.479  1.00  0.00     0.064 A 
ATOM     84  C   UNL     1       1.894   1.595 -10.233  1.00  0.00     0.173 A 
ATOM     85  C   UNL     1       0.695  -0.313  -9.411  1.00  0.00     0.173 A 
ATOM     86  F   UNL     1       2.045   2.922 -10.360  1.00  0.00    -0.203 F 
ATOM     87  C   UNL     1       2.775   0.750 -10.906  1.00  0.00     0.198 A 
ATOM     88  C   UNL     1       1.594  -1.157 -10.060  1.00  0.00     0.198 A 
ATOM     89  F   UNL     1      -0.313  -0.859  -8.714  1.00  0.00    -0.203 F 
ATOM     90  F   UNL     1       3.750   1.270 -11.665  1.00  0.00    -0.200 F 
ATOM     91  C   UNL     1       2.628  -0.625 -10.815  1.00  0.00     0.200 A 
ATOM     92  F   UNL     1       1.452  -2.486  -9.962  1.00  0.00    -0.200 F 
ATOM     93  F   UNL     1       3.474  -1.437 -11.464  1.00  0.00    -0.200 F 
ENDBRANCH  59  83
BRANCH  71  94
ATOM     94  C   UNL     1      -3.841   5.587 -12.046  1.00  0.00     0.064 A 
ATOM     95  C   UNL     1      -4.572   4.736 -12.887  1.00  0.00     0.173 A 
ATOM     96  C   UNL     1      -3.533   6.871 -12.523  1.00  0.00     0.173 A 
ATOM     97  F   UNL     1      -4.881   3.493 -12.486  1.00  0.00    -0.203 F 
ATOM     98  C   UNL     1      -4.968   5.149 -14.157  1.00  0.00     0.198 A 
ATOM     99  C   UNL     1      -3.958   7.293 -13.780  1.00  0.00     0.198 A 
ATOM    100  F   UNL     1      -2.843   7.730 -11.757  1.00  0.00    -0.203 F 
ATOM    101  F   UNL     1      -5.636   4.306 -14.957  1.00  0.00    -0.200 F 
ATOM    102  C   UNL     1      -4.671   6.430 -14.598  1.00  0.00     0.200 A 
ATOM    103  F   UNL     1      -3.685   8.537 -14.196  1.00  0.00    -0.200 F 
ATOM    104  F   UNL     1      -5.070   6.833 -15.813  1.00  0.00    -0.200 F 
ENDBRANCH  71  94
ENDBRANCH  45  46
ENDBRANCH  38  40
ENDBRANCH  37  38
ENDBRANCH  36  37
ENDBRANCH  35  36
ENDBRANCH  34  35
ENDBRANCH   1  34
TORSDOF 20
