REMARK SMILES CCCCCCNC(=O)Oc1cccc(-c2ccc([C@@H](C)C(=O)OCCOCCOC(=O)c3ccc(-c4c5nc(c(-c6c(F)c(F)c(F)c(F)c6F)c6ccc([nH]6)c(-c6c(F)c(F)c(F)c(F)c6F)c6nc(c(-c7c(F)c(F)c(F)c(F)c7F)c7ccc4[nH]7)C=C6)C=C5)cc3)cc2)c1
REMARK SMILES IDX 22 1 23 2 20 3 21 4 19 5 16 6 17 7 97 8 18 9 96 10 15 11
REMARK SMILES IDX 11 12 12 13 98 14 13 15 14 16 10 17 8 18 7 19 9 21 6 22 5 23
REMARK SMILES IDX 4 24 3 25 2 26 1 27 24 28 25 29 26 30 27 31 28 32 29 33
REMARK SMILES IDX 30 34 31 35 32 36 33 37 34 38 95 39 35 40 94 41 36 42 37 43
REMARK SMILES IDX 38 44 88 45 39 46 93 47 87 48 89 49 40 50 92 51 86 52 85 53
REMARK SMILES IDX 41 55 73 56 53 57 72 58 54 59 57 60 71 61 90 62 55 63 56 64
REMARK SMILES IDX 70 66 91 67 58 68 42 69 43 70 51 71 44 72 45 73 49 74 52 75
REMARK SMILES IDX 46 76 47 77 50 78 48 79 74 80 75 81 83 82 76 83 77 84 81 85
REMARK SMILES IDX 84 86 78 87 79 88 82 89 80 90 59 91 60 92 68 93 61 94 62 95
REMARK SMILES IDX 66 96 69 97 63 98 64 99 67 100 65 101
REMARK H PARENT 7 20 89 54 57 65
REMARK Flexibility Score: inf
ROOT
ATOM      1  C   UNL     1      -3.895  -5.978  13.754  1.00  0.00     0.313 C 
ATOM      2  O   UNL     1      -3.580  -5.503  14.842  1.00  0.00    -0.252 OA
ENDROOT
BRANCH   1   3
ATOM      3  C   UNL     1      -4.970  -5.342  12.887  1.00  0.00     0.126 C 
ATOM      4  C   UNL     1      -6.344  -5.746  13.418  1.00  0.00     0.025 C 
BRANCH   3   5
ATOM      5  C   UNL     1      -4.871  -5.519  11.376  1.00  0.00    -0.034 A 
ATOM      6  C   UNL     1      -4.921  -5.718   8.530  1.00  0.00    -0.018 A 
ATOM      7  C   UNL     1      -5.084  -6.851   9.344  1.00  0.00     0.009 A 
ATOM      8  C   UNL     1      -4.687  -4.492   9.168  1.00  0.00     0.009 A 
ATOM      9  C   UNL     1      -5.061  -6.755  10.743  1.00  0.00     0.005 A 
ATOM     10  C   UNL     1      -4.661  -4.392  10.564  1.00  0.00     0.005 A 
BRANCH   6  11
ATOM     11  C   UNL     1      -5.051  -5.794   7.063  1.00  0.00    -0.015 A 
ATOM     12  C   UNL     1      -4.255  -5.284   4.823  1.00  0.00     0.133 A 
ATOM     13  C   UNL     1      -5.395  -5.848   4.256  1.00  0.00     0.047 A 
ATOM     14  C   UNL     1      -4.081  -5.241   6.210  1.00  0.00     0.056 A 
ATOM     15  C   UNL     1      -6.363  -6.404   5.087  1.00  0.00     0.004 A 
ATOM     16  C   UNL     1      -6.190  -6.378   6.475  1.00  0.00     0.009 A 
BRANCH  12  17
ATOM     17  O   UNL     1      -3.357  -4.653   3.945  1.00  0.00    -0.410 OA
BRANCH  17  18
ATOM     18  C   UNL     1      -2.022  -5.015   4.005  1.00  0.00     0.412 C 
ATOM     19  N   UNL     1      -1.234  -4.340   3.119  1.00  0.00    -0.321 N 
ATOM     20  H   UNL     1      -0.273  -4.555   3.134  1.00  0.00     0.167 HD
ATOM     21  O   UNL     1      -1.538  -5.863   4.757  1.00  0.00    -0.224 OA
BRANCH  19  22
ATOM     22  C   UNL     1      -1.658  -3.339   2.157  1.00  0.00     0.119 C 
BRANCH  22  23
ATOM     23  C   UNL     1      -1.051  -1.966   2.448  1.00  0.00     0.021 C 
BRANCH  23  24
ATOM     24  C   UNL     1       0.478  -1.899   2.347  1.00  0.00     0.002 C 
BRANCH  24  25
ATOM     25  C   UNL     1       1.072  -2.275   0.984  1.00  0.00    -0.000 C 
BRANCH  25  26
ATOM     26  C   UNL     1       0.599  -1.425  -0.198  1.00  0.00    -0.003 C 
ATOM     27  C   UNL     1       0.987   0.041  -0.081  1.00  0.00     0.004 C 
ENDBRANCH  25  26
ENDBRANCH  24  25
ENDBRANCH  23  24
ENDBRANCH  22  23
ENDBRANCH  19  22
ENDBRANCH  17  18
ENDBRANCH  12  17
ENDBRANCH   6  11
ENDBRANCH   3   5
ENDBRANCH   1   3
BRANCH   1  28
ATOM     28  O   UNL     1      -3.368  -7.116  13.235  1.00  0.00    -0.463 OA
BRANCH  28  29
ATOM     29  C   UNL     1      -2.256  -7.681  13.954  1.00  0.00     0.261 C 
BRANCH  29  30
ATOM     30  C   UNL     1      -0.994  -7.699  13.090  1.00  0.00     0.202 C 
BRANCH  30  31
ATOM     31  O   UNL     1      -0.432  -6.425  12.780  1.00  0.00    -0.374 OA
BRANCH  31  32
ATOM     32  C   UNL     1      -1.072  -5.657  11.760  1.00  0.00     0.202 C 
BRANCH  32  33
ATOM     33  C   UNL     1      -0.785  -6.075  10.314  1.00  0.00     0.261 C 
BRANCH  33  34
ATOM     34  O   UNL     1      -1.359  -7.355   9.996  1.00  0.00    -0.460 OA
BRANCH  34  35
ATOM     35  C   UNL     1      -0.464  -8.350   9.803  1.00  0.00     0.338 C 
ATOM     36  O   UNL     1       0.755  -8.268   9.818  1.00  0.00    -0.246 OA
BRANCH  35  37
ATOM     37  C   UNL     1      -1.159  -9.650   9.745  1.00  0.00     0.060 A 
ATOM     38  C   UNL     1      -0.664 -10.682  10.553  1.00  0.00     0.016 A 
ATOM     39  C   UNL     1      -2.214  -9.884   8.860  1.00  0.00     0.016 A 
ATOM     40  C   UNL     1      -1.177 -11.972  10.434  1.00  0.00     0.010 A 
ATOM     41  C   UNL     1      -2.722 -11.182   8.735  1.00  0.00     0.010 A 
ATOM     42  C   UNL     1      -2.176 -12.238   9.489  1.00  0.00    -0.014 A 
BRANCH  42  43
ATOM     43  C   UNL     1      -2.510 -13.644   9.155  1.00  0.00     0.031 A 
ATOM     44  C   UNL     1      -1.875 -14.264   7.941  1.00  0.00     0.074 A 
ATOM     45  C   UNL     1      -3.337 -14.368   9.928  1.00  0.00     0.049 A 
ATOM     46  N   UNL     1      -2.066 -15.445   7.411  1.00  0.00    -0.248 NA
ATOM     47  C   UNL     1      -0.888 -13.437   7.226  1.00  0.00     0.031 C 
ATOM     48  C   UNL     1      -3.966 -13.901  11.161  1.00  0.00     0.029 A 
ATOM     49  N   UNL     1      -3.795 -15.654   9.780  1.00  0.00    -0.354 N 
ATOM     50  C   UNL     1      -1.237 -15.497   6.298  1.00  0.00     0.074 A 
ATOM     51  C   UNL     1      -0.556 -14.223   6.214  1.00  0.00     0.031 C 
ATOM     52  C   UNL     1      -4.745 -14.882  11.650  1.00  0.00     0.029 A 
ATOM     53  C   UNL     1      -4.695 -16.031  10.745  1.00  0.00     0.049 A 
ATOM     54  H   UNL     1      -3.505 -16.249   9.051  1.00  0.00     0.167 HD
ATOM     55  C   UNL     1      -1.057 -16.517   5.427  1.00  0.00     0.037 A 
ATOM     56  C   UNL     1      -5.415 -17.163  10.866  1.00  0.00     0.037 A 
ATOM     57  C   UNL     1      -1.729 -17.786   5.515  1.00  0.00     0.049 A 
ATOM     58  C   UNL     1      -5.251 -18.258   9.842  1.00  0.00     0.074 A 
ATOM     59  C   UNL     1      -1.612 -18.885   4.683  1.00  0.00     0.029 A 
ATOM     60  N   UNL     1      -2.651 -18.121   6.495  1.00  0.00    -0.354 N 
ATOM     61  N   UNL     1      -4.463 -18.303   8.796  1.00  0.00    -0.248 NA
ATOM     62  C   UNL     1      -6.079 -19.461  10.018  1.00  0.00     0.031 C 
ATOM     63  C   UNL     1      -2.495 -19.871   5.135  1.00  0.00     0.029 A 
ATOM     64  C   UNL     1      -3.124 -19.404   6.278  1.00  0.00     0.049 A 
ATOM     65  H   UNL     1      -2.928 -17.534   7.236  1.00  0.00     0.167 HD
ATOM     66  C   UNL     1      -4.670 -19.546   8.213  1.00  0.00     0.074 A 
ATOM     67  C   UNL     1      -5.659 -20.228   9.021  1.00  0.00     0.031 C 
ATOM     68  C   UNL     1      -4.090 -20.077   7.109  1.00  0.00     0.037 A 
BRANCH  55  69
ATOM     69  C   UNL     1      -0.114 -16.292   4.282  1.00  0.00     0.064 A 
ATOM     70  C   UNL     1       1.275 -16.241   4.470  1.00  0.00     0.173 A 
ATOM     71  C   UNL     1      -0.606 -16.158   2.976  1.00  0.00     0.173 A 
ATOM     72  F   UNL     1       1.794 -16.350   5.702  1.00  0.00    -0.203 F 
ATOM     73  C   UNL     1       2.135 -16.041   3.393  1.00  0.00     0.198 A 
ATOM     74  C   UNL     1       0.258 -15.986   1.898  1.00  0.00     0.198 A 
ATOM     75  F   UNL     1      -1.927 -16.204   2.742  1.00  0.00    -0.203 F 
ATOM     76  F   UNL     1       3.457 -15.954   3.600  1.00  0.00    -0.200 F 
ATOM     77  C   UNL     1       1.627 -15.921   2.108  1.00  0.00     0.200 A 
ATOM     78  F   UNL     1      -0.234 -15.882   0.656  1.00  0.00    -0.200 F 
ATOM     79  F   UNL     1       2.457 -15.737   1.072  1.00  0.00    -0.200 F 
ENDBRANCH  55  69
BRANCH  56  80
ATOM     80  C   UNL     1      -6.373 -17.317  11.992  1.00  0.00     0.064 A 
ATOM     81  C   UNL     1      -6.144 -18.245  13.017  1.00  0.00     0.173 A 
ATOM     82  C   UNL     1      -7.547 -16.552  12.055  1.00  0.00     0.173 A 
ATOM     83  F   UNL     1      -5.049 -19.019  12.986  1.00  0.00    -0.203 F 
ATOM     84  C   UNL     1      -7.060 -18.415  14.053  1.00  0.00     0.198 A 
ATOM     85  C   UNL     1      -8.449 -16.703  13.106  1.00  0.00     0.198 A 
ATOM     86  F   UNL     1      -7.815 -15.652  11.098  1.00  0.00    -0.203 F 
ATOM     87  F   UNL     1      -6.839 -19.341  14.995  1.00  0.00    -0.200 F 
ATOM     88  C   UNL     1      -8.209 -17.639  14.100  1.00  0.00     0.200 A 
ATOM     89  F   UNL     1      -9.553 -15.944  13.152  1.00  0.00    -0.200 F 
ATOM     90  F   UNL     1      -9.089 -17.801  15.097  1.00  0.00    -0.200 F 
ENDBRANCH  56  80
BRANCH  68  91
ATOM     91  C   UNL     1      -4.457 -21.484   6.736  1.00  0.00     0.064 A 
ATOM     92  C   UNL     1      -5.696 -21.796   6.161  1.00  0.00     0.173 A 
ATOM     93  C   UNL     1      -3.525 -22.521   6.896  1.00  0.00     0.173 A 
ATOM     94  F   UNL     1      -6.625 -20.842   6.000  1.00  0.00    -0.203 F 
ATOM     95  C   UNL     1      -5.995 -23.100   5.774  1.00  0.00     0.198 A 
ATOM     96  C   UNL     1      -3.817 -23.817   6.483  1.00  0.00     0.198 A 
ATOM     97  F   UNL     1      -2.321 -22.271   7.435  1.00  0.00    -0.203 F 
ATOM     98  F   UNL     1      -7.199 -23.384   5.257  1.00  0.00    -0.200 F 
ATOM     99  C   UNL     1      -5.053 -24.107   5.926  1.00  0.00     0.200 A 
ATOM    100  F   UNL     1      -2.900 -24.785   6.619  1.00  0.00    -0.200 F 
ATOM    101  F   UNL     1      -5.338 -25.358   5.540  1.00  0.00    -0.200 F 
ENDBRANCH  68  91
ENDBRANCH  42  43
ENDBRANCH  35  37
ENDBRANCH  34  35
ENDBRANCH  33  34
ENDBRANCH  32  33
ENDBRANCH  31  32
ENDBRANCH  30  31
ENDBRANCH  29  30
ENDBRANCH  28  29
ENDBRANCH   1  28
TORSDOF 23
