REMARK SMILES CC(C)Oc1ccc(-c2ccc(/C(=C\c3ccc(S(C)(=O)=O)cc3)C(=O)OCCOCCOC(=O)c3ccc(-c4c5nc(c(-c6c(F)c(F)c(F)c(F)c6F)c6ccc([nH]6)c(-c6c(F)c(F)c(F)c(F)c6F)c6nc(c(-c7c(F)c(F)c(F)c(F)c7F)c7ccc4[nH]7)C=C6)C=C5)cc3)cc2)cc1
REMARK SMILES IDX 29 1 28 2 27 3 25 4 26 5 13 6 14 7 12 8 9 9 10 10 100 11
REMARK SMILES IDX 11 12 99 13 8 14 5 15 6 16 102 17 7 18 101 19 4 20 2 21 1 22
REMARK SMILES IDX 3 23 15 24 16 25 24 26 17 27 23 28 18 29 19 30 20 31 21 32
REMARK SMILES IDX 22 33 30 34 31 35 32 36 33 37 34 38 35 39 36 40 37 41 98 42
REMARK SMILES IDX 38 43 97 44 39 45 40 46 41 47 91 48 42 49 96 50 90 51 92 52
REMARK SMILES IDX 43 53 95 54 89 55 88 56 44 58 76 59 56 60 75 61 57 62 60 63
REMARK SMILES IDX 74 64 93 65 58 66 59 67 73 69 94 70 61 71 45 72 46 73 54 74
REMARK SMILES IDX 47 75 48 76 52 77 55 78 49 79 50 80 53 81 51 82 77 83 78 84
REMARK SMILES IDX 86 85 79 86 80 87 84 88 87 89 81 90 82 91 85 92 83 93 62 94
REMARK SMILES IDX 63 95 71 96 64 97 65 98 69 99 72 100 66 101 67 102 70 103
REMARK SMILES IDX 68 104
REMARK H PARENT 92 57 60 68
REMARK Flexibility Score: inf
ROOT
ATOM      1  C   UNL     1      -7.254  -8.273   5.396  1.00  0.00     0.202 C 
ENDROOT
BRANCH   1   2
ATOM      2  C   UNL     1      -8.315  -7.870   4.369  1.00  0.00     0.261 C 
BRANCH   2   3
ATOM      3  O   UNL     1      -7.819  -8.085   3.038  1.00  0.00    -0.460 OA
BRANCH   3   4
ATOM      4  C   UNL     1      -7.838  -6.992   2.230  1.00  0.00     0.338 C 
ATOM      5  O   UNL     1      -8.434  -5.950   2.457  1.00  0.00    -0.246 OA
BRANCH   4   6
ATOM      6  C   UNL     1      -6.896  -7.167   1.073  1.00  0.00     0.067 C 
ATOM      7  C   UNL     1      -6.900  -8.379   0.466  1.00  0.00     0.024 C 
BRANCH   6   8
ATOM      8  C   UNL     1      -6.042  -6.002   0.700  1.00  0.00    -0.011 A 
ATOM      9  C   UNL     1      -4.245  -3.856   0.076  1.00  0.00    -0.018 A 
ATOM     10  C   UNL     1      -4.862  -4.618  -0.927  1.00  0.00     0.009 A 
ATOM     11  C   UNL     1      -4.582  -4.167   1.401  1.00  0.00     0.009 A 
ATOM     12  C   UNL     1      -5.771  -5.641  -0.623  1.00  0.00     0.009 A 
ATOM     13  C   UNL     1      -5.455  -5.221   1.707  1.00  0.00     0.009 A 
BRANCH   9  14
ATOM     14  C   UNL     1      -3.312  -2.755  -0.252  1.00  0.00    -0.018 A 
ATOM     15  C   UNL     1      -1.571  -0.600  -0.856  1.00  0.00     0.119 A 
ATOM     16  C   UNL     1      -2.652  -0.883  -1.684  1.00  0.00     0.047 A 
ATOM     17  C   UNL     1      -1.362  -1.369   0.282  1.00  0.00     0.047 A 
ATOM     18  C   UNL     1      -3.509  -1.948  -1.387  1.00  0.00     0.012 A 
ATOM     19  C   UNL     1      -2.212  -2.446   0.568  1.00  0.00     0.012 A 
BRANCH  15  20
ATOM     20  O   UNL     1      -0.855   0.524  -1.142  1.00  0.00    -0.491 OA
BRANCH  20  21
ATOM     21  C   UNL     1       0.546   0.388  -1.425  1.00  0.00     0.167 C 
ATOM     22  C   UNL     1       1.400   0.301  -0.164  1.00  0.00     0.052 C 
ATOM     23  C   UNL     1       0.884  -0.698  -2.444  1.00  0.00     0.052 C 
ENDBRANCH  20  21
ENDBRANCH  15  20
ENDBRANCH   9  14
ENDBRANCH   6   8
BRANCH   7  24
ATOM     24  C   UNL     1      -6.191  -8.730  -0.775  1.00  0.00    -0.025 A 
ATOM     25  C   UNL     1      -6.978  -8.960  -1.913  1.00  0.00     0.009 A 
ATOM     26  C   UNL     1      -4.796  -8.671  -0.900  1.00  0.00     0.009 A 
ATOM     27  C   UNL     1      -6.394  -8.998  -3.179  1.00  0.00     0.021 A 
ATOM     28  C   UNL     1      -4.205  -8.703  -2.168  1.00  0.00     0.021 A 
ATOM     29  C   UNL     1      -5.013  -8.832  -3.302  1.00  0.00     0.067 A 
BRANCH  29  30
ATOM     30  S   UNL     1      -4.328  -8.587  -4.925  1.00  0.00     0.175 S 
ATOM     31  C   UNL     1      -4.312 -10.205  -5.641  1.00  0.00     0.163 C 
ATOM     32  O   UNL     1      -5.279  -7.776  -5.662  1.00  0.00    -0.224 OA
ATOM     33  O   UNL     1      -2.953  -8.154  -4.764  1.00  0.00    -0.224 OA
ENDBRANCH  29  30
ENDBRANCH   7  24
ENDBRANCH   4   6
ENDBRANCH   3   4
ENDBRANCH   2   3
ENDBRANCH   1   2
BRANCH   1  34
ATOM     34  O   UNL     1      -6.061  -7.487   5.390  1.00  0.00    -0.374 OA
BRANCH  34  35
ATOM     35  C   UNL     1      -5.089  -7.783   4.386  1.00  0.00     0.202 C 
BRANCH  35  36
ATOM     36  C   UNL     1      -4.173  -8.980   4.658  1.00  0.00     0.261 C 
BRANCH  36  37
ATOM     37  O   UNL     1      -4.899 -10.221   4.644  1.00  0.00    -0.460 OA
BRANCH  37  38
ATOM     38  C   UNL     1      -5.043 -10.805   5.855  1.00  0.00     0.338 C 
ATOM     39  O   UNL     1      -4.556 -10.444   6.918  1.00  0.00    -0.246 OA
BRANCH  38  40
ATOM     40  C   UNL     1      -6.042 -11.885   5.774  1.00  0.00     0.060 A 
ATOM     41  C   UNL     1      -7.064 -11.891   6.732  1.00  0.00     0.016 A 
ATOM     42  C   UNL     1      -5.948 -12.907   4.827  1.00  0.00     0.016 A 
ATOM     43  C   UNL     1      -7.966 -12.950   6.782  1.00  0.00     0.010 A 
ATOM     44  C   UNL     1      -6.850 -13.974   4.884  1.00  0.00     0.010 A 
ATOM     45  C   UNL     1      -7.838 -14.018   5.885  1.00  0.00    -0.014 A 
BRANCH  45  46
ATOM     46  C   UNL     1      -8.636 -15.248   6.098  1.00  0.00     0.031 A 
ATOM     47  C   UNL     1      -7.996 -16.416   6.795  1.00  0.00     0.074 A 
ATOM     48  C   UNL     1      -9.919 -15.312   5.705  1.00  0.00     0.049 A 
ATOM     49  N   UNL     1      -8.491 -17.597   7.065  1.00  0.00    -0.248 NA
ATOM     50  C   UNL     1      -6.609 -16.226   7.249  1.00  0.00     0.031 C 
ATOM     51  C   UNL     1     -10.659 -14.231   5.059  1.00  0.00     0.029 A 
ATOM     52  N   UNL     1     -10.826 -16.338   5.793  1.00  0.00    -0.354 N 
ATOM     53  C   UNL     1      -7.478 -18.290   7.715  1.00  0.00     0.074 A 
ATOM     54  C   UNL     1      -6.330 -17.411   7.770  1.00  0.00     0.031 C 
ATOM     55  C   UNL     1     -11.909 -14.653   4.801  1.00  0.00     0.029 A 
ATOM     56  C   UNL     1     -12.045 -16.042   5.237  1.00  0.00     0.049 A 
ATOM     57  H   UNL     1     -10.621 -17.204   6.215  1.00  0.00     0.167 HD
ATOM     58  C   UNL     1      -7.507 -19.542   8.230  1.00  0.00     0.037 A 
ATOM     59  C   UNL     1     -13.138 -16.814   5.082  1.00  0.00     0.037 A 
ATOM     60  C   UNL     1      -8.650 -20.414   8.173  1.00  0.00     0.049 A 
ATOM     61  C   UNL     1     -13.120 -18.230   5.596  1.00  0.00     0.074 A 
ATOM     62  C   UNL     1      -8.785 -21.696   8.675  1.00  0.00     0.029 A 
ATOM     63  N   UNL     1      -9.857 -20.092   7.568  1.00  0.00    -0.354 N 
ATOM     64  N   UNL     1     -12.167 -18.872   6.228  1.00  0.00    -0.248 NA
ATOM     65  C   UNL     1     -14.335 -19.029   5.377  1.00  0.00     0.031 C 
ATOM     66  C   UNL     1     -10.057 -22.168   8.333  1.00  0.00     0.029 A 
ATOM     67  C   UNL     1     -10.733 -21.161   7.663  1.00  0.00     0.049 A 
ATOM     68  H   UNL     1     -10.060 -19.231   7.136  1.00  0.00     0.167 HD
ATOM     69  C   UNL     1     -12.675 -20.134   6.509  1.00  0.00     0.074 A 
ATOM     70  C   UNL     1     -14.025 -20.165   5.986  1.00  0.00     0.031 C 
ATOM     71  C   UNL     1     -12.078 -21.172   7.145  1.00  0.00     0.037 A 
BRANCH  58  72
ATOM     72  C   UNL     1      -6.253 -20.051   8.878  1.00  0.00     0.064 A 
ATOM     73  C   UNL     1      -5.806 -19.554  10.112  1.00  0.00     0.173 A 
ATOM     74  C   UNL     1      -5.498 -21.063   8.266  1.00  0.00     0.173 A 
ATOM     75  F   UNL     1      -6.483 -18.575  10.730  1.00  0.00    -0.203 F 
ATOM     76  C   UNL     1      -4.636 -20.033  10.695  1.00  0.00     0.198 A 
ATOM     77  C   UNL     1      -4.345 -21.560   8.866  1.00  0.00     0.198 A 
ATOM     78  F   UNL     1      -5.883 -21.575   7.087  1.00  0.00    -0.203 F 
ATOM     79  F   UNL     1      -4.202 -19.509  11.850  1.00  0.00    -0.200 F 
ATOM     80  C   UNL     1      -3.910 -21.039  10.076  1.00  0.00     0.200 A 
ATOM     81  F   UNL     1      -3.650 -22.539   8.271  1.00  0.00    -0.200 F 
ATOM     82  F   UNL     1      -2.785 -21.501  10.640  1.00  0.00    -0.200 F 
ENDBRANCH  58  72
BRANCH  59  83
ATOM     83  C   UNL     1     -14.343 -16.266   4.408  1.00  0.00     0.064 A 
ATOM     84  C   UNL     1     -15.525 -16.028   5.121  1.00  0.00     0.173 A 
ATOM     85  C   UNL     1     -14.341 -15.983   3.034  1.00  0.00     0.173 A 
ATOM     86  F   UNL     1     -15.583 -16.308   6.432  1.00  0.00    -0.203 F 
ATOM     87  C   UNL     1     -16.664 -15.541   4.484  1.00  0.00     0.198 A 
ATOM     88  C   UNL     1     -15.472 -15.470   2.403  1.00  0.00     0.198 A 
ATOM     89  F   UNL     1     -13.235 -16.195   2.305  1.00  0.00    -0.203 F 
ATOM     90  F   UNL     1     -17.795 -15.364   5.181  1.00  0.00    -0.200 F 
ATOM     91  C   UNL     1     -16.635 -15.257   3.127  1.00  0.00     0.200 A 
ATOM     92  F   UNL     1     -15.436 -15.187   1.094  1.00  0.00    -0.200 F 
ATOM     93  F   UNL     1     -17.730 -14.786   2.515  1.00  0.00    -0.200 F 
ENDBRANCH  59  83
BRANCH  71  94
ATOM     94  C   UNL     1     -12.892 -22.417   7.347  1.00  0.00     0.064 A 
ATOM     95  C   UNL     1     -13.203 -23.277   6.283  1.00  0.00     0.173 A 
ATOM     96  C   UNL     1     -13.330 -22.776   8.631  1.00  0.00     0.173 A 
ATOM     97  F   UNL     1     -12.819 -22.971   5.035  1.00  0.00    -0.203 F 
ATOM     98  C   UNL     1     -13.943 -24.437   6.494  1.00  0.00     0.198 A 
ATOM     99  C   UNL     1     -14.044 -23.952   8.843  1.00  0.00     0.198 A 
ATOM    100  F   UNL     1     -13.053 -21.993   9.684  1.00  0.00    -0.203 F 
ATOM    101  F   UNL     1     -14.267 -25.220   5.456  1.00  0.00    -0.200 F 
ATOM    102  C   UNL     1     -14.356 -24.778   7.774  1.00  0.00     0.200 A 
ATOM    103  F   UNL     1     -14.431 -24.287  10.082  1.00  0.00    -0.200 F 
ATOM    104  F   UNL     1     -15.062 -25.899   7.975  1.00  0.00    -0.200 F 
ENDBRANCH  71  94
ENDBRANCH  45  46
ENDBRANCH  38  40
ENDBRANCH  37  38
ENDBRANCH  36  37
ENDBRANCH  35  36
ENDBRANCH  34  35
ENDBRANCH   1  34
TORSDOF 20
