REMARK SMILES Cc1ccc(N2C(=O)C[C@H](Sc3ccccc3C(=O)OCCOCCOC(=O)c3ccc(-c4c5nc(c(-c6c(F)c(F)c(F)c(F)c6F)c6ccc([nH]6)c(-c6c(F)c(F)c(F)c(F)c6F)c6nc(c(-c7c(F)c(F)c(F)c(F)c7F)c7ccc4[nH]7)C=C6)C=C5)cc3)C2=O)cc1
REMARK SMILES IDX 22 1 21 2 20 3 18 4 19 5 17 6 12 7 13 8 14 9 16 10 15 11
REMARK SMILES IDX 11 12 10 13 6 14 7 15 92 16 8 17 9 18 93 19 5 20 1 21 2 22
REMARK SMILES IDX 3 23 95 24 4 25 94 26 23 27 24 28 25 29 26 30 27 31 28 32
REMARK SMILES IDX 29 33 30 34 91 35 31 36 90 37 32 38 33 39 34 40 84 41 35 42
REMARK SMILES IDX 89 43 83 44 85 45 36 46 88 47 82 48 81 49 37 51 69 52 49 53
REMARK SMILES IDX 68 54 50 55 53 56 67 57 86 58 51 59 52 60 66 62 87 63 54 64
REMARK SMILES IDX 38 65 39 66 47 67 40 68 41 69 45 70 48 71 42 72 43 73 46 74
REMARK SMILES IDX 44 75 70 76 71 77 79 78 72 79 73 80 77 81 80 82 74 83 75 84
REMARK SMILES IDX 78 85 76 86 55 87 56 88 64 89 57 90 58 91 62 92 65 93 59 94
REMARK SMILES IDX 60 95 63 96 61 97
REMARK H PARENT 85 50 53 61
REMARK Flexibility Score: inf
ROOT
ATOM      1  C   UNL     1      -4.265   3.978  -2.193  1.00  0.00     0.202 C 
ENDROOT
BRANCH   1   2
ATOM      2  C   UNL     1      -5.416   4.452  -1.395  1.00  0.00     0.261 C 
BRANCH   2   3
ATOM      3  O   UNL     1      -5.337   4.069  -0.006  1.00  0.00    -0.460 OA
BRANCH   3   4
ATOM      4  C   UNL     1      -6.011   2.995   0.510  1.00  0.00     0.339 C 
ATOM      5  O   UNL     1      -6.757   2.247  -0.060  1.00  0.00    -0.246 OA
BRANCH   4   6
ATOM      6  C   UNL     1      -5.634   2.890   1.937  1.00  0.00     0.073 A 
ATOM      7  C   UNL     1      -5.643   1.676   2.650  1.00  0.00     0.023 A 
ATOM      8  C   UNL     1      -5.099   1.693   3.946  1.00  0.00     0.016 A 
ATOM      9  C   UNL     1      -4.572   2.863   4.507  1.00  0.00     0.001 A 
ATOM     10  C   UNL     1      -5.202   4.082   2.556  1.00  0.00     0.017 A 
ATOM     11  C   UNL     1      -4.653   4.066   3.825  1.00  0.00     0.001 A 
BRANCH   7  12
ATOM     12  S   UNL     1      -6.512   0.174   2.170  1.00  0.00    -0.111 SA
BRANCH  12  13
ATOM     13  C   UNL     1      -5.278  -0.943   1.425  1.00  0.00     0.151 C 
ATOM     14  N   UNL     1      -3.137  -0.876   0.529  1.00  0.00    -0.250 N 
ATOM     15  C   UNL     1      -3.955  -1.250  -0.511  1.00  0.00     0.235 C 
ATOM     16  C   UNL     1      -3.829  -0.642   1.694  1.00  0.00     0.247 C 
ATOM     17  O   UNL     1      -3.635  -1.559  -1.650  1.00  0.00    -0.274 OA
ATOM     18  C   UNL     1      -5.374  -1.006  -0.088  1.00  0.00     0.126 C 
ATOM     19  O   UNL     1      -3.347  -0.389   2.789  1.00  0.00    -0.273 OA
BRANCH  14  20
ATOM     20  C   UNL     1      -1.748  -0.687   0.403  1.00  0.00     0.052 A 
ATOM     21  C   UNL     1       2.492  -0.051  -0.031  1.00  0.00     0.044 C 
ATOM     22  C   UNL     1       1.010  -0.254   0.088  1.00  0.00    -0.051 A 
ATOM     23  C   UNL     1       0.450  -1.512  -0.169  1.00  0.00     0.005 A 
ATOM     24  C   UNL     1       0.179   0.787   0.511  1.00  0.00     0.005 A 
ATOM     25  C   UNL     1      -0.927  -1.717  -0.053  1.00  0.00     0.027 A 
ATOM     26  C   UNL     1      -1.185   0.560   0.707  1.00  0.00     0.027 A 
ENDBRANCH  14  20
ENDBRANCH  12  13
ENDBRANCH   7  12
ENDBRANCH   4   6
ENDBRANCH   3   4
ENDBRANCH   2   3
ENDBRANCH   1   2
BRANCH   1  27
ATOM     27  O   UNL     1      -4.429   2.599  -2.005  1.00  0.00    -0.374 OA
BRANCH  27  28
ATOM     28  C   UNL     1      -3.295   1.938  -1.574  1.00  0.00     0.202 C 
BRANCH  28  29
ATOM     29  C   UNL     1      -2.485   1.583  -2.798  1.00  0.00     0.261 C 
BRANCH  29  30
ATOM     30  O   UNL     1      -3.230   0.988  -3.930  1.00  0.00    -0.460 OA
BRANCH  30  31
ATOM     31  C   UNL     1      -4.121   1.582  -4.785  1.00  0.00     0.338 C 
ATOM     32  O   UNL     1      -3.866   1.805  -5.964  1.00  0.00    -0.246 OA
BRANCH  31  33
ATOM     33  C   UNL     1      -5.540   1.717  -4.333  1.00  0.00     0.060 A 
ATOM     34  C   UNL     1      -6.361   2.748  -4.845  1.00  0.00     0.016 A 
ATOM     35  C   UNL     1      -6.048   0.885  -3.347  1.00  0.00     0.016 A 
ATOM     36  C   UNL     1      -7.572   3.092  -4.213  1.00  0.00     0.010 A 
ATOM     37  C   UNL     1      -7.225   1.255  -2.701  1.00  0.00     0.010 A 
ATOM     38  C   UNL     1      -7.949   2.410  -3.063  1.00  0.00    -0.014 A 
BRANCH  38  39
ATOM     39  C   UNL     1      -9.044   2.804  -2.151  1.00  0.00     0.031 A 
ATOM     40  C   UNL     1     -10.204   1.898  -2.055  1.00  0.00     0.074 A 
ATOM     41  C   UNL     1      -8.937   3.810  -1.238  1.00  0.00     0.049 A 
ATOM     42  N   UNL     1     -11.290   2.205  -1.438  1.00  0.00    -0.248 NA
ATOM     43  C   UNL     1     -10.282   0.591  -2.702  1.00  0.00     0.031 C 
ATOM     44  C   UNL     1      -9.627   3.982   0.051  1.00  0.00     0.029 A 
ATOM     45  N   UNL     1      -8.065   4.905  -1.204  1.00  0.00    -0.354 N 
ATOM     46  C   UNL     1     -12.002   1.047  -1.262  1.00  0.00     0.074 A 
ATOM     47  C   UNL     1     -11.449   0.139  -2.232  1.00  0.00     0.031 C 
ATOM     48  C   UNL     1      -9.385   5.220   0.536  1.00  0.00     0.029 A 
ATOM     49  C   UNL     1      -8.658   5.951  -0.491  1.00  0.00     0.049 A 
ATOM     50  H   UNL     1      -7.173   4.934  -1.619  1.00  0.00     0.167 HD
ATOM     51  C   UNL     1     -12.856   0.988  -0.199  1.00  0.00     0.037 A 
ATOM     52  C   UNL     1      -8.973   7.111  -1.130  1.00  0.00     0.037 A 
ATOM     53  C   UNL     1     -12.966   2.312   0.452  1.00  0.00     0.049 A 
ATOM     54  C   UNL     1     -10.468   7.247  -1.163  1.00  0.00     0.074 A 
ATOM     55  C   UNL     1     -12.588   2.850   1.671  1.00  0.00     0.029 A 
ATOM     56  N   UNL     1     -13.290   3.408  -0.341  1.00  0.00    -0.354 N 
ATOM     57  N   UNL     1     -11.252   6.311  -0.712  1.00  0.00    -0.248 NA
ATOM     58  C   UNL     1     -11.211   8.364  -1.722  1.00  0.00     0.031 C 
ATOM     59  C   UNL     1     -12.696   4.280   1.582  1.00  0.00     0.029 A 
ATOM     60  C   UNL     1     -13.171   4.611   0.323  1.00  0.00     0.049 A 
ATOM     61  H   UNL     1     -13.574   3.332  -1.281  1.00  0.00     0.167 HD
ATOM     62  C   UNL     1     -12.547   6.651  -0.862  1.00  0.00     0.074 A 
ATOM     63  C   UNL     1     -12.477   7.927  -1.566  1.00  0.00     0.031 C 
ATOM     64  C   UNL     1     -13.538   5.840  -0.385  1.00  0.00     0.037 A 
BRANCH  51  65
ATOM     65  C   UNL     1     -13.483  -0.277   0.371  1.00  0.00     0.064 A 
ATOM     66  C   UNL     1     -14.326  -0.194   1.502  1.00  0.00     0.173 A 
ATOM     67  C   UNL     1     -13.267  -1.598  -0.085  1.00  0.00     0.173 A 
ATOM     68  F   UNL     1     -14.639   0.987   2.053  1.00  0.00    -0.203 F 
ATOM     69  C   UNL     1     -14.880  -1.321   2.122  1.00  0.00     0.198 A 
ATOM     70  C   UNL     1     -13.852  -2.721   0.512  1.00  0.00     0.198 A 
ATOM     71  F   UNL     1     -12.459  -1.890  -1.103  1.00  0.00    -0.203 F 
ATOM     72  F   UNL     1     -15.637  -1.171   3.218  1.00  0.00    -0.200 F 
ATOM     73  C   UNL     1     -14.650  -2.585   1.623  1.00  0.00     0.200 A 
ATOM     74  F   UNL     1     -13.613  -3.939   0.004  1.00  0.00    -0.200 F 
ATOM     75  F   UNL     1     -15.185  -3.664   2.209  1.00  0.00    -0.200 F 
ENDBRANCH  51  65
BRANCH  52  76
ATOM     76  C   UNL     1      -7.994   7.462  -2.212  1.00  0.00     0.064 A 
ATOM     77  C   UNL     1      -6.687   7.851  -1.838  1.00  0.00     0.173 A 
ATOM     78  C   UNL     1      -8.155   6.968  -3.515  1.00  0.00     0.173 A 
ATOM     79  F   UNL     1      -6.445   8.272  -0.585  1.00  0.00    -0.203 F 
ATOM     80  C   UNL     1      -5.587   7.628  -2.675  1.00  0.00     0.198 A 
ATOM     81  C   UNL     1      -7.049   6.726  -4.340  1.00  0.00     0.198 A 
ATOM     82  F   UNL     1      -9.365   6.581  -3.941  1.00  0.00    -0.203 F 
ATOM     83  F   UNL     1      -4.341   7.814  -2.208  1.00  0.00    -0.200 F 
ATOM     84  C   UNL     1      -5.766   7.014  -3.903  1.00  0.00     0.200 A 
ATOM     85  F   UNL     1      -7.216   6.105  -5.516  1.00  0.00    -0.200 F 
ATOM     86  F   UNL     1      -4.701   6.603  -4.608  1.00  0.00    -0.200 F 
ENDBRANCH  52  76
BRANCH  64  87
ATOM     87  C   UNL     1     -14.979   6.148  -0.618  1.00  0.00     0.064 A 
ATOM     88  C   UNL     1     -15.484   7.451  -0.564  1.00  0.00     0.173 A 
ATOM     89  C   UNL     1     -15.914   5.127  -0.894  1.00  0.00     0.173 A 
ATOM     90  F   UNL     1     -14.723   8.470  -0.137  1.00  0.00    -0.203 F 
ATOM     91  C   UNL     1     -16.792   7.735  -0.942  1.00  0.00     0.198 A 
ATOM     92  C   UNL     1     -17.238   5.405  -1.195  1.00  0.00     0.198 A 
ATOM     93  F   UNL     1     -15.578   3.831  -0.920  1.00  0.00    -0.203 F 
ATOM     94  F   UNL     1     -17.198   9.010  -1.005  1.00  0.00    -0.200 F 
ATOM     95  C   UNL     1     -17.666   6.713  -1.266  1.00  0.00     0.200 A 
ATOM     96  F   UNL     1     -18.083   4.396  -1.446  1.00  0.00    -0.200 F 
ATOM     97  F   UNL     1     -18.919   6.987  -1.644  1.00  0.00    -0.200 F 
ENDBRANCH  64  87
ENDBRANCH  38  39
ENDBRANCH  31  33
ENDBRANCH  30  31
ENDBRANCH  29  30
ENDBRANCH  28  29
ENDBRANCH  27  28
ENDBRANCH   1  27
TORSDOF 17
