REMARK SMILES O=C(OCCOCCOC(=O)[C@@H]1CS[C@H](c2ncc(-c3ccccc3)s2)[NH2+]1)c1ccc(-c2c3nc(c(-c4c(F)c(F)c(F)c(F)c4F)c4ccc([nH]4)c(-c4c(F)c(F)c(F)c(F)c4F)c4nc(c(-c5c(F)c(F)c(F)c(F)c5F)c5ccc2[nH]5)C=C4)C=C3)cc1
REMARK SMILES IDX 6 1 5 2 4 3 3 4 2 5 1 6 28 7 29 8 90 9 30 10 89 11 31 12
REMARK SMILES IDX 32 13 33 14 83 15 34 16 88 17 82 18 84 19 35 20 87 21 81 22
REMARK SMILES IDX 80 23 36 25 68 26 48 27 67 28 49 29 52 30 66 31 85 32 50 33
REMARK SMILES IDX 51 34 65 36 86 37 53 38 37 39 38 40 46 41 39 42 40 43 44 44
REMARK SMILES IDX 47 45 41 46 42 47 45 48 43 49 69 50 70 51 78 52 71 53 72 54
REMARK SMILES IDX 76 55 79 56 73 57 74 58 77 59 75 60 54 61 55 62 63 63 56 64
REMARK SMILES IDX 57 65 61 66 64 67 58 68 59 69 62 70 60 71 7 72 8 73 9 74
REMARK SMILES IDX 10 75 11 76 12 77 13 78 27 79 14 80 15 81 16 84 17 85 26 86
REMARK SMILES IDX 18 87 19 88 20 89 21 90 25 91 22 92 24 93 23 94
REMARK H PARENT 84 24 52 35 27 82 27 83
REMARK Flexibility Score: inf
ROOT
ATOM      1  O   UNL     1       7.112  -2.464   0.704  1.00  0.00    -0.374 OA
ENDROOT
BRANCH   1   2
ATOM      2  C   UNL     1       5.890  -3.027   1.183  1.00  0.00     0.202 C 
BRANCH   2   3
ATOM      3  C   UNL     1       5.600  -2.827   2.673  1.00  0.00     0.261 C 
BRANCH   3   4
ATOM      4  O   UNL     1       5.700  -1.444   3.030  1.00  0.00    -0.460 OA
BRANCH   4   5
ATOM      5  C   UNL     1       6.825  -0.784   3.392  1.00  0.00     0.338 C 
ATOM      6  O   UNL     1       6.791   0.442   3.485  1.00  0.00    -0.246 OA
BRANCH   5   7
ATOM      7  C   UNL     1       8.097  -1.477   3.752  1.00  0.00     0.060 A 
ATOM      8  C   UNL     1       8.554  -2.668   3.185  1.00  0.00     0.016 A 
ATOM      9  C   UNL     1       8.920  -0.834   4.691  1.00  0.00     0.016 A 
ATOM     10  C   UNL     1       9.757  -3.232   3.546  1.00  0.00     0.010 A 
ATOM     11  C   UNL     1      10.149  -1.385   5.057  1.00  0.00     0.010 A 
ATOM     12  C   UNL     1      10.554  -2.592   4.483  1.00  0.00    -0.014 A 
BRANCH  12  13
ATOM     13  C   UNL     1      11.734  -3.333   4.929  1.00  0.00     0.031 A 
ATOM     14  C   UNL     1      11.602  -4.150   6.168  1.00  0.00     0.074 A 
ATOM     15  C   UNL     1      12.791  -3.416   4.105  1.00  0.00     0.049 A 
ATOM     16  N   UNL     1      12.496  -4.870   6.781  1.00  0.00    -0.248 NA
ATOM     17  C   UNL     1      10.269  -4.170   6.798  1.00  0.00     0.031 C 
ATOM     18  C   UNL     1      12.880  -2.778   2.789  1.00  0.00     0.029 A 
ATOM     19  N   UNL     1      13.955  -4.118   4.219  1.00  0.00    -0.354 N 
ATOM     20  C   UNL     1      11.856  -5.373   7.904  1.00  0.00     0.074 A 
ATOM     21  C   UNL     1      10.487  -4.917   7.867  1.00  0.00     0.031 C 
ATOM     22  C   UNL     1      14.024  -3.158   2.198  1.00  0.00     0.029 A 
ATOM     23  C   UNL     1      14.778  -3.990   3.128  1.00  0.00     0.049 A 
ATOM     24  H   UNL     1      14.183  -4.662   5.007  1.00  0.00     0.167 HD
ATOM     25  C   UNL     1      12.403  -6.113   8.894  1.00  0.00     0.037 A 
ATOM     26  C   UNL     1      16.018  -4.475   2.941  1.00  0.00     0.037 A 
ATOM     27  C   UNL     1      13.779  -6.529   8.870  1.00  0.00     0.049 A 
ATOM     28  C   UNL     1      16.627  -5.249   4.082  1.00  0.00     0.074 A 
ATOM     29  C   UNL     1      14.510  -7.181   9.842  1.00  0.00     0.029 A 
ATOM     30  N   UNL     1      14.632  -6.322   7.789  1.00  0.00    -0.354 N 
ATOM     31  N   UNL     1      16.076  -5.615   5.218  1.00  0.00    -0.248 NA
ATOM     32  C   UNL     1      18.032  -5.642   3.940  1.00  0.00     0.031 C 
ATOM     33  C   UNL     1      15.821  -7.320   9.369  1.00  0.00     0.029 A 
ATOM     34  C   UNL     1      15.890  -6.818   8.075  1.00  0.00     0.049 A 
ATOM     35  H   UNL     1      14.377  -5.886   6.944  1.00  0.00     0.167 HD
ATOM     36  C   UNL     1      17.064  -6.278   5.929  1.00  0.00     0.074 A 
ATOM     37  C   UNL     1      18.239  -6.293   5.077  1.00  0.00     0.031 C 
ATOM     38  C   UNL     1      17.020  -6.810   7.177  1.00  0.00     0.037 A 
BRANCH  25  39
ATOM     39  C   UNL     1      11.552  -6.363  10.102  1.00  0.00     0.064 A 
ATOM     40  C   UNL     1      10.432  -7.209  10.078  1.00  0.00     0.173 A 
ATOM     41  C   UNL     1      11.817  -5.666  11.292  1.00  0.00     0.173 A 
ATOM     42  F   UNL     1      10.108  -7.868   8.955  1.00  0.00    -0.203 F 
ATOM     43  C   UNL     1       9.589  -7.314  11.183  1.00  0.00     0.198 A 
ATOM     44  C   UNL     1      10.991  -5.798  12.405  1.00  0.00     0.198 A 
ATOM     45  F   UNL     1      12.864  -4.831  11.367  1.00  0.00    -0.203 F 
ATOM     46  F   UNL     1       8.481  -8.064  11.110  1.00  0.00    -0.200 F 
ATOM     47  C   UNL     1       9.870  -6.611  12.345  1.00  0.00     0.200 A 
ATOM     48  F   UNL     1      11.266  -5.117  13.525  1.00  0.00    -0.200 F 
ATOM     49  F   UNL     1       9.049  -6.699  13.401  1.00  0.00    -0.200 F 
ENDBRANCH  25  39
BRANCH  26  50
ATOM     50  C   UNL     1      16.761  -4.195   1.683  1.00  0.00     0.064 A 
ATOM     51  C   UNL     1      17.158  -5.232   0.828  1.00  0.00     0.173 A 
ATOM     52  C   UNL     1      17.084  -2.883   1.298  1.00  0.00     0.173 A 
ATOM     53  F   UNL     1      16.889  -6.506   1.151  1.00  0.00    -0.203 F 
ATOM     54  C   UNL     1      17.859  -4.971  -0.350  1.00  0.00     0.198 A 
ATOM     55  C   UNL     1      17.751  -2.620   0.103  1.00  0.00     0.198 A 
ATOM     56  F   UNL     1      16.734  -1.848   2.075  1.00  0.00    -0.203 F 
ATOM     57  F   UNL     1      18.266  -5.987  -1.123  1.00  0.00    -0.200 F 
ATOM     58  C   UNL     1      18.147  -3.665  -0.716  1.00  0.00     0.200 A 
ATOM     59  F   UNL     1      18.008  -1.354  -0.254  1.00  0.00    -0.200 F 
ATOM     60  F   UNL     1      18.812  -3.414  -1.852  1.00  0.00    -0.200 F 
ENDBRANCH  26  50
BRANCH  38  61
ATOM     61  C   UNL     1      18.270  -7.473   7.671  1.00  0.00     0.064 A 
ATOM     62  C   UNL     1      19.394  -6.729   8.053  1.00  0.00     0.173 A 
ATOM     63  C   UNL     1      18.308  -8.866   7.832  1.00  0.00     0.173 A 
ATOM     64  F   UNL     1      19.405  -5.396   7.904  1.00  0.00    -0.203 F 
ATOM     65  C   UNL     1      20.523  -7.360   8.565  1.00  0.00     0.198 A 
ATOM     66  C   UNL     1      19.425  -9.489   8.375  1.00  0.00     0.198 A 
ATOM     67  F   UNL     1      17.250  -9.616   7.488  1.00  0.00    -0.203 F 
ATOM     68  F   UNL     1      21.603  -6.636   8.887  1.00  0.00    -0.200 F 
ATOM     69  C   UNL     1      20.533  -8.737   8.736  1.00  0.00     0.200 A 
ATOM     70  F   UNL     1      19.427 -10.817   8.557  1.00  0.00    -0.200 F 
ATOM     71  F   UNL     1      21.615  -9.341   9.246  1.00  0.00    -0.200 F 
ENDBRANCH  38  61
ENDBRANCH  12  13
ENDBRANCH   5   7
ENDBRANCH   4   5
ENDBRANCH   3   4
ENDBRANCH   2   3
ENDBRANCH   1   2
BRANCH   1  72
ATOM     72  C   UNL     1       7.008  -1.156   0.146  1.00  0.00     0.202 C 
BRANCH  72  73
ATOM     73  C   UNL     1       6.843  -1.200  -1.372  1.00  0.00     0.261 C 
BRANCH  73  74
ATOM     74  O   UNL     1       5.714  -2.017  -1.745  1.00  0.00    -0.459 OA
BRANCH  74  75
ATOM     75  C   UNL     1       6.032  -3.305  -2.080  1.00  0.00     0.365 C 
ATOM     76  O   UNL     1       7.176  -3.743  -2.099  1.00  0.00    -0.245 OA
BRANCH  75  77
ATOM     77  C   UNL     1       4.766  -4.105  -2.429  1.00  0.00     0.304 C 
ATOM     78  C   UNL     1       3.998  -4.566  -1.190  1.00  0.00     0.153 C 
ATOM     79  N   UNL     1       5.105  -5.272  -3.313  1.00  0.00    -0.317 N 
ATOM     80  S   UNL     1       3.480  -6.247  -1.561  1.00  0.00    -0.085 SA
ATOM     81  C   UNL     1       4.993  -6.524  -2.534  1.00  0.00     0.303 C 
ATOM     82  H   UNL     1       6.059  -5.170  -3.660  1.00  0.00     0.348 HD
ATOM     83  H   UNL     1       4.459  -5.301  -4.102  1.00  0.00     0.348 HD
BRANCH  81  84
ATOM     84  C   UNL     1       6.207  -6.887  -1.676  1.00  0.00     0.162 A 
ATOM     85  N   UNL     1       6.153  -7.362  -0.441  1.00  0.00    -0.242 NA
ATOM     86  S   UNL     1       7.814  -6.791  -2.325  1.00  0.00    -0.112 S 
ATOM     87  C   UNL     1       7.430  -7.550   0.052  1.00  0.00     0.132 A 
ATOM     88  C   UNL     1       8.459  -7.183  -0.788  1.00  0.00     0.055 A 
BRANCH  88  89
ATOM     89  C   UNL     1       9.886  -7.080  -0.501  1.00  0.00    -0.007 A 
ATOM     90  C   UNL     1      10.345  -6.030   0.308  1.00  0.00     0.009 A 
ATOM     91  C   UNL     1      10.801  -8.032  -0.962  1.00  0.00     0.009 A 
ATOM     92  C   UNL     1      11.693  -5.944   0.662  1.00  0.00     0.001 A 
ATOM     93  C   UNL     1      12.152  -7.940  -0.610  1.00  0.00     0.001 A 
ATOM     94  C   UNL     1      12.597  -6.900   0.207  1.00  0.00     0.000 A 
ENDBRANCH  88  89
ENDBRANCH  81  84
ENDBRANCH  75  77
ENDBRANCH  74  75
ENDBRANCH  73  74
ENDBRANCH  72  73
ENDBRANCH   1  72
TORSDOF 16
