REMARK SMILES CCOc1ccc(C(=O)N2CCC(C(=O)OCCOCCOC(=O)c3ccc(-c4c5nc(c(-c6c(F)c(F)c(F)c(F)c6F)c6ccc([nH]6)c(-c6c(F)c(F)c(F)c(F)c6F)c6nc(c(-c7c(F)c(F)c(F)c(F)c7F)c7ccc4[nH]7)C=C6)C=C5)cc3)(c3ccccc3)CC2)cc1OC
REMARK SMILES IDX 18 1 17 2 16 3 14 4 15 5 13 6 8 7 9 8 10 9 11 10 95 11 12 12
REMARK SMILES IDX 94 13 7 14 4 15 5 16 97 17 6 18 96 19 3 20 2 21 1 22 98 23
REMARK SMILES IDX 99 24 88 25 89 26 93 27 90 28 92 29 91 30 19 31 20 32 21 33
REMARK SMILES IDX 22 34 23 35 24 36 25 37 26 38 87 39 27 40 86 41 28 42 29 43
REMARK SMILES IDX 30 44 80 45 31 46 85 47 79 48 81 49 32 50 84 51 78 52 77 53
REMARK SMILES IDX 33 55 65 56 45 57 64 58 46 59 49 60 63 61 82 62 47 63 48 64
REMARK SMILES IDX 62 66 83 67 50 68 34 69 35 70 43 71 36 72 37 73 41 74 44 75
REMARK SMILES IDX 38 76 39 77 42 78 40 79 66 80 67 81 75 82 68 83 69 84 73 85
REMARK SMILES IDX 76 86 70 87 71 88 74 89 72 90 51 91 52 92 60 93 53 94 54 95
REMARK SMILES IDX 58 96 61 97 55 98 56 99 59 100 57 101
REMARK H PARENT 81 54 49 65
REMARK Flexibility Score: inf
ROOT
ATOM      1  C   UNL     1      13.539  -0.173  -4.197  1.00  0.00     0.202 C 
ENDROOT
BRANCH   1   2
ATOM      2  C   UNL     1      12.233   0.204  -4.900  1.00  0.00     0.261 C 
BRANCH   2   3
ATOM      3  O   UNL     1      11.194   0.505  -3.959  1.00  0.00    -0.463 OA
BRANCH   3   4
ATOM      4  C   UNL     1      10.028  -0.176  -4.131  1.00  0.00     0.316 C 
ATOM      5  O   UNL     1       9.792  -0.880  -5.109  1.00  0.00    -0.251 OA
BRANCH   4   6
ATOM      6  C   UNL     1       9.015   0.023  -2.965  1.00  0.00     0.096 C 
ATOM      7  C   UNL     1       6.374   2.976  -1.080  1.00  0.00     0.253 C 
ATOM      8  O   UNL     1       6.804   3.931  -0.439  1.00  0.00    -0.269 OA
ATOM      9  N   UNL     1       7.203   2.067  -1.758  1.00  0.00    -0.339 N 
ATOM     10  C   UNL     1       8.438   1.712  -1.075  1.00  0.00     0.121 C 
ATOM     11  C   UNL     1       6.727   1.249  -2.873  1.00  0.00     0.121 C 
ATOM     12  C   UNL     1       9.515   1.077  -1.944  1.00  0.00     0.045 C 
ATOM     13  C   UNL     1       7.819   0.646  -3.730  1.00  0.00     0.045 C 
BRANCH   7  14
ATOM     14  C   UNL     1       4.915   2.690  -1.019  1.00  0.00     0.043 A 
ATOM     15  C   UNL     1       2.199   2.073  -0.799  1.00  0.00     0.161 A 
ATOM     16  C   UNL     1       2.613   3.404  -0.973  1.00  0.00     0.051 A 
ATOM     17  C   UNL     1       3.139   1.045  -0.741  1.00  0.00     0.161 A 
ATOM     18  C   UNL     1       3.974   3.715  -1.085  1.00  0.00     0.018 A 
ATOM     19  C   UNL     1       4.489   1.380  -0.773  1.00  0.00     0.064 A 
BRANCH  15  20
ATOM     20  O   UNL     1       0.861   1.806  -0.710  1.00  0.00    -0.490 OA
BRANCH  20  21
ATOM     21  C   UNL     1       0.348   2.090   0.598  1.00  0.00     0.226 C 
ATOM     22  C   UNL     1      -0.244   0.818   1.176  1.00  0.00     0.049 C 
ENDBRANCH  20  21
ENDBRANCH  15  20
BRANCH  17  23
ATOM     23  O   UNL     1       2.915  -0.293  -0.584  1.00  0.00    -0.493 OA
ATOM     24  C   UNL     1       1.768  -0.841  -1.220  1.00  0.00     0.278 C 
ENDBRANCH  17  23
ENDBRANCH   7  14
BRANCH   6  25
ATOM     25  C   UNL     1       8.707  -1.343  -2.276  1.00  0.00    -0.031 A 
ATOM     26  C   UNL     1       9.482  -2.496  -2.529  1.00  0.00     0.005 A 
ATOM     27  C   UNL     1       7.661  -1.506  -1.350  1.00  0.00     0.005 A 
ATOM     28  C   UNL     1       9.192  -3.734  -1.936  1.00  0.00     0.000 A 
ATOM     29  C   UNL     1       7.365  -2.741  -0.757  1.00  0.00     0.000 A 
ATOM     30  C   UNL     1       8.126  -3.860  -1.057  1.00  0.00     0.000 A 
ENDBRANCH   6  25
ENDBRANCH   4   6
ENDBRANCH   3   4
ENDBRANCH   2   3
ENDBRANCH   1   2
BRANCH   1  31
ATOM     31  O   UNL     1      13.466  -1.216  -3.230  1.00  0.00    -0.374 OA
BRANCH  31  32
ATOM     32  C   UNL     1      12.863  -0.920  -1.968  1.00  0.00     0.202 C 
BRANCH  32  33
ATOM     33  C   UNL     1      13.588   0.076  -1.055  1.00  0.00     0.261 C 
BRANCH  33  34
ATOM     34  O   UNL     1      13.547   1.424  -1.565  1.00  0.00    -0.460 OA
BRANCH  34  35
ATOM     35  C   UNL     1      14.762   1.972  -1.815  1.00  0.00     0.338 C 
ATOM     36  O   UNL     1      15.855   1.473  -1.619  1.00  0.00    -0.246 OA
BRANCH  35  37
ATOM     37  C   UNL     1      14.609   3.244  -2.545  1.00  0.00     0.060 A 
ATOM     38  C   UNL     1      15.251   3.366  -3.785  1.00  0.00     0.016 A 
ATOM     39  C   UNL     1      13.964   4.338  -1.966  1.00  0.00     0.016 A 
ATOM     40  C   UNL     1      15.299   4.601  -4.428  1.00  0.00     0.010 A 
ATOM     41  C   UNL     1      14.024   5.579  -2.607  1.00  0.00     0.010 A 
ATOM     42  C   UNL     1      14.726   5.724  -3.818  1.00  0.00    -0.014 A 
BRANCH  42  43
ATOM     43  C   UNL     1      15.010   7.079  -4.348  1.00  0.00     0.031 A 
ATOM     44  C   UNL     1      16.105   7.888  -3.710  1.00  0.00     0.074 A 
ATOM     45  C   UNL     1      14.311   7.580  -5.380  1.00  0.00     0.049 A 
ATOM     46  N   UNL     1      16.461   9.128  -3.929  1.00  0.00    -0.248 NA
ATOM     47  C   UNL     1      16.907   7.204  -2.682  1.00  0.00     0.031 C 
ATOM     48  C   UNL     1      13.266   6.872  -6.114  1.00  0.00     0.029 A 
ATOM     49  N   UNL     1      14.367   8.816  -5.975  1.00  0.00    -0.354 N 
ATOM     50  C   UNL     1      17.514   9.377  -3.058  1.00  0.00     0.074 A 
ATOM     51  C   UNL     1      17.731   8.167  -2.295  1.00  0.00     0.031 C 
ATOM     52  C   UNL     1      12.761   7.694  -7.051  1.00  0.00     0.029 A 
ATOM     53  C   UNL     1      13.421   8.995  -6.953  1.00  0.00     0.049 A 
ATOM     54  H   UNL     1      15.022   9.506  -5.725  1.00  0.00     0.167 HD
ATOM     55  C   UNL     1      18.235  10.514  -2.909  1.00  0.00     0.037 A 
ATOM     56  C   UNL     1      13.105  10.096  -7.662  1.00  0.00     0.037 A 
ATOM     57  C   UNL     1      18.017  11.714  -3.671  1.00  0.00     0.049 A 
ATOM     58  C   UNL     1      13.874  11.371  -7.430  1.00  0.00     0.074 A 
ATOM     59  C   UNL     1      18.696  12.918  -3.601  1.00  0.00     0.029 A 
ATOM     60  N   UNL     1      17.038  11.862  -4.643  1.00  0.00    -0.354 N 
ATOM     61  N   UNL     1      14.870  11.600  -6.608  1.00  0.00    -0.248 NA
ATOM     62  C   UNL     1      13.473  12.542  -8.223  1.00  0.00     0.031 C 
ATOM     63  C   UNL     1      18.100  13.808  -4.501  1.00  0.00     0.029 A 
ATOM     64  C   UNL     1      17.084  13.143  -5.167  1.00  0.00     0.049 A 
ATOM     65  H   UNL     1      16.406  11.160  -4.920  1.00  0.00     0.167 HD
ATOM     66  C   UNL     1      15.236  12.924  -6.809  1.00  0.00     0.074 A 
ATOM     67  C   UNL     1      14.357  13.450  -7.833  1.00  0.00     0.031 C 
ATOM     68  C   UNL     1      16.214  13.641  -6.202  1.00  0.00     0.037 A 
BRANCH  55  69
ATOM     69  C   UNL     1      19.306  10.522  -1.860  1.00  0.00     0.064 A 
ATOM     70  C   UNL     1      20.505   9.813  -2.025  1.00  0.00     0.173 A 
ATOM     71  C   UNL     1      19.143  11.273  -0.686  1.00  0.00     0.173 A 
ATOM     72  F   UNL     1      20.704   9.067  -3.122  1.00  0.00    -0.203 F 
ATOM     73  C   UNL     1      21.492   9.837  -1.042  1.00  0.00     0.198 A 
ATOM     74  C   UNL     1      20.142  11.316   0.282  1.00  0.00     0.198 A 
ATOM     75  F   UNL     1      18.016  11.971  -0.482  1.00  0.00    -0.203 F 
ATOM     76  F   UNL     1      22.612   9.118  -1.200  1.00  0.00    -0.200 F 
ATOM     77  C   UNL     1      21.312  10.594   0.107  1.00  0.00     0.200 A 
ATOM     78  F   UNL     1      19.971  12.056   1.387  1.00  0.00    -0.200 F 
ATOM     79  F   UNL     1      22.265  10.620   1.049  1.00  0.00    -0.200 F 
ENDBRANCH  55  69
BRANCH  56  80
ATOM     80  C   UNL     1      11.994  10.049  -8.647  1.00  0.00     0.064 A 
ATOM     81  C   UNL     1      12.243  10.138 -10.023  1.00  0.00     0.173 A 
ATOM     82  C   UNL     1      10.659   9.927  -8.232  1.00  0.00     0.173 A 
ATOM     83  F   UNL     1      13.500  10.282 -10.467  1.00  0.00    -0.203 F 
ATOM     84  C   UNL     1      11.199  10.122 -10.946  1.00  0.00     0.198 A 
ATOM     85  C   UNL     1       9.618   9.884  -9.156  1.00  0.00     0.198 A 
ATOM     86  F   UNL     1      10.367   9.842  -6.926  1.00  0.00    -0.203 F 
ATOM     87  F   UNL     1      11.462  10.252 -12.253  1.00  0.00    -0.200 F 
ATOM     88  C   UNL     1       9.888   9.989 -10.512  1.00  0.00     0.200 A 
ATOM     89  F   UNL     1       8.354   9.746  -8.734  1.00  0.00    -0.200 F 
ATOM     90  F   UNL     1       8.885   9.970 -11.401  1.00  0.00    -0.200 F 
ENDBRANCH  56  80
BRANCH  68  91
ATOM     91  C   UNL     1      16.427  15.052  -6.664  1.00  0.00     0.064 A 
ATOM     92  C   UNL     1      15.539  16.082  -6.325  1.00  0.00     0.173 A 
ATOM     93  C   UNL     1      17.570  15.385  -7.409  1.00  0.00     0.173 A 
ATOM     94  F   UNL     1      14.426  15.812  -5.627  1.00  0.00    -0.203 F 
ATOM     95  C   UNL     1      15.778  17.393  -6.730  1.00  0.00     0.198 A 
ATOM     96  C   UNL     1      17.819  16.700  -7.788  1.00  0.00     0.198 A 
ATOM     97  F   UNL     1      18.453  14.436  -7.752  1.00  0.00    -0.203 F 
ATOM     98  F   UNL     1      14.898  18.357  -6.427  1.00  0.00    -0.200 F 
ATOM     99  C   UNL     1      16.921  17.702  -7.454  1.00  0.00     0.200 A 
ATOM    100  F   UNL     1      18.930  16.999  -8.476  1.00  0.00    -0.200 F 
ATOM    101  F   UNL     1      17.154  18.966  -7.832  1.00  0.00    -0.200 F 
ENDBRANCH  68  91
ENDBRANCH  42  43
ENDBRANCH  35  37
ENDBRANCH  34  35
ENDBRANCH  33  34
ENDBRANCH  32  33
ENDBRANCH  31  32
ENDBRANCH   1  31
TORSDOF 19
