REMARK SMILES O=C(C[C@@H]1CN(C(=O)NCc2cccs2)CCO1)OCCOCCOC(=O)c1ccc(-c2c3nc(c(-c4c(F)c(F)c(F)c(F)c4F)c4ccc([nH]4)c(-c4c(F)c(F)c(F)c(F)c4F)c4nc(c(-c5c(F)c(F)c(F)c(F)c5F)c5ccc2[nH]5)C=C4)C=C3)cc1
REMARK SMILES IDX 21 1 20 2 19 3 2 4 1 5 3 6 4 7 5 8 18 9 6 10 17 11 16 12
REMARK SMILES IDX 7 13 8 14 9 15 10 17 11 18 12 19 15 20 13 21 14 22 22 23
REMARK SMILES IDX 23 24 24 25 25 26 26 27 27 28 28 29 29 30 90 31 30 32 89 33
REMARK SMILES IDX 31 34 32 35 33 36 83 37 34 38 88 39 82 40 84 41 35 42 87 43
REMARK SMILES IDX 81 44 80 45 36 47 68 48 48 49 67 50 49 51 52 52 66 53 85 54
REMARK SMILES IDX 50 55 51 56 65 58 86 59 53 60 37 61 38 62 46 63 39 64 40 65
REMARK SMILES IDX 44 66 47 67 41 68 42 69 45 70 43 71 69 72 70 73 78 74 71 75
REMARK SMILES IDX 72 76 76 77 79 78 73 79 74 80 77 81 75 82 54 83 55 84 63 85
REMARK SMILES IDX 56 86 57 87 61 88 64 89 58 90 59 91 62 92 60 93
REMARK H PARENT 9 16 84 46 52 57
REMARK Flexibility Score: inf
ROOT
ATOM      1  C   UNL     1       4.734  -0.059   1.080  1.00  0.00     0.202 C 
ENDROOT
BRANCH   1   2
ATOM      2  C   UNL     1       4.230   1.033   0.146  1.00  0.00     0.261 C 
BRANCH   2   3
ATOM      3  O   UNL     1       2.809   1.094   0.001  1.00  0.00    -0.463 OA
BRANCH   3   4
ATOM      4  C   UNL     1       2.088   0.520  -0.988  1.00  0.00     0.308 C 
ATOM      5  O   UNL     1       0.901   0.825  -1.110  1.00  0.00    -0.252 OA
BRANCH   4   6
ATOM      6  C   UNL     1       2.650  -0.629  -1.786  1.00  0.00     0.156 C 
BRANCH   6   7
ATOM      7  C   UNL     1       3.794  -0.389  -2.767  1.00  0.00     0.149 C 
ATOM      8  C   UNL     1       5.017  -1.249  -2.363  1.00  0.00     0.154 C 
ATOM      9  O   UNL     1       4.117   1.005  -2.881  1.00  0.00    -0.374 OA
ATOM     10  N   UNL     1       6.126  -1.006  -3.272  1.00  0.00    -0.320 N 
ATOM     11  C   UNL     1       5.237   1.232  -3.756  1.00  0.00     0.182 C 
ATOM     12  C   UNL     1       6.467   0.421  -3.323  1.00  0.00     0.150 C 
BRANCH  10  13
ATOM     13  C   UNL     1       6.620  -1.822  -4.243  1.00  0.00     0.317 C 
ATOM     14  O   UNL     1       7.310  -1.375  -5.165  1.00  0.00    -0.249 OA
ATOM     15  N   UNL     1       6.396  -3.144  -4.283  1.00  0.00    -0.333 N 
ATOM     16  H   UNL     1       6.632  -3.530  -5.158  1.00  0.00     0.165 HD
BRANCH  15  17
ATOM     17  C   UNL     1       5.896  -4.148  -3.368  1.00  0.00     0.164 C 
BRANCH  17  18
ATOM     18  C   UNL     1       4.599  -4.726  -3.870  1.00  0.00     0.024 A 
ATOM     19  C   UNL     1       4.256  -6.064  -3.963  1.00  0.00     0.017 A 
ATOM     20  S   UNL     1       3.305  -3.734  -4.414  1.00  0.00    -0.147 S 
ATOM     21  C   UNL     1       2.949  -6.265  -4.495  1.00  0.00     0.012 A 
ATOM     22  C   UNL     1       2.322  -5.076  -4.784  1.00  0.00     0.065 A 
ENDBRANCH  17  18
ENDBRANCH  15  17
ENDBRANCH  10  13
ENDBRANCH   6   7
ENDBRANCH   4   6
ENDBRANCH   3   4
ENDBRANCH   2   3
ENDBRANCH   1   2
BRANCH   1  23
ATOM     23  O   UNL     1       4.149  -1.350   0.973  1.00  0.00    -0.374 OA
BRANCH  23  24
ATOM     24  C   UNL     1       2.902  -1.543   1.656  1.00  0.00     0.202 C 
BRANCH  24  25
ATOM     25  C   UNL     1       2.957  -1.671   3.186  1.00  0.00     0.261 C 
BRANCH  25  26
ATOM     26  O   UNL     1       3.312  -0.428   3.818  1.00  0.00    -0.460 OA
BRANCH  26  27
ATOM     27  C   UNL     1       4.575  -0.371   4.301  1.00  0.00     0.338 C 
ATOM     28  O   UNL     1       5.386  -1.285   4.362  1.00  0.00    -0.246 OA
BRANCH  27  29
ATOM     29  C   UNL     1       4.954   1.039   4.525  1.00  0.00     0.060 A 
ATOM     30  C   UNL     1       6.206   1.456   4.049  1.00  0.00     0.016 A 
ATOM     31  C   UNL     1       4.123   1.926   5.213  1.00  0.00     0.016 A 
ATOM     32  C   UNL     1       6.680   2.727   4.351  1.00  0.00     0.010 A 
ATOM     33  C   UNL     1       4.603   3.200   5.526  1.00  0.00     0.010 A 
ATOM     34  C   UNL     1       5.909   3.572   5.157  1.00  0.00    -0.014 A 
BRANCH  34  35
ATOM     35  C   UNL     1       6.580   4.699   5.845  1.00  0.00     0.031 A 
ATOM     36  C   UNL     1       7.032   4.482   7.265  1.00  0.00     0.074 A 
ATOM     37  C   UNL     1       6.835   5.855   5.212  1.00  0.00     0.049 A 
ATOM     38  N   UNL     1       7.635   5.302   8.086  1.00  0.00    -0.248 NA
ATOM     39  C   UNL     1       6.758   3.154   7.840  1.00  0.00     0.031 C 
ATOM     40  C   UNL     1       6.490   6.153   3.825  1.00  0.00     0.029 A 
ATOM     41  N   UNL     1       7.452   6.993   5.662  1.00  0.00    -0.354 N 
ATOM     42  C   UNL     1       7.793   4.597   9.273  1.00  0.00     0.074 A 
ATOM     43  C   UNL     1       7.192   3.297   9.081  1.00  0.00     0.031 C 
ATOM     44  C   UNL     1       6.901   7.400   3.534  1.00  0.00     0.029 A 
ATOM     45  C   UNL     1       7.509   7.993   4.724  1.00  0.00     0.049 A 
ATOM     46  H   UNL     1       7.818   7.085   6.572  1.00  0.00     0.167 HD
ATOM     47  C   UNL     1       8.395   4.995  10.418  1.00  0.00     0.037 A 
ATOM     48  C   UNL     1       7.991   9.246   4.829  1.00  0.00     0.037 A 
ATOM     49  C   UNL     1       8.998   6.289  10.593  1.00  0.00     0.049 A 
ATOM     50  C   UNL     1       8.605   9.687   6.134  1.00  0.00     0.074 A 
ATOM     51  C   UNL     1       9.655   6.793  11.701  1.00  0.00     0.029 A 
ATOM     52  N   UNL     1       9.010   7.288   9.630  1.00  0.00    -0.354 N 
ATOM     53  N   UNL     1       8.775   9.009   7.245  1.00  0.00    -0.248 NA
ATOM     54  C   UNL     1       9.107  11.066   6.193  1.00  0.00     0.031 C 
ATOM     55  C   UNL     1      10.007   8.119  11.431  1.00  0.00     0.029 A 
ATOM     56  C   UNL     1       9.640   8.416  10.127  1.00  0.00     0.049 A 
ATOM     57  H   UNL     1       8.627   7.206   8.727  1.00  0.00     0.167 HD
ATOM     58  C   UNL     1       9.443   9.861   8.116  1.00  0.00     0.074 A 
ATOM     59  C   UNL     1       9.652  11.103   7.400  1.00  0.00     0.031 C 
ATOM     60  C   UNL     1       9.854   9.637   9.390  1.00  0.00     0.037 A 
BRANCH  47  61
ATOM     61  C   UNL     1       8.386   4.038  11.576  1.00  0.00     0.064 A 
ATOM     62  C   UNL     1       9.118   2.840  11.561  1.00  0.00     0.173 A 
ATOM     63  C   UNL     1       7.634   4.329  12.725  1.00  0.00     0.173 A 
ATOM     64  F   UNL     1       9.839   2.502  10.481  1.00  0.00    -0.203 F 
ATOM     65  C   UNL     1       9.068   1.955  12.636  1.00  0.00     0.198 A 
ATOM     66  C   UNL     1       7.616   3.459  13.812  1.00  0.00     0.198 A 
ATOM     67  F   UNL     1       6.915   5.459  12.794  1.00  0.00    -0.203 F 
ATOM     68  F   UNL     1       9.724   0.788  12.572  1.00  0.00    -0.200 F 
ATOM     69  C   UNL     1       8.324   2.269  13.763  1.00  0.00     0.200 A 
ATOM     70  F   UNL     1       6.906   3.772  14.905  1.00  0.00    -0.200 F 
ATOM     71  F   UNL     1       8.280   1.418  14.798  1.00  0.00    -0.200 F 
ENDBRANCH  47  61
BRANCH  48  72
ATOM     72  C   UNL     1       7.930  10.168   3.665  1.00  0.00     0.064 A 
ATOM     73  C   UNL     1       9.100  10.595   3.020  1.00  0.00     0.173 A 
ATOM     74  C   UNL     1       6.706  10.656   3.183  1.00  0.00     0.173 A 
ATOM     75  F   UNL     1      10.296  10.175   3.457  1.00  0.00    -0.203 F 
ATOM     76  C   UNL     1       9.049  11.492   1.954  1.00  0.00     0.198 A 
ATOM     77  C   UNL     1       6.655  11.528   2.097  1.00  0.00     0.198 A 
ATOM     78  F   UNL     1       5.557  10.280   3.763  1.00  0.00    -0.203 F 
ATOM     79  F   UNL     1      10.186  11.923   1.391  1.00  0.00    -0.200 F 
ATOM     80  C   UNL     1       7.827  11.953   1.490  1.00  0.00     0.200 A 
ATOM     81  F   UNL     1       5.471  11.960   1.643  1.00  0.00    -0.200 F 
ATOM     82  F   UNL     1       7.779  12.813   0.463  1.00  0.00    -0.200 F 
ENDBRANCH  48  72
BRANCH  60  83
ATOM     83  C   UNL     1      10.636  10.729  10.065  1.00  0.00     0.064 A 
ATOM     84  C   UNL     1      10.050  11.947  10.440  1.00  0.00     0.173 A 
ATOM     85  C   UNL     1      11.995  10.537  10.362  1.00  0.00     0.173 A 
ATOM     86  F   UNL     1       8.758  12.185  10.171  1.00  0.00    -0.203 F 
ATOM     87  C   UNL     1      10.806  12.947  11.046  1.00  0.00     0.198 A 
ATOM     88  C   UNL     1      12.737  11.524  11.004  1.00  0.00     0.198 A 
ATOM     89  F   UNL     1      12.604   9.386  10.038  1.00  0.00    -0.203 F 
ATOM     90  F   UNL     1      10.241  14.128  11.333  1.00  0.00    -0.200 F 
ATOM     91  C   UNL     1      12.145  12.733  11.334  1.00  0.00     0.200 A 
ATOM     92  F   UNL     1      14.026  11.305  11.300  1.00  0.00    -0.200 F 
ATOM     93  F   UNL     1      12.869  13.696  11.920  1.00  0.00    -0.200 F 
ENDBRANCH  60  83
ENDBRANCH  34  35
ENDBRANCH  27  29
ENDBRANCH  26  27
ENDBRANCH  25  26
ENDBRANCH  24  25
ENDBRANCH  23  24
ENDBRANCH   1  23
TORSDOF 18
