REMARK SMILES CNC(=O)NC1=[NH+]N=CN[C@@H]1C(=O)OCCOCCOC(=O)c1ccc(-c2c3nc(c(-c4c(F)c(F)c(F)c(F)c4F)c4ccc([nH]4)c(-c4c(F)c(F)c(F)c(F)c4F)c4nc(c(-c5c(F)c(F)c(F)c(F)c5F)c5ccc2[nH]5)C=C4)C=C3)cc1
REMARK SMILES IDX 18 1 17 2 16 3 15 4 14 5 12 6 13 7 11 8 1 9 2 10 3 11 4 13
REMARK SMILES IDX 5 14 6 15 7 17 8 18 10 20 9 21 19 23 20 24 21 25 22 26 23 27
REMARK SMILES IDX 24 28 85 29 25 30 84 31 26 32 27 33 28 34 78 35 29 36 83 37
REMARK SMILES IDX 77 38 79 39 30 40 82 41 76 42 75 43 31 45 63 46 43 47 62 48
REMARK SMILES IDX 44 49 47 50 61 51 80 52 45 53 46 54 60 56 81 57 48 58 32 59
REMARK SMILES IDX 33 60 41 61 34 62 35 63 39 64 42 65 36 66 37 67 40 68 38 69
REMARK SMILES IDX 64 70 65 71 73 72 66 73 67 74 71 75 74 76 68 77 69 78 72 79
REMARK SMILES IDX 70 80 49 81 50 82 58 83 51 84 52 85 56 86 59 87 53 88 54 89
REMARK SMILES IDX 57 90 55 91
REMARK H PARENT 2 12 5 16 7 19 10 22 79 44 47 55
REMARK Flexibility Score: inf
ROOT
ATOM      1  C   UNL     1      -2.405   3.214  -0.232  1.00  0.00     0.202 C 
ENDROOT
BRANCH   1   2
ATOM      2  O   UNL     1      -3.755   2.751  -0.261  1.00  0.00    -0.374 OA
BRANCH   2   3
ATOM      3  C   UNL     1      -4.435   2.557   0.977  1.00  0.00     0.202 C 
BRANCH   3   4
ATOM      4  C   UNL     1      -4.009   1.340   1.802  1.00  0.00     0.261 C 
BRANCH   4   5
ATOM      5  O   UNL     1      -2.606   1.387   2.100  1.00  0.00    -0.461 OA
BRANCH   5   6
ATOM      6  C   UNL     1      -1.894   0.273   1.748  1.00  0.00     0.341 C 
ATOM      7  O   UNL     1      -2.402  -0.762   1.335  1.00  0.00    -0.249 OA
BRANCH   6   8
ATOM      8  C   UNL     1      -0.382   0.512   1.794  1.00  0.00     0.308 C 
ATOM      9  C   UNL     1       1.898  -0.641  -0.437  1.00  0.00     0.147 C 
ATOM     10  N   UNL     1       0.729  -1.494  -0.449  1.00  0.00    -0.321 N 
ATOM     11  C   UNL     1       0.234  -2.236   0.575  1.00  0.00     0.406 C 
ATOM     12  H   UNL     1       0.234  -1.541  -1.299  1.00  0.00     0.167 HD
ATOM     13  O   UNL     1      -0.422  -3.244   0.337  1.00  0.00    -0.221 OA
ATOM     14  N   UNL     1       0.516  -1.849   1.854  1.00  0.00    -0.191 N 
ATOM     15  C   UNL     1       0.317  -0.648   2.492  1.00  0.00     0.311 C 
ATOM     16  H   UNL     1       0.930  -2.547   2.411  1.00  0.00     0.317 HD
ATOM     17  N   UNL     1       0.741  -0.600   3.719  1.00  0.00    -0.148 N 
ATOM     18  N   UNL     1       0.663   0.615   4.426  1.00  0.00    -0.077 NA
ATOM     19  H   UNL     1       1.113  -1.403   4.149  1.00  0.00     0.342 HD
ATOM     20  N   UNL     1      -0.032   1.762   2.472  1.00  0.00    -0.350 N 
ATOM     21  C   UNL     1       0.345   1.683   3.774  1.00  0.00     0.241 C 
ATOM     22  H   UNL     1      -0.068   2.627   2.002  1.00  0.00     0.163 HD
ENDBRANCH   6   8
ENDBRANCH   5   6
ENDBRANCH   4   5
ENDBRANCH   3   4
ENDBRANCH   2   3
ENDBRANCH   1   2
BRANCH   1  23
ATOM     23  C   UNL     1      -2.163   4.633   0.298  1.00  0.00     0.261 C 
BRANCH  23  24
ATOM     24  O   UNL     1      -2.439   4.744   1.710  1.00  0.00    -0.460 OA
BRANCH  24  25
ATOM     25  C   UNL     1      -3.341   5.708   2.025  1.00  0.00     0.338 C 
ATOM     26  O   UNL     1      -3.847   6.524   1.267  1.00  0.00    -0.246 OA
BRANCH  25  27
ATOM     27  C   UNL     1      -3.807   5.556   3.413  1.00  0.00     0.060 A 
ATOM     28  C   UNL     1      -5.171   5.310   3.612  1.00  0.00     0.016 A 
ATOM     29  C   UNL     1      -2.961   5.788   4.499  1.00  0.00     0.016 A 
ATOM     30  C   UNL     1      -5.706   5.343   4.898  1.00  0.00     0.010 A 
ATOM     31  C   UNL     1      -3.503   5.830   5.791  1.00  0.00     0.010 A 
ATOM     32  C   UNL     1      -4.883   5.648   5.990  1.00  0.00    -0.014 A 
BRANCH  32  33
ATOM     33  C   UNL     1      -5.514   5.931   7.303  1.00  0.00     0.031 A 
ATOM     34  C   UNL     1      -5.787   7.359   7.691  1.00  0.00     0.074 A 
ATOM     35  C   UNL     1      -5.902   4.928   8.110  1.00  0.00     0.049 A 
ATOM     36  N   UNL     1      -6.371   7.834   8.762  1.00  0.00    -0.248 NA
ATOM     37  C   UNL     1      -5.344   8.392   6.740  1.00  0.00     0.031 C 
ATOM     38  C   UNL     1      -5.726   3.505   7.830  1.00  0.00     0.029 A 
ATOM     39  N   UNL     1      -6.532   4.959   9.329  1.00  0.00    -0.354 N 
ATOM     40  C   UNL     1      -6.366   9.215   8.615  1.00  0.00     0.074 A 
ATOM     41  C   UNL     1      -5.694   9.506   7.367  1.00  0.00     0.031 C 
ATOM     42  C   UNL     1      -6.238   2.795   8.851  1.00  0.00     0.029 A 
ATOM     43  C   UNL     1      -6.758   3.714   9.862  1.00  0.00     0.049 A 
ATOM     44  H   UNL     1      -6.798   5.794   9.778  1.00  0.00     0.167 HD
ATOM     45  C   UNL     1      -6.884  10.155   9.441  1.00  0.00     0.037 A 
ATOM     46  C   UNL     1      -7.313   3.361  11.037  1.00  0.00     0.037 A 
ATOM     47  C   UNL     1      -7.558   9.868  10.680  1.00  0.00     0.049 A 
ATOM     48  C   UNL     1      -7.829   4.430  11.965  1.00  0.00     0.074 A 
ATOM     49  C   UNL     1      -8.142  10.751  11.571  1.00  0.00     0.029 A 
ATOM     50  N   UNL     1      -7.730   8.597  11.206  1.00  0.00    -0.354 N 
ATOM     51  N   UNL     1      -7.856   5.730  11.798  1.00  0.00    -0.248 NA
ATOM     52  C   UNL     1      -8.398   3.979  13.243  1.00  0.00     0.031 C 
ATOM     53  C   UNL     1      -8.626  10.018  12.660  1.00  0.00     0.029 A 
ATOM     54  C   UNL     1      -8.387   8.674  12.424  1.00  0.00     0.049 A 
ATOM     55  H   UNL     1      -7.429   7.762  10.778  1.00  0.00     0.167 HD
ATOM     56  C   UNL     1      -8.469   6.249  12.932  1.00  0.00     0.074 A 
ATOM     57  C   UNL     1      -8.810   5.122  13.774  1.00  0.00     0.031 C 
ATOM     58  C   UNL     1      -8.726   7.542  13.247  1.00  0.00     0.037 A 
BRANCH  45  59
ATOM     59  C   UNL     1      -6.724  11.593   9.041  1.00  0.00     0.064 A 
ATOM     60  C   UNL     1      -7.465  12.152   7.990  1.00  0.00     0.173 A 
ATOM     61  C   UNL     1      -5.845  12.430   9.744  1.00  0.00     0.173 A 
ATOM     62  F   UNL     1      -8.309  11.390   7.278  1.00  0.00    -0.203 F 
ATOM     63  C   UNL     1      -7.315  13.493   7.643  1.00  0.00     0.198 A 
ATOM     64  C   UNL     1      -5.716  13.775   9.411  1.00  0.00     0.198 A 
ATOM     65  F   UNL     1      -5.115  11.944  10.759  1.00  0.00    -0.203 F 
ATOM     66  F   UNL     1      -8.003  13.997   6.609  1.00  0.00    -0.200 F 
ATOM     67  C   UNL     1      -6.447  14.304   8.358  1.00  0.00     0.200 A 
ATOM     68  F   UNL     1      -4.884  14.560  10.109  1.00  0.00    -0.200 F 
ATOM     69  F   UNL     1      -6.309  15.596   8.027  1.00  0.00    -0.200 F 
ENDBRANCH  45  59
BRANCH  46  70
ATOM     70  C   UNL     1      -7.414   1.926  11.411  1.00  0.00     0.064 A 
ATOM     71  C   UNL     1      -8.657   1.283  11.485  1.00  0.00     0.173 A 
ATOM     72  C   UNL     1      -6.271   1.177  11.727  1.00  0.00     0.173 A 
ATOM     73  F   UNL     1      -9.781   1.966  11.219  1.00  0.00    -0.203 F 
ATOM     74  C   UNL     1      -8.756  -0.049  11.881  1.00  0.00     0.198 A 
ATOM     75  C   UNL     1      -6.369  -0.163  12.097  1.00  0.00     0.198 A 
ATOM     76  F   UNL     1      -5.059   1.748  11.676  1.00  0.00    -0.203 F 
ATOM     77  F   UNL     1      -9.960  -0.625  11.992  1.00  0.00    -0.200 F 
ATOM     78  C   UNL     1      -7.611  -0.772  12.182  1.00  0.00     0.200 A 
ATOM     79  F   UNL     1      -5.260  -0.860  12.380  1.00  0.00    -0.200 F 
ATOM     80  F   UNL     1      -7.707  -2.053  12.564  1.00  0.00    -0.200 F 
ENDBRANCH  46  70
BRANCH  58  81
ATOM     81  C   UNL     1      -9.440   7.806  14.541  1.00  0.00     0.064 A 
ATOM     82  C   UNL     1      -8.800   7.649  15.780  1.00  0.00     0.173 A 
ATOM     83  C   UNL     1     -10.771   8.251  14.541  1.00  0.00     0.173 A 
ATOM     84  F   UNL     1      -7.533   7.212  15.834  1.00  0.00    -0.203 F 
ATOM     85  C   UNL     1      -9.476   7.901  16.971  1.00  0.00     0.198 A 
ATOM     86  C   UNL     1     -11.434   8.530  15.732  1.00  0.00     0.198 A 
ATOM     87  F   UNL     1     -11.425   8.425  13.383  1.00  0.00    -0.203 F 
ATOM     88  F   UNL     1      -8.861   7.697  18.144  1.00  0.00    -0.200 F 
ATOM     89  C   UNL     1     -10.789   8.347  16.946  1.00  0.00     0.200 A 
ATOM     90  F   UNL     1     -12.698   8.973  15.706  1.00  0.00    -0.200 F 
ATOM     91  F   UNL     1     -11.437   8.592  18.093  1.00  0.00    -0.200 F 
ENDBRANCH  58  81
ENDBRANCH  32  33
ENDBRANCH  25  27
ENDBRANCH  24  25
ENDBRANCH  23  24
ENDBRANCH   1  23
TORSDOF 14
