REMARK SMILES C[C@H](NC(=O)N1CC[C@@H](C(=O)OCCOCCOC(=O)c2ccc(-c3c4nc(c(-c5c(F)c(F)c(F)c(F)c5F)c5ccc([nH]5)c(-c5c(F)c(F)c(F)c(F)c5F)c5nc(c(-c6c(F)c(F)c(F)c(F)c6F)c6ccc3[nH]6)C=C5)C=C4)cc2)[C@H]1C)c1ccc(Cl)cc1
REMARK SMILES IDX 14 1 13 2 12 3 10 4 11 5 9 6 6 7 7 8 84 9 8 10 85 11 4 12
REMARK SMILES IDX 3 13 5 15 2 16 1 17 86 18 87 19 92 20 88 21 91 22 89 23
REMARK SMILES IDX 90 24 15 25 16 26 17 27 18 28 19 29 20 30 21 31 22 32 83 33
REMARK SMILES IDX 23 34 82 35 24 36 25 37 26 38 76 39 27 40 81 41 75 42 77 43
REMARK SMILES IDX 28 44 80 45 74 46 73 47 29 49 61 50 41 51 60 52 42 53 45 54
REMARK SMILES IDX 59 55 78 56 43 57 44 58 58 60 79 61 46 62 30 63 31 64 39 65
REMARK SMILES IDX 32 66 33 67 37 68 40 69 34 70 35 71 38 72 36 73 62 74 63 75
REMARK SMILES IDX 71 76 64 77 65 78 69 79 72 80 66 81 67 82 70 83 68 84 47 85
REMARK SMILES IDX 48 86 56 87 49 88 50 89 54 90 57 91 51 92 52 93 55 94 53 95
REMARK H PARENT 3 14 77 48 45 59
REMARK Flexibility Score: inf
ROOT
ATOM      1  C   UNL     1      -2.480   4.413   4.994  1.00  0.00     0.202 C 
ENDROOT
BRANCH   1   2
ATOM      2  C   UNL     1      -1.147   5.167   5.030  1.00  0.00     0.261 C 
BRANCH   2   3
ATOM      3  O   UNL     1      -0.153   4.474   4.250  1.00  0.00    -0.463 OA
BRANCH   3   4
ATOM      4  C   UNL     1       0.689   3.668   4.937  1.00  0.00     0.311 C 
ATOM      5  O   UNL     1       0.789   3.646   6.157  1.00  0.00    -0.252 OA
BRANCH   4   6
ATOM      6  C   UNL     1       1.517   2.776   4.044  1.00  0.00     0.123 C 
ATOM      7  N   UNL     1       1.965   1.758   1.942  1.00  0.00    -0.321 N 
ATOM      8  C   UNL     1       3.168   2.416   2.424  1.00  0.00     0.122 C 
ATOM      9  C   UNL     1       0.860   1.959   2.909  1.00  0.00     0.098 C 
ATOM     10  C   UNL     1       2.654   3.506   3.345  1.00  0.00     0.039 C 
ATOM     11  C   UNL     1      -0.353   2.563   2.218  1.00  0.00     0.032 C 
BRANCH   7  12
ATOM     12  C   UNL     1       2.103   0.579   1.255  1.00  0.00     0.318 C 
ATOM     13  N   UNL     1       1.397   0.437   0.105  1.00  0.00    -0.331 N 
ATOM     14  H   UNL     1       1.335  -0.479  -0.249  1.00  0.00     0.165 HD
ATOM     15  O   UNL     1       2.875  -0.312   1.602  1.00  0.00    -0.249 OA
BRANCH  13  16
ATOM     16  C   UNL     1       0.719   1.463  -0.673  1.00  0.00     0.111 C 
ATOM     17  C   UNL     1       1.416   1.660  -2.019  1.00  0.00     0.036 C 
BRANCH  16  18
ATOM     18  C   UNL     1      -0.765   1.178  -0.867  1.00  0.00    -0.026 A 
ATOM     19  C   UNL     1      -1.604   2.223  -1.289  1.00  0.00     0.007 A 
ATOM     20  C   UNL     1      -1.345  -0.077  -0.607  1.00  0.00     0.007 A 
ATOM     21  C   UNL     1      -2.971   2.014  -1.468  1.00  0.00     0.021 A 
ATOM     22  C   UNL     1      -2.720  -0.278  -0.760  1.00  0.00     0.021 A 
ATOM     23  C   UNL     1      -3.526   0.766  -1.199  1.00  0.00     0.041 A 
ATOM     24  Cl  UNL     1      -5.219   0.522  -1.390  1.00  0.00    -0.084 Cl
ENDBRANCH  16  18
ENDBRANCH  13  16
ENDBRANCH   7  12
ENDBRANCH   4   6
ENDBRANCH   3   4
ENDBRANCH   2   3
ENDBRANCH   1   2
BRANCH   1  25
ATOM     25  O   UNL     1      -2.566   3.283   5.864  1.00  0.00    -0.374 OA
BRANCH  25  26
ATOM     26  C   UNL     1      -2.227   2.010   5.320  1.00  0.00     0.202 C 
BRANCH  26  27
ATOM     27  C   UNL     1      -3.302   1.316   4.466  1.00  0.00     0.261 C 
BRANCH  27  28
ATOM     28  O   UNL     1      -3.775   2.121   3.375  1.00  0.00    -0.460 OA
BRANCH  28  29
ATOM     29  C   UNL     1      -4.894   2.838   3.642  1.00  0.00     0.338 C 
ATOM     30  O   UNL     1      -5.550   2.829   4.673  1.00  0.00    -0.246 OA
BRANCH  29  31
ATOM     31  C   UNL     1      -5.155   3.782   2.536  1.00  0.00     0.060 A 
ATOM     32  C   UNL     1      -5.554   5.087   2.843  1.00  0.00     0.016 A 
ATOM     33  C   UNL     1      -5.049   3.381   1.206  1.00  0.00     0.016 A 
ATOM     34  C   UNL     1      -5.905   5.971   1.819  1.00  0.00     0.010 A 
ATOM     35  C   UNL     1      -5.375   4.276   0.183  1.00  0.00     0.010 A 
ATOM     36  C   UNL     1      -5.852   5.563   0.477  1.00  0.00    -0.014 A 
BRANCH  36  37
ATOM     37  C   UNL     1      -6.391   6.438  -0.603  1.00  0.00     0.031 A 
ATOM     38  C   UNL     1      -7.617   6.017  -1.375  1.00  0.00     0.074 A 
ATOM     39  C   UNL     1      -5.793   7.608  -0.902  1.00  0.00     0.049 A 
ATOM     40  N   UNL     1      -8.282   6.668  -2.300  1.00  0.00    -0.248 NA
ATOM     41  C   UNL     1      -8.149   4.675  -1.096  1.00  0.00     0.031 C 
ATOM     42  C   UNL     1      -4.563   8.107  -0.290  1.00  0.00     0.029 A 
ATOM     43  N   UNL     1      -6.144   8.589  -1.797  1.00  0.00    -0.354 N 
ATOM     44  C   UNL     1      -9.294   5.810  -2.714  1.00  0.00     0.074 A 
ATOM     45  C   UNL     1      -9.112   4.568  -1.998  1.00  0.00     0.031 C 
ATOM     46  C   UNL     1      -4.277   9.314  -0.806  1.00  0.00     0.029 A 
ATOM     47  C   UNL     1      -5.294   9.668  -1.795  1.00  0.00     0.049 A 
ATOM     48  H   UNL     1      -6.931   8.526  -2.385  1.00  0.00     0.167 HD
ATOM     49  C   UNL     1     -10.307   6.043  -3.584  1.00  0.00     0.037 A 
ATOM     50  C   UNL     1      -5.335  10.817  -2.499  1.00  0.00     0.037 A 
ATOM     51  C   UNL     1     -10.506   7.287  -4.280  1.00  0.00     0.049 A 
ATOM     52  C   UNL     1      -6.483  11.072  -3.441  1.00  0.00     0.074 A 
ATOM     53  C   UNL     1     -11.547   7.652  -5.116  1.00  0.00     0.029 A 
ATOM     54  N   UNL     1      -9.636   8.366  -4.231  1.00  0.00    -0.354 N 
ATOM     55  N   UNL     1      -7.499  10.298  -3.737  1.00  0.00    -0.248 NA
ATOM     56  C   UNL     1      -6.500  12.370  -4.131  1.00  0.00     0.031 C 
ATOM     57  C   UNL     1     -11.274   8.928  -5.622  1.00  0.00     0.029 A 
ATOM     58  C   UNL     1     -10.100   9.386  -5.046  1.00  0.00     0.049 A 
ATOM     59  H   UNL     1      -8.810   8.402  -3.696  1.00  0.00     0.167 HD
ATOM     60  C   UNL     1      -8.290  11.024  -4.619  1.00  0.00     0.074 A 
ATOM     61  C   UNL     1      -7.643  12.306  -4.800  1.00  0.00     0.031 C 
ATOM     62  C   UNL     1      -9.452  10.662  -5.220  1.00  0.00     0.037 A 
BRANCH  49  63
ATOM     63  C   UNL     1     -11.282   4.923  -3.832  1.00  0.00     0.064 A 
ATOM     64  C   UNL     1     -12.146   4.456  -2.828  1.00  0.00     0.173 A 
ATOM     65  C   UNL     1     -11.368   4.320  -5.096  1.00  0.00     0.173 A 
ATOM     66  F   UNL     1     -12.105   4.992  -1.598  1.00  0.00    -0.203 F 
ATOM     67  C   UNL     1     -13.021   3.400  -3.066  1.00  0.00     0.198 A 
ATOM     68  C   UNL     1     -12.273   3.290  -5.342  1.00  0.00     0.198 A 
ATOM     69  F   UNL     1     -10.577   4.732  -6.099  1.00  0.00    -0.203 F 
ATOM     70  F   UNL     1     -13.785   2.928  -2.071  1.00  0.00    -0.200 F 
ATOM     71  C   UNL     1     -13.089   2.822  -4.324  1.00  0.00     0.200 A 
ATOM     72  F   UNL     1     -12.351   2.746  -6.565  1.00  0.00    -0.200 F 
ATOM     73  F   UNL     1     -13.935   1.808  -4.553  1.00  0.00    -0.200 F 
ENDBRANCH  49  63
BRANCH  50  74
ATOM     74  C   UNL     1      -4.274  11.840  -2.296  1.00  0.00     0.064 A 
ATOM     75  C   UNL     1      -4.550  13.052  -1.648  1.00  0.00     0.173 A 
ATOM     76  C   UNL     1      -2.959  11.619  -2.732  1.00  0.00     0.173 A 
ATOM     77  F   UNL     1      -5.797  13.319  -1.231  1.00  0.00    -0.203 F 
ATOM     78  C   UNL     1      -3.556  14.009  -1.456  1.00  0.00     0.198 A 
ATOM     79  C   UNL     1      -1.959  12.564  -2.513  1.00  0.00     0.198 A 
ATOM     80  F   UNL     1      -2.641  10.473  -3.352  1.00  0.00    -0.203 F 
ATOM     81  F   UNL     1      -3.857  15.175  -0.868  1.00  0.00    -0.200 F 
ATOM     82  C   UNL     1      -2.260  13.761  -1.881  1.00  0.00     0.200 A 
ATOM     83  F   UNL     1      -0.704  12.313  -2.909  1.00  0.00    -0.200 F 
ATOM     84  F   UNL     1      -1.301  14.676  -1.683  1.00  0.00    -0.200 F 
ENDBRANCH  50  74
BRANCH  62  85
ATOM     85  C   UNL     1     -10.127  11.675  -6.101  1.00  0.00     0.064 A 
ATOM     86  C   UNL     1      -9.590  12.059  -7.339  1.00  0.00     0.173 A 
ATOM     87  C   UNL     1     -11.356  12.237  -5.720  1.00  0.00     0.173 A 
ATOM     88  F   UNL     1      -8.413  11.561  -7.748  1.00  0.00    -0.203 F 
ATOM     89  C   UNL     1     -10.242  12.988  -8.147  1.00  0.00     0.198 A 
ATOM     90  C   UNL     1     -12.022  13.139  -6.545  1.00  0.00     0.198 A 
ATOM     91  F   UNL     1     -11.921  11.899  -4.551  1.00  0.00    -0.203 F 
ATOM     92  F   UNL     1      -9.683  13.379  -9.301  1.00  0.00    -0.200 F 
ATOM     93  C   UNL     1     -11.461  13.521  -7.753  1.00  0.00     0.200 A 
ATOM     94  F   UNL     1     -13.208  13.638  -6.170  1.00  0.00    -0.200 F 
ATOM     95  F   UNL     1     -12.090  14.408  -8.536  1.00  0.00    -0.200 F 
ENDBRANCH  62  85
ENDBRANCH  36  37
ENDBRANCH  29  31
ENDBRANCH  28  29
ENDBRANCH  27  28
ENDBRANCH  26  27
ENDBRANCH  25  26
ENDBRANCH   1  25
TORSDOF 17
