REMARK SMILES [NH3+][C@H]1CCCN(C(=O)NC[C@H]2CC[C@@H](C(=O)OCCOCCOC(=O)c3ccc(-c4c5nc(c(-c6c(F)c(F)c(F)c(F)c6F)c6ccc([nH]6)c(-c6c(F)c(F)c(F)c(F)c6F)c6nc(c(-c7c(F)c(F)c(F)c(F)c7F)c7ccc4[nH]7)C=C6)C=C5)cc3)CC2)C1
REMARK SMILES IDX 19 1 18 2 17 3 15 4 16 5 14 6 11 7 12 8 90 9 13 10 89 11
REMARK SMILES IDX 10 12 9 13 7 14 8 15 6 17 2 18 3 19 91 20 4 21 5 22 1 23
REMARK SMILES IDX 20 27 21 28 22 29 23 30 24 31 25 32 26 33 27 34 88 35 28 36
REMARK SMILES IDX 87 37 29 38 30 39 31 40 81 41 32 42 86 43 80 44 82 45 33 46
REMARK SMILES IDX 85 47 79 48 78 49 34 51 66 52 46 53 65 54 47 55 50 56 64 57
REMARK SMILES IDX 83 58 48 59 49 60 63 62 84 63 51 64 35 65 36 66 44 67 37 68
REMARK SMILES IDX 38 69 42 70 45 71 39 72 40 73 43 74 41 75 67 76 68 77 76 78
REMARK SMILES IDX 69 79 70 80 74 81 77 82 71 83 72 84 75 85 73 86 52 87 53 88
REMARK SMILES IDX 61 89 54 90 55 91 59 92 62 93 56 94 57 95 60 96 58 97
REMARK H PARENT 9 16 1 24 1 25 1 26 82 50 50 61
REMARK Flexibility Score: inf
ROOT
ATOM      1  C   UNL     1      -0.171  -6.039  -3.599  1.00  0.00     0.202 C 
ENDROOT
BRANCH   1   2
ATOM      2  C   UNL     1      -0.589  -5.238  -2.363  1.00  0.00     0.261 C 
BRANCH   2   3
ATOM      3  O   UNL     1      -0.061  -5.799  -1.151  1.00  0.00    -0.463 OA
BRANCH   3   4
ATOM      4  C   UNL     1      -0.970  -6.272  -0.259  1.00  0.00     0.309 C 
ATOM      5  O   UNL     1      -2.185  -6.159  -0.374  1.00  0.00    -0.252 OA
BRANCH   4   6
ATOM      6  C   UNL     1      -0.327  -6.921   0.964  1.00  0.00     0.099 C 
ATOM      7  C   UNL     1       1.659  -6.601   3.202  1.00  0.00     0.008 C 
ATOM      8  C   UNL     1       0.165  -6.340   3.402  1.00  0.00     0.006 C 
ATOM      9  C   UNL     1       1.863  -7.650   2.101  1.00  0.00     0.006 C 
ATOM     10  C   UNL     1      -0.549  -5.955   2.123  1.00  0.00     0.015 C 
ATOM     11  C   UNL     1       1.142  -7.340   0.788  1.00  0.00     0.015 C 
BRANCH   7  12
ATOM     12  C   UNL     1       2.504  -5.308   3.079  1.00  0.00     0.121 C 
BRANCH  12  13
ATOM     13  N   UNL     1       2.834  -4.865   1.735  1.00  0.00    -0.338 N 
ATOM     14  C   UNL     1       2.458  -3.984   0.801  1.00  0.00     0.317 C 
ATOM     15  O   UNL     1       3.075  -4.104  -0.265  1.00  0.00    -0.249 OA
ATOM     16  H   UNL     1       3.592  -5.394   1.396  1.00  0.00     0.165 HD
BRANCH  14  17
ATOM     17  N   UNL     1       1.473  -3.055   0.947  1.00  0.00    -0.319 N 
ATOM     18  C   UNL     1       1.047  -0.870  -0.191  1.00  0.00     0.200 C 
ATOM     19  C   UNL     1       0.248  -0.406   1.030  1.00  0.00     0.068 C 
ATOM     20  C   UNL     1       0.994  -2.408  -0.282  1.00  0.00     0.186 C 
ATOM     21  C   UNL     1       0.780  -1.085   2.290  1.00  0.00     0.028 C 
ATOM     22  C   UNL     1       0.780  -2.607   2.153  1.00  0.00     0.122 C 
BRANCH  18  23
ATOM     23  N   UNL     1       0.526  -0.219  -1.398  1.00  0.00    -0.354 N 
ATOM     24  H   UNL     1       0.582   0.794  -1.288  1.00  0.00     0.344 HD
ATOM     25  H   UNL     1      -0.447  -0.492  -1.538  1.00  0.00     0.344 HD
ATOM     26  H   UNL     1       1.079  -0.505  -2.205  1.00  0.00     0.344 HD
ENDBRANCH  18  23
ENDBRANCH  14  17
ENDBRANCH  12  13
ENDBRANCH   7  12
ENDBRANCH   4   6
ENDBRANCH   3   4
ENDBRANCH   2   3
ENDBRANCH   1   2
BRANCH   1  27
ATOM     27  O   UNL     1      -0.593  -7.400  -3.650  1.00  0.00    -0.374 OA
BRANCH  27  28
ATOM     28  C   UNL     1       0.081  -8.333  -2.808  1.00  0.00     0.202 C 
BRANCH  28  29
ATOM     29  C   UNL     1       1.508  -8.728  -3.207  1.00  0.00     0.261 C 
BRANCH  29  30
ATOM     30  O   UNL     1       2.445  -7.636  -3.130  1.00  0.00    -0.460 OA
BRANCH  30  31
ATOM     31  C   UNL     1       2.966  -7.259  -4.321  1.00  0.00     0.338 C 
ATOM     32  O   UNL     1       2.744  -7.763  -5.416  1.00  0.00    -0.246 OA
BRANCH  31  33
ATOM     33  C   UNL     1       3.787  -6.041  -4.198  1.00  0.00     0.060 A 
ATOM     34  C   UNL     1       3.495  -4.978  -5.063  1.00  0.00     0.016 A 
ATOM     35  C   UNL     1       4.923  -6.002  -3.387  1.00  0.00     0.016 A 
ATOM     36  C   UNL     1       4.377  -3.904  -5.174  1.00  0.00     0.010 A 
ATOM     37  C   UNL     1       5.811  -4.925  -3.505  1.00  0.00     0.010 A 
ATOM     38  C   UNL     1       5.566  -3.896  -4.432  1.00  0.00    -0.014 A 
BRANCH  38  39
ATOM     39  C   UNL     1       6.619  -2.901  -4.758  1.00  0.00     0.031 A 
ATOM     40  C   UNL     1       7.746  -3.303  -5.673  1.00  0.00     0.074 A 
ATOM     41  C   UNL     1       6.548  -1.641  -4.295  1.00  0.00     0.049 A 
ATOM     42  N   UNL     1       8.784  -2.610  -6.071  1.00  0.00    -0.248 NA
ATOM     43  C   UNL     1       7.692  -4.669  -6.219  1.00  0.00     0.031 C 
ATOM     44  C   UNL     1       5.482  -1.112  -3.447  1.00  0.00     0.029 A 
ATOM     45  N   UNL     1       7.395  -0.576  -4.478  1.00  0.00    -0.354 N 
ATOM     46  C   UNL     1       9.500  -3.451  -6.914  1.00  0.00     0.074 A 
ATOM     47  C   UNL     1       8.798  -4.715  -6.948  1.00  0.00     0.031 C 
ATOM     48  C   UNL     1       5.740   0.180  -3.179  1.00  0.00     0.029 A 
ATOM     49  C   UNL     1       7.005   0.557  -3.808  1.00  0.00     0.049 A 
ATOM     50  H   UNL     1       8.204  -0.620  -5.037  1.00  0.00     0.167 HD
ATOM     51  C   UNL     1      10.634  -3.189  -7.606  1.00  0.00     0.037 A 
ATOM     52  C   UNL     1       7.615   1.754  -3.699  1.00  0.00     0.037 A 
ATOM     53  C   UNL     1      11.341  -1.936  -7.570  1.00  0.00     0.049 A 
ATOM     54  C   UNL     1       8.926   1.987  -4.407  1.00  0.00     0.074 A 
ATOM     55  C   UNL     1      12.516  -1.587  -8.214  1.00  0.00     0.029 A 
ATOM     56  N   UNL     1      10.934  -0.824  -6.849  1.00  0.00    -0.354 N 
ATOM     57  N   UNL     1       9.599   1.185  -5.195  1.00  0.00    -0.248 NA
ATOM     58  C   UNL     1       9.563   3.298  -4.207  1.00  0.00     0.031 C 
ATOM     59  C   UNL     1      12.836  -0.273  -7.858  1.00  0.00     0.029 A 
ATOM     60  C   UNL     1      11.840   0.209  -7.025  1.00  0.00     0.049 A 
ATOM     61  H   UNL     1      10.122  -0.776  -6.295  1.00  0.00     0.167 HD
ATOM     62  C   UNL     1      10.714   1.902  -5.610  1.00  0.00     0.074 A 
ATOM     63  C   UNL     1      10.626   3.208  -4.994  1.00  0.00     0.031 C 
ATOM     64  C   UNL     1      11.723   1.512  -6.427  1.00  0.00     0.037 A 
BRANCH  51  65
ATOM     65  C   UNL     1      11.194  -4.287  -8.461  1.00  0.00     0.064 A 
ATOM     66  C   UNL     1      10.596  -4.639  -9.680  1.00  0.00     0.173 A 
ATOM     67  C   UNL     1      12.368  -4.956  -8.086  1.00  0.00     0.173 A 
ATOM     68  F   UNL     1       9.465  -4.036 -10.076  1.00  0.00    -0.203 F 
ATOM     69  C   UNL     1      11.147  -5.631 -10.487  1.00  0.00     0.198 A 
ATOM     70  C   UNL     1      12.929  -5.931  -8.906  1.00  0.00     0.198 A 
ATOM     71  F   UNL     1      12.981  -4.652  -6.932  1.00  0.00    -0.203 F 
ATOM     72  F   UNL     1      10.543  -5.973 -11.633  1.00  0.00    -0.200 F 
ATOM     73  C   UNL     1      12.316  -6.271 -10.103  1.00  0.00     0.200 A 
ATOM     74  F   UNL     1      14.065  -6.540  -8.540  1.00  0.00    -0.200 F 
ATOM     75  F   UNL     1      12.852  -7.217 -10.886  1.00  0.00    -0.200 F 
ENDBRANCH  51  65
BRANCH  52  76
ATOM     76  C   UNL     1       7.011   2.829  -2.870  1.00  0.00     0.064 A 
ATOM     77  C   UNL     1       6.518   4.003  -3.457  1.00  0.00     0.173 A 
ATOM     78  C   UNL     1       6.961   2.727  -1.472  1.00  0.00     0.173 A 
ATOM     79  F   UNL     1       6.573   4.160  -4.788  1.00  0.00    -0.203 F 
ATOM     80  C   UNL     1       6.020   5.043  -2.675  1.00  0.00     0.198 A 
ATOM     81  C   UNL     1       6.438   3.756  -0.694  1.00  0.00     0.198 A 
ATOM     82  F   UNL     1       7.430   1.629  -0.862  1.00  0.00    -0.203 F 
ATOM     83  F   UNL     1       5.611   6.179  -3.258  1.00  0.00    -0.200 F 
ATOM     84  C   UNL     1       5.977   4.918  -1.295  1.00  0.00     0.200 A 
ATOM     85  F   UNL     1       6.395   3.630   0.639  1.00  0.00    -0.200 F 
ATOM     86  F   UNL     1       5.509   5.923  -0.543  1.00  0.00    -0.200 F 
ENDBRANCH  52  76
BRANCH  64  87
ATOM     87  C   UNL     1      12.784   2.524  -6.747  1.00  0.00     0.064 A 
ATOM     88  C   UNL     1      13.755   2.896  -5.808  1.00  0.00     0.173 A 
ATOM     89  C   UNL     1      12.852   3.095  -8.028  1.00  0.00     0.173 A 
ATOM     90  F   UNL     1      13.723   2.388  -4.566  1.00  0.00    -0.203 F 
ATOM     91  C   UNL     1      14.745   3.821  -6.131  1.00  0.00     0.198 A 
ATOM     92  C   UNL     1      13.858   4.000  -8.355  1.00  0.00     0.198 A 
ATOM     93  F   UNL     1      11.951   2.766  -8.964  1.00  0.00    -0.203 F 
ATOM     94  F   UNL     1      15.639   4.194  -5.205  1.00  0.00    -0.200 F 
ATOM     95  C   UNL     1      14.799   4.367  -7.405  1.00  0.00     0.200 A 
ATOM     96  F   UNL     1      13.917   4.518  -9.590  1.00  0.00    -0.200 F 
ATOM     97  F   UNL     1      15.756   5.252  -7.715  1.00  0.00    -0.200 F 
ENDBRANCH  64  87
ENDBRANCH  38  39
ENDBRANCH  31  33
ENDBRANCH  30  31
ENDBRANCH  29  30
ENDBRANCH  28  29
ENDBRANCH  27  28
ENDBRANCH   1  27
TORSDOF 18
