REMARK SMILES COc1ccc(C(=O)c2ccccc2)cc1[C@@H](C)C(=O)OCCOCCOC(=O)c1ccc(-c2c3nc(c(-c4c(F)c(F)c(F)c(F)c4F)c4ccc([nH]4)c(-c4c(F)c(F)c(F)c(F)c4F)c4nc(c(-c5c(F)c(F)c(F)c(F)c5F)c5ccc2[nH]5)C=C4)C=C3)cc1
REMARK SMILES IDX 23 1 22 2 21 3 19 4 20 5 17 6 18 7 16 8 3 9 4 10 5 11 15 12
REMARK SMILES IDX 6 13 2 14 1 15 7 16 8 17 9 18 10 19 14 20 11 21 13 22 12 23
REMARK SMILES IDX 24 24 25 25 26 26 27 27 28 28 29 29 30 30 31 31 92 32 32 33
REMARK SMILES IDX 91 34 33 35 34 36 35 37 85 38 36 39 90 40 84 41 86 42 37 43
REMARK SMILES IDX 89 44 83 45 82 46 38 48 70 49 50 50 69 51 51 52 54 53 68 54
REMARK SMILES IDX 87 55 52 56 53 57 67 59 88 60 55 61 39 62 40 63 48 64 41 65
REMARK SMILES IDX 42 66 46 67 49 68 43 69 44 70 47 71 45 72 71 73 72 74 80 75
REMARK SMILES IDX 73 76 74 77 78 78 81 79 75 80 76 81 79 82 77 83 56 84 57 85
REMARK SMILES IDX 65 86 58 87 59 88 63 89 66 90 60 91 61 92 64 93 62 94
REMARK H PARENT 86 47 54 58
REMARK Flexibility Score: inf
ROOT
ATOM      1  C   UNL     1       4.306  -2.931   3.480  1.00  0.00     0.202 C 
ENDROOT
BRANCH   1   2
ATOM      2  C   UNL     1       5.273  -2.033   2.704  1.00  0.00     0.261 C 
BRANCH   2   3
ATOM      3  O   UNL     1       4.731  -0.705   2.566  1.00  0.00    -0.463 OA
BRANCH   3   4
ATOM      4  C   UNL     1       4.409  -0.306   1.306  1.00  0.00     0.313 C 
ATOM      5  O   UNL     1       4.639  -0.953   0.291  1.00  0.00    -0.252 OA
BRANCH   4   6
ATOM      6  C   UNL     1       3.761   1.070   1.273  1.00  0.00     0.130 C 
ATOM      7  C   UNL     1       4.836   2.153   1.378  1.00  0.00     0.025 C 
BRANCH   6   8
ATOM      8  C   UNL     1       2.624   1.297   2.267  1.00  0.00     0.009 A 
ATOM      9  C   UNL     1       1.298   1.456   1.838  1.00  0.00     0.122 A 
ATOM     10  C   UNL     1       0.289   1.822   2.732  1.00  0.00     0.047 A 
ATOM     11  C   UNL     1       0.587   2.026   4.079  1.00  0.00     0.016 A 
ATOM     12  C   UNL     1       2.884   1.433   3.646  1.00  0.00     0.020 A 
ATOM     13  C   UNL     1       1.893   1.849   4.549  1.00  0.00     0.023 A 
BRANCH   9  14
ATOM     14  O   UNL     1       0.959   1.368   0.515  1.00  0.00    -0.496 OA
ATOM     15  C   UNL     1       0.639   0.022   0.155  1.00  0.00     0.278 C 
ENDBRANCH   9  14
BRANCH  13  16
ATOM     16  C   UNL     1       2.158   2.103   5.999  1.00  0.00     0.193 C 
ATOM     17  O   UNL     1       1.200   2.146   6.771  1.00  0.00    -0.289 OA
BRANCH  16  18
ATOM     18  C   UNL     1       3.526   2.256   6.570  1.00  0.00     0.022 A 
ATOM     19  C   UNL     1       3.729   1.821   7.884  1.00  0.00     0.012 A 
ATOM     20  C   UNL     1       4.604   2.807   5.869  1.00  0.00     0.012 A 
ATOM     21  C   UNL     1       5.007   1.814   8.444  1.00  0.00     0.001 A 
ATOM     22  C   UNL     1       5.887   2.789   6.424  1.00  0.00     0.001 A 
ATOM     23  C   UNL     1       6.091   2.272   7.702  1.00  0.00     0.000 A 
ENDBRANCH  16  18
ENDBRANCH  13  16
ENDBRANCH   6   8
ENDBRANCH   4   6
ENDBRANCH   3   4
ENDBRANCH   2   3
ENDBRANCH   1   2
BRANCH   1  24
ATOM     24  O   UNL     1       3.160  -3.355   2.741  1.00  0.00    -0.374 OA
BRANCH  24  25
ATOM     25  C   UNL     1       2.072  -2.433   2.682  1.00  0.00     0.202 C 
BRANCH  25  26
ATOM     26  C   UNL     1       1.093  -2.495   3.858  1.00  0.00     0.261 C 
BRANCH  26  27
ATOM     27  O   UNL     1       1.726  -2.143   5.100  1.00  0.00    -0.460 OA
BRANCH  27  28
ATOM     28  C   UNL     1       2.016  -3.191   5.906  1.00  0.00     0.338 C 
ATOM     29  O   UNL     1       1.734  -4.368   5.727  1.00  0.00    -0.246 OA
BRANCH  28  30
ATOM     30  C   UNL     1       2.890  -2.748   7.006  1.00  0.00     0.060 A 
ATOM     31  C   UNL     1       4.054  -3.487   7.259  1.00  0.00     0.016 A 
ATOM     32  C   UNL     1       2.550  -1.669   7.820  1.00  0.00     0.016 A 
ATOM     33  C   UNL     1       4.868  -3.168   8.348  1.00  0.00     0.010 A 
ATOM     34  C   UNL     1       3.363  -1.363   8.915  1.00  0.00     0.010 A 
ATOM     35  C   UNL     1       4.517  -2.116   9.201  1.00  0.00    -0.014 A 
BRANCH  35  36
ATOM     36  C   UNL     1       5.267  -1.874  10.463  1.00  0.00     0.031 A 
ATOM     37  C   UNL     1       4.597  -2.166  11.780  1.00  0.00     0.074 A 
ATOM     38  C   UNL     1       6.519  -1.376  10.451  1.00  0.00     0.049 A 
ATOM     39  N   UNL     1       5.031  -1.965  12.999  1.00  0.00    -0.248 NA
ATOM     40  C   UNL     1       3.246  -2.743  11.712  1.00  0.00     0.031 C 
ATOM     41  C   UNL     1       7.286  -1.036   9.254  1.00  0.00     0.029 A 
ATOM     42  N   UNL     1       7.358  -1.050  11.489  1.00  0.00    -0.354 N 
ATOM     43  C   UNL     1       4.001  -2.373  13.837  1.00  0.00     0.074 A 
ATOM     44  C   UNL     1       2.901  -2.777  12.989  1.00  0.00     0.031 C 
ATOM     45  C   UNL     1       8.478  -0.537   9.625  1.00  0.00     0.029 A 
ATOM     46  C   UNL     1       8.551  -0.503  11.085  1.00  0.00     0.049 A 
ATOM     47  H   UNL     1       7.125  -1.194  12.435  1.00  0.00     0.167 HD
ATOM     48  C   UNL     1       3.979  -2.436  15.190  1.00  0.00     0.037 A 
ATOM     49  C   UNL     1       9.580  -0.019  11.809  1.00  0.00     0.037 A 
ATOM     50  C   UNL     1       5.082  -2.075  16.039  1.00  0.00     0.049 A 
ATOM     51  C   UNL     1       9.527  -0.079  13.315  1.00  0.00     0.074 A 
ATOM     52  C   UNL     1       5.180  -2.175  17.415  1.00  0.00     0.029 A 
ATOM     53  N   UNL     1       6.280  -1.542  15.589  1.00  0.00    -0.354 N 
ATOM     54  N   UNL     1       8.576  -0.532  14.093  1.00  0.00    -0.248 NA
ATOM     55  C   UNL     1      10.702   0.428  14.041  1.00  0.00     0.031 C 
ATOM     56  C   UNL     1       6.424  -1.665  17.803  1.00  0.00     0.029 A 
ATOM     57  C   UNL     1       7.118  -1.290  16.664  1.00  0.00     0.049 A 
ATOM     58  H   UNL     1       6.503  -1.369  14.646  1.00  0.00     0.167 HD
ATOM     59  C   UNL     1       9.051  -0.405  15.393  1.00  0.00     0.074 A 
ATOM     60  C   UNL     1      10.377   0.168  15.300  1.00  0.00     0.031 C 
ATOM     61  C   UNL     1       8.444  -0.739  16.558  1.00  0.00     0.037 A 
BRANCH  48  62
ATOM     62  C   UNL     1       2.715  -2.925  15.834  1.00  0.00     0.064 A 
ATOM     63  C   UNL     1       2.308  -4.265  15.733  1.00  0.00     0.173 A 
ATOM     64  C   UNL     1       1.907  -2.048  16.573  1.00  0.00     0.173 A 
ATOM     65  F   UNL     1       3.039  -5.141  15.028  1.00  0.00    -0.203 F 
ATOM     66  C   UNL     1       1.120  -4.698  16.314  1.00  0.00     0.198 A 
ATOM     67  C   UNL     1       0.736  -2.493  17.180  1.00  0.00     0.198 A 
ATOM     68  F   UNL     1       2.255  -0.759  16.708  1.00  0.00    -0.203 F 
ATOM     69  F   UNL     1       0.722  -5.968  16.154  1.00  0.00    -0.200 F 
ATOM     70  C   UNL     1       0.338  -3.814  17.042  1.00  0.00     0.200 A 
ATOM     71  F   UNL     1      -0.012  -1.640  17.895  1.00  0.00    -0.200 F 
ATOM     72  F   UNL     1      -0.805  -4.233  17.602  1.00  0.00    -0.200 F 
ENDBRANCH  48  62
BRANCH  49  73
ATOM     73  C   UNL     1      10.764   0.559  11.121  1.00  0.00     0.064 A 
ATOM     74  C   UNL     1      12.001  -0.101  11.134  1.00  0.00     0.173 A 
ATOM     75  C   UNL     1      10.688   1.792  10.459  1.00  0.00     0.173 A 
ATOM     76  F   UNL     1      12.127  -1.273  11.774  1.00  0.00    -0.203 F 
ATOM     77  C   UNL     1      13.123   0.461  10.529  1.00  0.00     0.198 A 
ATOM     78  C   UNL     1      11.806   2.342   9.834  1.00  0.00     0.198 A 
ATOM     79  F   UNL     1       9.526   2.460  10.413  1.00  0.00    -0.203 F 
ATOM     80  F   UNL     1      14.303  -0.169  10.595  1.00  0.00    -0.200 F 
ATOM     81  C   UNL     1      13.024   1.681   9.877  1.00  0.00     0.200 A 
ATOM     82  F   UNL     1      11.703   3.515   9.194  1.00  0.00    -0.200 F 
ATOM     83  F   UNL     1      14.103   2.222   9.295  1.00  0.00    -0.200 F 
ENDBRANCH  49  73
BRANCH  61  84
ATOM     84  C   UNL     1       9.223  -0.549  17.828  1.00  0.00     0.064 A 
ATOM     85  C   UNL     1       9.470   0.724  18.361  1.00  0.00     0.173 A 
ATOM     86  C   UNL     1       9.687  -1.663  18.546  1.00  0.00     0.173 A 
ATOM     87  F   UNL     1       9.061   1.821  17.706  1.00  0.00    -0.203 F 
ATOM     88  C   UNL     1      10.171   0.875  19.556  1.00  0.00     0.198 A 
ATOM     89  C   UNL     1      10.362  -1.509  19.753  1.00  0.00     0.198 A 
ATOM     90  F   UNL     1       9.472  -2.904  18.082  1.00  0.00    -0.203 F 
ATOM     91  F   UNL     1      10.432   2.103  20.025  1.00  0.00    -0.200 F 
ATOM     92  C   UNL     1      10.609  -0.240  20.254  1.00  0.00     0.200 A 
ATOM     93  F   UNL     1      10.773  -2.589  20.433  1.00  0.00    -0.200 F 
ATOM     94  F   UNL     1      11.275  -0.092  21.407  1.00  0.00    -0.200 F 
ENDBRANCH  61  84
ENDBRANCH  35  36
ENDBRANCH  28  30
ENDBRANCH  27  28
ENDBRANCH  26  27
ENDBRANCH  25  26
ENDBRANCH  24  25
ENDBRANCH   1  24
TORSDOF 18
