REMARK SMILES CC1=C([C@@H](NC(=O)c2cc3c(s2)CCCCC3)C(=O)OCCOCCOC(=O)c2ccc(-c3c4nc(c(-c5c(F)c(F)c(F)c(F)c5F)c5ccc([nH]5)c(-c5c(F)c(F)c(F)c(F)c5F)c5nc(c(-c6c(F)c(F)c(F)c(F)c6F)c6ccc3[nH]6)C=C5)C=C4)cc2)[C@H](C)N=N1
REMARK SMILES IDX 21 1 20 2 18 3 19 4 4 5 3 6 1 7 2 8 95 9 92 10 94 11 93 12
REMARK SMILES IDX 5 13 6 14 7 16 8 17 9 18 12 19 10 20 11 21 17 22 13 24 14 25
REMARK SMILES IDX 15 26 16 27 22 29 23 30 24 31 25 32 26 33 27 34 28 35 29 36
REMARK SMILES IDX 30 37 91 38 31 39 90 40 32 41 33 42 34 43 84 44 35 45 89 46
REMARK SMILES IDX 83 47 85 48 36 49 88 50 82 51 81 52 37 54 69 55 49 56 68 57
REMARK SMILES IDX 50 58 53 59 67 60 86 61 51 62 52 63 66 65 87 66 54 67 38 68
REMARK SMILES IDX 39 69 47 70 40 71 41 72 45 73 48 74 42 75 43 76 46 77 44 78
REMARK SMILES IDX 70 79 71 80 79 81 72 82 73 83 77 84 80 85 74 86 75 87 78 88
REMARK SMILES IDX 76 89 55 90 56 91 64 92 57 93 58 94 62 95 65 96 59 97 60 98
REMARK SMILES IDX 63 99 61 100
REMARK H PARENT 5 15 85 53 53 64
REMARK Flexibility Score: 80.00
ROOT
ATOM      1  C   UNL     1      -3.685   1.368  -3.332  1.00  0.00     0.261 C 
ENDROOT
BRANCH   1   2
ATOM      2  O   UNL     1      -2.328   0.988  -3.084  1.00  0.00    -0.461 OA
BRANCH   2   3
ATOM      3  C   UNL     1      -1.545   1.982  -2.581  1.00  0.00     0.333 C 
ATOM      4  O   UNL     1      -1.980   2.956  -1.976  1.00  0.00    -0.249 OA
BRANCH   3   5
ATOM      5  C   UNL     1      -0.037   1.811  -2.875  1.00  0.00     0.223 C 
BRANCH   5   6
ATOM      6  C   UNL     1       0.397   0.387  -2.680  1.00  0.00     0.012 C 
ATOM      7  C   UNL     1       0.861   0.254  -0.167  1.00  0.00     0.069 C 
ATOM      8  C   UNL     1       0.776  -0.253  -1.566  1.00  0.00     0.064 C 
ATOM      9  N   UNL     1       1.124  -1.559  -1.804  1.00  0.00    -0.160 NA
ATOM     10  C   UNL     1       0.566  -0.619  -3.776  1.00  0.00     0.156 C 
ATOM     11  N   UNL     1       1.013  -1.828  -3.030  1.00  0.00    -0.181 NA
ATOM     12  C   UNL     1      -0.676  -0.975  -4.573  1.00  0.00     0.040 C 
ENDBRANCH   5   6
BRANCH   5  13
ATOM     13  N   UNL     1       0.550   2.284  -4.134  1.00  0.00    -0.334 N 
ATOM     14  C   UNL     1       0.253   3.354  -4.947  1.00  0.00     0.262 C 
ATOM     15  H   UNL     1       1.298   1.732  -4.458  1.00  0.00     0.165 HD
ATOM     16  O   UNL     1       1.150   3.756  -5.687  1.00  0.00    -0.268 OA
BRANCH  14  17
ATOM     17  C   UNL     1      -1.105   3.821  -5.033  1.00  0.00     0.092 A 
ATOM     18  C   UNL     1      -2.066   3.454  -5.950  1.00  0.00     0.029 A 
ATOM     19  S   UNL     1      -1.669   5.099  -4.070  1.00  0.00    -0.135 S 
ATOM     20  C   UNL     1      -3.381   3.973  -5.640  1.00  0.00    -0.033 A 
ATOM     21  C   UNL     1      -3.315   4.732  -4.477  1.00  0.00     0.009 A 
BRANCH  20  22
ATOM     22  C   UNL     1      -4.564   3.521  -6.453  1.00  0.00     0.037 CG0
ATOM     23  G   UNL     1      -5.954   4.115  -6.250  1.00  0.00     0.000 G0
ENDBRANCH  20  22
BRANCH  21  24
ATOM     24  C   UNL     1      -4.358   5.232  -3.518  1.00  0.00     0.047 C 
BRANCH  24  25
ATOM     25  C   UNL     1      -5.808   5.012  -3.912  1.00  0.00     0.006 C 
BRANCH  25  26
ATOM     26  C   UNL     1      -6.101   5.343  -5.367  1.00  0.00     0.001 C 
BRANCH  26  27
ATOM     27  C   UNL     1      -5.954   4.115  -6.250  1.00  0.00     0.005 CG0
ATOM     28  G   UNL     1      -4.564   3.521  -6.453  1.00  0.00     0.000 G0
ENDBRANCH  26  27
ENDBRANCH  25  26
ENDBRANCH  24  25
ENDBRANCH  21  24
ENDBRANCH  14  17
ENDBRANCH   5  13
ENDBRANCH   3   5
ENDBRANCH   2   3
ENDBRANCH   1   2
BRANCH   1  29
ATOM     29  C   UNL     1      -4.728   1.230  -2.225  1.00  0.00     0.202 C 
BRANCH  29  30
ATOM     30  O   UNL     1      -4.404   1.656  -0.913  1.00  0.00    -0.374 OA
BRANCH  30  31
ATOM     31  C   UNL     1      -3.502   0.871  -0.139  1.00  0.00     0.202 C 
BRANCH  31  32
ATOM     32  C   UNL     1      -3.963  -0.536   0.213  1.00  0.00     0.261 C 
BRANCH  32  33
ATOM     33  O   UNL     1      -3.808  -1.384  -0.925  1.00  0.00    -0.460 OA
BRANCH  33  34
ATOM     34  C   UNL     1      -4.936  -1.895  -1.450  1.00  0.00     0.338 C 
ATOM     35  O   UNL     1      -6.089  -1.678  -1.091  1.00  0.00    -0.246 OA
BRANCH  34  36
ATOM     36  C   UNL     1      -4.580  -2.806  -2.543  1.00  0.00     0.060 A 
ATOM     37  C   UNL     1      -5.632  -3.450  -3.199  1.00  0.00     0.016 A 
ATOM     38  C   UNL     1      -3.243  -3.182  -2.748  1.00  0.00     0.016 A 
ATOM     39  C   UNL     1      -5.365  -4.627  -3.862  1.00  0.00     0.010 A 
ATOM     40  C   UNL     1      -2.973  -4.347  -3.428  1.00  0.00     0.010 A 
ATOM     41  C   UNL     1      -4.052  -5.110  -3.864  1.00  0.00    -0.014 A 
BRANCH  41  42
ATOM     42  C   UNL     1      -3.871  -6.519  -4.140  1.00  0.00     0.031 A 
ATOM     43  C   UNL     1      -3.902  -6.923  -5.553  1.00  0.00     0.074 A 
ATOM     44  C   UNL     1      -3.652  -7.395  -3.142  1.00  0.00     0.049 A 
ATOM     45  N   UNL     1      -4.769  -7.678  -6.139  1.00  0.00    -0.248 NA
ATOM     46  C   UNL     1      -2.873  -6.366  -6.438  1.00  0.00     0.031 C 
ATOM     47  C   UNL     1      -3.309  -7.104  -1.746  1.00  0.00     0.029 A 
ATOM     48  N   UNL     1      -3.598  -8.753  -3.202  1.00  0.00    -0.354 N 
ATOM     49  C   UNL     1      -4.309  -7.834  -7.439  1.00  0.00     0.074 A 
ATOM     50  C   UNL     1      -3.216  -6.908  -7.606  1.00  0.00     0.031 C 
ATOM     51  C   UNL     1      -2.882  -8.239  -1.151  1.00  0.00     0.029 A 
ATOM     52  C   UNL     1      -3.048  -9.345  -2.078  1.00  0.00     0.049 A 
ATOM     53  H   UNL     1      -3.922  -9.269  -3.976  1.00  0.00     0.167 HD
ATOM     54  C   UNL     1      -4.719  -8.870  -8.217  1.00  0.00     0.037 A 
ATOM     55  C   UNL     1      -2.688 -10.643  -1.953  1.00  0.00     0.037 A 
ATOM     56  C   UNL     1      -5.923  -9.478  -7.719  1.00  0.00     0.049 A 
ATOM     57  C   UNL     1      -3.412 -11.417  -2.992  1.00  0.00     0.074 A 
ATOM     58  C   UNL     1      -7.213  -9.038  -7.493  1.00  0.00     0.029 A 
ATOM     59  N   UNL     1      -5.819 -10.677  -7.060  1.00  0.00    -0.354 N 
ATOM     60  N   UNL     1      -4.696 -11.646  -2.981  1.00  0.00    -0.248 NA
ATOM     61  C   UNL     1      -2.754 -11.636  -4.272  1.00  0.00     0.031 C 
ATOM     62  C   UNL     1      -7.668  -9.765  -6.355  1.00  0.00     0.029 A 
ATOM     63  C   UNL     1      -6.637 -10.619  -5.962  1.00  0.00     0.049 A 
ATOM     64  H   UNL     1      -5.258 -11.441  -7.328  1.00  0.00     0.167 HD
ATOM     65  C   UNL     1      -5.069 -11.626  -4.316  1.00  0.00     0.074 A 
ATOM     66  C   UNL     1      -3.824 -11.750  -5.061  1.00  0.00     0.031 C 
ATOM     67  C   UNL     1      -6.319 -11.224  -4.689  1.00  0.00     0.037 A 
BRANCH  54  68
ATOM     68  C   UNL     1      -3.842  -9.534  -9.240  1.00  0.00     0.064 A 
ATOM     69  C   UNL     1      -4.414 -10.398 -10.191  1.00  0.00     0.173 A 
ATOM     70  C   UNL     1      -2.434  -9.570  -9.142  1.00  0.00     0.173 A 
ATOM     71  F   UNL     1      -5.746 -10.471 -10.332  1.00  0.00    -0.203 F 
ATOM     72  C   UNL     1      -3.632 -11.268 -10.955  1.00  0.00     0.198 A 
ATOM     73  C   UNL     1      -1.654 -10.395  -9.947  1.00  0.00     0.198 A 
ATOM     74  F   UNL     1      -1.774  -8.895  -8.191  1.00  0.00    -0.203 F 
ATOM     75  F   UNL     1      -4.224 -12.155 -11.765  1.00  0.00    -0.200 F 
ATOM     76  C   UNL     1      -2.254 -11.264 -10.834  1.00  0.00     0.200 A 
ATOM     77  F   UNL     1      -0.322 -10.393  -9.798  1.00  0.00    -0.200 F 
ATOM     78  F   UNL     1      -1.508 -12.131 -11.530  1.00  0.00    -0.200 F 
ENDBRANCH  54  68
BRANCH  55  79
ATOM     79  C   UNL     1      -1.569 -11.205  -1.166  1.00  0.00     0.064 A 
ATOM     80  C   UNL     1      -1.509 -12.576  -0.873  1.00  0.00     0.173 A 
ATOM     81  C   UNL     1      -0.403 -10.456  -0.904  1.00  0.00     0.173 A 
ATOM     82  F   UNL     1      -2.558 -13.368  -1.134  1.00  0.00    -0.203 F 
ATOM     83  C   UNL     1      -0.346 -13.166  -0.369  1.00  0.00     0.198 A 
ATOM     84  C   UNL     1       0.751 -11.043  -0.388  1.00  0.00     0.198 A 
ATOM     85  F   UNL     1      -0.328  -9.158  -1.231  1.00  0.00    -0.203 F 
ATOM     86  F   UNL     1      -0.305 -14.490  -0.163  1.00  0.00    -0.200 F 
ATOM     87  C   UNL     1       0.784 -12.401  -0.134  1.00  0.00     0.200 A 
ATOM     88  F   UNL     1       1.847 -10.296  -0.196  1.00  0.00    -0.200 F 
ATOM     89  F   UNL     1       1.916 -12.976   0.296  1.00  0.00    -0.200 F 
ENDBRANCH  55  79
BRANCH  67  90
ATOM     90  C   UNL     1      -7.371 -11.153  -3.619  1.00  0.00     0.064 A 
ATOM     91  C   UNL     1      -7.313 -10.275  -2.523  1.00  0.00     0.173 A 
ATOM     92  C   UNL     1      -8.536 -11.916  -3.777  1.00  0.00     0.173 A 
ATOM     93  F   UNL     1      -6.280  -9.437  -2.366  1.00  0.00    -0.203 F 
ATOM     94  C   UNL     1      -8.352 -10.211  -1.597  1.00  0.00     0.198 A 
ATOM     95  C   UNL     1      -9.588 -11.822  -2.871  1.00  0.00     0.198 A 
ATOM     96  F   UNL     1      -8.671 -12.726  -4.839  1.00  0.00    -0.203 F 
ATOM     97  F   UNL     1      -8.266  -9.381  -0.547  1.00  0.00    -0.200 F 
ATOM     98  C   UNL     1      -9.491 -10.980  -1.774  1.00  0.00     0.200 A 
ATOM     99  F   UNL     1     -10.709 -12.529  -3.074  1.00  0.00    -0.200 F 
ATOM    100  F   UNL     1     -10.506 -10.891  -0.903  1.00  0.00    -0.200 F 
ENDBRANCH  67  90
ENDBRANCH  41  42
ENDBRANCH  34  36
ENDBRANCH  33  34
ENDBRANCH  32  33
ENDBRANCH  31  32
ENDBRANCH  30  31
ENDBRANCH  29  30
ENDBRANCH   1  29
TORSDOF 17
