REMARK SMILES CC(C)Cc1ccc(-c2cc(Cl)cc3c2O[C@@H](C(F)(F)F)C(C(=O)OCCOCCOC(=O)c2ccc(-c4c5nc(c(-c6c(F)c(F)c(F)c(F)c6F)c6ccc([nH]6)c(-c6c(F)c(F)c(F)c(F)c6F)c6nc(c(-c7c(F)c(F)c(F)c(F)c7F)c7ccc4[nH]7)C=C6)C=C5)cc2)=C3)cc1
REMARK SMILES IDX 27 1 26 2 25 3 23 4 24 5 22 6 9 7 10 8 15 9 11 10 14 11
REMARK SMILES IDX 16 12 12 13 13 14 97 15 17 16 8 17 5 18 6 19 99 20 7 21
REMARK SMILES IDX 98 22 4 23 2 24 1 25 3 26 18 27 19 28 20 29 21 30 28 31
REMARK SMILES IDX 29 32 30 33 31 34 32 35 33 36 34 37 35 38 96 39 36 40 95 41
REMARK SMILES IDX 37 42 38 43 39 44 89 45 40 46 94 47 88 48 90 49 41 50 93 51
REMARK SMILES IDX 87 52 86 53 42 55 74 56 54 57 73 58 55 59 58 60 72 61 91 62
REMARK SMILES IDX 56 63 57 64 71 66 92 67 59 68 43 69 44 70 52 71 45 72 46 73
REMARK SMILES IDX 50 74 53 75 47 76 48 77 51 78 49 79 75 80 76 81 84 82 77 83
REMARK SMILES IDX 78 84 82 85 85 86 79 87 80 88 83 89 81 90 60 91 61 92 69 93
REMARK SMILES IDX 62 94 63 95 67 96 70 97 64 98 65 99 68 100 66 101
REMARK H PARENT 90 54 58 65
REMARK Flexibility Score: inf
ROOT
ATOM      1  C   UNL     1      -6.436 -10.171   0.466  1.00  0.00     0.202 C 
ENDROOT
BRANCH   1   2
ATOM      2  C   UNL     1      -5.109 -10.940   0.556  1.00  0.00     0.261 C 
BRANCH   2   3
ATOM      3  O   UNL     1      -4.125 -10.280   1.366  1.00  0.00    -0.460 OA
BRANCH   3   4
ATOM      4  C   UNL     1      -2.848 -10.408   0.958  1.00  0.00     0.338 C 
ATOM      5  O   UNL     1      -2.463 -11.156   0.069  1.00  0.00    -0.246 OA
BRANCH   4   6
ATOM      6  C   UNL     1      -1.950  -9.412   1.589  1.00  0.00     0.087 C 
ATOM      7  C   UNL     1      -3.250  -5.458   1.664  1.00  0.00     0.026 A 
ATOM      8  C   UNL     1      -4.205  -5.390   0.622  1.00  0.00     0.033 A 
ATOM      9  C   UNL     1      -2.577  -6.696   1.765  1.00  0.00     0.135 A 
ATOM     10  C   UNL     1      -4.180  -6.297  -0.437  1.00  0.00     0.042 A 
ATOM     11  C   UNL     1      -2.364  -7.450   0.598  1.00  0.00     0.019 A 
ATOM     12  O   UNL     1      -2.636  -7.421   2.978  1.00  0.00    -0.475 OA
ATOM     13  Cl  UNL     1      -5.310  -6.141  -1.721  1.00  0.00    -0.084 Cl
ATOM     14  C   UNL     1      -3.189  -7.265  -0.504  1.00  0.00     0.032 A 
ATOM     15  C   UNL     1      -1.435  -8.598   0.652  1.00  0.00     0.027 C 
ATOM     16  C   UNL     1      -2.064  -8.797   2.967  1.00  0.00     0.316 C 
BRANCH   7  17
ATOM     17  C   UNL     1      -2.608  -4.112   1.964  1.00  0.00    -0.015 A 
ATOM     18  C   UNL     1      -1.467  -1.463   1.638  1.00  0.00    -0.048 A 
ATOM     19  C   UNL     1      -2.833  -1.655   1.896  1.00  0.00     0.004 A 
ATOM     20  C   UNL     1      -0.664  -2.606   1.637  1.00  0.00     0.004 A 
ATOM     21  C   UNL     1      -3.384  -2.941   2.077  1.00  0.00     0.009 A 
ATOM     22  C   UNL     1      -1.223  -3.902   1.798  1.00  0.00     0.009 A 
BRANCH  18  23
ATOM     23  C   UNL     1      -0.991  -0.044   1.345  1.00  0.00     0.038 C 
BRANCH  23  24
ATOM     24  C   UNL     1       0.519   0.264   1.186  1.00  0.00    -0.013 C 
ATOM     25  C   UNL     1       1.049  -0.095  -0.207  1.00  0.00     0.008 C 
ATOM     26  C   UNL     1       0.787   1.761   1.422  1.00  0.00     0.008 C 
ENDBRANCH  23  24
ENDBRANCH  18  23
ENDBRANCH   7  17
BRANCH  16  27
ATOM     27  C   UNL     1      -2.560  -9.766   4.066  1.00  0.00     0.430 C 
ATOM     28  F   UNL     1      -1.617 -10.728   4.269  1.00  0.00    -0.167 F 
ATOM     29  F   UNL     1      -2.728  -9.141   5.254  1.00  0.00    -0.167 F 
ATOM     30  F   UNL     1      -3.710 -10.408   3.790  1.00  0.00    -0.167 F 
ENDBRANCH  16  27
ENDBRANCH   4   6
ENDBRANCH   3   4
ENDBRANCH   2   3
ENDBRANCH   1   2
BRANCH   1  31
ATOM     31  O   UNL     1      -6.435  -8.775   0.729  1.00  0.00    -0.374 OA
BRANCH  31  32
ATOM     32  C   UNL     1      -6.124  -8.334   2.049  1.00  0.00     0.202 C 
BRANCH  32  33
ATOM     33  C   UNL     1      -7.093  -8.671   3.186  1.00  0.00     0.261 C 
BRANCH  33  34
ATOM     34  O   UNL     1      -7.282 -10.081   3.383  1.00  0.00    -0.460 OA
BRANCH  34  35
ATOM     35  C   UNL     1      -8.528 -10.525   3.109  1.00  0.00     0.338 C 
ATOM     36  O   UNL     1      -9.490  -9.869   2.720  1.00  0.00    -0.246 OA
BRANCH  35  37
ATOM     37  C   UNL     1      -8.570 -11.989   3.194  1.00  0.00     0.060 A 
ATOM     38  C   UNL     1      -8.930 -12.707   2.047  1.00  0.00     0.016 A 
ATOM     39  C   UNL     1      -8.377 -12.638   4.415  1.00  0.00     0.016 A 
ATOM     40  C   UNL     1      -9.145 -14.079   2.127  1.00  0.00     0.010 A 
ATOM     41  C   UNL     1      -8.600 -14.014   4.494  1.00  0.00     0.010 A 
ATOM     42  C   UNL     1      -9.023 -14.732   3.360  1.00  0.00    -0.014 A 
BRANCH  42  43
ATOM     43  C   UNL     1      -9.492 -16.130   3.498  1.00  0.00     0.031 A 
ATOM     44  C   UNL     1     -10.832 -16.387   4.129  1.00  0.00     0.074 A 
ATOM     45  C   UNL     1      -8.744 -17.151   3.046  1.00  0.00     0.049 A 
ATOM     46  N   UNL     1     -11.420 -17.523   4.402  1.00  0.00    -0.248 NA
ATOM     47  C   UNL     1     -11.612 -15.199   4.510  1.00  0.00     0.031 C 
ATOM     48  C   UNL     1      -7.451 -17.017   2.379  1.00  0.00     0.029 A 
ATOM     49  N   UNL     1      -8.965 -18.503   3.089  1.00  0.00    -0.354 N 
ATOM     50  C   UNL     1     -12.631 -17.188   4.993  1.00  0.00     0.074 A 
ATOM     51  C   UNL     1     -12.679 -15.744   5.074  1.00  0.00     0.031 C 
ATOM     52  C   UNL     1      -6.987 -18.242   2.081  1.00  0.00     0.029 A 
ATOM     53  C   UNL     1      -7.932 -19.243   2.570  1.00  0.00     0.049 A 
ATOM     54  H   UNL     1      -9.785 -18.905   3.457  1.00  0.00     0.167 HD
ATOM     55  C   UNL     1     -13.618 -18.012   5.420  1.00  0.00     0.037 A 
ATOM     56  C   UNL     1      -7.764 -20.579   2.521  1.00  0.00     0.037 A 
ATOM     57  C   UNL     1     -13.560 -19.448   5.335  1.00  0.00     0.049 A 
ATOM     58  C   UNL     1      -8.842 -21.475   3.073  1.00  0.00     0.074 A 
ATOM     59  C   UNL     1     -14.509 -20.375   5.726  1.00  0.00     0.029 A 
ATOM     60  N   UNL     1     -12.483 -20.165   4.832  1.00  0.00    -0.354 N 
ATOM     61  N   UNL     1      -9.994 -21.154   3.611  1.00  0.00    -0.248 NA
ATOM     62  C   UNL     1      -8.598 -22.922   3.005  1.00  0.00     0.031 C 
ATOM     63  C   UNL     1     -13.983 -21.654   5.514  1.00  0.00     0.029 A 
ATOM     64  C   UNL     1     -12.734 -21.524   4.927  1.00  0.00     0.049 A 
ATOM     65  H   UNL     1     -11.663 -19.766   4.461  1.00  0.00     0.167 HD
ATOM     66  C   UNL     1     -10.626 -22.354   3.912  1.00  0.00     0.074 A 
ATOM     67  C   UNL     1      -9.732 -23.411   3.486  1.00  0.00     0.031 C 
ATOM     68  C   UNL     1     -11.836 -22.563   4.487  1.00  0.00     0.037 A 
BRANCH  55  69
ATOM     69  C   UNL     1     -14.829 -17.378   6.045  1.00  0.00     0.064 A 
ATOM     70  C   UNL     1     -15.740 -16.620   5.293  1.00  0.00     0.173 A 
ATOM     71  C   UNL     1     -15.093 -17.550   7.412  1.00  0.00     0.173 A 
ATOM     72  F   UNL     1     -15.530 -16.413   3.985  1.00  0.00    -0.203 F 
ATOM     73  C   UNL     1     -16.850 -16.030   5.894  1.00  0.00     0.198 A 
ATOM     74  C   UNL     1     -16.222 -16.988   8.002  1.00  0.00     0.198 A 
ATOM     75  F   UNL     1     -14.258 -18.269   8.178  1.00  0.00    -0.203 F 
ATOM     76  F   UNL     1     -17.675 -15.264   5.168  1.00  0.00    -0.200 F 
ATOM     77  C   UNL     1     -17.094 -16.221   7.246  1.00  0.00     0.200 A 
ATOM     78  F   UNL     1     -16.464 -17.186   9.306  1.00  0.00    -0.200 F 
ATOM     79  F   UNL     1     -18.166 -15.658   7.821  1.00  0.00    -0.200 F 
ENDBRANCH  55  69
BRANCH  56  80
ATOM     80  C   UNL     1      -6.525 -21.150   1.931  1.00  0.00     0.064 A 
ATOM     81  C   UNL     1      -6.565 -21.886   0.739  1.00  0.00     0.173 A 
ATOM     82  C   UNL     1      -5.278 -20.985   2.553  1.00  0.00     0.173 A 
ATOM     83  F   UNL     1      -7.736 -22.092   0.118  1.00  0.00    -0.203 F 
ATOM     84  C   UNL     1      -5.410 -22.453   0.203  1.00  0.00     0.198 A 
ATOM     85  C   UNL     1      -4.119 -21.525   1.999  1.00  0.00     0.198 A 
ATOM     86  F   UNL     1      -5.184 -20.290   3.696  1.00  0.00    -0.203 F 
ATOM     87  F   UNL     1      -5.485 -23.195  -0.910  1.00  0.00    -0.200 F 
ATOM     88  C   UNL     1      -4.187 -22.266   0.830  1.00  0.00     0.200 A 
ATOM     89  F   UNL     1      -2.938 -21.330   2.601  1.00  0.00    -0.200 F 
ATOM     90  F   UNL     1      -3.077 -22.809   0.312  1.00  0.00    -0.200 F 
ENDBRANCH  56  80
BRANCH  68  91
ATOM     91  C   UNL     1     -12.291 -23.988   4.641  1.00  0.00     0.064 A 
ATOM     92  C   UNL     1     -11.693 -24.863   5.560  1.00  0.00     0.173 A 
ATOM     93  C   UNL     1     -13.371 -24.470   3.885  1.00  0.00     0.173 A 
ATOM     94  F   UNL     1     -10.649 -24.456   6.298  1.00  0.00    -0.203 F 
ATOM     95  C   UNL     1     -12.138 -26.176   5.693  1.00  0.00     0.198 A 
ATOM     96  C   UNL     1     -13.837 -25.772   4.047  1.00  0.00     0.198 A 
ATOM     97  F   UNL     1     -13.986 -23.673   2.998  1.00  0.00    -0.203 F 
ATOM     98  F   UNL     1     -11.515 -27.010   6.537  1.00  0.00    -0.200 F 
ATOM     99  C   UNL     1     -13.214 -26.626   4.943  1.00  0.00     0.200 A 
ATOM    100  F   UNL     1     -14.889 -26.199   3.334  1.00  0.00    -0.200 F 
ATOM    101  F   UNL     1     -13.647 -27.887   5.080  1.00  0.00    -0.200 F 
ENDBRANCH  68  91
ENDBRANCH  42  43
ENDBRANCH  35  37
ENDBRANCH  34  35
ENDBRANCH  33  34
ENDBRANCH  32  33
ENDBRANCH  31  32
ENDBRANCH   1  31
TORSDOF 18
