REMARK SMILES CC[C@@H](Oc1ccc(/C=C2\SC(=S)N(NC(=O)c3ccccc3O)C2=O)cc1)C(=O)OCCOCCOC(=O)c1ccc(-c2c3nc(c(-c4c(F)c(F)c(F)c(F)c4F)c4ccc([nH]4)c(-c4c(F)c(F)c(F)c(F)c4F)c4nc(c(-c5c(F)c(F)c(F)c(F)c5F)c5ccc2[nH]5)C=C4)C=C3)cc1
REMARK SMILES IDX 32 1 31 2 29 3 30 4 3 5 2 6 1 7 4 8 5 9 6 10 28 11 7 12
REMARK SMILES IDX 27 13 8 14 9 15 10 16 11 17 25 18 12 19 14 20 26 21 13 22
REMARK SMILES IDX 15 23 16 24 17 26 18 27 19 28 23 29 20 30 22 31 21 32 24 33
REMARK SMILES IDX 33 35 34 36 35 37 36 38 37 39 38 40 39 41 40 42 41 43 102 44
REMARK SMILES IDX 42 45 101 46 43 47 44 48 45 49 95 50 46 51 100 52 94 53
REMARK SMILES IDX 96 54 47 55 99 56 93 57 92 58 48 60 80 61 60 62 79 63 61 64
REMARK SMILES IDX 64 65 78 66 97 67 62 68 63 69 77 71 98 72 65 73 49 74 50 75
REMARK SMILES IDX 58 76 51 77 52 78 56 79 59 80 53 81 54 82 57 83 55 84 81 85
REMARK SMILES IDX 82 86 90 87 83 88 84 89 88 90 91 91 85 92 86 93 89 94 87 95
REMARK SMILES IDX 66 96 67 97 75 98 68 99 69 100 73 101 76 102 70 103 71 104
REMARK SMILES IDX 74 105 72 106
REMARK H PARENT 15 25 24 34 96 59 64 70
REMARK Flexibility Score: inf
ROOT
ATOM      1  C   UNL     1      -0.431   3.540   4.318  1.00  0.00     0.261 C 
ENDROOT
BRANCH   1   2
ATOM      2  O   UNL     1      -0.297   2.778   3.105  1.00  0.00    -0.461 OA
BRANCH   2   3
ATOM      3  C   UNL     1       0.822   3.019   2.363  1.00  0.00     0.347 C 
ATOM      4  O   UNL     1       1.695   3.829   2.656  1.00  0.00    -0.248 OA
BRANCH   3   5
ATOM      5  C   UNL     1       0.874   2.168   1.097  1.00  0.00     0.282 C 
BRANCH   5   6
ATOM      6  C   UNL     1       0.491   0.694   1.332  1.00  0.00     0.054 C 
ATOM      7  C   UNL     1       1.541  -0.261   0.772  1.00  0.00     0.008 C 
ENDBRANCH   5   6
BRANCH   5   8
ATOM      8  O   UNL     1      -0.043   2.800   0.187  1.00  0.00    -0.479 OA
BRANCH   8   9
ATOM      9  C   UNL     1       0.363   2.649  -1.108  1.00  0.00     0.120 A 
ATOM     10  C   UNL     1       1.061   3.673  -1.738  1.00  0.00     0.047 A 
ATOM     11  C   UNL     1       0.012   1.503  -1.806  1.00  0.00     0.047 A 
ATOM     12  C   UNL     1       1.379   3.553  -3.095  1.00  0.00     0.012 A 
ATOM     13  C   UNL     1       0.386   1.362  -3.138  1.00  0.00     0.012 A 
ATOM     14  C   UNL     1       1.001   2.414  -3.824  1.00  0.00    -0.024 A 
BRANCH  14  15
ATOM     15  C   UNL     1       1.252   2.387  -5.275  1.00  0.00     0.029 C 
ATOM     16  C   UNL     1       0.527   1.788  -6.234  1.00  0.00     0.082 C 
ATOM     17  S   UNL     1      -0.867   0.784  -6.088  1.00  0.00    -0.052 SA
ATOM     18  C   UNL     1       0.905   1.892  -7.671  1.00  0.00     0.285 C 
ATOM     19  C   UNL     1      -0.675   0.132  -7.700  1.00  0.00     0.168 C 
ATOM     20  N   UNL     1       0.319   0.835  -8.353  1.00  0.00    -0.198 N 
ATOM     21  O   UNL     1       1.576   2.804  -8.132  1.00  0.00    -0.266 OA
ATOM     22  S   UNL     1      -1.598  -1.122  -8.300  1.00  0.00    -0.050 S 
BRANCH  20  23
ATOM     23  N   UNL     1       0.589   0.575  -9.703  1.00  0.00    -0.254 N 
ATOM     24  C   UNL     1       1.828   0.361 -10.265  1.00  0.00     0.274 C 
ATOM     25  H   UNL     1      -0.184   0.543 -10.312  1.00  0.00     0.192 HD
ATOM     26  O   UNL     1       1.917  -0.032 -11.426  1.00  0.00    -0.267 OA
BRANCH  24  27
ATOM     27  C   UNL     1       3.067   0.647  -9.519  1.00  0.00     0.083 A 
ATOM     28  C   UNL     1       3.889   1.651 -10.048  1.00  0.00     0.018 A 
ATOM     29  C   UNL     1       3.419   0.017  -8.323  1.00  0.00     0.128 A 
ATOM     30  C   UNL     1       5.028   2.059  -9.355  1.00  0.00     0.001 A 
ATOM     31  C   UNL     1       4.551   0.435  -7.625  1.00  0.00     0.047 A 
ATOM     32  C   UNL     1       5.353   1.458  -8.140  1.00  0.00     0.004 A 
BRANCH  29  33
ATOM     33  O   UNL     1       2.692  -0.999  -7.768  1.00  0.00    -0.507 OA
ATOM     34  H   UNL     1       1.923  -1.315  -8.200  1.00  0.00     0.293 HD
ENDBRANCH  29  33
ENDBRANCH  24  27
ENDBRANCH  20  23
ENDBRANCH  14  15
ENDBRANCH   8   9
ENDBRANCH   5   8
ENDBRANCH   3   5
ENDBRANCH   2   3
ENDBRANCH   1   2
BRANCH   1  35
ATOM     35  C   UNL     1      -0.466   2.640   5.556  1.00  0.00     0.202 C 
BRANCH  35  36
ATOM     36  O   UNL     1       0.765   2.023   5.931  1.00  0.00    -0.374 OA
BRANCH  36  37
ATOM     37  C   UNL     1       1.240   0.948   5.126  1.00  0.00     0.202 C 
BRANCH  37  38
ATOM     38  C   UNL     1       0.518  -0.397   5.292  1.00  0.00     0.261 C 
BRANCH  38  39
ATOM     39  O   UNL     1      -0.872  -0.334   4.919  1.00  0.00    -0.460 OA
BRANCH  39  40
ATOM     40  C   UNL     1      -1.736  -0.626   5.923  1.00  0.00     0.338 C 
ATOM     41  O   UNL     1      -1.463  -1.015   7.046  1.00  0.00    -0.246 OA
BRANCH  40  42
ATOM     42  C   UNL     1      -3.117  -0.272   5.545  1.00  0.00     0.060 A 
ATOM     43  C   UNL     1      -3.788   0.652   6.356  1.00  0.00     0.016 A 
ATOM     44  C   UNL     1      -3.788  -0.928   4.512  1.00  0.00     0.016 A 
ATOM     45  C   UNL     1      -5.149   0.886   6.170  1.00  0.00     0.010 A 
ATOM     46  C   UNL     1      -5.159  -0.698   4.332  1.00  0.00     0.010 A 
ATOM     47  C   UNL     1      -5.853   0.180   5.184  1.00  0.00    -0.014 A 
BRANCH  47  48
ATOM     48  C   UNL     1      -7.335   0.259   5.157  1.00  0.00     0.031 A 
ATOM     49  C   UNL     1      -8.141  -0.817   5.832  1.00  0.00     0.074 A 
ATOM     50  C   UNL     1      -7.960   1.301   4.581  1.00  0.00     0.049 A 
ATOM     51  N   UNL     1      -9.440  -0.944   5.934  1.00  0.00    -0.248 NA
ATOM     52  C   UNL     1      -7.378  -1.894   6.483  1.00  0.00     0.031 C 
ATOM     53  C   UNL     1      -7.295   2.425   3.927  1.00  0.00     0.029 A 
ATOM     54  N   UNL     1      -9.298   1.579   4.455  1.00  0.00    -0.354 N 
ATOM     55  C   UNL     1      -9.650  -2.109   6.661  1.00  0.00     0.074 A 
ATOM     56  C   UNL     1      -8.347  -2.670   6.948  1.00  0.00     0.031 C 
ATOM     57  C   UNL     1      -8.229   3.270   3.459  1.00  0.00     0.029 A 
ATOM     58  C   UNL     1      -9.556   2.734   3.760  1.00  0.00     0.049 A 
ATOM     59  H   UNL     1     -10.005   1.005   4.828  1.00  0.00     0.167 HD
ATOM     60  C   UNL     1     -10.822  -2.656   7.062  1.00  0.00     0.037 A 
ATOM     61  C   UNL     1     -10.730   3.285   3.394  1.00  0.00     0.037 A 
ATOM     62  C   UNL     1     -12.120  -2.103   6.779  1.00  0.00     0.049 A 
ATOM     63  C   UNL     1     -12.021   2.623   3.796  1.00  0.00     0.074 A 
ATOM     64  C   UNL     1     -13.364  -2.581   7.154  1.00  0.00     0.029 A 
ATOM     65  N   UNL     1     -12.341  -0.950   6.042  1.00  0.00    -0.354 N 
ATOM     66  N   UNL     1     -12.209   1.534   4.502  1.00  0.00    -0.248 NA
ATOM     67  C   UNL     1     -13.265   3.270   3.353  1.00  0.00     0.031 C 
ATOM     68  C   UNL     1     -14.340  -1.739   6.609  1.00  0.00     0.029 A 
ATOM     69  C   UNL     1     -13.702  -0.712   5.932  1.00  0.00     0.049 A 
ATOM     70  H   UNL     1     -11.636  -0.383   5.654  1.00  0.00     0.167 HD
ATOM     71  C   UNL     1     -13.585   1.379   4.607  1.00  0.00     0.074 A 
ATOM     72  C   UNL     1     -14.187   2.492   3.903  1.00  0.00     0.031 C 
ATOM     73  C   UNL     1     -14.287   0.402   5.231  1.00  0.00     0.037 A 
BRANCH  60  74
ATOM     74  C   UNL     1     -10.755  -3.936   7.842  1.00  0.00     0.064 A 
ATOM     75  C   UNL     1     -10.330  -3.959   9.179  1.00  0.00     0.173 A 
ATOM     76  C   UNL     1     -11.151  -5.147   7.256  1.00  0.00     0.173 A 
ATOM     77  F   UNL     1      -9.928  -2.828   9.779  1.00  0.00    -0.203 F 
ATOM     78  C   UNL     1     -10.284  -5.152   9.894  1.00  0.00     0.198 A 
ATOM     79  C   UNL     1     -11.127  -6.335   7.982  1.00  0.00     0.198 A 
ATOM     80  F   UNL     1     -11.569  -5.176   5.982  1.00  0.00    -0.203 F 
ATOM     81  F   UNL     1      -9.838  -5.158  11.158  1.00  0.00    -0.200 F 
ATOM     82  C   UNL     1     -10.688  -6.338   9.297  1.00  0.00     0.200 A 
ATOM     83  F   UNL     1     -11.526  -7.478   7.407  1.00  0.00    -0.200 F 
ATOM     84  F   UNL     1     -10.648  -7.485   9.988  1.00  0.00    -0.200 F 
ENDBRANCH  60  74
BRANCH  61  85
ATOM     85  C   UNL     1     -10.739   4.533   2.588  1.00  0.00     0.064 A 
ATOM     86  C   UNL     1     -11.168   5.748   3.138  1.00  0.00     0.173 A 
ATOM     87  C   UNL     1     -10.329   4.529   1.247  1.00  0.00     0.173 A 
ATOM     88  F   UNL     1     -11.595   5.794   4.408  1.00  0.00    -0.203 F 
ATOM     89  C   UNL     1     -11.200   6.911   2.371  1.00  0.00     0.198 A 
ATOM     90  C   UNL     1     -10.338   5.697   0.489  1.00  0.00     0.198 A 
ATOM     91  F   UNL     1      -9.914   3.389   0.674  1.00  0.00    -0.203 F 
ATOM     92  F   UNL     1     -11.653   8.052   2.908  1.00  0.00    -0.200 F 
ATOM     93  C   UNL     1     -10.779   6.886   1.050  1.00  0.00     0.200 A 
ATOM     94  F   UNL     1      -9.923   5.671  -0.785  1.00  0.00    -0.200 F 
ATOM     95  F   UNL     1     -10.807   8.006   0.314  1.00  0.00    -0.200 F 
ENDBRANCH  61  85
BRANCH  73  96
ATOM     96  C   UNL     1     -15.784   0.502   5.205  1.00  0.00     0.064 A 
ATOM     97  C   UNL     1     -16.518   0.224   4.043  1.00  0.00     0.173 A 
ATOM     98  C   UNL     1     -16.494   0.839   6.368  1.00  0.00     0.173 A 
ATOM     99  F   UNL     1     -15.884  -0.088   2.903  1.00  0.00    -0.203 F 
ATOM    100  C   UNL     1     -17.909   0.298   4.041  1.00  0.00     0.198 A 
ATOM    101  C   UNL     1     -17.886   0.888   6.368  1.00  0.00     0.198 A 
ATOM    102  F   UNL     1     -15.839   1.108   7.506  1.00  0.00    -0.203 F 
ATOM    103  F   UNL     1     -18.588   0.067   2.909  1.00  0.00    -0.200 F 
ATOM    104  C   UNL     1     -18.591   0.624   5.204  1.00  0.00     0.200 A 
ATOM    105  F   UNL     1     -18.544   1.192   7.495  1.00  0.00    -0.200 F 
ATOM    106  F   UNL     1     -19.930   0.689   5.201  1.00  0.00    -0.200 F 
ENDBRANCH  73  96
ENDBRANCH  47  48
ENDBRANCH  40  42
ENDBRANCH  39  40
ENDBRANCH  38  39
ENDBRANCH  37  38
ENDBRANCH  36  37
ENDBRANCH  35  36
ENDBRANCH   1  35
TORSDOF 21
