REMARK SMILES O=C(OCCOCCOC(=O)c1ccc2c(=O)[nH][nH]c(=O)c2c1)c1ccc(-c2c3nc(c(-c4c(F)c(F)c(F)c(F)c4F)c4ccc([nH]4)c(-c4c(F)c(F)c(F)c(F)c4F)c4nc(c(-c5c(F)c(F)c(F)c(F)c5F)c5ccc2[nH]5)C=C4)C=C3)cc1
REMARK SMILES IDX 5 1 4 2 3 3 2 4 1 5 24 6 25 7 86 8 26 9 85 10 27 11 28 12
REMARK SMILES IDX 29 13 79 14 30 15 84 16 78 17 80 18 31 19 83 20 77 21 76 22
REMARK SMILES IDX 32 24 64 25 44 26 63 27 45 28 48 29 62 30 81 31 46 32 47 33
REMARK SMILES IDX 61 35 82 36 49 37 33 38 34 39 42 40 35 41 36 42 40 43 43 44
REMARK SMILES IDX 37 45 38 46 41 47 39 48 65 49 66 50 74 51 67 52 68 53 72 54
REMARK SMILES IDX 75 55 69 56 70 57 73 58 71 59 50 60 51 61 59 62 52 63 53 64
REMARK SMILES IDX 57 65 60 66 54 67 55 68 58 69 56 70 6 71 7 72 8 73 9 74
REMARK SMILES IDX 10 75 11 76 12 77 13 78 23 79 14 80 22 81 15 82 20 83 16 84
REMARK SMILES IDX 19 85 21 86 17 87 18 88
REMARK H PARENT 80 23 48 34 19 89 18 90
REMARK Flexibility Score: inf
ROOT
ATOM      1  C   UNL     1       4.528  -1.455   0.053  1.00  0.00     0.202 C 
ENDROOT
BRANCH   1   2
ATOM      2  C   UNL     1       4.377  -0.536   1.267  1.00  0.00     0.261 C 
BRANCH   2   3
ATOM      3  O   UNL     1       3.021  -0.107   1.437  1.00  0.00    -0.460 OA
BRANCH   3   4
ATOM      4  C   UNL     1       2.385   0.954   0.893  1.00  0.00     0.338 C 
ATOM      5  O   UNL     1       1.186   1.082   1.143  1.00  0.00    -0.246 OA
BRANCH   4   6
ATOM      6  C   UNL     1       3.007   1.974  -0.020  1.00  0.00     0.060 A 
ATOM      7  C   UNL     1       2.195   3.078  -0.353  1.00  0.00     0.016 A 
ATOM      8  C   UNL     1       4.258   1.894  -0.635  1.00  0.00     0.016 A 
ATOM      9  C   UNL     1       2.594   4.020  -1.305  1.00  0.00     0.010 A 
ATOM     10  C   UNL     1       4.662   2.818  -1.592  1.00  0.00     0.010 A 
ATOM     11  C   UNL     1       3.824   3.872  -1.943  1.00  0.00    -0.014 A 
BRANCH  11  12
ATOM     12  C   UNL     1       4.331   4.846  -2.918  1.00  0.00     0.031 A 
ATOM     13  C   UNL     1       4.291   4.551  -4.382  1.00  0.00     0.074 A 
ATOM     14  C   UNL     1       4.973   5.918  -2.429  1.00  0.00     0.049 A 
ATOM     15  N   UNL     1       4.731   5.271  -5.380  1.00  0.00    -0.248 NA
ATOM     16  C   UNL     1       3.701   3.263  -4.778  1.00  0.00     0.031 C 
ATOM     17  C   UNL     1       5.134   6.213  -1.004  1.00  0.00     0.029 A 
ATOM     18  N   UNL     1       5.638   6.927  -3.064  1.00  0.00    -0.354 N 
ATOM     19  C   UNL     1       4.445   4.542  -6.525  1.00  0.00     0.074 A 
ATOM     20  C   UNL     1       3.856   3.291  -6.095  1.00  0.00     0.031 C 
ATOM     21  C   UNL     1       5.858   7.332  -0.872  1.00  0.00     0.029 A 
ATOM     22  C   UNL     1       6.210   7.822  -2.199  1.00  0.00     0.049 A 
ATOM     23  H   UNL     1       5.701   7.003  -4.043  1.00  0.00     0.167 HD
ATOM     24  C   UNL     1       4.641   4.908  -7.815  1.00  0.00     0.037 A 
ATOM     25  C   UNL     1       6.928   8.927  -2.460  1.00  0.00     0.037 A 
ATOM     26  C   UNL     1       5.287   6.140  -8.198  1.00  0.00     0.049 A 
ATOM     27  C   UNL     1       7.146   9.310  -3.892  1.00  0.00     0.074 A 
ATOM     28  C   UNL     1       5.509   6.649  -9.464  1.00  0.00     0.029 A 
ATOM     29  N   UNL     1       5.839   7.049  -7.301  1.00  0.00    -0.354 N 
ATOM     30  N   UNL     1       6.776   8.676  -4.980  1.00  0.00    -0.248 NA
ATOM     31  C   UNL     1       7.856  10.568  -4.134  1.00  0.00     0.031 C 
ATOM     32  C   UNL     1       6.239   7.838  -9.335  1.00  0.00     0.029 A 
ATOM     33  C   UNL     1       6.425   8.103  -7.987  1.00  0.00     0.049 A 
ATOM     34  H   UNL     1       5.817   6.958  -6.321  1.00  0.00     0.167 HD
ATOM     35  C   UNL     1       7.198   9.461  -6.041  1.00  0.00     0.074 A 
ATOM     36  C   UNL     1       7.826  10.633  -5.458  1.00  0.00     0.031 C 
ATOM     37  C   UNL     1       7.081   9.235  -7.375  1.00  0.00     0.037 A 
BRANCH  24  38
ATOM     38  C   UNL     1       4.144   3.975  -8.886  1.00  0.00     0.064 A 
ATOM     39  C   UNL     1       2.771   3.729  -9.059  1.00  0.00     0.173 A 
ATOM     40  C   UNL     1       5.031   3.342  -9.769  1.00  0.00     0.173 A 
ATOM     41  F   UNL     1       1.873   4.302  -8.242  1.00  0.00    -0.203 F 
ATOM     42  C   UNL     1       2.310   2.862 -10.048  1.00  0.00     0.198 A 
ATOM     43  C   UNL     1       4.565   2.500 -10.778  1.00  0.00     0.198 A 
ATOM     44  F   UNL     1       6.353   3.541  -9.660  1.00  0.00    -0.203 F 
ATOM     45  F   UNL     1       0.999   2.606 -10.155  1.00  0.00    -0.200 F 
ATOM     46  C   UNL     1       3.207   2.253 -10.911  1.00  0.00     0.200 A 
ATOM     47  F   UNL     1       5.432   1.924 -11.623  1.00  0.00    -0.200 F 
ATOM     48  F   UNL     1       2.763   1.425 -11.867  1.00  0.00    -0.200 F 
ENDBRANCH  24  38
BRANCH  25  49
ATOM     49  C   UNL     1       7.362   9.773  -1.324  1.00  0.00     0.064 A 
ATOM     50  C   UNL     1       6.671  10.956  -1.028  1.00  0.00     0.173 A 
ATOM     51  C   UNL     1       8.365   9.358  -0.437  1.00  0.00     0.173 A 
ATOM     52  F   UNL     1       5.705  11.389  -1.851  1.00  0.00    -0.203 F 
ATOM     53  C   UNL     1       6.960  11.687   0.121  1.00  0.00     0.198 A 
ATOM     54  C   UNL     1       8.639  10.079   0.723  1.00  0.00     0.198 A 
ATOM     55  F   UNL     1       9.037   8.220  -0.667  1.00  0.00    -0.203 F 
ATOM     56  F   UNL     1       6.282  12.812   0.383  1.00  0.00    -0.200 F 
ATOM     57  C   UNL     1       7.934  11.242   1.002  1.00  0.00     0.200 A 
ATOM     58  F   UNL     1       9.562   9.633   1.586  1.00  0.00    -0.200 F 
ATOM     59  F   UNL     1       8.185  11.926   2.126  1.00  0.00    -0.200 F 
ENDBRANCH  25  49
BRANCH  37  60
ATOM     60  C   UNL     1       7.672  10.277  -8.280  1.00  0.00     0.064 A 
ATOM     61  C   UNL     1       9.061  10.452  -8.380  1.00  0.00     0.173 A 
ATOM     62  C   UNL     1       6.846  11.104  -9.055  1.00  0.00     0.173 A 
ATOM     63  F   UNL     1       9.892   9.697  -7.647  1.00  0.00    -0.203 F 
ATOM     64  C   UNL     1       9.599  11.446  -9.193  1.00  0.00     0.198 A 
ATOM     65  C   UNL     1       7.389  12.072  -9.893  1.00  0.00     0.198 A 
ATOM     66  F   UNL     1       5.512  10.972  -9.001  1.00  0.00    -0.203 F 
ATOM     67  F   UNL     1      10.925  11.640  -9.221  1.00  0.00    -0.200 F 
ATOM     68  C   UNL     1       8.764  12.251  -9.952  1.00  0.00     0.200 A 
ATOM     69  F   UNL     1       6.582  12.841 -10.638  1.00  0.00    -0.200 F 
ATOM     70  F   UNL     1       9.283  13.209 -10.732  1.00  0.00    -0.200 F 
ENDBRANCH  37  60
ENDBRANCH  11  12
ENDBRANCH   4   6
ENDBRANCH   3   4
ENDBRANCH   2   3
ENDBRANCH   1   2
BRANCH   1  71
ATOM     71  O   UNL     1       4.065  -0.888  -1.174  1.00  0.00    -0.374 OA
BRANCH  71  72
ATOM     72  C   UNL     1       2.744  -1.274  -1.566  1.00  0.00     0.202 C 
BRANCH  72  73
ATOM     73  C   UNL     1       2.787  -2.265  -2.731  1.00  0.00     0.261 C 
BRANCH  73  74
ATOM     74  O   UNL     1       3.400  -3.494  -2.305  1.00  0.00    -0.460 OA
BRANCH  74  75
ATOM     75  C   UNL     1       4.737  -3.569  -2.514  1.00  0.00     0.338 C 
ATOM     76  O   UNL     1       5.442  -2.812  -3.157  1.00  0.00    -0.246 OA
BRANCH  75  77
ATOM     77  C   UNL     1       5.271  -4.629  -1.640  1.00  0.00     0.060 A 
ATOM     78  C   UNL     1       4.714  -5.911  -1.617  1.00  0.00     0.016 A 
ATOM     79  C   UNL     1       6.327  -4.299  -0.786  1.00  0.00     0.030 A 
ATOM     80  C   UNL     1       5.249  -6.876  -0.760  1.00  0.00     0.015 A 
ATOM     81  C   UNL     1       6.803  -5.243   0.126  1.00  0.00     0.055 A 
ATOM     82  C   UNL     1       6.300  -6.542   0.108  1.00  0.00     0.054 A 
ATOM     83  C   UNL     1       7.788  -4.837   1.145  1.00  0.00     0.270 A 
ATOM     84  C   UNL     1       6.904  -7.572   0.976  1.00  0.00     0.270 A 
ATOM     85  N   UNL     1       8.285  -5.831   1.950  1.00  0.00    -0.263 N 
ATOM     86  O   UNL     1       8.104  -3.662   1.290  1.00  0.00    -0.267 OA
ATOM     87  O   UNL     1       6.548  -8.742   0.916  1.00  0.00    -0.267 OA
ATOM     88  N   UNL     1       7.904  -7.158   1.823  1.00  0.00    -0.263 N 
ATOM     89  H   UNL     1       8.939  -5.592   2.646  1.00  0.00     0.191 HD
ATOM     90  H   UNL     1       8.371  -7.835   2.365  1.00  0.00     0.191 HD
ENDBRANCH  75  77
ENDBRANCH  74  75
ENDBRANCH  73  74
ENDBRANCH  72  73
ENDBRANCH  71  72
ENDBRANCH   1  71
TORSDOF 14
