REMARK SMILES O=C(OCCOCCOC(=O)[C@H]1C=C[C@@H](NS(=O)(=O)c2ccccc2)C1)c1ccc(-c2c3nc(c(-c4c(F)c(F)c(F)c(F)c4F)c4ccc([nH]4)c(-c4c(F)c(F)c(F)c(F)c4F)c4nc(c(-c5c(F)c(F)c(F)c(F)c5F)c5ccc2[nH]5)C=C4)C=C3)cc1
REMARK SMILES IDX 7 1 6 2 5 3 4 4 3 5 2 6 1 7 27 8 28 9 89 10 29 11 88 12
REMARK SMILES IDX 30 13 31 14 32 15 82 16 33 17 87 18 81 19 83 20 34 21 86 22
REMARK SMILES IDX 80 23 79 24 35 26 67 27 47 28 66 29 48 30 51 31 65 32 84 33
REMARK SMILES IDX 49 34 50 35 64 37 85 38 52 39 36 40 37 41 45 42 38 43 39 44
REMARK SMILES IDX 43 45 46 46 40 47 41 48 44 49 42 50 68 51 69 52 77 53 70 54
REMARK SMILES IDX 71 55 75 56 78 57 72 58 73 59 76 60 74 61 53 62 54 63 62 64
REMARK SMILES IDX 55 65 56 66 60 67 63 68 57 69 58 70 61 71 59 72 8 73 9 74
REMARK SMILES IDX 10 75 11 76 12 77 13 78 26 79 14 80 15 81 16 82 17 84 18 85
REMARK SMILES IDX 19 86 20 87 21 88 25 89 22 90 24 91 23 92
REMARK H PARENT 83 25 51 36 16 83
REMARK Flexibility Score: inf
ROOT
ATOM      1  C   UNL     1       2.640   0.546  -2.147  1.00  0.00     0.202 C 
ENDROOT
BRANCH   1   2
ATOM      2  O   UNL     1       4.011   0.509  -1.732  1.00  0.00    -0.374 OA
BRANCH   2   3
ATOM      3  C   UNL     1       4.480  -0.741  -1.215  1.00  0.00     0.202 C 
BRANCH   3   4
ATOM      4  C   UNL     1       4.130  -1.074   0.243  1.00  0.00     0.261 C 
BRANCH   4   5
ATOM      5  O   UNL     1       2.718  -0.929   0.488  1.00  0.00    -0.460 OA
BRANCH   5   6
ATOM      6  C   UNL     1       2.072   0.139   1.015  1.00  0.00     0.338 C 
ATOM      7  O   UNL     1       0.850   0.102   1.135  1.00  0.00    -0.246 OA
BRANCH   6   8
ATOM      8  C   UNL     1       2.788   1.357   1.489  1.00  0.00     0.060 A 
ATOM      9  C   UNL     1       3.990   1.814   0.954  1.00  0.00     0.016 A 
ATOM     10  C   UNL     1       2.189   2.115   2.507  1.00  0.00     0.016 A 
ATOM     11  C   UNL     1       4.652   2.902   1.475  1.00  0.00     0.010 A 
ATOM     12  C   UNL     1       2.821   3.259   3.007  1.00  0.00     0.010 A 
ATOM     13  C   UNL     1       4.076   3.626   2.508  1.00  0.00    -0.014 A 
BRANCH  13  14
ATOM     14  C   UNL     1       4.927   4.654   3.120  1.00  0.00     0.031 A 
ATOM     15  C   UNL     1       5.599   4.322   4.414  1.00  0.00     0.074 A 
ATOM     16  C   UNL     1       5.259   5.736   2.395  1.00  0.00     0.049 A 
ATOM     17  N   UNL     1       6.425   5.037   5.125  1.00  0.00    -0.248 NA
ATOM     18  C   UNL     1       5.321   2.986   4.972  1.00  0.00     0.031 C 
ATOM     19  C   UNL     1       4.775   6.022   1.040  1.00  0.00     0.029 A 
ATOM     20  N   UNL     1       6.127   6.757   2.661  1.00  0.00    -0.354 N 
ATOM     21  C   UNL     1       6.728   4.260   6.234  1.00  0.00     0.074 A 
ATOM     22  C   UNL     1       6.011   3.014   6.101  1.00  0.00     0.031 C 
ATOM     23  C   UNL     1       5.390   7.121   0.578  1.00  0.00     0.029 A 
ATOM     24  C   UNL     1       6.242   7.658   1.632  1.00  0.00     0.049 A 
ATOM     25  H   UNL     1       6.622   6.838   3.508  1.00  0.00     0.167 HD
ATOM     26  C   UNL     1       7.526   4.583   7.277  1.00  0.00     0.037 A 
ATOM     27  C   UNL     1       6.941   8.805   1.576  1.00  0.00     0.037 A 
ATOM     28  C   UNL     1       8.234   5.831   7.358  1.00  0.00     0.049 A 
ATOM     29  C   UNL     1       7.743   9.185   2.790  1.00  0.00     0.074 A 
ATOM     30  C   UNL     1       9.012   6.325   8.387  1.00  0.00     0.029 A 
ATOM     31  N   UNL     1       8.246   6.786   6.347  1.00  0.00    -0.354 N 
ATOM     32  N   UNL     1       7.946   8.503   3.894  1.00  0.00    -0.248 NA
ATOM     33  C   UNL     1       8.396  10.498   2.764  1.00  0.00     0.031 C 
ATOM     34  C   UNL     1       9.454   7.601   8.017  1.00  0.00     0.029 A 
ATOM     35  C   UNL     1       9.003   7.877   6.733  1.00  0.00     0.049 A 
ATOM     36  H   UNL     1       7.783   6.698   5.482  1.00  0.00     0.167 HD
ATOM     37  C   UNL     1       8.768   9.289   4.685  1.00  0.00     0.074 A 
ATOM     38  C   UNL     1       9.038  10.495   3.923  1.00  0.00     0.031 C 
ATOM     39  C   UNL     1       9.256   9.046   5.927  1.00  0.00     0.037 A 
BRANCH  26  40
ATOM     40  C   UNL     1       7.566   3.619   8.425  1.00  0.00     0.064 A 
ATOM     41  C   UNL     1       8.194   2.367   8.337  1.00  0.00     0.173 A 
ATOM     42  C   UNL     1       6.899   3.934   9.619  1.00  0.00     0.173 A 
ATOM     43  F   UNL     1       8.815   2.001   7.206  1.00  0.00    -0.203 F 
ATOM     44  C   UNL     1       8.118   1.453   9.387  1.00  0.00     0.198 A 
ATOM     45  C   UNL     1       6.851   3.030  10.677  1.00  0.00     0.198 A 
ATOM     46  F   UNL     1       6.273   5.113   9.752  1.00  0.00    -0.203 F 
ATOM     47  F   UNL     1       8.661   0.235   9.254  1.00  0.00    -0.200 F 
ATOM     48  C   UNL     1       7.449   1.786  10.556  1.00  0.00     0.200 A 
ATOM     49  F   UNL     1       6.205   3.356  11.805  1.00  0.00    -0.200 F 
ATOM     50  F   UNL     1       7.364   0.900  11.558  1.00  0.00    -0.200 F 
ENDBRANCH  26  40
BRANCH  27  51
ATOM     51  C   UNL     1       6.870   9.675   0.372  1.00  0.00     0.064 A 
ATOM     52  C   UNL     1       8.005   9.936  -0.408  1.00  0.00     0.173 A 
ATOM     53  C   UNL     1       5.662  10.274  -0.022  1.00  0.00     0.173 A 
ATOM     54  F   UNL     1       9.189   9.407  -0.067  1.00  0.00    -0.203 F 
ATOM     55  C   UNL     1       7.938  10.773  -1.523  1.00  0.00     0.198 A 
ATOM     56  C   UNL     1       5.589  11.083  -1.154  1.00  0.00     0.198 A 
ATOM     57  F   UNL     1       4.544  10.064   0.688  1.00  0.00    -0.203 F 
ATOM     58  F   UNL     1       9.048  11.042  -2.223  1.00  0.00    -0.200 F 
ATOM     59  C   UNL     1       6.729  11.339  -1.899  1.00  0.00     0.200 A 
ATOM     60  F   UNL     1       4.415  11.616  -1.520  1.00  0.00    -0.200 F 
ATOM     61  F   UNL     1       6.665  12.140  -2.971  1.00  0.00    -0.200 F 
ENDBRANCH  27  51
BRANCH  39  62
ATOM     62  C   UNL     1      10.172  10.082   6.503  1.00  0.00     0.064 A 
ATOM     63  C   UNL     1       9.696  11.323   6.950  1.00  0.00     0.173 A 
ATOM     64  C   UNL     1      11.540   9.807   6.642  1.00  0.00     0.173 A 
ATOM     65  F   UNL     1       8.398  11.635   6.821  1.00  0.00    -0.203 F 
ATOM     66  C   UNL     1      10.566  12.264   7.491  1.00  0.00     0.198 A 
ATOM     67  C   UNL     1      12.400  10.737   7.214  1.00  0.00     0.198 A 
ATOM     68  F   UNL     1      12.039   8.630   6.235  1.00  0.00    -0.203 F 
ATOM     69  F   UNL     1      10.101  13.464   7.864  1.00  0.00    -0.200 F 
ATOM     70  C   UNL     1      11.914  11.968   7.630  1.00  0.00     0.200 A 
ATOM     71  F   UNL     1      13.699  10.444   7.362  1.00  0.00    -0.200 F 
ATOM     72  F   UNL     1      12.748  12.873   8.159  1.00  0.00    -0.200 F 
ENDBRANCH  39  62
ENDBRANCH  13  14
ENDBRANCH   6   8
ENDBRANCH   5   6
ENDBRANCH   4   5
ENDBRANCH   3   4
ENDBRANCH   2   3
ENDBRANCH   1   2
BRANCH   1  73
ATOM     73  C   UNL     1       2.529   0.675  -3.665  1.00  0.00     0.261 C 
BRANCH  73  74
ATOM     74  O   UNL     1       3.041  -0.532  -4.254  1.00  0.00    -0.463 OA
BRANCH  74  75
ATOM     75  C   UNL     1       4.352  -0.473  -4.607  1.00  0.00     0.312 C 
ATOM     76  O   UNL     1       4.975   0.564  -4.808  1.00  0.00    -0.252 OA
BRANCH  75  77
ATOM     77  C   UNL     1       4.973  -1.859  -4.728  1.00  0.00     0.123 C 
ATOM     78  C   UNL     1       6.297  -1.837  -4.017  1.00  0.00    -0.015 C 
ATOM     79  C   UNL     1       4.248  -3.028  -4.027  1.00  0.00     0.043 C 
ATOM     80  C   UNL     1       6.479  -2.920  -3.257  1.00  0.00    -0.011 C 
ATOM     81  C   UNL     1       5.353  -3.884  -3.384  1.00  0.00     0.093 C 
BRANCH  81  82
ATOM     82  N   UNL     1       4.960  -4.413  -2.082  1.00  0.00    -0.204 NA
ATOM     83  H   UNL     1       4.066  -4.884  -2.216  1.00  0.00     0.142 HD
BRANCH  82  84
ATOM     84  S   UNL     1       5.962  -5.500  -1.256  1.00  0.00     0.241 S 
ATOM     85  O   UNL     1       7.187  -4.827  -0.890  1.00  0.00    -0.207 OA
ATOM     86  O   UNL     1       5.115  -6.111  -0.253  1.00  0.00    -0.207 OA
BRANCH  84  87
ATOM     87  C   UNL     1       6.363  -6.738  -2.470  1.00  0.00     0.082 A 
ATOM     88  C   UNL     1       5.723  -7.979  -2.447  1.00  0.00     0.022 A 
ATOM     89  C   UNL     1       7.344  -6.465  -3.431  1.00  0.00     0.022 A 
ATOM     90  C   UNL     1       6.024  -8.922  -3.433  1.00  0.00     0.001 A 
ATOM     91  C   UNL     1       7.612  -7.395  -4.433  1.00  0.00     0.001 A 
ATOM     92  C   UNL     1       6.950  -8.622  -4.435  1.00  0.00     0.000 A 
ENDBRANCH  84  87
ENDBRANCH  82  84
ENDBRANCH  81  82
ENDBRANCH  75  77
ENDBRANCH  74  75
ENDBRANCH  73  74
ENDBRANCH   1  73
TORSDOF 17
