REMARK SMILES C[N@@H+]1[C@H]2CC[C@@H]1[C@@H](C(=O)OCCOCCOC(=O)c1ccc(-c3c4nc(c(-c5c(F)c(F)c(F)c(F)c5F)c5ccc([nH]5)c(-c5c(F)c(F)c(F)c(F)c5F)c5nc(c(-c6c(F)c(F)c(F)c(F)c6F)c6ccc3[nH]6)C=C5)C=C4)cc1)[C@@H](OC(=O)c1ccccc1)C2
REMARK SMILES IDX 12 1 11 2 10 3 8 4 9 5 7 6 1 7 2 8 3 9 6 10 4 12 92 13 5 14
REMARK SMILES IDX 82 15 83 16 84 17 85 18 86 19 87 20 91 21 88 22 90 23 89 24
REMARK SMILES IDX 13 25 14 26 15 27 16 28 17 29 18 30 19 31 20 32 81 33 21 34
REMARK SMILES IDX 80 35 22 36 23 37 24 38 74 39 25 40 79 41 73 42 75 43 26 44
REMARK SMILES IDX 78 45 72 46 71 47 27 49 59 50 39 51 58 52 40 53 43 54 57 55
REMARK SMILES IDX 76 56 41 57 42 58 56 60 77 61 44 62 28 63 29 64 37 65 30 66
REMARK SMILES IDX 31 67 35 68 38 69 32 70 33 71 36 72 34 73 60 74 61 75 69 76
REMARK SMILES IDX 62 77 63 78 67 79 70 80 64 81 65 82 68 83 66 84 45 85 46 86
REMARK SMILES IDX 54 87 47 88 48 89 52 90 55 91 49 92 50 93 53 94 51 95
REMARK H PARENT 2 11 75 48 43 59
REMARK Flexibility Score: inf
ROOT
ATOM      1  C   UNL     1      -3.370  -3.936   2.221  1.00  0.00     0.202 C 
ENDROOT
BRANCH   1   2
ATOM      2  C   UNL     1      -3.005  -2.466   1.966  1.00  0.00     0.261 C 
BRANCH   2   3
ATOM      3  O   UNL     1      -1.780  -2.243   1.218  1.00  0.00    -0.463 OA
BRANCH   3   4
ATOM      4  C   UNL     1      -0.814  -1.551   1.868  1.00  0.00     0.318 C 
ATOM      5  O   UNL     1      -0.862  -1.294   3.072  1.00  0.00    -0.252 OA
BRANCH   4   6
ATOM      6  C   UNL     1       0.283  -0.943   1.017  1.00  0.00     0.198 C 
ATOM      7  C   UNL     1      -2.269   0.218  -0.463  1.00  0.00     0.333 C 
ATOM      8  N   UNL     1      -0.944   0.792  -0.380  1.00  0.00    -0.332 N 
ATOM      9  C   UNL     1      -0.052   0.485  -1.491  1.00  0.00     0.188 C 
ATOM     10  C   UNL     1      -0.133   0.538   0.815  1.00  0.00     0.202 C 
ATOM     11  H   UNL     1      -1.253   1.764  -0.373  1.00  0.00     0.348 HD
ATOM     12  C   UNL     1       1.157   1.337  -1.074  1.00  0.00     0.071 C 
ATOM     13  C   UNL     1       0.273  -1.021  -1.561  1.00  0.00     0.111 C 
ATOM     14  C   UNL     1       1.089   1.393   0.457  1.00  0.00     0.072 C 
ATOM     15  C   UNL     1       0.894  -1.576  -0.265  1.00  0.00     0.203 C 
BRANCH  15  16
ATOM     16  O   UNL     1       1.037  -3.024  -0.183  1.00  0.00    -0.457 OA
BRANCH  16  17
ATOM     17  C   UNL     1       1.508  -3.734  -1.256  1.00  0.00     0.338 C 
ATOM     18  O   UNL     1       1.704  -3.320  -2.383  1.00  0.00    -0.246 OA
BRANCH  17  19
ATOM     19  C   UNL     1       1.657  -5.176  -0.923  1.00  0.00     0.060 A 
ATOM     20  C   UNL     1       1.029  -6.124  -1.742  1.00  0.00     0.015 A 
ATOM     21  C   UNL     1       2.345  -5.600   0.219  1.00  0.00     0.015 A 
ATOM     22  C   UNL     1       0.951  -7.459  -1.339  1.00  0.00     0.001 A 
ATOM     23  C   UNL     1       2.285  -6.944   0.607  1.00  0.00     0.001 A 
ATOM     24  C   UNL     1       1.558  -7.863  -0.152  1.00  0.00     0.000 A 
ENDBRANCH  17  19
ENDBRANCH  16  17
ENDBRANCH  15  16
ENDBRANCH   4   6
ENDBRANCH   3   4
ENDBRANCH   2   3
ENDBRANCH   1   2
BRANCH   1  25
ATOM     25  O   UNL     1      -2.557  -4.700   3.102  1.00  0.00    -0.374 OA
BRANCH  25  26
ATOM     26  C   UNL     1      -1.160  -4.664   2.893  1.00  0.00     0.202 C 
BRANCH  26  27
ATOM     27  C   UNL     1      -0.617  -5.161   1.552  1.00  0.00     0.261 C 
BRANCH  27  28
ATOM     28  O   UNL     1      -1.312  -4.755   0.354  1.00  0.00    -0.460 OA
BRANCH  28  29
ATOM     29  C   UNL     1      -1.990  -5.746  -0.273  1.00  0.00     0.338 C 
ATOM     30  O   UNL     1      -2.079  -6.908   0.096  1.00  0.00    -0.246 OA
BRANCH  29  31
ATOM     31  C   UNL     1      -2.774  -5.269  -1.437  1.00  0.00     0.060 A 
ATOM     32  C   UNL     1      -4.134  -5.596  -1.433  1.00  0.00     0.016 A 
ATOM     33  C   UNL     1      -2.204  -4.704  -2.583  1.00  0.00     0.016 A 
ATOM     34  C   UNL     1      -4.904  -5.432  -2.584  1.00  0.00     0.010 A 
ATOM     35  C   UNL     1      -2.976  -4.559  -3.751  1.00  0.00     0.010 A 
ATOM     36  C   UNL     1      -4.325  -4.950  -3.768  1.00  0.00    -0.014 A 
BRANCH  36  37
ATOM     37  C   UNL     1      -5.171  -4.858  -4.989  1.00  0.00     0.031 A 
ATOM     38  C   UNL     1      -5.125  -5.922  -6.052  1.00  0.00     0.074 A 
ATOM     39  C   UNL     1      -6.057  -3.851  -5.092  1.00  0.00     0.049 A 
ATOM     40  N   UNL     1      -5.882  -6.065  -7.114  1.00  0.00    -0.248 NA
ATOM     41  C   UNL     1      -4.101  -6.965  -5.903  1.00  0.00     0.031 C 
ATOM     42  C   UNL     1      -6.210  -2.770  -4.121  1.00  0.00     0.029 A 
ATOM     43  N   UNL     1      -7.007  -3.584  -6.047  1.00  0.00    -0.354 N 
ATOM     44  C   UNL     1      -5.444  -7.222  -7.746  1.00  0.00     0.074 A 
ATOM     45  C   UNL     1      -4.322  -7.718  -6.974  1.00  0.00     0.031 C 
ATOM     46  C   UNL     1      -7.207  -1.963  -4.519  1.00  0.00     0.029 A 
ATOM     47  C   UNL     1      -7.745  -2.456  -5.784  1.00  0.00     0.049 A 
ATOM     48  H   UNL     1      -7.146  -4.146  -6.843  1.00  0.00     0.167 HD
ATOM     49  C   UNL     1      -5.942  -7.824  -8.857  1.00  0.00     0.037 A 
ATOM     50  C   UNL     1      -8.742  -1.882  -6.485  1.00  0.00     0.037 A 
ATOM     51  C   UNL     1      -7.045  -7.317  -9.638  1.00  0.00     0.049 A 
ATOM     52  C   UNL     1      -9.222  -2.531  -7.756  1.00  0.00     0.074 A 
ATOM     53  C   UNL     1      -7.621  -7.859 -10.775  1.00  0.00     0.029 A 
ATOM     54  N   UNL     1      -7.733  -6.142  -9.370  1.00  0.00    -0.354 N 
ATOM     55  N   UNL     1      -8.837  -3.654  -8.311  1.00  0.00    -0.248 NA
ATOM     56  C   UNL     1     -10.287  -1.835  -8.492  1.00  0.00     0.031 C 
ATOM     57  C   UNL     1      -8.620  -6.988 -11.224  1.00  0.00     0.029 A 
ATOM     58  C   UNL     1      -8.709  -5.932 -10.333  1.00  0.00     0.049 A 
ATOM     59  H   UNL     1      -7.554  -5.545  -8.607  1.00  0.00     0.167 HD
ATOM     60  C   UNL     1      -9.632  -3.815  -9.439  1.00  0.00     0.074 A 
ATOM     61  C   UNL     1     -10.534  -2.684  -9.479  1.00  0.00     0.031 C 
ATOM     62  C   UNL     1      -9.613  -4.810 -10.360  1.00  0.00     0.037 A 
BRANCH  49  63
ATOM     63  C   UNL     1      -5.301  -9.108  -9.307  1.00  0.00     0.064 A 
ATOM     64  C   UNL     1      -5.467 -10.300  -8.586  1.00  0.00     0.173 A 
ATOM     65  C   UNL     1      -4.580  -9.168 -10.510  1.00  0.00     0.173 A 
ATOM     66  F   UNL     1      -6.147 -10.301  -7.430  1.00  0.00    -0.203 F 
ATOM     67  C   UNL     1      -4.917 -11.497  -9.040  1.00  0.00     0.198 A 
ATOM     68  C   UNL     1      -4.056 -10.372 -10.976  1.00  0.00     0.198 A 
ATOM     69  F   UNL     1      -4.404  -8.062 -11.249  1.00  0.00    -0.203 F 
ATOM     70  F   UNL     1      -5.059 -12.616  -8.315  1.00  0.00    -0.200 F 
ATOM     71  C   UNL     1      -4.219 -11.534 -10.237  1.00  0.00     0.200 A 
ATOM     72  F   UNL     1      -3.398 -10.409 -12.143  1.00  0.00    -0.200 F 
ATOM     73  F   UNL     1      -3.702 -12.689 -10.679  1.00  0.00    -0.200 F 
ENDBRANCH  49  63
BRANCH  50  74
ATOM     74  C   UNL     1      -9.361  -0.619  -6.001  1.00  0.00     0.064 A 
ATOM     75  C   UNL     1     -10.700  -0.579  -5.588  1.00  0.00     0.173 A 
ATOM     76  C   UNL     1      -8.633   0.580  -5.975  1.00  0.00     0.173 A 
ATOM     77  F   UNL     1     -11.443  -1.694  -5.615  1.00  0.00    -0.203 F 
ATOM     78  C   UNL     1     -11.296   0.619  -5.197  1.00  0.00     0.198 A 
ATOM     79  C   UNL     1      -9.221   1.770  -5.551  1.00  0.00     0.198 A 
ATOM     80  F   UNL     1      -7.348   0.596  -6.357  1.00  0.00    -0.203 F 
ATOM     81  F   UNL     1     -12.594   0.640  -4.866  1.00  0.00    -0.200 F 
ATOM     82  C   UNL     1     -10.555   1.790  -5.174  1.00  0.00     0.200 A 
ATOM     83  F   UNL     1      -8.496   2.896  -5.515  1.00  0.00    -0.200 F 
ATOM     84  F   UNL     1     -11.129   2.942  -4.800  1.00  0.00    -0.200 F 
ENDBRANCH  50  74
BRANCH  62  85
ATOM     85  C   UNL     1     -10.629  -4.745 -11.466  1.00  0.00     0.064 A 
ATOM     86  C   UNL     1     -10.555  -3.781 -12.483  1.00  0.00     0.173 A 
ATOM     87  C   UNL     1     -11.679  -5.675 -11.522  1.00  0.00     0.173 A 
ATOM     88  F   UNL     1      -9.581  -2.858 -12.468  1.00  0.00    -0.203 F 
ATOM     89  C   UNL     1     -11.512  -3.729 -13.494  1.00  0.00     0.198 A 
ATOM     90  C   UNL     1     -12.615  -5.641 -12.553  1.00  0.00     0.198 A 
ATOM     91  F   UNL     1     -11.795  -6.622 -10.579  1.00  0.00    -0.203 F 
ATOM     92  F   UNL     1     -11.452  -2.764 -14.421  1.00  0.00    -0.200 F 
ATOM     93  C   UNL     1     -12.536  -4.663 -13.532  1.00  0.00     0.200 A 
ATOM     94  F   UNL     1     -13.596  -6.553 -12.595  1.00  0.00    -0.200 F 
ATOM     95  F   UNL     1     -13.453  -4.615 -14.508  1.00  0.00    -0.200 F 
ENDBRANCH  62  85
ENDBRANCH  36  37
ENDBRANCH  29  31
ENDBRANCH  28  29
ENDBRANCH  27  28
ENDBRANCH  26  27
ENDBRANCH  25  26
ENDBRANCH   1  25
TORSDOF 17
