REMARK SMILES CC(C)[C@H](CO)Nc1ccc(C(F)(F)F)cc1C(=O)OCCOCCOC(=O)c1ccc(-c2c3nc(c(-c4c(F)c(F)c(F)c(F)c4F)c4ccc([nH]4)c(-c4c(F)c(F)c(F)c(F)c4F)c4nc(c(-c5c(F)c(F)c(F)c(F)c5F)c5ccc2[nH]5)C=C4)C=C3)cc1
REMARK SMILES IDX 22 1 21 2 20 3 18 4 19 5 17 6 8 7 9 8 10 9 16 10 11 11 7 12
REMARK SMILES IDX 4 14 2 15 1 16 3 17 5 18 6 19 12 21 13 22 14 23 15 24 23 25
REMARK SMILES IDX 24 26 25 27 26 28 27 29 28 30 29 31 30 32 91 33 31 34 90 35
REMARK SMILES IDX 32 36 33 37 34 38 84 39 35 40 89 41 83 42 85 43 36 44 88 45
REMARK SMILES IDX 82 46 81 47 37 49 69 50 49 51 68 52 50 53 53 54 67 55 86 56
REMARK SMILES IDX 51 57 52 58 66 60 87 61 54 62 38 63 39 64 47 65 40 66 41 67
REMARK SMILES IDX 45 68 48 69 42 70 43 71 46 72 44 73 70 74 71 75 79 76 72 77
REMARK SMILES IDX 73 78 77 79 80 80 74 81 75 82 78 83 76 84 55 85 56 86 64 87
REMARK SMILES IDX 57 88 58 89 62 90 65 91 59 92 60 93 63 94 61 95
REMARK H PARENT 7 13 6 20 85 48 53 59
REMARK Flexibility Score: inf
ROOT
ATOM      1  C   UNL     1      -4.634  -1.083   0.427  1.00  0.00     0.202 C 
ENDROOT
BRANCH   1   2
ATOM      2  C   UNL     1      -3.710  -1.125  -0.798  1.00  0.00     0.261 C 
BRANCH   2   3
ATOM      3  O   UNL     1      -3.137   0.179  -1.007  1.00  0.00    -0.460 OA
BRANCH   3   4
ATOM      4  C   UNL     1      -2.805   0.481  -2.279  1.00  0.00     0.340 C 
ATOM      5  O   UNL     1      -2.760  -0.300  -3.216  1.00  0.00    -0.246 OA
BRANCH   4   6
ATOM      6  C   UNL     1      -2.793   1.952  -2.452  1.00  0.00     0.083 A 
ATOM      7  C   UNL     1      -2.026   2.881  -1.729  1.00  0.00     0.049 A 
ATOM      8  C   UNL     1      -2.197   4.241  -2.093  1.00  0.00     0.027 A 
ATOM      9  C   UNL     1      -3.098   4.675  -3.067  1.00  0.00     0.015 A 
ATOM     10  C   UNL     1      -3.725   2.397  -3.429  1.00  0.00     0.031 A 
ATOM     11  C   UNL     1      -3.901   3.755  -3.730  1.00  0.00     0.057 A 
BRANCH   7  12
ATOM     12  N   UNL     1      -1.109   2.693  -0.721  1.00  0.00    -0.379 N 
ATOM     13  H   UNL     1      -0.968   3.504  -0.181  1.00  0.00     0.160 HD
BRANCH  12  14
ATOM     14  C   UNL     1      -0.296   1.565  -0.267  1.00  0.00     0.107 C 
BRANCH  14  15
ATOM     15  C   UNL     1      -0.469   1.377   1.276  1.00  0.00     0.007 C 
ATOM     16  C   UNL     1      -0.725   2.675   2.053  1.00  0.00     0.009 C 
ATOM     17  C   UNL     1      -1.571   0.379   1.584  1.00  0.00     0.009 C 
ENDBRANCH  14  15
BRANCH  14  18
ATOM     18  C   UNL     1       1.186   1.882  -0.630  1.00  0.00     0.181 C 
BRANCH  18  19
ATOM     19  O   UNL     1       2.143   1.185   0.164  1.00  0.00    -0.394 OA
ATOM     20  H   UNL     1       2.046   1.448   1.092  1.00  0.00     0.210 HD
ENDBRANCH  18  19
ENDBRANCH  14  18
ENDBRANCH  12  14
ENDBRANCH   7  12
BRANCH  11  21
ATOM     21  C   UNL     1      -4.899   4.225  -4.757  1.00  0.00     0.416 C 
ATOM     22  F   UNL     1      -5.483   5.409  -4.414  1.00  0.00    -0.166 F 
ATOM     23  F   UNL     1      -4.333   4.429  -5.977  1.00  0.00    -0.166 F 
ATOM     24  F   UNL     1      -5.924   3.352  -4.953  1.00  0.00    -0.166 F 
ENDBRANCH  11  21
ENDBRANCH   4   6
ENDBRANCH   3   4
ENDBRANCH   2   3
ENDBRANCH   1   2
BRANCH   1  25
ATOM     25  O   UNL     1      -5.808  -0.296   0.213  1.00  0.00    -0.374 OA
BRANCH  25  26
ATOM     26  C   UNL     1      -5.643   1.119   0.332  1.00  0.00     0.202 C 
BRANCH  26  27
ATOM     27  C   UNL     1      -5.999   1.658   1.719  1.00  0.00     0.261 C 
BRANCH  27  28
ATOM     28  O   UNL     1      -4.905   1.493   2.642  1.00  0.00    -0.460 OA
BRANCH  28  29
ATOM     29  C   UNL     1      -5.026   0.491   3.544  1.00  0.00     0.338 C 
ATOM     30  O   UNL     1      -5.958  -0.285   3.666  1.00  0.00    -0.246 OA
BRANCH  29  31
ATOM     31  C   UNL     1      -3.773   0.379   4.326  1.00  0.00     0.060 A 
ATOM     32  C   UNL     1      -3.298  -0.902   4.634  1.00  0.00     0.016 A 
ATOM     33  C   UNL     1      -3.060   1.508   4.743  1.00  0.00     0.016 A 
ATOM     34  C   UNL     1      -2.111  -1.057   5.358  1.00  0.00     0.010 A 
ATOM     35  C   UNL     1      -1.871   1.351   5.467  1.00  0.00     0.010 A 
ATOM     36  C   UNL     1      -1.396   0.068   5.792  1.00  0.00    -0.014 A 
BRANCH  36  37
ATOM     37  C   UNL     1      -0.244  -0.090   6.716  1.00  0.00     0.031 A 
ATOM     38  C   UNL     1      -0.463   0.153   8.184  1.00  0.00     0.074 A 
ATOM     39  C   UNL     1       0.975  -0.449   6.273  1.00  0.00     0.049 A 
ATOM     40  N   UNL     1       0.381   0.060   9.180  1.00  0.00    -0.248 NA
ATOM     41  C   UNL     1      -1.818   0.568   8.578  1.00  0.00     0.031 C 
ATOM     42  C   UNL     1       1.331  -0.713   4.881  1.00  0.00     0.029 A 
ATOM     43  N   UNL     1       2.147  -0.653   6.963  1.00  0.00    -0.354 N 
ATOM     44  C   UNL     1      -0.342   0.400  10.315  1.00  0.00     0.074 A 
ATOM     45  C   UNL     1      -1.675   0.754   9.881  1.00  0.00     0.031 C 
ATOM     46  C   UNL     1       2.633  -1.047   4.819  1.00  0.00     0.029 A 
ATOM     47  C   UNL     1       3.206  -1.010   6.164  1.00  0.00     0.049 A 
ATOM     48  H   UNL     1       2.221  -0.552   7.940  1.00  0.00     0.167 HD
ATOM     49  C   UNL     1       0.058   0.395  11.609  1.00  0.00     0.037 A 
ATOM     50  C   UNL     1       4.488  -1.276   6.486  1.00  0.00     0.037 A 
ATOM     51  C   UNL     1       1.379   0.044  12.052  1.00  0.00     0.049 A 
ATOM     52  C   UNL     1       4.924  -1.227   7.930  1.00  0.00     0.074 A 
ATOM     53  C   UNL     1       1.868  -0.018  13.345  1.00  0.00     0.029 A 
ATOM     54  N   UNL     1       2.427  -0.297  11.211  1.00  0.00    -0.354 N 
ATOM     55  N   UNL     1       4.217  -0.968   9.003  1.00  0.00    -0.248 NA
ATOM     56  C   UNL     1       6.340  -1.516   8.207  1.00  0.00     0.031 C 
ATOM     57  C   UNL     1       3.225  -0.353  13.284  1.00  0.00     0.029 A 
ATOM     58  C   UNL     1       3.568  -0.547  11.955  1.00  0.00     0.049 A 
ATOM     59  H   UNL     1       2.368  -0.354  10.229  1.00  0.00     0.167 HD
ATOM     60  C   UNL     1       5.088  -1.098  10.079  1.00  0.00     0.074 A 
ATOM     61  C   UNL     1       6.376  -1.466   9.531  1.00  0.00     0.031 C 
ATOM     62  C   UNL     1       4.842  -0.929  11.401  1.00  0.00     0.037 A 
BRANCH  49  63
ATOM     63  C   UNL     1      -0.959   0.794  12.636  1.00  0.00     0.064 A 
ATOM     64  C   UNL     1      -2.047  -0.034  12.950  1.00  0.00     0.173 A 
ATOM     65  C   UNL     1      -0.844   2.017  13.314  1.00  0.00     0.173 A 
ATOM     66  F   UNL     1      -2.209  -1.205  12.316  1.00  0.00    -0.203 F 
ATOM     67  C   UNL     1      -3.003   0.364  13.880  1.00  0.00     0.198 A 
ATOM     68  C   UNL     1      -1.786   2.397  14.265  1.00  0.00     0.198 A 
ATOM     69  F   UNL     1       0.179   2.843  13.051  1.00  0.00    -0.203 F 
ATOM     70  F   UNL     1      -4.066  -0.417  14.121  1.00  0.00    -0.200 F 
ATOM     71  C   UNL     1      -2.870   1.576  14.540  1.00  0.00     0.200 A 
ATOM     72  F   UNL     1      -1.652   3.565  14.908  1.00  0.00    -0.200 F 
ATOM     73  F   UNL     1      -3.793   1.959  15.433  1.00  0.00    -0.200 F 
ENDBRANCH  49  63
BRANCH  50  74
ATOM     74  C   UNL     1       5.466  -1.637   5.425  1.00  0.00     0.064 A 
ATOM     75  C   UNL     1       5.989  -2.935   5.338  1.00  0.00     0.173 A 
ATOM     76  C   UNL     1       5.931  -0.684   4.508  1.00  0.00     0.173 A 
ATOM     77  F   UNL     1       5.599  -3.873   6.214  1.00  0.00    -0.203 F 
ATOM     78  C   UNL     1       6.957  -3.261   4.389  1.00  0.00     0.198 A 
ATOM     79  C   UNL     1       6.881  -1.017   3.543  1.00  0.00     0.198 A 
ATOM     80  F   UNL     1       5.467   0.574   4.553  1.00  0.00    -0.203 F 
ATOM     81  F   UNL     1       7.479  -4.494   4.364  1.00  0.00    -0.200 F 
ATOM     82  C   UNL     1       7.399  -2.302   3.490  1.00  0.00     0.200 A 
ATOM     83  F   UNL     1       7.304  -0.088   2.675  1.00  0.00    -0.200 F 
ATOM     84  F   UNL     1       8.336  -2.612   2.584  1.00  0.00    -0.200 F 
ENDBRANCH  50  74
BRANCH  62  85
ATOM     85  C   UNL     1       5.971  -1.177  12.360  1.00  0.00     0.064 A 
ATOM     86  C   UNL     1       7.048  -0.287  12.479  1.00  0.00     0.173 A 
ATOM     87  C   UNL     1       5.944  -2.292  13.214  1.00  0.00     0.173 A 
ATOM     88  F   UNL     1       7.127   0.786  11.678  1.00  0.00    -0.203 F 
ATOM     89  C   UNL     1       8.065  -0.513  13.403  1.00  0.00     0.198 A 
ATOM     90  C   UNL     1       6.947  -2.499  14.156  1.00  0.00     0.198 A 
ATOM     91  F   UNL     1       4.932  -3.170  13.146  1.00  0.00    -0.203 F 
ATOM     92  F   UNL     1       9.104   0.331  13.473  1.00  0.00    -0.200 F 
ATOM     93  C   UNL     1       8.010  -1.613  14.246  1.00  0.00     0.200 A 
ATOM     94  F   UNL     1       6.885  -3.554  14.979  1.00  0.00    -0.200 F 
ATOM     95  F   UNL     1       8.983  -1.821  15.143  1.00  0.00    -0.200 F 
ENDBRANCH  62  85
ENDBRANCH  36  37
ENDBRANCH  29  31
ENDBRANCH  28  29
ENDBRANCH  27  28
ENDBRANCH  26  27
ENDBRANCH  25  26
ENDBRANCH   1  25
TORSDOF 20
