REMARK SMILES O=C(C[C@@H]1C(=O)NCCN1C(=O)OCC1c2ccccc2-c2ccccc21)OCCOCCOC(=O)c1ccc(-c2c3nc(c(-c4c(F)c(F)c(F)c(F)c4F)c4ccc([nH]4)c(-c4c(F)c(F)c(F)c(F)c4F)c4nc(c(-c5c(F)c(F)c(F)c(F)c5F)c5ccc2[nH]5)C=C4)C=C3)cc1
REMARK SMILES IDX 29 1 28 2 2 3 1 4 3 5 4 6 5 7 10 8 6 9 7 10 9 11 8 12 11 14
REMARK SMILES IDX 12 15 13 16 14 17 15 18 16 19 27 20 17 21 21 22 22 23 26 24
REMARK SMILES IDX 18 25 20 26 23 27 25 28 19 29 24 30 30 31 31 32 32 33 33 34
REMARK SMILES IDX 34 35 35 36 36 37 37 38 38 39 99 40 39 41 98 42 40 43 41 44
REMARK SMILES IDX 42 45 92 46 43 47 97 48 91 49 93 50 44 51 96 52 90 53 89 54
REMARK SMILES IDX 45 56 77 57 57 58 76 59 58 60 61 61 75 62 94 63 59 64 60 65
REMARK SMILES IDX 74 67 95 68 62 69 46 70 47 71 55 72 48 73 49 74 53 75 56 76
REMARK SMILES IDX 50 77 51 78 54 79 52 80 78 81 79 82 87 83 80 84 81 85 85 86
REMARK SMILES IDX 88 87 82 88 83 89 86 90 84 91 63 92 64 93 72 94 65 95 66 96
REMARK SMILES IDX 70 97 73 98 67 99 68 100 71 101 69 102
REMARK H PARENT 7 13 93 55 61 66
REMARK Flexibility Score: inf
ROOT
ATOM      1  C   UNL     1       4.747  -0.419  -0.754  1.00  0.00     0.261 C 
ENDROOT
BRANCH   1   2
ATOM      2  O   UNL     1       3.372  -0.748  -0.965  1.00  0.00    -0.463 OA
BRANCH   2   3
ATOM      3  C   UNL     1       2.496  -0.823   0.068  1.00  0.00     0.308 C 
ATOM      4  O   UNL     1       1.436  -1.435  -0.050  1.00  0.00    -0.252 OA
BRANCH   3   5
ATOM      5  C   UNL     1       2.756   0.035   1.283  1.00  0.00     0.158 C 
BRANCH   5   6
ATOM      6  C   UNL     1       3.617  -0.472   2.434  1.00  0.00     0.189 C 
ATOM      7  C   UNL     1       3.741  -2.025   2.393  1.00  0.00     0.243 C 
ATOM      8  N   UNL     1       3.306   0.108   3.779  1.00  0.00    -0.294 N 
ATOM      9  O   UNL     1       4.043  -2.642   1.372  1.00  0.00    -0.273 OA
ATOM     10  N   UNL     1       3.597  -2.725   3.555  1.00  0.00    -0.353 N 
ATOM     11  C   UNL     1       3.731  -0.697   4.921  1.00  0.00     0.145 C 
ATOM     12  C   UNL     1       3.194  -2.116   4.798  1.00  0.00     0.137 C 
ATOM     13  H   UNL     1       3.776  -3.693   3.544  1.00  0.00     0.163 HD
BRANCH   8  14
ATOM     14  C   UNL     1       2.885   1.407   4.057  1.00  0.00     0.410 C 
ATOM     15  O   UNL     1       2.897   1.894   5.180  1.00  0.00    -0.224 OA
BRANCH  14  16
ATOM     16  O   UNL     1       2.405   2.070   2.973  1.00  0.00    -0.448 OA
BRANCH  16  17
ATOM     17  C   UNL     1       1.657   3.281   3.220  1.00  0.00     0.248 C 
BRANCH  17  18
ATOM     18  C   UNL     1       0.167   3.064   3.608  1.00  0.00     0.088 C 
ATOM     19  C   UNL     1      -0.260   1.609   3.758  1.00  0.00    -0.029 A 
ATOM     20  C   UNL     1      -0.121   3.598   5.009  1.00  0.00    -0.029 A 
ATOM     21  C   UNL     1      -0.409   0.647   2.775  1.00  0.00     0.005 A 
ATOM     22  C   UNL     1      -0.484   1.303   5.116  1.00  0.00    -0.014 A 
ATOM     23  C   UNL     1      -0.454   2.534   5.877  1.00  0.00    -0.014 A 
ATOM     24  C   UNL     1      -0.125   4.915   5.442  1.00  0.00     0.005 A 
ATOM     25  C   UNL     1      -0.628  -0.673   3.171  1.00  0.00     0.000 A 
ATOM     26  C   UNL     1      -0.713  -0.004   5.511  1.00  0.00     0.009 A 
ATOM     27  C   UNL     1      -0.771   2.783   7.200  1.00  0.00     0.009 A 
ATOM     28  C   UNL     1      -0.457   5.165   6.774  1.00  0.00     0.000 A 
ATOM     29  C   UNL     1      -0.755  -1.000   4.529  1.00  0.00     0.001 A 
ATOM     30  C   UNL     1      -0.771   4.109   7.647  1.00  0.00     0.001 A 
ENDBRANCH  17  18
ENDBRANCH  16  17
ENDBRANCH  14  16
ENDBRANCH   8  14
ENDBRANCH   5   6
ENDBRANCH   3   5
ENDBRANCH   2   3
ENDBRANCH   1   2
BRANCH   1  31
ATOM     31  C   UNL     1       5.153   1.007  -1.138  1.00  0.00     0.202 C 
BRANCH  31  32
ATOM     32  O   UNL     1       4.284   2.076  -0.798  1.00  0.00    -0.374 OA
BRANCH  32  33
ATOM     33  C   UNL     1       3.044   2.210  -1.500  1.00  0.00     0.202 C 
BRANCH  33  34
ATOM     34  C   UNL     1       3.083   2.364  -3.023  1.00  0.00     0.261 C 
BRANCH  34  35
ATOM     35  O   UNL     1       3.447   1.134  -3.674  1.00  0.00    -0.460 OA
BRANCH  35  36
ATOM     36  C   UNL     1       4.579   1.173  -4.410  1.00  0.00     0.338 C 
ATOM     37  O   UNL     1       5.317   2.130  -4.603  1.00  0.00    -0.246 OA
BRANCH  36  38
ATOM     38  C   UNL     1       4.928  -0.195  -4.810  1.00  0.00     0.060 A 
ATOM     39  C   UNL     1       6.099  -0.772  -4.300  1.00  0.00     0.016 A 
ATOM     40  C   UNL     1       4.136  -0.873  -5.734  1.00  0.00     0.016 A 
ATOM     41  C   UNL     1       6.488  -2.040  -4.721  1.00  0.00     0.010 A 
ATOM     42  C   UNL     1       4.540  -2.132  -6.174  1.00  0.00     0.010 A 
ATOM     43  C   UNL     1       5.725  -2.710  -5.684  1.00  0.00    -0.014 A 
BRANCH  43  44
ATOM     44  C   UNL     1       6.215  -3.967  -6.287  1.00  0.00     0.031 A 
ATOM     45  C   UNL     1       6.896  -3.904  -7.622  1.00  0.00     0.074 A 
ATOM     46  C   UNL     1       6.001  -5.141  -5.671  1.00  0.00     0.049 A 
ATOM     47  N   UNL     1       7.247  -4.878  -8.420  1.00  0.00    -0.248 NA
ATOM     48  C   UNL     1       7.218  -2.560  -8.131  1.00  0.00     0.031 C 
ATOM     49  C   UNL     1       5.385  -5.303  -4.355  1.00  0.00     0.029 A 
ATOM     50  N   UNL     1       6.246  -6.424  -6.091  1.00  0.00    -0.354 N 
ATOM     51  C   UNL     1       7.806  -4.266  -9.534  1.00  0.00     0.074 A 
ATOM     52  C   UNL     1       7.747  -2.838  -9.315  1.00  0.00     0.031 C 
ATOM     53  C   UNL     1       5.261  -6.615  -4.092  1.00  0.00     0.029 A 
ATOM     54  C   UNL     1       5.744  -7.378  -5.241  1.00  0.00     0.049 A 
ATOM     55  H   UNL     1       6.732  -6.638  -6.920  1.00  0.00     0.167 HD
ATOM     56  C   UNL     1       8.317  -4.855 -10.639  1.00  0.00     0.037 A 
ATOM     57  C   UNL     1       5.641  -8.711  -5.404  1.00  0.00     0.037 A 
ATOM     58  C   UNL     1       8.376  -6.278 -10.835  1.00  0.00     0.049 A 
ATOM     59  C   UNL     1       6.152  -9.332  -6.681  1.00  0.00     0.074 A 
ATOM     60  C   UNL     1       8.924  -6.980 -11.894  1.00  0.00     0.029 A 
ATOM     61  N   UNL     1       7.854  -7.216  -9.957  1.00  0.00    -0.354 N 
ATOM     62  N   UNL     1       6.726  -8.757  -7.711  1.00  0.00    -0.248 NA
ATOM     63  C   UNL     1       5.994 -10.786  -6.822  1.00  0.00     0.031 C 
ATOM     64  C   UNL     1       8.676  -8.340 -11.688  1.00  0.00     0.029 A 
ATOM     65  C   UNL     1       8.028  -8.490 -10.472  1.00  0.00     0.049 A 
ATOM     66  H   UNL     1       7.425  -7.008  -9.096  1.00  0.00     0.167 HD
ATOM     67  C   UNL     1       7.015  -9.777  -8.608  1.00  0.00     0.074 A 
ATOM     68  C   UNL     1       6.575 -11.011  -7.991  1.00  0.00     0.031 C 
ATOM     69  C   UNL     1       7.586  -9.703  -9.835  1.00  0.00     0.037 A 
BRANCH  56  70
ATOM     70  C   UNL     1       8.825  -3.973 -11.740  1.00  0.00     0.064 A 
ATOM     71  C   UNL     1      10.027  -3.262 -11.625  1.00  0.00     0.173 A 
ATOM     72  C   UNL     1       8.136  -3.908 -12.962  1.00  0.00     0.173 A 
ATOM     73  F   UNL     1      10.715  -3.280 -10.474  1.00  0.00    -0.203 F 
ATOM     74  C   UNL     1      10.520  -2.514 -12.692  1.00  0.00     0.198 A 
ATOM     75  C   UNL     1       8.644  -3.180 -14.034  1.00  0.00     0.198 A 
ATOM     76  F   UNL     1       6.981  -4.571 -13.123  1.00  0.00    -0.203 F 
ATOM     77  F   UNL     1      11.659  -1.822 -12.553  1.00  0.00    -0.200 F 
ATOM     78  C   UNL     1       9.835  -2.483 -13.898  1.00  0.00     0.200 A 
ATOM     79  F   UNL     1       7.987  -3.163 -15.202  1.00  0.00    -0.200 F 
ATOM     80  F   UNL     1      10.322  -1.782 -14.930  1.00  0.00    -0.200 F 
ENDBRANCH  56  70
BRANCH  57  81
ATOM     81  C   UNL     1       4.978  -9.548  -4.367  1.00  0.00     0.064 A 
ATOM     82  C   UNL     1       5.693 -10.520  -3.654  1.00  0.00     0.173 A 
ATOM     83  C   UNL     1       3.604  -9.429  -4.106  1.00  0.00     0.173 A 
ATOM     84  F   UNL     1       7.002 -10.693  -3.887  1.00  0.00    -0.203 F 
ATOM     85  C   UNL     1       5.054 -11.362  -2.746  1.00  0.00     0.198 A 
ATOM     86  C   UNL     1       2.974 -10.247  -3.171  1.00  0.00     0.198 A 
ATOM     87  F   UNL     1       2.870  -8.519  -4.764  1.00  0.00    -0.203 F 
ATOM     88  F   UNL     1       5.749 -12.328  -2.130  1.00  0.00    -0.200 F 
ATOM     89  C   UNL     1       3.696 -11.222  -2.502  1.00  0.00     0.200 A 
ATOM     90  F   UNL     1       1.663 -10.102  -2.932  1.00  0.00    -0.200 F 
ATOM     91  F   UNL     1       3.082 -12.038  -1.634  1.00  0.00    -0.200 F 
ENDBRANCH  57  81
BRANCH  69  92
ATOM     92  C   UNL     1       7.787 -10.990 -10.581  1.00  0.00     0.064 A 
ATOM     93  C   UNL     1       6.708 -11.693 -11.135  1.00  0.00     0.173 A 
ATOM     94  C   UNL     1       9.080 -11.495 -10.791  1.00  0.00     0.173 A 
ATOM     95  F   UNL     1       5.452 -11.259 -10.949  1.00  0.00    -0.203 F 
ATOM     96  C   UNL     1       6.913 -12.867 -11.854  1.00  0.00     0.198 A 
ATOM     97  C   UNL     1       9.284 -12.651 -11.539  1.00  0.00     0.198 A 
ATOM     98  F   UNL     1      10.147 -10.855 -10.289  1.00  0.00    -0.203 F 
ATOM     99  F   UNL     1       5.864 -13.547 -12.336  1.00  0.00    -0.200 F 
ATOM    100  C   UNL     1       8.201 -13.339 -12.064  1.00  0.00     0.200 A 
ATOM    101  F   UNL     1      10.529 -13.095 -11.756  1.00  0.00    -0.200 F 
ATOM    102  F   UNL     1       8.397 -14.462 -12.769  1.00  0.00    -0.200 F 
ENDBRANCH  69  92
ENDBRANCH  43  44
ENDBRANCH  36  38
ENDBRANCH  35  36
ENDBRANCH  34  35
ENDBRANCH  33  34
ENDBRANCH  32  33
ENDBRANCH  31  32
ENDBRANCH   1  31
TORSDOF 19
