REMARK SMILES CC(=O)[C@@H]1CCCC[N@H+]1CC(C)(C)C(=O)OCCOCCOC(=O)c1ccc(-c2c3nc(c(-c4c(F)c(F)c(F)c(F)c4F)c4ccc([nH]4)c(-c4c(F)c(F)c(F)c(F)c4F)c4nc(c(-c5c(F)c(F)c(F)c(F)c5F)c5ccc2[nH]5)C=C4)C=C3)cc1
REMARK SMILES IDX 18 1 17 2 16 3 14 4 15 5 11 6 12 7 13 8 10 9 9 10 4 11 5 12
REMARK SMILES IDX 6 13 8 14 7 16 2 17 1 18 3 19 19 20 20 21 21 22 22 23 23 24
REMARK SMILES IDX 24 25 25 26 26 27 87 28 27 29 86 30 28 31 29 32 30 33 80 34
REMARK SMILES IDX 31 35 85 36 79 37 81 38 32 39 84 40 78 41 77 42 33 44 65 45
REMARK SMILES IDX 45 46 64 47 46 48 49 49 63 50 82 51 47 52 48 53 62 55 83 56
REMARK SMILES IDX 50 57 34 58 35 59 43 60 36 61 37 62 41 63 44 64 38 65 39 66
REMARK SMILES IDX 42 67 40 68 66 69 67 70 75 71 68 72 69 73 73 74 76 75 70 76
REMARK SMILES IDX 71 77 74 78 72 79 51 80 52 81 60 82 53 83 54 84 58 85 61 86
REMARK SMILES IDX 55 87 56 88 59 89 57 90
REMARK H PARENT 9 15 81 43 49 54
REMARK Flexibility Score: inf
ROOT
ATOM      1  C   UNL     1       2.464   1.655   8.293  1.00  0.00     0.202 C 
ENDROOT
BRANCH   1   2
ATOM      2  C   UNL     1       3.454   1.506   7.126  1.00  0.00     0.261 C 
BRANCH   2   3
ATOM      3  O   UNL     1       3.050   2.212   5.946  1.00  0.00    -0.463 OA
BRANCH   3   4
ATOM      4  C   UNL     1       2.810   1.448   4.845  1.00  0.00     0.317 C 
ATOM      5  O   UNL     1       3.079   0.253   4.772  1.00  0.00    -0.251 OA
BRANCH   4   6
ATOM      6  C   UNL     1       2.188   2.239   3.689  1.00  0.00     0.111 C 
ATOM      7  C   UNL     1       3.076   1.968   2.460  1.00  0.00     0.029 C 
ATOM      8  C   UNL     1       2.253   3.774   3.911  1.00  0.00     0.029 C 
BRANCH   6   9
ATOM      9  C   UNL     1       0.671   1.877   3.485  1.00  0.00     0.281 C 
BRANCH   9  10
ATOM     10  N   UNL     1       0.132   0.511   3.315  1.00  0.00    -0.325 N 
ATOM     11  C   UNL     1       0.706  -0.285   2.216  1.00  0.00     0.251 C 
ATOM     12  C   UNL     1       0.203  -1.736   2.151  1.00  0.00     0.074 C 
ATOM     13  C   UNL     1       0.246  -2.406   3.511  1.00  0.00     0.012 C 
ATOM     14  C   UNL     1      -0.110  -0.175   4.588  1.00  0.00     0.262 C 
ATOM     15  H   UNL     1      -0.806   0.645   2.938  1.00  0.00     0.348 HD
ATOM     16  C   UNL     1      -0.623  -1.608   4.463  1.00  0.00     0.062 C 
BRANCH  11  17
ATOM     17  C   UNL     1       0.388   0.369   0.845  1.00  0.00     0.186 C 
ATOM     18  C   UNL     1       1.178  -0.130  -0.340  1.00  0.00     0.094 C 
ATOM     19  O   UNL     1      -0.475   1.233   0.672  1.00  0.00    -0.293 OA
ENDBRANCH  11  17
ENDBRANCH   9  10
ENDBRANCH   6   9
ENDBRANCH   4   6
ENDBRANCH   3   4
ENDBRANCH   2   3
ENDBRANCH   1   2
BRANCH   1  20
ATOM     20  O   UNL     1       1.077   1.772   8.006  1.00  0.00    -0.374 OA
BRANCH  20  21
ATOM     21  C   UNL     1       0.621   2.920   7.292  1.00  0.00     0.202 C 
BRANCH  21  22
ATOM     22  C   UNL     1       0.966   4.324   7.809  1.00  0.00     0.261 C 
BRANCH  22  23
ATOM     23  O   UNL     1       2.381   4.584   7.832  1.00  0.00    -0.460 OA
BRANCH  23  24
ATOM     24  C   UNL     1       2.872   4.928   9.049  1.00  0.00     0.338 C 
ATOM     25  O   UNL     1       2.251   5.101  10.081  1.00  0.00    -0.246 OA
BRANCH  24  26
ATOM     26  C   UNL     1       4.343   4.869   9.024  1.00  0.00     0.060 A 
ATOM     27  C   UNL     1       4.968   3.942   9.869  1.00  0.00     0.016 A 
ATOM     28  C   UNL     1       5.094   5.774   8.274  1.00  0.00     0.016 A 
ATOM     29  C   UNL     1       6.352   3.941   9.998  1.00  0.00     0.010 A 
ATOM     30  C   UNL     1       6.484   5.784   8.418  1.00  0.00     0.010 A 
ATOM     31  C   UNL     1       7.112   4.894   9.309  1.00  0.00    -0.014 A 
BRANCH  31  32
ATOM     32  C   UNL     1       8.535   5.076   9.675  1.00  0.00     0.031 A 
ATOM     33  C   UNL     1       8.894   6.168  10.643  1.00  0.00     0.074 A 
ATOM     34  C   UNL     1       9.480   4.253   9.194  1.00  0.00     0.049 A 
ATOM     35  N   UNL     1      10.066   6.522  11.104  1.00  0.00    -0.248 NA
ATOM     36  C   UNL     1       7.775   6.968  11.162  1.00  0.00     0.031 C 
ATOM     37  C   UNL     1       9.238   3.122   8.302  1.00  0.00     0.029 A 
ATOM     38  N   UNL     1      10.836   4.242   9.397  1.00  0.00    -0.354 N 
ATOM     39  C   UNL     1       9.826   7.590  11.958  1.00  0.00     0.074 A 
ATOM     40  C   UNL     1       8.403   7.849  11.924  1.00  0.00     0.031 C 
ATOM     41  C   UNL     1      10.410   2.521   8.036  1.00  0.00     0.029 A 
ATOM     42  C   UNL     1      11.485   3.248   8.709  1.00  0.00     0.049 A 
ATOM     43  H   UNL     1      11.300   4.886   9.980  1.00  0.00     0.167 HD
ATOM     44  C   UNL     1      10.713   8.287  12.709  1.00  0.00     0.037 A 
ATOM     45  C   UNL     1      12.800   2.971   8.627  1.00  0.00     0.037 A 
ATOM     46  C   UNL     1      12.128   8.027  12.727  1.00  0.00     0.049 A 
ATOM     47  C   UNL     1      13.779   3.825   9.389  1.00  0.00     0.074 A 
ATOM     48  C   UNL     1      13.116   8.661  13.460  1.00  0.00     0.029 A 
ATOM     49  N   UNL     1      12.760   7.056  11.962  1.00  0.00    -0.354 N 
ATOM     50  N   UNL     1      13.548   4.821  10.210  1.00  0.00    -0.248 NA
ATOM     51  C   UNL     1      15.203   3.513   9.211  1.00  0.00     0.031 C 
ATOM     52  C   UNL     1      14.351   8.117  13.089  1.00  0.00     0.029 A 
ATOM     53  C   UNL     1      14.129   7.098  12.176  1.00  0.00     0.049 A 
ATOM     54  H   UNL     1      12.303   6.429  11.355  1.00  0.00     0.167 HD
ATOM     55  C   UNL     1      14.791   5.234  10.673  1.00  0.00     0.074 A 
ATOM     56  C   UNL     1      15.773   4.372  10.044  1.00  0.00     0.031 C 
ATOM     57  C   UNL     1      15.092   6.230  11.543  1.00  0.00     0.037 A 
BRANCH  44  58
ATOM     58  C   UNL     1      10.172   9.427  13.526  1.00  0.00     0.064 A 
ATOM     59  C   UNL     1       9.324   9.218  14.626  1.00  0.00     0.173 A 
ATOM     60  C   UNL     1      10.492  10.751  13.191  1.00  0.00     0.173 A 
ATOM     61  F   UNL     1       8.974   7.972  14.981  1.00  0.00    -0.203 F 
ATOM     62  C   UNL     1       8.780  10.292  15.326  1.00  0.00     0.198 A 
ATOM     63  C   UNL     1       9.975  11.821  13.917  1.00  0.00     0.198 A 
ATOM     64  F   UNL     1      11.301  11.011  12.153  1.00  0.00    -0.203 F 
ATOM     65  F   UNL     1       7.914  10.068  16.325  1.00  0.00    -0.200 F 
ATOM     66  C   UNL     1       9.108  11.592  14.974  1.00  0.00     0.200 A 
ATOM     67  F   UNL     1      10.304  13.077  13.582  1.00  0.00    -0.200 F 
ATOM     68  F   UNL     1       8.578  12.624  15.644  1.00  0.00    -0.200 F 
ENDBRANCH  44  58
BRANCH  45  69
ATOM     69  C   UNL     1      13.263   1.826   7.801  1.00  0.00     0.064 A 
ATOM     70  C   UNL     1      13.812   0.685   8.402  1.00  0.00     0.173 A 
ATOM     71  C   UNL     1      13.160   1.842   6.402  1.00  0.00     0.173 A 
ATOM     72  F   UNL     1      13.954   0.632   9.734  1.00  0.00    -0.203 F 
ATOM     73  C   UNL     1      14.248  -0.393   7.634  1.00  0.00     0.198 A 
ATOM     74  C   UNL     1      13.571   0.753   5.638  1.00  0.00     0.198 A 
ATOM     75  F   UNL     1      12.644   2.912   5.779  1.00  0.00    -0.203 F 
ATOM     76  F   UNL     1      14.801  -1.458   8.231  1.00  0.00    -0.200 F 
ATOM     77  C   UNL     1      14.119  -0.362   6.253  1.00  0.00     0.200 A 
ATOM     78  F   UNL     1      13.433   0.782   4.305  1.00  0.00    -0.200 F 
ATOM     79  F   UNL     1      14.528  -1.404   5.517  1.00  0.00    -0.200 F 
ENDBRANCH  45  69
BRANCH  57  80
ATOM     80  C   UNL     1      16.540   6.418  11.901  1.00  0.00     0.064 A 
ATOM     81  C   UNL     1      17.469   6.931  10.984  1.00  0.00     0.173 A 
ATOM     82  C   UNL     1      16.994   6.115  13.194  1.00  0.00     0.173 A 
ATOM     83  F   UNL     1      17.091   7.222   9.730  1.00  0.00    -0.203 F 
ATOM     84  C   UNL     1      18.805   7.106  11.340  1.00  0.00     0.198 A 
ATOM     85  C   UNL     1      18.321   6.324  13.557  1.00  0.00     0.198 A 
ATOM     86  F   UNL     1      16.145   5.629  14.113  1.00  0.00    -0.203 F 
ATOM     87  F   UNL     1      19.686   7.546  10.431  1.00  0.00    -0.200 F 
ATOM     88  C   UNL     1      19.227   6.810  12.628  1.00  0.00     0.200 A 
ATOM     89  F   UNL     1      18.723   6.053  14.806  1.00  0.00    -0.200 F 
ATOM     90  F   UNL     1      20.511   6.987  12.970  1.00  0.00    -0.200 F 
ENDBRANCH  57  80
ENDBRANCH  31  32
ENDBRANCH  24  26
ENDBRANCH  23  24
ENDBRANCH  22  23
ENDBRANCH  21  22
ENDBRANCH  20  21
ENDBRANCH   1  20
TORSDOF 17
