REMARK SMILES C[C@H]1[C@H](C(=O)OCCOCCOC(=O)c2ccc(-c3c4nc(c(-c5c(F)c(F)c(F)c(F)c5F)c5ccc([nH]5)c(-c5c(F)c(F)c(F)c(F)c5F)c5nc(c(-c6c(F)c(F)c(F)c(F)c6F)c6ccc3[nH]6)C=C5)C=C4)cc2)CC[N@@H+]1Cc1ccc(C(F)(F)F)cc1
REMARK SMILES IDX 8 1 7 2 6 3 4 4 5 5 3 6 1 7 2 8 80 9 78 10 79 11 81 13 82 14
REMARK SMILES IDX 83 15 91 16 84 17 90 18 85 19 86 20 87 21 88 22 89 23 9 24
REMARK SMILES IDX 10 25 11 26 12 27 13 28 14 29 15 30 16 31 77 32 17 33 76 34
REMARK SMILES IDX 18 35 19 36 20 37 70 38 21 39 75 40 69 41 71 42 22 43 74 44
REMARK SMILES IDX 68 45 67 46 23 48 55 49 35 50 54 51 36 52 39 53 53 54 72 55
REMARK SMILES IDX 37 56 38 57 52 59 73 60 40 61 24 62 25 63 33 64 26 65 27 66
REMARK SMILES IDX 31 67 34 68 28 69 29 70 32 71 30 72 56 73 57 74 65 75 58 76
REMARK SMILES IDX 59 77 63 78 66 79 60 80 61 81 64 82 62 83 41 84 42 85 50 86
REMARK SMILES IDX 43 87 44 88 48 89 51 90 45 91 46 92 49 93 47 94
REMARK H PARENT 80 12 71 47 39 58
REMARK Flexibility Score: inf
ROOT
ATOM      1  C   UNL     1       0.518   3.853   3.358  1.00  0.00     0.202 C 
ENDROOT
BRANCH   1   2
ATOM      2  C   UNL     1      -0.768   3.581   2.574  1.00  0.00     0.261 C 
BRANCH   2   3
ATOM      3  O   UNL     1      -0.619   2.377   1.801  1.00  0.00    -0.463 OA
BRANCH   3   4
ATOM      4  C   UNL     1      -0.955   2.453   0.492  1.00  0.00     0.315 C 
ATOM      5  O   UNL     1      -1.524   3.409  -0.024  1.00  0.00    -0.252 OA
BRANCH   4   6
ATOM      6  C   UNL     1      -0.557   1.229  -0.311  1.00  0.00     0.162 C 
ATOM      7  C   UNL     1       1.683   0.051  -0.363  1.00  0.00     0.076 C 
ATOM      8  C   UNL     1       0.337   0.175   0.368  1.00  0.00     0.195 C 
ATOM      9  N   UNL     1      -0.350  -1.118   0.229  1.00  0.00    -0.328 N 
ATOM     10  C   UNL     1      -1.812   0.488  -0.745  1.00  0.00     0.083 C 
ATOM     11  C   UNL     1      -1.416  -0.973  -0.752  1.00  0.00     0.263 C 
ATOM     12  H   UNL     1       0.323  -1.797  -0.128  1.00  0.00     0.348 HD
BRANCH   9  13
ATOM     13  C   UNL     1      -0.710  -1.798   1.478  1.00  0.00     0.299 C 
BRANCH  13  14
ATOM     14  C   UNL     1      -1.471  -0.999   2.516  1.00  0.00     0.006 A 
ATOM     15  C   UNL     1      -0.826  -0.583   3.690  1.00  0.00     0.010 A 
ATOM     16  C   UNL     1      -2.820  -0.667   2.345  1.00  0.00     0.010 A 
ATOM     17  C   UNL     1      -1.496   0.191   4.639  1.00  0.00     0.013 A 
ATOM     18  C   UNL     1      -3.487   0.126   3.282  1.00  0.00     0.013 A 
ATOM     19  C   UNL     1      -2.826   0.579   4.431  1.00  0.00     0.056 A 
BRANCH  19  20
ATOM     20  C   UNL     1      -3.529   1.452   5.438  1.00  0.00     0.416 C 
ATOM     21  F   UNL     1      -4.015   0.745   6.496  1.00  0.00    -0.166 F 
ATOM     22  F   UNL     1      -2.706   2.399   5.973  1.00  0.00    -0.166 F 
ATOM     23  F   UNL     1      -4.588   2.133   4.922  1.00  0.00    -0.166 F 
ENDBRANCH  19  20
ENDBRANCH  13  14
ENDBRANCH   9  13
ENDBRANCH   4   6
ENDBRANCH   3   4
ENDBRANCH   2   3
ENDBRANCH   1   2
BRANCH   1  24
ATOM     24  O   UNL     1       1.637   4.261   2.567  1.00  0.00    -0.374 OA
BRANCH  24  25
ATOM     25  C   UNL     1       2.297   3.253   1.804  1.00  0.00     0.202 C 
BRANCH  25  26
ATOM     26  C   UNL     1       3.322   2.404   2.562  1.00  0.00     0.261 C 
BRANCH  26  27
ATOM     27  O   UNL     1       2.730   1.660   3.643  1.00  0.00    -0.460 OA
BRANCH  27  28
ATOM     28  C   UNL     1       3.037   2.132   4.873  1.00  0.00     0.338 C 
ATOM     29  O   UNL     1       3.803   3.048   5.146  1.00  0.00    -0.246 OA
BRANCH  28  30
ATOM     30  C   UNL     1       2.214   1.481   5.908  1.00  0.00     0.060 A 
ATOM     31  C   UNL     1       1.596   2.314   6.848  1.00  0.00     0.016 A 
ATOM     32  C   UNL     1       2.136   0.092   6.035  1.00  0.00     0.016 A 
ATOM     33  C   UNL     1       0.967   1.765   7.961  1.00  0.00     0.010 A 
ATOM     34  C   UNL     1       1.496  -0.461   7.152  1.00  0.00     0.010 A 
ATOM     35  C   UNL     1       0.958   0.376   8.148  1.00  0.00    -0.014 A 
BRANCH  35  36
ATOM     36  C   UNL     1       0.559  -0.162   9.474  1.00  0.00     0.031 A 
ATOM     37  C   UNL     1       1.633  -0.559  10.450  1.00  0.00     0.074 A 
ATOM     38  C   UNL     1      -0.734  -0.219   9.840  1.00  0.00     0.049 A 
ATOM     39  N   UNL     1       1.522  -0.981  11.685  1.00  0.00    -0.248 NA
ATOM     40  C   UNL     1       3.022  -0.465   9.972  1.00  0.00     0.031 C 
ATOM     41  C   UNL     1      -1.865   0.164   9.001  1.00  0.00     0.029 A 
ATOM     42  N   UNL     1      -1.310  -0.612  11.023  1.00  0.00    -0.354 N 
ATOM     43  C   UNL     1       2.821  -1.198  12.127  1.00  0.00     0.074 A 
ATOM     44  C   UNL     1       3.702  -0.907  11.018  1.00  0.00     0.031 C 
ATOM     45  C   UNL     1      -3.003  -0.012   9.693  1.00  0.00     0.029 A 
ATOM     46  C   UNL     1      -2.680  -0.528  11.022  1.00  0.00     0.049 A 
ATOM     47  H   UNL     1      -0.789  -0.924  11.798  1.00  0.00     0.167 HD
ATOM     48  C   UNL     1       3.244  -1.585  13.354  1.00  0.00     0.037 A 
ATOM     49  C   UNL     1      -3.570  -0.831  11.986  1.00  0.00     0.037 A 
ATOM     50  C   UNL     1       2.373  -1.865  14.464  1.00  0.00     0.049 A 
ATOM     51  C   UNL     1      -3.076  -1.299  13.330  1.00  0.00     0.074 A 
ATOM     52  C   UNL     1       2.708  -2.247  15.751  1.00  0.00     0.029 A 
ATOM     53  N   UNL     1       0.989  -1.794  14.415  1.00  0.00    -0.354 N 
ATOM     54  N   UNL     1      -1.845  -1.465  13.749  1.00  0.00    -0.248 NA
ATOM     55  C   UNL     1      -4.098  -1.607  14.341  1.00  0.00     0.031 C 
ATOM     56  C   UNL     1       1.524  -2.448  16.470  1.00  0.00     0.029 A 
ATOM     57  C   UNL     1       0.454  -2.144  15.645  1.00  0.00     0.049 A 
ATOM     58  H   UNL     1       0.464  -1.534  13.624  1.00  0.00     0.167 HD
ATOM     59  C   UNL     1      -1.943  -1.864  15.076  1.00  0.00     0.074 A 
ATOM     60  C   UNL     1      -3.354  -1.903  15.397  1.00  0.00     0.031 C 
ATOM     61  C   UNL     1      -0.953  -2.170  15.951  1.00  0.00     0.037 A 
BRANCH  48  62
ATOM     62  C   UNL     1       4.723  -1.739  13.554  1.00  0.00     0.064 A 
ATOM     63  C   UNL     1       5.576  -0.626  13.619  1.00  0.00     0.173 A 
ATOM     64  C   UNL     1       5.292  -3.013  13.700  1.00  0.00     0.173 A 
ATOM     65  F   UNL     1       5.083   0.612  13.467  1.00  0.00    -0.203 F 
ATOM     66  C   UNL     1       6.948  -0.786  13.797  1.00  0.00     0.198 A 
ATOM     67  C   UNL     1       6.660  -3.167  13.905  1.00  0.00     0.198 A 
ATOM     68  F   UNL     1       4.519  -4.108  13.646  1.00  0.00    -0.203 F 
ATOM     69  F   UNL     1       7.750   0.287  13.807  1.00  0.00    -0.200 F 
ATOM     70  C   UNL     1       7.488  -2.055  13.945  1.00  0.00     0.200 A 
ATOM     71  F   UNL     1       7.179  -4.393  14.057  1.00  0.00    -0.200 F 
ATOM     72  F   UNL     1       8.808  -2.207  14.119  1.00  0.00    -0.200 F 
ENDBRANCH  48  62
BRANCH  49  73
ATOM     73  C   UNL     1      -5.026  -0.685  11.725  1.00  0.00     0.064 A 
ATOM     74  C   UNL     1      -5.780   0.312  12.360  1.00  0.00     0.173 A 
ATOM     75  C   UNL     1      -5.695  -1.554  10.851  1.00  0.00     0.173 A 
ATOM     76  F   UNL     1      -5.189   1.149  13.225  1.00  0.00    -0.203 F 
ATOM     77  C   UNL     1      -7.152   0.421  12.146  1.00  0.00     0.198 A 
ATOM     78  C   UNL     1      -7.063  -1.428  10.619  1.00  0.00     0.198 A 
ATOM     79  F   UNL     1      -5.019  -2.527  10.224  1.00  0.00    -0.203 F 
ATOM     80  F   UNL     1      -7.859   1.351  12.804  1.00  0.00    -0.200 F 
ATOM     81  C   UNL     1      -7.792  -0.446  11.272  1.00  0.00     0.200 A 
ATOM     82  F   UNL     1      -7.676  -2.263   9.769  1.00  0.00    -0.200 F 
ATOM     83  F   UNL     1      -9.113  -0.343  11.070  1.00  0.00    -0.200 F 
ENDBRANCH  49  73
BRANCH  61  84
ATOM     84  C   UNL     1      -1.359  -2.537  17.349  1.00  0.00     0.064 A 
ATOM     85  C   UNL     1      -1.976  -3.762  17.639  1.00  0.00     0.173 A 
ATOM     86  C   UNL     1      -1.100  -1.662  18.416  1.00  0.00     0.173 A 
ATOM     87  F   UNL     1      -2.256  -4.627  16.652  1.00  0.00    -0.203 F 
ATOM     88  C   UNL     1      -2.346  -4.086  18.942  1.00  0.00     0.198 A 
ATOM     89  C   UNL     1      -1.446  -2.002  19.721  1.00  0.00     0.198 A 
ATOM     90  F   UNL     1      -0.504  -0.481  18.193  1.00  0.00    -0.203 F 
ATOM     91  F   UNL     1      -2.980  -5.241  19.188  1.00  0.00    -0.200 F 
ATOM     92  C   UNL     1      -2.076  -3.209  19.982  1.00  0.00     0.200 A 
ATOM     93  F   UNL     1      -1.172  -1.159  20.726  1.00  0.00    -0.200 F 
ATOM     94  F   UNL     1      -2.431  -3.524  21.235  1.00  0.00    -0.200 F 
ENDBRANCH  61  84
ENDBRANCH  35  36
ENDBRANCH  28  30
ENDBRANCH  27  28
ENDBRANCH  26  27
ENDBRANCH  25  26
ENDBRANCH  24  25
ENDBRANCH   1  24
TORSDOF 17
