REMARK SMILES Cc1cc(C)c(S(=O)(=O)Nc2ccc(N3CC[NH+](C)CC3)c(C(=O)OCCOCCOC(=O)c3ccc(-c4c5nc(c(-c6c(F)c(F)c(F)c(F)c6F)c6ccc([nH]6)c(-c6c(F)c(F)c(F)c(F)c6F)c6nc(c(-c7c(F)c(F)c(F)c(F)c7F)c7ccc4[nH]7)C=C6)C=C5)cc3)c2)c(C)c1
REMARK SMILES IDX 27 1 26 2 25 3 23 4 24 5 22 6 11 7 12 8 97 9 13 10 14 11
REMARK SMILES IDX 10 12 7 14 8 15 9 16 6 17 1 18 2 19 3 20 100 21 4 22 98 23
REMARK SMILES IDX 5 24 99 25 15 26 16 27 21 28 17 29 20 30 18 31 19 32 28 34
REMARK SMILES IDX 29 35 30 36 31 37 32 38 33 39 34 40 35 41 96 42 36 43 95 44
REMARK SMILES IDX 37 45 38 46 39 47 89 48 40 49 94 50 88 51 90 52 41 53 93 54
REMARK SMILES IDX 87 55 86 56 42 58 74 59 54 60 73 61 55 62 58 63 72 64 91 65
REMARK SMILES IDX 56 66 57 67 71 69 92 70 59 71 43 72 44 73 52 74 45 75 46 76
REMARK SMILES IDX 50 77 53 78 47 79 48 80 51 81 49 82 75 83 76 84 84 85 77 86
REMARK SMILES IDX 78 87 82 88 85 89 79 90 80 91 83 92 81 93 60 94 61 95 69 96
REMARK SMILES IDX 62 97 63 98 67 99 70 100 64 101 65 102 68 103 66 104
REMARK H PARENT 10 13 18 33 90 57 58 68
REMARK Flexibility Score: inf
ROOT
ATOM      1  C   UNL     1       3.785  -1.480   4.497  1.00  0.00     0.202 C 
ENDROOT
BRANCH   1   2
ATOM      2  C   UNL     1       3.501  -1.062   3.055  1.00  0.00     0.261 C 
BRANCH   2   3
ATOM      3  O   UNL     1       2.545  -1.964   2.480  1.00  0.00    -0.460 OA
BRANCH   3   4
ATOM      4  C   UNL     1       2.820  -2.338   1.207  1.00  0.00     0.340 C 
ATOM      5  O   UNL     1       3.644  -1.833   0.467  1.00  0.00    -0.246 OA
BRANCH   4   6
ATOM      6  C   UNL     1       1.958  -3.489   0.857  1.00  0.00     0.085 A 
ATOM      7  C   UNL     1      -0.278  -4.117   0.270  1.00  0.00     0.050 A 
ATOM      8  C   UNL     1       0.214  -5.301  -0.289  1.00  0.00     0.029 A 
ATOM      9  C   UNL     1       0.576  -3.293   0.985  1.00  0.00     0.044 A 
ATOM     10  C   UNL     1       1.586  -5.557  -0.302  1.00  0.00     0.029 A 
ATOM     11  C   UNL     1       2.491  -4.621   0.206  1.00  0.00     0.052 A 
BRANCH   7  12
ATOM     12  N   UNL     1      -1.554  -3.693  -0.185  1.00  0.00    -0.280 N 
ATOM     13  H   UNL     1      -2.089  -4.364  -0.669  1.00  0.00     0.180 HD
BRANCH  12  14
ATOM     14  S   UNL     1      -2.251  -2.189   0.006  1.00  0.00     0.262 S 
ATOM     15  O   UNL     1      -2.498  -2.046   1.429  1.00  0.00    -0.201 OA
ATOM     16  O   UNL     1      -3.341  -2.160  -0.947  1.00  0.00    -0.201 OA
BRANCH  14  17
ATOM     17  C   UNL     1      -1.131  -0.847  -0.460  1.00  0.00     0.093 A 
ATOM     18  C   UNL     1       1.983   2.119   0.006  1.00  0.00     0.044 C 
ATOM     19  C   UNL     1       0.889   1.115  -0.201  1.00  0.00    -0.051 A 
ATOM     20  C   UNL     1      -0.406   1.381   0.232  1.00  0.00     0.008 A 
ATOM     21  C   UNL     1       1.113  -0.055  -0.929  1.00  0.00     0.008 A 
ATOM     22  C   UNL     1      -1.426   0.422   0.103  1.00  0.00    -0.030 A 
ATOM     23  C   UNL     1       0.105  -1.030  -1.111  1.00  0.00    -0.030 A 
ATOM     24  C   UNL     1      -2.822   0.876   0.453  1.00  0.00     0.046 C 
ATOM     25  C   UNL     1       0.402  -2.088  -2.137  1.00  0.00     0.046 C 
ENDBRANCH  14  17
ENDBRANCH  12  14
ENDBRANCH   7  12
BRANCH  11  26
ATOM     26  N   UNL     1       3.837  -4.809   0.008  1.00  0.00    -0.360 N 
ATOM     27  C   UNL     1       4.685  -5.497   0.973  1.00  0.00     0.178 C 
ATOM     28  C   UNL     1       4.465  -4.490  -1.277  1.00  0.00     0.178 C 
ATOM     29  C   UNL     1       5.965  -4.660   1.199  1.00  0.00     0.283 C 
ATOM     30  C   UNL     1       5.819  -3.765  -1.053  1.00  0.00     0.283 C 
ATOM     31  N   UNL     1       6.711  -4.418  -0.059  1.00  0.00    -0.334 N 
ATOM     32  C   UNL     1       7.867  -3.561   0.207  1.00  0.00     0.332 C 
ATOM     33  H   UNL     1       7.035  -5.310  -0.434  1.00  0.00     0.347 HD
ENDBRANCH  11  26
ENDBRANCH   4   6
ENDBRANCH   3   4
ENDBRANCH   2   3
ENDBRANCH   1   2
BRANCH   1  34
ATOM     34  O   UNL     1       4.491  -2.707   4.707  1.00  0.00    -0.374 OA
BRANCH  34  35
ATOM     35  C   UNL     1       3.945  -3.902   4.160  1.00  0.00     0.202 C 
BRANCH  35  36
ATOM     36  C   UNL     1       2.721  -4.544   4.831  1.00  0.00     0.261 C 
BRANCH  36  37
ATOM     37  O   UNL     1       1.784  -3.608   5.364  1.00  0.00    -0.460 OA
BRANCH  37  38
ATOM     38  C   UNL     1       1.984  -3.339   6.678  1.00  0.00     0.338 C 
ATOM     39  O   UNL     1       2.787  -3.856   7.433  1.00  0.00    -0.246 OA
BRANCH  38  40
ATOM     40  C   UNL     1       1.182  -2.164   7.052  1.00  0.00     0.060 A 
ATOM     41  C   UNL     1       1.870  -1.069   7.587  1.00  0.00     0.016 A 
ATOM     42  C   UNL     1      -0.207  -2.146   6.915  1.00  0.00     0.016 A 
ATOM     43  C   UNL     1       1.161   0.041   8.026  1.00  0.00     0.010 A 
ATOM     44  C   UNL     1      -0.920  -1.034   7.370  1.00  0.00     0.010 A 
ATOM     45  C   UNL     1      -0.238   0.047   7.955  1.00  0.00    -0.014 A 
BRANCH  45  46
ATOM     46  C   UNL     1      -0.968   1.142   8.629  1.00  0.00     0.031 A 
ATOM     47  C   UNL     1      -1.482   0.925  10.021  1.00  0.00     0.074 A 
ATOM     48  C   UNL     1      -1.089   2.339   8.031  1.00  0.00     0.049 A 
ATOM     49  N   UNL     1      -2.054   1.772  10.838  1.00  0.00    -0.248 NA
ATOM     50  C   UNL     1      -1.329  -0.432  10.568  1.00  0.00     0.031 C 
ATOM     51  C   UNL     1      -0.612   2.660   6.688  1.00  0.00     0.029 A 
ATOM     52  N   UNL     1      -1.642   3.507   8.486  1.00  0.00    -0.354 N 
ATOM     53  C   UNL     1      -2.313   1.057  11.999  1.00  0.00     0.074 A 
ATOM     54  C   UNL     1      -1.882  -0.304  11.765  1.00  0.00     0.031 C 
ATOM     55  C   UNL     1      -0.893   3.947   6.425  1.00  0.00     0.029 A 
ATOM     56  C   UNL     1      -1.582   4.530   7.575  1.00  0.00     0.049 A 
ATOM     57  H   UNL     1      -2.043   3.603   9.380  1.00  0.00     0.167 HD
ATOM     58  C   UNL     1      -2.847   1.503  13.161  1.00  0.00     0.037 A 
ATOM     59  C   UNL     1      -2.037   5.794   7.662  1.00  0.00     0.037 A 
ATOM     60  C   UNL     1      -3.296   2.854  13.375  1.00  0.00     0.049 A 
ATOM     61  C   UNL     1      -2.673   6.255   8.946  1.00  0.00     0.074 A 
ATOM     62  C   UNL     1      -3.848   3.414  14.513  1.00  0.00     0.029 A 
ATOM     63  N   UNL     1      -3.255   3.858  12.416  1.00  0.00    -0.354 N 
ATOM     64  N   UNL     1      -2.878   5.587  10.056  1.00  0.00    -0.248 NA
ATOM     65  C   UNL     1      -3.124   7.651   8.994  1.00  0.00     0.031 C 
ATOM     66  C   UNL     1      -4.189   4.741  14.226  1.00  0.00     0.029 A 
ATOM     67  C   UNL     1      -3.798   5.027  12.928  1.00  0.00     0.049 A 
ATOM     68  H   UNL     1      -2.894   3.755  11.506  1.00  0.00     0.167 HD
ATOM     69  C   UNL     1      -3.472   6.480  10.938  1.00  0.00     0.074 A 
ATOM     70  C   UNL     1      -3.565   7.747  10.241  1.00  0.00     0.031 C 
ATOM     71  C   UNL     1      -3.904   6.272  12.207  1.00  0.00     0.037 A 
BRANCH  58  72
ATOM     72  C   UNL     1      -2.998   0.503  14.271  1.00  0.00     0.064 A 
ATOM     73  C   UNL     1      -1.885  -0.028  14.943  1.00  0.00     0.173 A 
ATOM     74  C   UNL     1      -4.270   0.062  14.665  1.00  0.00     0.173 A 
ATOM     75  F   UNL     1      -0.644   0.347  14.594  1.00  0.00    -0.203 F 
ATOM     76  C   UNL     1      -2.038  -0.988  15.940  1.00  0.00     0.198 A 
ATOM     77  C   UNL     1      -4.421  -0.875  15.684  1.00  0.00     0.198 A 
ATOM     78  F   UNL     1      -5.368   0.537  14.059  1.00  0.00    -0.203 F 
ATOM     79  F   UNL     1      -0.958  -1.524  16.524  1.00  0.00    -0.200 F 
ATOM     80  C   UNL     1      -3.306  -1.407  16.313  1.00  0.00     0.200 A 
ATOM     81  F   UNL     1      -5.648  -1.272  16.050  1.00  0.00    -0.200 F 
ATOM     82  F   UNL     1      -3.453  -2.333  17.271  1.00  0.00    -0.200 F 
ENDBRANCH  58  72
BRANCH  59  83
ATOM     83  C   UNL     1      -1.898   6.703   6.497  1.00  0.00     0.064 A 
ATOM     84  C   UNL     1      -1.012   7.787   6.519  1.00  0.00     0.173 A 
ATOM     85  C   UNL     1      -2.638   6.488   5.324  1.00  0.00     0.173 A 
ATOM     86  F   UNL     1      -0.298   8.046   7.624  1.00  0.00    -0.203 F 
ATOM     87  C   UNL     1      -0.876   8.627   5.415  1.00  0.00     0.198 A 
ATOM     88  C   UNL     1      -2.482   7.311   4.212  1.00  0.00     0.198 A 
ATOM     89  F   UNL     1      -3.499   5.461   5.252  1.00  0.00    -0.203 F 
ATOM     90  F   UNL     1      -0.046   9.677   5.473  1.00  0.00    -0.200 F 
ATOM     91  C   UNL     1      -1.605   8.383   4.260  1.00  0.00     0.200 A 
ATOM     92  F   UNL     1      -3.175   7.061   3.093  1.00  0.00    -0.200 F 
ATOM     93  F   UNL     1      -1.463   9.183   3.194  1.00  0.00    -0.200 F 
ENDBRANCH  59  83
BRANCH  71  94
ATOM     94  C   UNL     1      -4.513   7.448  12.917  1.00  0.00     0.064 A 
ATOM     95  C   UNL     1      -5.761   7.968  12.540  1.00  0.00     0.173 A 
ATOM     96  C   UNL     1      -3.845   8.060  13.989  1.00  0.00     0.173 A 
ATOM     97  F   UNL     1      -6.435   7.428  11.513  1.00  0.00    -0.203 F 
ATOM     98  C   UNL     1      -6.298   9.081  13.182  1.00  0.00     0.198 A 
ATOM     99  C   UNL     1      -4.401   9.152  14.650  1.00  0.00     0.198 A 
ATOM    100  F   UNL     1      -2.654   7.598  14.396  1.00  0.00    -0.203 F 
ATOM    101  F   UNL     1      -7.460   9.599  12.761  1.00  0.00    -0.200 F 
ATOM    102  C   UNL     1      -5.620   9.669  14.239  1.00  0.00     0.200 A 
ATOM    103  F   UNL     1      -3.751   9.711  15.681  1.00  0.00    -0.200 F 
ATOM    104  F   UNL     1      -6.135  10.742  14.853  1.00  0.00    -0.200 F 
ENDBRANCH  71  94
ENDBRANCH  45  46
ENDBRANCH  38  40
ENDBRANCH  37  38
ENDBRANCH  36  37
ENDBRANCH  35  36
ENDBRANCH  34  35
ENDBRANCH   1  34
TORSDOF 18
