REMARK SMILES C[C@H](NC(=O)c1ccc(C(C)(C)C)cc1)C(=O)N[C@@H](C(=O)OCCOCCOC(=O)c1ccc(-c2c3nc(c(-c4c(F)c(F)c(F)c(F)c4F)c4ccc([nH]4)c(-c4c(F)c(F)c(F)c(F)c4F)c4nc(c(-c5c(F)c(F)c(F)c(F)c5F)c5ccc2[nH]5)C=C4)C=C3)cc1)[C@H](C)O
REMARK SMILES IDX 23 1 22 2 20 3 21 4 19 5 18 6 16 7 17 8 2 10 1 11 3 12 4 13
REMARK SMILES IDX 5 15 6 16 7 17 15 18 8 19 14 20 9 21 10 22 11 23 12 24 13 25
REMARK SMILES IDX 94 26 95 27 96 28 24 30 25 31 26 32 27 33 28 34 29 35 30 36
REMARK SMILES IDX 31 37 32 38 93 39 33 40 92 41 34 42 35 43 36 44 86 45 37 46
REMARK SMILES IDX 91 47 85 48 87 49 38 50 90 51 84 52 83 53 39 55 71 56 51 57
REMARK SMILES IDX 70 58 52 59 55 60 69 61 88 62 53 63 54 64 68 66 89 67 56 68
REMARK SMILES IDX 40 69 41 70 49 71 42 72 43 73 47 74 50 75 44 76 45 77 48 78
REMARK SMILES IDX 46 79 72 80 73 81 81 82 74 83 75 84 79 85 82 86 76 87 77 88
REMARK SMILES IDX 80 89 78 90 57 91 58 92 66 93 59 94 60 95 64 96 67 97 61 98
REMARK SMILES IDX 62 99 65 100 63 101
REMARK H PARENT 18 9 3 14 96 29 87 54 55 65
REMARK Flexibility Score: inf
ROOT
ATOM      1  C   UNL     1      -1.460  -4.682   4.278  1.00  0.00     0.261 C 
ENDROOT
BRANCH   1   2
ATOM      2  O   UNL     1      -0.999  -3.337   4.051  1.00  0.00    -0.462 OA
BRANCH   2   3
ATOM      3  C   UNL     1      -1.816  -2.546   3.311  1.00  0.00     0.331 C 
ATOM      4  O   UNL     1      -2.861  -2.925   2.791  1.00  0.00    -0.250 OA
BRANCH   3   5
ATOM      5  C   UNL     1      -1.228  -1.150   3.048  1.00  0.00     0.221 C 
BRANCH   5   6
ATOM      6  N   UNL     1      -0.119  -0.636   3.865  1.00  0.00    -0.339 N 
ATOM      7  C   UNL     1       1.159  -0.320   3.531  1.00  0.00     0.243 C 
ATOM      8  O   UNL     1       1.616   0.734   3.984  1.00  0.00    -0.273 OA
ATOM      9  H   UNL     1      -0.341  -0.498   4.815  1.00  0.00     0.164 HD
BRANCH   7  10
ATOM     10  C   UNL     1       1.980  -1.185   2.568  1.00  0.00     0.168 C 
ATOM     11  C   UNL     1       1.689  -0.777   1.123  1.00  0.00     0.041 C 
BRANCH  10  12
ATOM     12  N   UNL     1       1.815  -2.628   2.778  1.00  0.00    -0.341 N 
ATOM     13  C   UNL     1       2.295  -3.388   3.833  1.00  0.00     0.251 C 
ATOM     14  H   UNL     1       1.305  -3.113   2.090  1.00  0.00     0.164 HD
ATOM     15  O   UNL     1       2.420  -4.603   3.698  1.00  0.00    -0.269 OA
BRANCH  13  16
ATOM     16  C   UNL     1       2.630  -2.765   5.140  1.00  0.00     0.039 A 
ATOM     17  C   UNL     1       3.887  -2.904   5.719  1.00  0.00     0.014 A 
ATOM     18  C   UNL     1       1.637  -2.140   5.882  1.00  0.00     0.014 A 
ATOM     19  C   UNL     1       4.158  -2.316   6.975  1.00  0.00     0.005 A 
ATOM     20  C   UNL     1       1.914  -1.513   7.101  1.00  0.00     0.005 A 
ATOM     21  C   UNL     1       3.185  -1.576   7.683  1.00  0.00    -0.043 A 
BRANCH  21  22
ATOM     22  C   UNL     1       3.436  -0.907   9.053  1.00  0.00    -0.013 C 
ATOM     23  C   UNL     1       2.863  -1.753  10.212  1.00  0.00     0.016 C 
ATOM     24  C   UNL     1       4.936  -0.695   9.336  1.00  0.00     0.016 C 
ATOM     25  C   UNL     1       2.749   0.479   9.131  1.00  0.00     0.016 C 
ENDBRANCH  21  22
ENDBRANCH  13  16
ENDBRANCH  10  12
ENDBRANCH   7  10
ENDBRANCH   5   6
BRANCH   5  26
ATOM     26  C   UNL     1      -2.362  -0.093   3.131  1.00  0.00     0.145 C 
ATOM     27  C   UNL     1      -2.213   0.935   2.014  1.00  0.00     0.041 C 
BRANCH  26  28
ATOM     28  O   UNL     1      -2.299   0.584   4.406  1.00  0.00    -0.391 OA
ATOM     29  H   UNL     1      -1.444   1.034   4.492  1.00  0.00     0.211 HD
ENDBRANCH  26  28
ENDBRANCH   5  26
ENDBRANCH   3   5
ENDBRANCH   2   3
ENDBRANCH   1   2
BRANCH   1  30
ATOM     30  C   UNL     1      -1.661  -4.947   5.768  1.00  0.00     0.202 C 
BRANCH  30  31
ATOM     31  O   UNL     1      -2.635  -4.120   6.402  1.00  0.00    -0.374 OA
BRANCH  31  32
ATOM     32  C   UNL     1      -2.187  -2.841   6.851  1.00  0.00     0.202 C 
BRANCH  32  33
ATOM     33  C   UNL     1      -1.425  -2.836   8.185  1.00  0.00     0.261 C 
BRANCH  33  34
ATOM     34  O   UNL     1      -0.196  -3.582   8.131  1.00  0.00    -0.460 OA
BRANCH  34  35
ATOM     35  C   UNL     1      -0.210  -4.825   8.670  1.00  0.00     0.338 C 
ATOM     36  O   UNL     1      -1.144  -5.369   9.244  1.00  0.00    -0.246 OA
BRANCH  35  37
ATOM     37  C   UNL     1       1.068  -5.509   8.367  1.00  0.00     0.060 A 
ATOM     38  C   UNL     1       1.087  -6.833   7.925  1.00  0.00     0.016 A 
ATOM     39  C   UNL     1       2.270  -4.842   8.560  1.00  0.00     0.016 A 
ATOM     40  C   UNL     1       2.314  -7.486   7.722  1.00  0.00     0.010 A 
ATOM     41  C   UNL     1       3.490  -5.475   8.340  1.00  0.00     0.010 A 
ATOM     42  C   UNL     1       3.529  -6.819   7.957  1.00  0.00    -0.014 A 
BRANCH  42  43
ATOM     43  C   UNL     1       4.848  -7.504   7.891  1.00  0.00     0.031 A 
ATOM     44  C   UNL     1       5.673  -7.658   9.146  1.00  0.00     0.074 A 
ATOM     45  C   UNL     1       5.355  -7.906   6.711  1.00  0.00     0.049 A 
ATOM     46  N   UNL     1       6.882  -8.143   9.298  1.00  0.00    -0.248 NA
ATOM     47  C   UNL     1       5.073  -7.160  10.394  1.00  0.00     0.031 C 
ATOM     48  C   UNL     1       4.703  -7.749   5.413  1.00  0.00     0.029 A 
ATOM     49  N   UNL     1       6.553  -8.511   6.414  1.00  0.00    -0.354 N 
ATOM     50  C   UNL     1       7.188  -7.990  10.645  1.00  0.00     0.074 A 
ATOM     51  C   UNL     1       6.068  -7.308  11.256  1.00  0.00     0.031 C 
ATOM     52  C   UNL     1       5.498  -8.262   4.460  1.00  0.00     0.029 A 
ATOM     53  C   UNL     1       6.730  -8.755   5.074  1.00  0.00     0.049 A 
ATOM     54  H   UNL     1       7.221  -8.748   7.098  1.00  0.00     0.167 HD
ATOM     55  C   UNL     1       8.287  -8.404  11.322  1.00  0.00     0.037 A 
ATOM     56  C   UNL     1       7.771  -9.306   4.418  1.00  0.00     0.037 A 
ATOM     57  C   UNL     1       9.388  -9.112  10.723  1.00  0.00     0.049 A 
ATOM     58  C   UNL     1       8.979  -9.771   5.192  1.00  0.00     0.074 A 
ATOM     59  C   UNL     1      10.507  -9.647  11.337  1.00  0.00     0.029 A 
ATOM     60  N   UNL     1       9.510  -9.378   9.367  1.00  0.00    -0.354 N 
ATOM     61  N   UNL     1       9.215  -9.709   6.480  1.00  0.00    -0.248 NA
ATOM     62  C   UNL     1      10.064 -10.392   4.417  1.00  0.00     0.031 C 
ATOM     63  C   UNL     1      11.332 -10.189  10.347  1.00  0.00     0.029 A 
ATOM     64  C   UNL     1      10.698 -10.049   9.124  1.00  0.00     0.049 A 
ATOM     65  H   UNL     1       8.851  -9.129   8.680  1.00  0.00     0.167 HD
ATOM     66  C   UNL     1      10.452 -10.312   6.673  1.00  0.00     0.074 A 
ATOM     67  C   UNL     1      10.914 -10.744   5.372  1.00  0.00     0.031 C 
ATOM     68  C   UNL     1      11.142 -10.492   7.826  1.00  0.00     0.037 A 
BRANCH  55  69
ATOM     69  C   UNL     1       8.351  -8.117  12.798  1.00  0.00     0.064 A 
ATOM     70  C   UNL     1       7.480  -8.738  13.708  1.00  0.00     0.173 A 
ATOM     71  C   UNL     1       9.324  -7.248  13.316  1.00  0.00     0.173 A 
ATOM     72  F   UNL     1       6.529  -9.576  13.268  1.00  0.00    -0.203 F 
ATOM     73  C   UNL     1       7.556  -8.470  15.072  1.00  0.00     0.198 A 
ATOM     74  C   UNL     1       9.421  -7.012  14.685  1.00  0.00     0.198 A 
ATOM     75  F   UNL     1      10.192  -6.637  12.496  1.00  0.00    -0.203 F 
ATOM     76  F   UNL     1       6.676  -9.032  15.913  1.00  0.00    -0.200 F 
ATOM     77  C   UNL     1       8.531  -7.615  15.561  1.00  0.00     0.200 A 
ATOM     78  F   UNL     1      10.377  -6.200  15.158  1.00  0.00    -0.200 F 
ATOM     79  F   UNL     1       8.608  -7.366  16.875  1.00  0.00    -0.200 F 
ENDBRANCH  55  69
BRANCH  56  80
ATOM     80  C   UNL     1       7.707  -9.482   2.942  1.00  0.00     0.064 A 
ATOM     81  C   UNL     1       7.620 -10.762   2.376  1.00  0.00     0.173 A 
ATOM     82  C   UNL     1       7.747  -8.385   2.070  1.00  0.00     0.173 A 
ATOM     83  F   UNL     1       7.605 -11.845   3.169  1.00  0.00    -0.203 F 
ATOM     84  C   UNL     1       7.601 -10.940   0.995  1.00  0.00     0.198 A 
ATOM     85  C   UNL     1       7.695  -8.563   0.688  1.00  0.00     0.198 A 
ATOM     86  F   UNL     1       7.830  -7.140   2.559  1.00  0.00    -0.203 F 
ATOM     87  F   UNL     1       7.575 -12.178   0.481  1.00  0.00    -0.200 F 
ATOM     88  C   UNL     1       7.632  -9.840   0.152  1.00  0.00     0.200 A 
ATOM     89  F   UNL     1       7.713  -7.497  -0.124  1.00  0.00    -0.200 F 
ATOM     90  F   UNL     1       7.614 -10.011  -1.177  1.00  0.00    -0.200 F 
ENDBRANCH  56  80
BRANCH  68  91
ATOM     91  C   UNL     1      12.449 -11.229   7.753  1.00  0.00     0.064 A 
ATOM     92  C   UNL     1      13.591 -10.659   7.171  1.00  0.00     0.173 A 
ATOM     93  C   UNL     1      12.576 -12.503   8.331  1.00  0.00     0.173 A 
ATOM     94  F   UNL     1      13.522  -9.449   6.594  1.00  0.00    -0.203 F 
ATOM     95  C   UNL     1      14.803 -11.344   7.152  1.00  0.00     0.198 A 
ATOM     96  C   UNL     1      13.797 -13.170   8.339  1.00  0.00     0.198 A 
ATOM     97  F   UNL     1      11.518 -13.091   8.909  1.00  0.00    -0.203 F 
ATOM     98  F   UNL     1      15.870 -10.796   6.552  1.00  0.00    -0.200 F 
ATOM     99  C   UNL     1      14.909 -12.593   7.744  1.00  0.00     0.200 A 
ATOM    100  F   UNL     1      13.900 -14.370   8.928  1.00  0.00    -0.200 F 
ATOM    101  F   UNL     1      16.080 -13.243   7.738  1.00  0.00    -0.200 F 
ENDBRANCH  68  91
ENDBRANCH  42  43
ENDBRANCH  35  37
ENDBRANCH  34  35
ENDBRANCH  33  34
ENDBRANCH  32  33
ENDBRANCH  31  32
ENDBRANCH  30  31
ENDBRANCH   1  30
TORSDOF 21
