REMARK SMILES CC(C)c1ccc(O[C@H](C)C(=O)Nc2cccc(C(=O)OCCOCCOC(=O)c3ccc(-c4c5nc(c(-c6c(F)c(F)c(F)c(F)c6F)c6ccc([nH]6)c(-c6c(F)c(F)c(F)c(F)c6F)c6nc(c(-c7c(F)c(F)c(F)c(F)c7F)c7ccc4[nH]7)C=C6)C=C5)cc3)c2)cc1
REMARK SMILES IDX 22 1 21 2 19 3 20 4 18 5 14 6 15 7 93 8 16 9 17 10 13 11
REMARK SMILES IDX 11 12 12 13 9 15 10 16 8 17 7 18 4 19 5 20 95 21 6 22 94 23
REMARK SMILES IDX 2 24 1 25 3 26 23 27 24 28 25 29 26 30 27 31 28 32 29 33
REMARK SMILES IDX 30 34 31 35 92 36 32 37 91 38 33 39 34 40 35 41 85 42 36 43
REMARK SMILES IDX 90 44 84 45 86 46 37 47 89 48 83 49 82 50 38 52 70 53 50 54
REMARK SMILES IDX 69 55 51 56 54 57 68 58 87 59 52 60 53 61 67 63 88 64 55 65
REMARK SMILES IDX 39 66 40 67 48 68 41 69 42 70 46 71 49 72 43 73 44 74 47 75
REMARK SMILES IDX 45 76 71 77 72 78 80 79 73 80 74 81 78 82 81 83 75 84 76 85
REMARK SMILES IDX 79 86 77 87 56 88 57 89 65 90 58 91 59 92 63 93 66 94 60 95
REMARK SMILES IDX 61 96 64 97 62 98
REMARK H PARENT 13 14 86 51 54 62
REMARK Flexibility Score: inf
ROOT
ATOM      1  C   UNL     1      -2.399   2.578  -3.266  1.00  0.00     0.261 C 
ENDROOT
BRANCH   1   2
ATOM      2  O   UNL     1      -2.515   1.268  -2.688  1.00  0.00    -0.460 OA
BRANCH   2   3
ATOM      3  C   UNL     1      -1.761   0.298  -3.264  1.00  0.00     0.338 C 
ATOM      4  O   UNL     1      -1.016   0.436  -4.227  1.00  0.00    -0.246 OA
BRANCH   3   5
ATOM      5  C   UNL     1      -1.845  -0.969  -2.493  1.00  0.00     0.062 A 
ATOM      6  C   UNL     1      -2.966  -2.411  -0.894  1.00  0.00     0.042 A 
ATOM      7  C   UNL     1      -2.001  -3.395  -1.124  1.00  0.00     0.026 A 
ATOM      8  C   UNL     1      -2.820  -1.174  -1.511  1.00  0.00     0.041 A 
ATOM      9  C   UNL     1      -0.987  -3.184  -2.063  1.00  0.00     0.003 A 
ATOM     10  C   UNL     1      -0.928  -1.984  -2.770  1.00  0.00     0.016 A 
BRANCH   6  11
ATOM     11  N   UNL     1      -4.037  -2.720  -0.043  1.00  0.00    -0.323 N 
ATOM     12  C   UNL     1      -5.345  -2.306  -0.033  1.00  0.00     0.265 C 
ATOM     13  O   UNL     1      -6.033  -2.656   0.936  1.00  0.00    -0.270 OA
ATOM     14  H   UNL     1      -3.809  -3.349   0.679  1.00  0.00     0.170 HD
BRANCH  12  15
ATOM     15  C   UNL     1      -5.998  -1.481  -1.176  1.00  0.00     0.259 C 
ATOM     16  C   UNL     1      -6.029  -0.005  -0.788  1.00  0.00     0.064 C 
BRANCH  15  17
ATOM     17  O   UNL     1      -5.520  -1.946  -2.431  1.00  0.00    -0.481 OA
BRANCH  17  18
ATOM     18  C   UNL     1      -5.295  -1.280  -3.586  1.00  0.00     0.120 A 
ATOM     19  C   UNL     1      -4.434  -0.202  -6.070  1.00  0.00    -0.045 A 
ATOM     20  C   UNL     1      -5.050   0.598  -5.096  1.00  0.00     0.008 A 
ATOM     21  C   UNL     1      -4.294  -1.565  -5.798  1.00  0.00     0.008 A 
ATOM     22  C   UNL     1      -5.491   0.061  -3.873  1.00  0.00     0.047 A 
ATOM     23  C   UNL     1      -4.722  -2.090  -4.575  1.00  0.00     0.047 A 
BRANCH  19  24
ATOM     24  C   UNL     1      -3.894   0.425  -7.345  1.00  0.00     0.013 C 
ATOM     25  C   UNL     1      -2.374   0.598  -7.264  1.00  0.00     0.012 C 
ATOM     26  C   UNL     1      -4.270  -0.350  -8.611  1.00  0.00     0.012 C 
ENDBRANCH  19  24
ENDBRANCH  17  18
ENDBRANCH  15  17
ENDBRANCH  12  15
ENDBRANCH   6  11
ENDBRANCH   3   5
ENDBRANCH   2   3
ENDBRANCH   1   2
BRANCH   1  27
ATOM     27  C   UNL     1      -1.602   3.529  -2.368  1.00  0.00     0.202 C 
BRANCH  27  28
ATOM     28  O   UNL     1      -0.212   3.247  -2.215  1.00  0.00    -0.374 OA
BRANCH  28  29
ATOM     29  C   UNL     1       0.148   2.184  -1.335  1.00  0.00     0.202 C 
BRANCH  29  30
ATOM     30  C   UNL     1       0.193   2.516   0.160  1.00  0.00     0.261 C 
BRANCH  30  31
ATOM     31  O   UNL     1      -1.071   2.986   0.658  1.00  0.00    -0.460 OA
BRANCH  31  32
ATOM     32  C   UNL     1      -1.112   4.316   0.897  1.00  0.00     0.338 C 
ATOM     33  O   UNL     1      -0.190   5.118   0.805  1.00  0.00    -0.246 OA
BRANCH  32  34
ATOM     34  C   UNL     1      -2.494   4.750   1.162  1.00  0.00     0.060 A 
ATOM     35  C   UNL     1      -2.970   5.851   0.440  1.00  0.00     0.016 A 
ATOM     36  C   UNL     1      -3.276   4.161   2.159  1.00  0.00     0.016 A 
ATOM     37  C   UNL     1      -4.206   6.408   0.755  1.00  0.00     0.010 A 
ATOM     38  C   UNL     1      -4.516   4.724   2.477  1.00  0.00     0.010 A 
ATOM     39  C   UNL     1      -4.968   5.874   1.803  1.00  0.00    -0.014 A 
BRANCH  39  40
ATOM     40  C   UNL     1      -6.167   6.607   2.272  1.00  0.00     0.031 A 
ATOM     41  C   UNL     1      -6.062   7.490   3.485  1.00  0.00     0.074 A 
ATOM     42  C   UNL     1      -7.327   6.518   1.601  1.00  0.00     0.049 A 
ATOM     43  N   UNL     1      -6.978   8.230   4.056  1.00  0.00    -0.248 NA
ATOM     44  C   UNL     1      -4.747   7.543   4.143  1.00  0.00     0.031 C 
ATOM     45  C   UNL     1      -7.545   5.715   0.400  1.00  0.00     0.029 A 
ATOM     46  N   UNL     1      -8.542   7.110   1.839  1.00  0.00    -0.354 N 
ATOM     47  C   UNL     1      -6.353   8.832   5.140  1.00  0.00     0.074 A 
ATOM     48  C   UNL     1      -4.990   8.347   5.167  1.00  0.00     0.031 C 
ATOM     49  C   UNL     1      -8.823   5.857   0.009  1.00  0.00     0.029 A 
ATOM     50  C   UNL     1      -9.515   6.740   0.945  1.00  0.00     0.049 A 
ATOM     51  H   UNL     1      -8.700   7.739   2.579  1.00  0.00     0.167 HD
ATOM     52  C   UNL     1      -6.868   9.718   6.027  1.00  0.00     0.037 A 
ATOM     53  C   UNL     1     -10.821   7.068   0.899  1.00  0.00     0.037 A 
ATOM     54  C   UNL     1      -8.224  10.202   5.996  1.00  0.00     0.049 A 
ATOM     55  C   UNL     1     -11.384   8.015   1.925  1.00  0.00     0.074 A 
ATOM     56  C   UNL     1      -8.828  11.133   6.823  1.00  0.00     0.029 A 
ATOM     57  N   UNL     1      -9.191   9.782   5.094  1.00  0.00    -0.354 N 
ATOM     58  N   UNL     1     -10.776   8.617   2.918  1.00  0.00    -0.248 NA
ATOM     59  C   UNL     1     -12.815   8.333   1.818  1.00  0.00     0.031 C 
ATOM     60  C   UNL     1     -10.174  11.236   6.455  1.00  0.00     0.029 A 
ATOM     61  C   UNL     1     -10.397  10.409   5.366  1.00  0.00     0.049 A 
ATOM     62  H   UNL     1      -9.042   9.133   4.368  1.00  0.00     0.167 HD
ATOM     63  C   UNL     1     -11.740   9.398   3.542  1.00  0.00     0.074 A 
ATOM     64  C   UNL     1     -12.971   9.206   2.803  1.00  0.00     0.031 C 
ATOM     65  C   UNL     1     -11.617  10.201   4.627  1.00  0.00     0.037 A 
BRANCH  52  66
ATOM     66  C   UNL     1      -5.965  10.199   7.125  1.00  0.00     0.064 A 
ATOM     67  C   UNL     1      -4.896  11.071   6.875  1.00  0.00     0.173 A 
ATOM     68  C   UNL     1      -6.186   9.795   8.451  1.00  0.00     0.173 A 
ATOM     69  F   UNL     1      -4.634  11.477   5.623  1.00  0.00    -0.203 F 
ATOM     70  C   UNL     1      -4.062  11.497   7.907  1.00  0.00     0.198 A 
ATOM     71  C   UNL     1      -5.368  10.245   9.484  1.00  0.00     0.198 A 
ATOM     72  F   UNL     1      -7.198   8.965   8.746  1.00  0.00    -0.203 F 
ATOM     73  F   UNL     1      -3.016  12.290   7.637  1.00  0.00    -0.200 F 
ATOM     74  C   UNL     1      -4.302  11.089   9.210  1.00  0.00     0.200 A 
ATOM     75  F   UNL     1      -5.608   9.858  10.744  1.00  0.00    -0.200 F 
ATOM     76  F   UNL     1      -3.500  11.501  10.202  1.00  0.00    -0.200 F 
ENDBRANCH  52  66
BRANCH  53  77
ATOM     77  C   UNL     1     -11.685   6.486  -0.160  1.00  0.00     0.064 A 
ATOM     78  C   UNL     1     -12.185   7.277  -1.202  1.00  0.00     0.173 A 
ATOM     79  C   UNL     1     -12.018   5.123  -0.154  1.00  0.00     0.173 A 
ATOM     80  F   UNL     1     -11.912   8.589  -1.237  1.00  0.00    -0.203 F 
ATOM     81  C   UNL     1     -12.994   6.728  -2.196  1.00  0.00     0.198 A 
ATOM     82  C   UNL     1     -12.805   4.571  -1.161  1.00  0.00     0.198 A 
ATOM     83  F   UNL     1     -11.562   4.325   0.823  1.00  0.00    -0.203 F 
ATOM     84  F   UNL     1     -13.487   7.511  -3.164  1.00  0.00    -0.200 F 
ATOM     85  C   UNL     1     -13.296   5.374  -2.178  1.00  0.00     0.200 A 
ATOM     86  F   UNL     1     -13.083   3.260  -1.147  1.00  0.00    -0.200 F 
ATOM     87  F   UNL     1     -14.065   4.845  -3.140  1.00  0.00    -0.200 F 
ENDBRANCH  53  77
BRANCH  65  88
ATOM     88  C   UNL     1     -12.842  10.947   5.073  1.00  0.00     0.064 A 
ATOM     89  C   UNL     1     -13.916  10.292   5.693  1.00  0.00     0.173 A 
ATOM     90  C   UNL     1     -12.927  12.339   4.909  1.00  0.00     0.173 A 
ATOM     91  F   UNL     1     -13.890   8.961   5.859  1.00  0.00    -0.203 F 
ATOM     92  C   UNL     1     -15.042  10.999   6.109  1.00  0.00     0.198 A 
ATOM     93  C   UNL     1     -14.042  13.046   5.353  1.00  0.00     0.198 A 
ATOM     94  F   UNL     1     -11.925  13.014   4.329  1.00  0.00    -0.203 F 
ATOM     95  F   UNL     1     -16.077  10.345   6.655  1.00  0.00    -0.200 F 
ATOM     96  C   UNL     1     -15.101  12.375   5.945  1.00  0.00     0.200 A 
ATOM     97  F   UNL     1     -14.091  14.377   5.205  1.00  0.00    -0.200 F 
ATOM     98  F   UNL     1     -16.183  13.053   6.350  1.00  0.00    -0.200 F 
ENDBRANCH  65  88
ENDBRANCH  39  40
ENDBRANCH  32  34
ENDBRANCH  31  32
ENDBRANCH  30  31
ENDBRANCH  29  30
ENDBRANCH  28  29
ENDBRANCH  27  28
ENDBRANCH   1  27
TORSDOF 19
