REMARK SMILES C[C@H](Sc1ccccn1)C(=O)N[C@H](C(=O)OCCOCCOC(=O)c1ccc(-c2c3nc(c(-c4c(F)c(F)c(F)c(F)c4F)c4ccc([nH]4)c(-c4c(F)c(F)c(F)c(F)c4F)c4nc(c(-c5c(F)c(F)c(F)c(F)c5F)c5ccc2[nH]5)C=C4)C=C3)cc1)c1ccc(F)cc1
REMARK SMILES IDX 18 1 17 2 16 3 14 4 15 5 13 6 12 7 10 8 11 9 2 11 1 12 3 13
REMARK SMILES IDX 4 14 5 15 9 16 6 17 8 18 7 19 88 20 89 21 94 22 90 23 93 24
REMARK SMILES IDX 91 25 92 26 19 27 20 28 21 29 22 30 23 31 24 32 25 33 26 34
REMARK SMILES IDX 87 35 27 36 86 37 28 38 29 39 30 40 80 41 31 42 85 43 79 44
REMARK SMILES IDX 81 45 32 46 84 47 78 48 77 49 33 51 65 52 45 53 64 54 46 55
REMARK SMILES IDX 49 56 63 57 82 58 47 59 48 60 62 62 83 63 50 64 34 65 35 66
REMARK SMILES IDX 43 67 36 68 37 69 41 70 44 71 38 72 39 73 42 74 40 75 66 76
REMARK SMILES IDX 67 77 75 78 68 79 69 80 73 81 76 82 70 83 71 84 74 85 72 86
REMARK SMILES IDX 51 87 52 88 60 89 53 90 54 91 58 92 61 93 55 94 56 95 59 96
REMARK SMILES IDX 57 97
REMARK H PARENT 12 10 81 50 49 61
REMARK Flexibility Score: inf
ROOT
ATOM      1  C   UNL     1      -2.594   1.444   2.629  1.00  0.00     0.202 C 
ENDROOT
BRANCH   1   2
ATOM      2  C   UNL     1      -2.402   0.428   1.496  1.00  0.00     0.261 C 
BRANCH   2   3
ATOM      3  O   UNL     1      -1.551   0.874   0.429  1.00  0.00    -0.461 OA
BRANCH   3   4
ATOM      4  C   UNL     1      -2.224   1.123  -0.735  1.00  0.00     0.333 C 
ATOM      5  O   UNL     1      -3.433   0.993  -0.861  1.00  0.00    -0.249 OA
BRANCH   4   6
ATOM      6  C   UNL     1      -1.289   1.543  -1.880  1.00  0.00     0.223 C 
BRANCH   6   7
ATOM      7  N   UNL     1      -1.729   0.894  -3.132  1.00  0.00    -0.338 N 
ATOM      8  C   UNL     1      -2.977   0.764  -3.675  1.00  0.00     0.234 C 
ATOM      9  O   UNL     1      -3.268  -0.409  -3.959  1.00  0.00    -0.274 OA
ATOM     10  H   UNL     1      -1.006   0.489  -3.663  1.00  0.00     0.164 HD
BRANCH   8  11
ATOM     11  C   UNL     1      -3.921   1.899  -4.111  1.00  0.00     0.139 C 
ATOM     12  C   UNL     1      -3.283   3.032  -4.895  1.00  0.00     0.030 C 
BRANCH  11  13
ATOM     13  S   UNL     1      -5.430   2.139  -3.076  1.00  0.00    -0.093 SA
BRANCH  13  14
ATOM     14  C   UNL     1      -5.266   3.670  -2.196  1.00  0.00     0.097 A 
ATOM     15  C   UNL     1      -5.361   4.913  -2.811  1.00  0.00     0.035 A 
ATOM     16  N   UNL     1      -5.113   3.560  -0.856  1.00  0.00    -0.250 NA
ATOM     17  C   UNL     1      -5.248   6.069  -2.031  1.00  0.00     0.004 A 
ATOM     18  C   UNL     1      -5.032   4.688  -0.116  1.00  0.00     0.112 A 
ATOM     19  C   UNL     1      -5.075   5.958  -0.657  1.00  0.00     0.020 A 
ENDBRANCH  13  14
ENDBRANCH  11  13
ENDBRANCH   8  11
ENDBRANCH   6   7
BRANCH   6  20
ATOM     20  C   UNL     1      -0.895   3.005  -1.977  1.00  0.00    -0.014 A 
ATOM     21  C   UNL     1       0.451   3.415  -1.976  1.00  0.00     0.009 A 
ATOM     22  C   UNL     1      -1.858   4.005  -2.079  1.00  0.00     0.009 A 
ATOM     23  C   UNL     1       0.795   4.767  -2.134  1.00  0.00     0.039 A 
ATOM     24  C   UNL     1      -1.531   5.347  -2.280  1.00  0.00     0.039 A 
ATOM     25  C   UNL     1      -0.201   5.717  -2.313  1.00  0.00     0.123 A 
ATOM     26  F   UNL     1       0.123   7.000  -2.515  1.00  0.00    -0.207 F 
ENDBRANCH   6  20
ENDBRANCH   4   6
ENDBRANCH   3   4
ENDBRANCH   2   3
ENDBRANCH   1   2
BRANCH   1  27
ATOM     27  O   UNL     1      -2.895   2.802   2.332  1.00  0.00    -0.374 OA
BRANCH  27  28
ATOM     28  C   UNL     1      -1.956   3.570   1.591  1.00  0.00     0.202 C 
BRANCH  28  29
ATOM     29  C   UNL     1      -0.601   3.914   2.219  1.00  0.00     0.261 C 
BRANCH  29  30
ATOM     30  O   UNL     1       0.106   2.779   2.738  1.00  0.00    -0.460 OA
BRANCH  30  31
ATOM     31  C   UNL     1       0.164   2.739   4.088  1.00  0.00     0.338 C 
ATOM     32  O   UNL     1      -0.260   3.579   4.879  1.00  0.00    -0.246 OA
BRANCH  31  33
ATOM     33  C   UNL     1       0.669   1.436   4.543  1.00  0.00     0.060 A 
ATOM     34  C   UNL     1      -0.112   0.734   5.469  1.00  0.00     0.016 A 
ATOM     35  C   UNL     1       1.918   0.953   4.146  1.00  0.00     0.016 A 
ATOM     36  C   UNL     1       0.380  -0.427   6.051  1.00  0.00     0.010 A 
ATOM     37  C   UNL     1       2.418  -0.209   4.743  1.00  0.00     0.010 A 
ATOM     38  C   UNL     1       1.668  -0.875   5.728  1.00  0.00    -0.014 A 
BRANCH  38  39
ATOM     39  C   UNL     1       2.272  -1.937   6.563  1.00  0.00     0.031 A 
ATOM     40  C   UNL     1       3.139  -1.537   7.724  1.00  0.00     0.074 A 
ATOM     41  C   UNL     1       1.980  -3.229   6.339  1.00  0.00     0.049 A 
ATOM     42  N   UNL     1       3.700  -2.286   8.638  1.00  0.00    -0.248 NA
ATOM     43  C   UNL     1       3.406  -0.098   7.877  1.00  0.00     0.031 C 
ATOM     44  C   UNL     1       1.126  -3.724   5.262  1.00  0.00     0.029 A 
ATOM     45  N   UNL     1       2.363  -4.357   7.016  1.00  0.00    -0.354 N 
ATOM     46  C   UNL     1       4.376  -1.410   9.478  1.00  0.00     0.074 A 
ATOM     47  C   UNL     1       4.189  -0.079   8.945  1.00  0.00     0.031 C 
ATOM     48  C   UNL     1       1.046  -5.063   5.352  1.00  0.00     0.029 A 
ATOM     49  C   UNL     1       1.854  -5.515   6.483  1.00  0.00     0.049 A 
ATOM     50  H   UNL     1       2.947  -4.339   7.808  1.00  0.00     0.167 HD
ATOM     51  C   UNL     1       5.077  -1.692  10.601  1.00  0.00     0.037 A 
ATOM     52  C   UNL     1       2.025  -6.793   6.870  1.00  0.00     0.037 A 
ATOM     53  C   UNL     1       5.262  -3.019  11.124  1.00  0.00     0.049 A 
ATOM     54  C   UNL     1       2.851  -7.084   8.096  1.00  0.00     0.074 A 
ATOM     55  C   UNL     1       5.945  -3.414  12.261  1.00  0.00     0.029 A 
ATOM     56  N   UNL     1       4.763  -4.173  10.536  1.00  0.00    -0.354 N 
ATOM     57  N   UNL     1       3.457  -6.248   8.904  1.00  0.00    -0.248 NA
ATOM     58  C   UNL     1       3.006  -8.497   8.468  1.00  0.00     0.031 C 
ATOM     59  C   UNL     1       5.896  -4.810  12.337  1.00  0.00     0.029 A 
ATOM     60  C   UNL     1       5.143  -5.282  11.273  1.00  0.00     0.049 A 
ATOM     61  H   UNL     1       4.219  -4.199   9.716  1.00  0.00     0.167 HD
ATOM     62  C   UNL     1       4.044  -7.028   9.891  1.00  0.00     0.074 A 
ATOM     63  C   UNL     1       3.707  -8.404   9.589  1.00  0.00     0.031 C 
ATOM     64  C   UNL     1       4.795  -6.643  10.953  1.00  0.00     0.037 A 
BRANCH  51  65
ATOM     65  C   UNL     1       5.712  -0.543  11.325  1.00  0.00     0.064 A 
ATOM     66  C   UNL     1       4.947   0.378  12.058  1.00  0.00     0.173 A 
ATOM     67  C   UNL     1       7.104  -0.372  11.306  1.00  0.00     0.173 A 
ATOM     68  F   UNL     1       3.611   0.268  12.094  1.00  0.00    -0.203 F 
ATOM     69  C   UNL     1       5.552   1.440  12.726  1.00  0.00     0.198 A 
ATOM     70  C   UNL     1       7.707   0.677  11.995  1.00  0.00     0.198 A 
ATOM     71  F   UNL     1       7.880  -1.224  10.619  1.00  0.00    -0.203 F 
ATOM     72  F   UNL     1       4.798   2.332  13.384  1.00  0.00    -0.200 F 
ATOM     73  C   UNL     1       6.931   1.585  12.699  1.00  0.00     0.200 A 
ATOM     74  F   UNL     1       9.040   0.811  11.974  1.00  0.00    -0.200 F 
ATOM     75  F   UNL     1       7.512   2.605  13.345  1.00  0.00    -0.200 F 
ENDBRANCH  51  65
BRANCH  52  76
ATOM     76  C   UNL     1       1.393  -7.891   6.096  1.00  0.00     0.064 A 
ATOM     77  C   UNL     1       0.335  -8.640   6.629  1.00  0.00     0.173 A 
ATOM     78  C   UNL     1       1.839  -8.217   4.807  1.00  0.00     0.173 A 
ATOM     79  F   UNL     1      -0.112  -8.381   7.867  1.00  0.00    -0.203 F 
ATOM     80  C   UNL     1      -0.242  -9.683   5.908  1.00  0.00     0.198 A 
ATOM     81  C   UNL     1       1.245  -9.243   4.077  1.00  0.00     0.198 A 
ATOM     82  F   UNL     1       2.849  -7.530   4.253  1.00  0.00    -0.203 F 
ATOM     83  F   UNL     1      -1.224 -10.411   6.457  1.00  0.00    -0.200 F 
ATOM     84  C   UNL     1       0.209  -9.980   4.630  1.00  0.00     0.200 A 
ATOM     85  F   UNL     1       1.678  -9.520   2.839  1.00  0.00    -0.200 F 
ATOM     86  F   UNL     1      -0.348 -10.982   3.936  1.00  0.00    -0.200 F 
ENDBRANCH  52  76
BRANCH  64  87
ATOM     87  C   UNL     1       5.280  -7.722  11.875  1.00  0.00     0.064 A 
ATOM     88  C   UNL     1       6.303  -8.604  11.497  1.00  0.00     0.173 A 
ATOM     89  C   UNL     1       4.739  -7.854  13.162  1.00  0.00     0.173 A 
ATOM     90  F   UNL     1       6.843  -8.526  10.271  1.00  0.00    -0.203 F 
ATOM     91  C   UNL     1       6.746  -9.599  12.365  1.00  0.00     0.198 A 
ATOM     92  C   UNL     1       5.203  -8.832  14.037  1.00  0.00     0.198 A 
ATOM     93  F   UNL     1       3.764  -7.029  13.574  1.00  0.00    -0.203 F 
ATOM     94  F   UNL     1       7.690 -10.462  11.966  1.00  0.00    -0.200 F 
ATOM     95  C   UNL     1       6.200  -9.708  13.635  1.00  0.00     0.200 A 
ATOM     96  F   UNL     1       4.684  -8.928  15.269  1.00  0.00    -0.200 F 
ATOM     97  F   UNL     1       6.630 -10.664  14.470  1.00  0.00    -0.200 F 
ENDBRANCH  64  87
ENDBRANCH  38  39
ENDBRANCH  31  33
ENDBRANCH  30  31
ENDBRANCH  29  30
ENDBRANCH  28  29
ENDBRANCH  27  28
ENDBRANCH   1  27
TORSDOF 19
