REMARK SMILES O=C(OCCOCCOC(=O)[C@H](Cc1ccccc1)SCc1nccs1)c1ccc(-c2c3nc(c(-c4c(F)c(F)c(F)c(F)c4F)c4ccc([nH]4)c(-c4c(F)c(F)c(F)c(F)c4F)c4nc(c(-c5c(F)c(F)c(F)c(F)c5F)c5ccc2[nH]5)C=C4)C=C3)cc1
REMARK SMILES IDX 7 1 6 2 5 3 4 4 3 5 2 6 1 7 27 8 28 9 89 10 29 11 88 12
REMARK SMILES IDX 30 13 31 14 32 15 82 16 33 17 87 18 81 19 83 20 34 21 86 22
REMARK SMILES IDX 80 23 79 24 35 26 67 27 47 28 66 29 48 30 51 31 65 32 84 33
REMARK SMILES IDX 49 34 50 35 64 37 85 38 52 39 36 40 37 41 45 42 38 43 39 44
REMARK SMILES IDX 43 45 46 46 40 47 41 48 44 49 42 50 68 51 69 52 77 53 70 54
REMARK SMILES IDX 71 55 75 56 78 57 72 58 73 59 76 60 74 61 53 62 54 63 62 64
REMARK SMILES IDX 55 65 56 66 60 67 63 68 57 69 58 70 61 71 59 72 8 73 9 74
REMARK SMILES IDX 10 75 11 76 12 77 20 78 21 79 22 80 23 81 26 82 24 83 25 84
REMARK SMILES IDX 13 85 14 86 15 87 19 88 16 89 18 90 17 91
REMARK H PARENT 83 25 51 36
REMARK Flexibility Score: inf
ROOT
ATOM      1  C   UNL     1       5.693  -5.295  -1.350  1.00  0.00     0.202 C 
ENDROOT
BRANCH   1   2
ATOM      2  O   UNL     1       5.401  -4.202  -0.494  1.00  0.00    -0.374 OA
BRANCH   2   3
ATOM      3  C   UNL     1       6.146  -3.008  -0.709  1.00  0.00     0.202 C 
BRANCH   3   4
ATOM      4  C   UNL     1       7.197  -2.775   0.376  1.00  0.00     0.261 C 
BRANCH   4   5
ATOM      5  O   UNL     1       7.907  -3.987   0.655  1.00  0.00    -0.460 OA
BRANCH   5   6
ATOM      6  C   UNL     1       7.431  -5.007   1.411  1.00  0.00     0.338 C 
ATOM      7  O   UNL     1       7.958  -6.115   1.325  1.00  0.00    -0.246 OA
BRANCH   6   8
ATOM      8  C   UNL     1       6.363  -4.819   2.442  1.00  0.00     0.060 A 
ATOM      9  C   UNL     1       5.207  -4.046   2.288  1.00  0.00     0.016 A 
ATOM     10  C   UNL     1       6.508  -5.557   3.626  1.00  0.00     0.016 A 
ATOM     11  C   UNL     1       4.235  -3.983   3.263  1.00  0.00     0.010 A 
ATOM     12  C   UNL     1       5.528  -5.511   4.618  1.00  0.00     0.010 A 
ATOM     13  C   UNL     1       4.393  -4.716   4.429  1.00  0.00    -0.014 A 
BRANCH  13  14
ATOM     14  C   UNL     1       3.409  -4.480   5.487  1.00  0.00     0.031 A 
ATOM     15  C   UNL     1       3.799  -3.557   6.592  1.00  0.00     0.074 A 
ATOM     16  C   UNL     1       2.159  -4.948   5.338  1.00  0.00     0.049 A 
ATOM     17  N   UNL     1       3.146  -3.235   7.673  1.00  0.00    -0.248 NA
ATOM     18  C   UNL     1       5.106  -2.892   6.451  1.00  0.00     0.031 C 
ATOM     19  C   UNL     1       1.675  -5.702   4.178  1.00  0.00     0.029 A 
ATOM     20  N   UNL     1       1.062  -4.824   6.140  1.00  0.00    -0.354 N 
ATOM     21  C   UNL     1       3.983  -2.372   8.364  1.00  0.00     0.074 A 
ATOM     22  C   UNL     1       5.186  -2.209   7.580  1.00  0.00     0.031 C 
ATOM     23  C   UNL     1       0.367  -5.957   4.339  1.00  0.00     0.029 A 
ATOM     24  C   UNL     1      -0.049  -5.458   5.643  1.00  0.00     0.049 A 
ATOM     25  H   UNL     1       1.066  -4.329   6.991  1.00  0.00     0.167 HD
ATOM     26  C   UNL     1       3.755  -1.791   9.563  1.00  0.00     0.037 A 
ATOM     27  C   UNL     1      -1.249  -5.643   6.219  1.00  0.00     0.037 A 
ATOM     28  C   UNL     1       2.535  -1.989  10.295  1.00  0.00     0.049 A 
ATOM     29  C   UNL     1      -1.441  -5.080   7.601  1.00  0.00     0.074 A 
ATOM     30  C   UNL     1       2.188  -1.535  11.551  1.00  0.00     0.029 A 
ATOM     31  N   UNL     1       1.450  -2.718   9.814  1.00  0.00    -0.354 N 
ATOM     32  N   UNL     1      -0.616  -4.351   8.319  1.00  0.00    -0.248 NA
ATOM     33  C   UNL     1      -2.712  -5.379   8.266  1.00  0.00     0.031 C 
ATOM     34  C   UNL     1       0.913  -2.032  11.850  1.00  0.00     0.029 A 
ATOM     35  C   UNL     1       0.439  -2.744  10.755  1.00  0.00     0.049 A 
ATOM     36  H   UNL     1       1.410  -3.152   8.931  1.00  0.00     0.167 HD
ATOM     37  C   UNL     1      -1.270  -4.087   9.511  1.00  0.00     0.074 A 
ATOM     38  C   UNL     1      -2.572  -4.723   9.410  1.00  0.00     0.031 C 
ATOM     39  C   UNL     1      -0.844  -3.388  10.593  1.00  0.00     0.037 A 
BRANCH  26  40
ATOM     40  C   UNL     1       4.888  -1.011  10.161  1.00  0.00     0.064 A 
ATOM     41  C   UNL     1       5.336   0.203   9.617  1.00  0.00     0.173 A 
ATOM     42  C   UNL     1       5.602  -1.541  11.247  1.00  0.00     0.173 A 
ATOM     43  F   UNL     1       4.715   0.737   8.554  1.00  0.00    -0.203 F 
ATOM     44  C   UNL     1       6.483   0.828  10.104  1.00  0.00     0.198 A 
ATOM     45  C   UNL     1       6.728  -0.897  11.753  1.00  0.00     0.198 A 
ATOM     46  F   UNL     1       5.227  -2.705  11.800  1.00  0.00    -0.203 F 
ATOM     47  F   UNL     1       6.943   1.939   9.511  1.00  0.00    -0.200 F 
ATOM     48  C   UNL     1       7.177   0.278  11.171  1.00  0.00     0.200 A 
ATOM     49  F   UNL     1       7.396  -1.431  12.785  1.00  0.00    -0.200 F 
ATOM     50  F   UNL     1       8.292   0.868  11.624  1.00  0.00    -0.200 F 
ENDBRANCH  26  40
BRANCH  27  51
ATOM     51  C   UNL     1      -2.307  -6.422   5.523  1.00  0.00     0.064 A 
ATOM     52  C   UNL     1      -3.509  -5.822   5.125  1.00  0.00     0.173 A 
ATOM     53  C   UNL     1      -2.134  -7.784   5.226  1.00  0.00     0.173 A 
ATOM     54  F   UNL     1      -3.735  -4.529   5.400  1.00  0.00    -0.203 F 
ATOM     55  C   UNL     1      -4.498  -6.554   4.468  1.00  0.00     0.198 A 
ATOM     56  C   UNL     1      -3.110  -8.507   4.542  1.00  0.00     0.198 A 
ATOM     57  F   UNL     1      -1.004  -8.413   5.583  1.00  0.00    -0.203 F 
ATOM     58  F   UNL     1      -5.653  -5.964   4.132  1.00  0.00    -0.200 F 
ATOM     59  C   UNL     1      -4.295  -7.893   4.170  1.00  0.00     0.200 A 
ATOM     60  F   UNL     1      -2.899  -9.796   4.242  1.00  0.00    -0.200 F 
ATOM     61  F   UNL     1      -5.242  -8.593   3.530  1.00  0.00    -0.200 F 
ENDBRANCH  27  51
BRANCH  39  62
ATOM     62  C   UNL     1      -1.817  -3.244  11.723  1.00  0.00     0.064 A 
ATOM     63  C   UNL     1      -2.134  -4.318  12.565  1.00  0.00     0.173 A 
ATOM     64  C   UNL     1      -2.397  -1.995  11.991  1.00  0.00     0.173 A 
ATOM     65  F   UNL     1      -1.615  -5.534  12.334  1.00  0.00    -0.203 F 
ATOM     66  C   UNL     1      -3.018  -4.151  13.626  1.00  0.00     0.198 A 
ATOM     67  C   UNL     1      -3.252  -1.825  13.073  1.00  0.00     0.198 A 
ATOM     68  F   UNL     1      -2.116  -0.937  11.215  1.00  0.00    -0.203 F 
ATOM     69  F   UNL     1      -3.346  -5.201  14.391  1.00  0.00    -0.200 F 
ATOM     70  C   UNL     1      -3.567  -2.904  13.885  1.00  0.00     0.200 A 
ATOM     71  F   UNL     1      -3.769  -0.616  13.332  1.00  0.00    -0.200 F 
ATOM     72  F   UNL     1      -4.408  -2.743  14.915  1.00  0.00    -0.200 F 
ENDBRANCH  39  62
ENDBRANCH  13  14
ENDBRANCH   6   8
ENDBRANCH   5   6
ENDBRANCH   4   5
ENDBRANCH   3   4
ENDBRANCH   2   3
ENDBRANCH   1   2
BRANCH   1  73
ATOM     73  C   UNL     1       4.606  -5.408  -2.410  1.00  0.00     0.261 C 
BRANCH  73  74
ATOM     74  O   UNL     1       4.660  -4.272  -3.290  1.00  0.00    -0.462 OA
BRANCH  74  75
ATOM     75  C   UNL     1       3.959  -3.167  -2.889  1.00  0.00     0.319 C 
ATOM     76  O   UNL     1       3.273  -3.103  -1.875  1.00  0.00    -0.251 OA
BRANCH  75  77
ATOM     77  C   UNL     1       4.221  -2.001  -3.835  1.00  0.00     0.161 C 
BRANCH  77  78
ATOM     78  S   UNL     1       3.600  -2.437  -5.534  1.00  0.00    -0.139 SA
BRANCH  78  79
ATOM     79  C   UNL     1       1.791  -2.600  -5.294  1.00  0.00     0.138 C 
BRANCH  79  80
ATOM     80  C   UNL     1       1.321  -3.664  -4.348  1.00  0.00     0.102 A 
ATOM     81  N   UNL     1       0.662  -3.401  -3.237  1.00  0.00    -0.249 NA
ATOM     82  S   UNL     1       1.551  -5.341  -4.676  1.00  0.00    -0.126 S 
ATOM     83  C   UNL     1       0.419  -4.570  -2.542  1.00  0.00     0.123 A 
ATOM     84  C   UNL     1       0.842  -5.725  -3.161  1.00  0.00     0.087 A 
ENDBRANCH  79  80
ENDBRANCH  78  79
ENDBRANCH  77  78
BRANCH  77  85
ATOM     85  C   UNL     1       3.684  -0.661  -3.283  1.00  0.00     0.061 C 
BRANCH  85  86
ATOM     86  C   UNL     1       4.683   0.467  -3.046  1.00  0.00    -0.046 A 
ATOM     87  C   UNL     1       5.766   0.342  -2.166  1.00  0.00     0.004 A 
ATOM     88  C   UNL     1       4.428   1.738  -3.582  1.00  0.00     0.004 A 
ATOM     89  C   UNL     1       6.527   1.450  -1.777  1.00  0.00     0.000 A 
ATOM     90  C   UNL     1       5.195   2.846  -3.207  1.00  0.00     0.000 A 
ATOM     91  C   UNL     1       6.232   2.707  -2.289  1.00  0.00     0.000 A 
ENDBRANCH  85  86
ENDBRANCH  77  85
ENDBRANCH  75  77
ENDBRANCH  74  75
ENDBRANCH  73  74
ENDBRANCH   1  73
TORSDOF 19
