REMARK SMILES CCCC[C@H](C(=O)OCCOCCOC(=O)c1ccc(-c2c3nc(c(-c4c(F)c(F)c(F)c(F)c4F)c4ccc([nH]4)c(-c4c(F)c(F)c(F)c(F)c4F)c4nc(c(-c5c(F)c(F)c(F)c(F)c5F)c5ccc2[nH]5)C=C4)C=C3)cc1)[C@H](O)c1ccc(C(F)(F)F)cc1
REMARK SMILES IDX 10 1 9 2 8 3 6 4 7 5 5 6 4 7 3 8 2 9 1 10 80 11 82 12 83 13
REMARK SMILES IDX 91 14 84 15 90 16 85 17 86 18 87 19 88 20 89 21 81 22 11 24
REMARK SMILES IDX 12 25 13 26 14 27 15 28 16 29 17 30 18 31 79 32 19 33 78 34
REMARK SMILES IDX 20 35 21 36 22 37 72 38 23 39 77 40 71 41 73 42 24 43 76 44
REMARK SMILES IDX 70 45 69 46 25 48 57 49 37 50 56 51 38 52 41 53 55 54 74 55
REMARK SMILES IDX 39 56 40 57 54 59 75 60 42 61 26 62 27 63 35 64 28 65 29 66
REMARK SMILES IDX 33 67 36 68 30 69 31 70 34 71 32 72 58 73 59 74 67 75 60 76
REMARK SMILES IDX 61 77 65 78 68 79 62 80 63 81 66 82 64 83 43 84 44 85 52 86
REMARK SMILES IDX 45 87 46 88 50 89 53 90 47 91 48 92 51 93 49 94
REMARK H PARENT 81 23 73 47 41 58
REMARK Flexibility Score: inf
ROOT
ATOM      1  C   UNL     1      -4.208   5.898   4.327  1.00  0.00     0.202 C 
ENDROOT
BRANCH   1   2
ATOM      2  C   UNL     1      -2.967   6.265   3.481  1.00  0.00     0.261 C 
BRANCH   2   3
ATOM      3  O   UNL     1      -2.465   5.194   2.653  1.00  0.00    -0.463 OA
BRANCH   3   4
ATOM      4  C   UNL     1      -1.349   4.583   3.114  1.00  0.00     0.312 C 
ATOM      5  O   UNL     1      -0.720   4.993   4.086  1.00  0.00    -0.252 OA
BRANCH   4   6
ATOM      6  C   UNL     1      -0.986   3.316   2.343  1.00  0.00     0.132 C 
BRANCH   6   7
ATOM      7  C   UNL     1       0.499   3.060   2.804  1.00  0.00     0.018 C 
BRANCH   7   8
ATOM      8  C   UNL     1       1.378   2.041   2.091  1.00  0.00     0.001 C 
BRANCH   8   9
ATOM      9  C   UNL     1       1.627   2.303   0.609  1.00  0.00    -0.003 C 
ATOM     10  C   UNL     1       2.064   3.728   0.298  1.00  0.00     0.004 C 
ENDBRANCH   8   9
ENDBRANCH   7   8
ENDBRANCH   6   7
BRANCH   6  11
ATOM     11  C   UNL     1      -1.866   2.049   2.606  1.00  0.00     0.158 C 
BRANCH  11  12
ATOM     12  C   UNL     1      -3.361   1.961   2.950  1.00  0.00    -0.019 A 
ATOM     13  C   UNL     1      -4.535   3.328   2.953  1.00  0.00     0.007 A 
ATOM     14  C   UNL     1      -3.817   0.416   3.762  1.00  0.00     0.007 A 
ATOM     15  C   UNL     1      -6.101   3.203   3.885  1.00  0.00     0.013 A 
ATOM     16  C   UNL     1      -5.363   0.283   4.682  1.00  0.00     0.013 A 
ATOM     17  C   UNL     1      -6.534   1.656   4.715  1.00  0.00     0.056 A 
BRANCH  17  18
ATOM     18  C   UNL     1      -7.834   1.499   5.441  1.00  0.00     0.416 C 
ATOM     19  F   UNL     1      -8.251   2.665   6.005  1.00  0.00    -0.166 F 
ATOM     20  F   UNL     1      -8.848   1.085   4.637  1.00  0.00    -0.166 F 
ATOM     21  F   UNL     1      -7.757   0.599   6.460  1.00  0.00    -0.166 F 
ENDBRANCH  17  18
ENDBRANCH  11  12
BRANCH  11  22
ATOM     22  O   UNL     1      -1.687   1.141   1.515  1.00  0.00    -0.388 OA
ATOM     23  H   UNL     1      -2.130   1.492   0.726  1.00  0.00     0.211 HD
ENDBRANCH  11  22
ENDBRANCH   6  11
ENDBRANCH   4   6
ENDBRANCH   3   4
ENDBRANCH   2   3
ENDBRANCH   1   2
BRANCH   1  24
ATOM     24  O   UNL     1      -4.167   4.918   5.370  1.00  0.00    -0.374 OA
BRANCH  24  25
ATOM     25  C   UNL     1      -3.538   3.650   5.210  1.00  0.00     0.202 C 
BRANCH  25  26
ATOM     26  C   UNL     1      -4.390   2.263   4.928  1.00  0.00     0.261 C 
BRANCH  26  27
ATOM     27  O   UNL     1      -5.273   1.621   3.229  1.00  0.00    -0.460 OA
BRANCH  27  28
ATOM     28  C   UNL     1      -5.978   0.857   2.260  1.00  0.00     0.338 C 
ATOM     29  O   UNL     1      -6.388  -0.294   2.425  1.00  0.00    -0.246 OA
BRANCH  28  30
ATOM     30  C   UNL     1      -6.401   1.519   0.967  1.00  0.00     0.060 A 
ATOM     31  C   UNL     1      -6.843   2.844   0.830  1.00  0.00     0.016 A 
ATOM     32  C   UNL     1      -6.584   0.666  -0.133  1.00  0.00     0.016 A 
ATOM     33  C   UNL     1      -7.461   3.302  -0.345  1.00  0.00     0.010 A 
ATOM     34  C   UNL     1      -7.205   1.113  -1.307  1.00  0.00     0.010 A 
ATOM     35  C   UNL     1      -7.672   2.429  -1.411  1.00  0.00    -0.014 A 
BRANCH  35  36
ATOM     36  C   UNL     1      -8.438   2.830  -2.614  1.00  0.00     0.031 A 
ATOM     37  C   UNL     1      -9.850   2.354  -2.784  1.00  0.00     0.074 A 
ATOM     38  C   UNL     1      -7.844   3.545  -3.585  1.00  0.00     0.049 A 
ATOM     39  N   UNL     1     -10.589   2.311  -3.862  1.00  0.00    -0.248 NA
ATOM     40  C   UNL     1     -10.520   1.859  -1.571  1.00  0.00     0.031 C 
ATOM     41  C   UNL     1      -6.511   4.136  -3.499  1.00  0.00     0.029 A 
ATOM     42  N   UNL     1      -8.272   3.851  -4.853  1.00  0.00    -0.354 N 
ATOM     43  C   UNL     1     -11.799   1.754  -3.468  1.00  0.00     0.074 A 
ATOM     44  C   UNL     1     -11.701   1.487  -2.048  1.00  0.00     0.031 C 
ATOM     45  C   UNL     1      -6.205   4.688  -4.684  1.00  0.00     0.029 A 
ATOM     46  C   UNL     1      -7.292   4.425  -5.625  1.00  0.00     0.049 A 
ATOM     47  H   UNL     1      -9.186   3.676  -5.176  1.00  0.00     0.167 HD
ATOM     48  C   UNL     1     -12.883   1.480  -4.233  1.00  0.00     0.037 A 
ATOM     49  C   UNL     1      -7.244   4.638  -6.954  1.00  0.00     0.037 A 
ATOM     50  C   UNL     1     -12.962   1.754  -5.644  1.00  0.00     0.049 A 
ATOM     51  C   UNL     1      -8.405   4.215  -7.809  1.00  0.00     0.074 A 
ATOM     52  C   UNL     1     -14.020   1.544  -6.512  1.00  0.00     0.029 A 
ATOM     53  N   UNL     1     -11.929   2.294  -6.397  1.00  0.00    -0.354 N 
ATOM     54  N   UNL     1      -9.534   3.653  -7.450  1.00  0.00    -0.248 NA
ATOM     55  C   UNL     1      -8.276   4.432  -9.257  1.00  0.00     0.031 C 
ATOM     56  C   UNL     1     -13.611   1.915  -7.798  1.00  0.00     0.029 A 
ATOM     57  C   UNL     1     -12.312   2.393  -7.725  1.00  0.00     0.049 A 
ATOM     58  H   UNL     1     -11.053   2.567  -6.040  1.00  0.00     0.167 HD
ATOM     59  C   UNL     1     -10.251   3.450  -8.621  1.00  0.00     0.074 A 
ATOM     60  C   UNL     1      -9.435   3.965  -9.703  1.00  0.00     0.031 C 
ATOM     61  C   UNL     1     -11.473   2.888  -8.786  1.00  0.00     0.037 A 
BRANCH  48  62
ATOM     62  C   UNL     1     -14.053   0.812  -3.574  1.00  0.00     0.064 A 
ATOM     63  C   UNL     1     -14.919   1.508  -2.720  1.00  0.00     0.173 A 
ATOM     64  C   UNL     1     -14.336  -0.537  -3.839  1.00  0.00     0.173 A 
ATOM     65  F   UNL     1     -14.686   2.796  -2.426  1.00  0.00    -0.203 F 
ATOM     66  C   UNL     1     -16.018   0.875  -2.142  1.00  0.00     0.198 A 
ATOM     67  C   UNL     1     -15.447  -1.162  -3.277  1.00  0.00     0.198 A 
ATOM     68  F   UNL     1     -13.541  -1.247  -4.654  1.00  0.00    -0.203 F 
ATOM     69  F   UNL     1     -16.817   1.551  -1.305  1.00  0.00    -0.200 F 
ATOM     70  C   UNL     1     -16.284  -0.457  -2.426  1.00  0.00     0.200 A 
ATOM     71  F   UNL     1     -15.708  -2.445  -3.561  1.00  0.00    -0.200 F 
ATOM     72  F   UNL     1     -17.346  -1.062  -1.877  1.00  0.00    -0.200 F 
ENDBRANCH  48  62
BRANCH  49  73
ATOM     73  C   UNL     1      -6.012   5.209  -7.553  1.00  0.00     0.064 A 
ATOM     74  C   UNL     1      -5.989   6.521  -8.040  1.00  0.00     0.173 A 
ATOM     75  C   UNL     1      -4.822   4.468  -7.610  1.00  0.00     0.173 A 
ATOM     76  F   UNL     1      -7.110   7.257  -8.033  1.00  0.00    -0.203 F 
ATOM     77  C   UNL     1      -4.818   7.076  -8.552  1.00  0.00     0.198 A 
ATOM     78  C   UNL     1      -3.646   5.031  -8.100  1.00  0.00     0.198 A 
ATOM     79  F   UNL     1      -4.796   3.204  -7.162  1.00  0.00    -0.203 F 
ATOM     80  F   UNL     1      -4.825   8.329  -9.027  1.00  0.00    -0.200 F 
ATOM     81  C   UNL     1      -3.645   6.335  -8.570  1.00  0.00     0.200 A 
ATOM     82  F   UNL     1      -2.513   4.315  -8.104  1.00  0.00    -0.200 F 
ATOM     83  F   UNL     1      -2.514   6.877  -9.042  1.00  0.00    -0.200 F 
ENDBRANCH  49  73
BRANCH  61  84
ATOM     84  C   UNL     1     -11.997   2.802 -10.187  1.00  0.00     0.064 A 
ATOM     85  C   UNL     1     -11.519   1.836 -11.084  1.00  0.00     0.173 A 
ATOM     86  C   UNL     1     -13.003   3.674 -10.628  1.00  0.00     0.173 A 
ATOM     87  F   UNL     1     -10.544   0.993 -10.712  1.00  0.00    -0.203 F 
ATOM     88  C   UNL     1     -12.020   1.756 -12.380  1.00  0.00     0.198 A 
ATOM     89  C   UNL     1     -13.516   3.578 -11.918  1.00  0.00     0.198 A 
ATOM     90  F   UNL     1     -13.493   4.612  -9.805  1.00  0.00    -0.203 F 
ATOM     91  F   UNL     1     -11.524   0.850 -13.234  1.00  0.00    -0.200 F 
ATOM     92  C   UNL     1     -13.021   2.623 -12.794  1.00  0.00     0.200 A 
ATOM     93  F   UNL     1     -14.488   4.411 -12.315  1.00  0.00    -0.200 F 
ATOM     94  F   UNL     1     -13.503   2.545 -14.043  1.00  0.00    -0.200 F 
ENDBRANCH  61  84
ENDBRANCH  35  36
ENDBRANCH  28  30
ENDBRANCH  27  28
ENDBRANCH  26  27
ENDBRANCH  25  26
ENDBRANCH  24  25
ENDBRANCH   1  24
TORSDOF 21
