REMARK SMILES C[C@@H](CC(=O)OCCOCCOC(=O)c1ccc(-c2c3nc(c(-c4c(F)c(F)c(F)c(F)c4F)c4ccc([nH]4)c(-c4c(F)c(F)c(F)c(F)c4F)c4nc(c(-c5c(F)c(F)c(F)c(F)c5F)c5ccc2[nH]5)C=C4)C=C3)cc1)NC(=O)/C=C/c1cc(Cl)cc(Cl)c1
REMARK SMILES IDX 8 1 7 2 6 3 4 4 5 5 3 6 2 7 1 8 78 9 79 10 80 12 81 13 82 14
REMARK SMILES IDX 83 15 84 16 90 17 85 18 88 19 86 20 87 21 89 22 9 23 10 24
REMARK SMILES IDX 11 25 12 26 13 27 14 28 15 29 16 30 77 31 17 32 76 33 18 34
REMARK SMILES IDX 19 35 20 36 70 37 21 38 75 39 69 40 71 41 22 42 74 43 68 44
REMARK SMILES IDX 67 45 23 47 55 48 35 49 54 50 36 51 39 52 53 53 72 54 37 55
REMARK SMILES IDX 38 56 52 58 73 59 40 60 24 61 25 62 33 63 26 64 27 65 31 66
REMARK SMILES IDX 34 67 28 68 29 69 32 70 30 71 56 72 57 73 65 74 58 75 59 76
REMARK SMILES IDX 63 77 66 78 60 79 61 80 64 81 62 82 41 83 42 84 50 85 43 86
REMARK SMILES IDX 44 87 48 88 51 89 45 90 46 91 49 92 47 93
REMARK H PARENT 78 11 71 46 39 57
REMARK Flexibility Score: inf
ROOT
ATOM      1  C   UNL     1      -0.746   4.371   1.046  1.00  0.00     0.202 C 
ENDROOT
BRANCH   1   2
ATOM      2  C   UNL     1       0.680   3.914   1.357  1.00  0.00     0.261 C 
BRANCH   2   3
ATOM      3  O   UNL     1       0.820   2.488   1.202  1.00  0.00    -0.463 OA
BRANCH   3   4
ATOM      4  C   UNL     1       1.490   1.852   2.191  1.00  0.00     0.307 C 
ATOM      5  O   UNL     1       1.987   2.411   3.164  1.00  0.00    -0.252 OA
BRANCH   4   6
ATOM      6  C   UNL     1       1.609   0.356   2.016  1.00  0.00     0.147 C 
BRANCH   6   7
ATOM      7  C   UNL     1       0.959  -0.377   0.835  1.00  0.00     0.090 C 
ATOM      8  C   UNL     1       1.256   0.210  -0.542  1.00  0.00     0.031 C 
BRANCH   7   9
ATOM      9  N   UNL     1      -0.479  -0.554   1.024  1.00  0.00    -0.350 N 
ATOM     10  C   UNL     1      -1.211  -1.617   1.456  1.00  0.00     0.244 C 
ATOM     11  H   UNL     1      -1.016   0.240   0.799  1.00  0.00     0.164 HD
ATOM     12  O   UNL     1      -2.433  -1.516   1.535  1.00  0.00    -0.270 OA
BRANCH  10  13
ATOM     13  C   UNL     1      -0.573  -2.934   1.693  1.00  0.00     0.072 C 
ATOM     14  C   UNL     1       0.505  -3.143   2.465  1.00  0.00     0.014 C 
BRANCH  14  15
ATOM     15  C   UNL     1       1.215  -4.427   2.634  1.00  0.00    -0.023 A 
ATOM     16  C   UNL     1       2.399  -4.436   3.389  1.00  0.00     0.028 A 
ATOM     17  C   UNL     1       0.804  -5.627   2.036  1.00  0.00     0.028 A 
ATOM     18  C   UNL     1       3.154  -5.606   3.521  1.00  0.00     0.043 A 
ATOM     19  C   UNL     1       1.566  -6.791   2.177  1.00  0.00     0.043 A 
ATOM     20  Cl  UNL     1       4.616  -5.576   4.428  1.00  0.00    -0.084 Cl
ATOM     21  C   UNL     1       2.745  -6.787   2.914  1.00  0.00     0.041 A 
ATOM     22  Cl  UNL     1       1.049  -8.242   1.410  1.00  0.00    -0.084 Cl
ENDBRANCH  14  15
ENDBRANCH  10  13
ENDBRANCH   7   9
ENDBRANCH   6   7
ENDBRANCH   4   6
ENDBRANCH   3   4
ENDBRANCH   2   3
ENDBRANCH   1   2
BRANCH   1  23
ATOM     23  O   UNL     1      -1.730   3.960   1.994  1.00  0.00    -0.374 OA
BRANCH  23  24
ATOM     24  C   UNL     1      -2.125   2.586   1.979  1.00  0.00     0.202 C 
BRANCH  24  25
ATOM     25  C   UNL     1      -2.976   2.175   0.771  1.00  0.00     0.261 C 
BRANCH  25  26
ATOM     26  O   UNL     1      -2.185   2.128  -0.437  1.00  0.00    -0.460 OA
BRANCH  26  27
ATOM     27  C   UNL     1      -2.755   2.750  -1.498  1.00  0.00     0.338 C 
ATOM     28  O   UNL     1      -3.884   3.216  -1.567  1.00  0.00    -0.246 OA
BRANCH  27  29
ATOM     29  C   UNL     1      -1.768   2.971  -2.569  1.00  0.00     0.060 A 
ATOM     30  C   UNL     1      -1.449   4.296  -2.893  1.00  0.00     0.016 A 
ATOM     31  C   UNL     1      -1.278   1.917  -3.341  1.00  0.00     0.016 A 
ATOM     32  C   UNL     1      -0.675   4.575  -4.020  1.00  0.00     0.010 A 
ATOM     33  C   UNL     1      -0.506   2.200  -4.477  1.00  0.00     0.010 A 
ATOM     34  C   UNL     1      -0.232   3.531  -4.843  1.00  0.00    -0.014 A 
BRANCH  34  35
ATOM     35  C   UNL     1       0.390   3.849  -6.155  1.00  0.00     0.031 A 
ATOM     36  C   UNL     1      -0.454   3.810  -7.401  1.00  0.00     0.074 A 
ATOM     37  C   UNL     1       1.683   4.212  -6.240  1.00  0.00     0.049 A 
ATOM     38  N   UNL     1      -0.112   4.035  -8.645  1.00  0.00    -0.248 NA
ATOM     39  C   UNL     1      -1.875   3.478  -7.219  1.00  0.00     0.031 C 
ATOM     40  C   UNL     1       2.599   4.338  -5.109  1.00  0.00     0.029 A 
ATOM     41  N   UNL     1       2.447   4.540  -7.333  1.00  0.00    -0.354 N 
ATOM     42  C   UNL     1      -1.271   3.871  -9.392  1.00  0.00     0.074 A 
ATOM     43  C   UNL     1      -2.322   3.502  -8.467  1.00  0.00     0.031 C 
ATOM     44  C   UNL     1       3.807   4.707  -5.568  1.00  0.00     0.029 A 
ATOM     45  C   UNL     1       3.757   4.815  -7.025  1.00  0.00     0.049 A 
ATOM     46  H   UNL     1       2.090   4.575  -8.249  1.00  0.00     0.167 HD
ATOM     47  C   UNL     1      -1.448   4.022 -10.727  1.00  0.00     0.037 A 
ATOM     48  C   UNL     1       4.800   5.101  -7.830  1.00  0.00     0.037 A 
ATOM     49  C   UNL     1      -0.411   4.394 -11.653  1.00  0.00     0.049 A 
ATOM     50  C   UNL     1       4.594   5.186  -9.320  1.00  0.00     0.074 A 
ATOM     51  C   UNL     1      -0.506   4.592 -13.021  1.00  0.00     0.029 A 
ATOM     52  N   UNL     1       0.912   4.619 -11.308  1.00  0.00    -0.354 N 
ATOM     53  N   UNL     1       3.491   5.048 -10.013  1.00  0.00    -0.248 NA
ATOM     54  C   UNL     1       5.784   5.464 -10.140  1.00  0.00     0.031 C 
ATOM     55  C   UNL     1       0.770   4.892 -13.509  1.00  0.00     0.029 A 
ATOM     56  C   UNL     1       1.650   4.926 -12.440  1.00  0.00     0.049 A 
ATOM     57  H   UNL     1       1.274   4.569 -10.394  1.00  0.00     0.167 HD
ATOM     58  C   UNL     1       3.845   5.249 -11.341  1.00  0.00     0.074 A 
ATOM     59  C   UNL     1       5.266   5.526 -11.359  1.00  0.00     0.031 C 
ATOM     60  C   UNL     1       3.062   5.208 -12.447  1.00  0.00     0.037 A 
BRANCH  47  61
ATOM     61  C   UNL     1      -2.819   3.764 -11.277  1.00  0.00     0.064 A 
ATOM     62  C   UNL     1      -3.869   4.674 -11.088  1.00  0.00     0.173 A 
ATOM     63  C   UNL     1      -3.071   2.615 -12.041  1.00  0.00     0.173 A 
ATOM     64  F   UNL     1      -3.680   5.782 -10.356  1.00  0.00    -0.203 F 
ATOM     65  C   UNL     1      -5.129   4.433 -11.630  1.00  0.00     0.198 A 
ATOM     66  C   UNL     1      -4.326   2.389 -12.600  1.00  0.00     0.198 A 
ATOM     67  F   UNL     1      -2.097   1.718 -12.254  1.00  0.00    -0.203 F 
ATOM     68  F   UNL     1      -6.129   5.298 -11.409  1.00  0.00    -0.200 F 
ATOM     69  C   UNL     1      -5.354   3.295 -12.391  1.00  0.00     0.200 A 
ATOM     70  F   UNL     1      -4.538   1.295 -13.344  1.00  0.00    -0.200 F 
ATOM     71  F   UNL     1      -6.566   3.068 -12.918  1.00  0.00    -0.200 F 
ENDBRANCH  47  61
BRANCH  48  72
ATOM     72  C   UNL     1       6.149   5.312  -7.245  1.00  0.00     0.064 A 
ATOM     73  C   UNL     1       6.752   6.577  -7.250  1.00  0.00     0.173 A 
ATOM     74  C   UNL     1       6.871   4.246  -6.689  1.00  0.00     0.173 A 
ATOM     75  F   UNL     1       6.111   7.621  -7.796  1.00  0.00    -0.203 F 
ATOM     76  C   UNL     1       8.033   6.765  -6.735  1.00  0.00     0.198 A 
ATOM     77  C   UNL     1       8.141   4.440  -6.152  1.00  0.00     0.198 A 
ATOM     78  F   UNL     1       6.339   3.015  -6.665  1.00  0.00    -0.203 F 
ATOM     79  F   UNL     1       8.604   7.976  -6.791  1.00  0.00    -0.200 F 
ATOM     80  C   UNL     1       8.724   5.697  -6.181  1.00  0.00     0.200 A 
ATOM     81  F   UNL     1       8.801   3.407  -5.609  1.00  0.00    -0.200 F 
ATOM     82  F   UNL     1       9.955   5.879  -5.684  1.00  0.00    -0.200 F 
ENDBRANCH  48  72
BRANCH  60  83
ATOM     83  C   UNL     1       3.710   5.499 -13.768  1.00  0.00     0.064 A 
ATOM     84  C   UNL     1       4.552   4.569 -14.394  1.00  0.00     0.173 A 
ATOM     85  C   UNL     1       3.446   6.703 -14.440  1.00  0.00     0.173 A 
ATOM     86  F   UNL     1       4.847   3.410 -13.785  1.00  0.00    -0.203 F 
ATOM     87  C   UNL     1       5.120   4.840 -15.636  1.00  0.00     0.198 A 
ATOM     88  C   UNL     1       3.995   6.960 -15.693  1.00  0.00     0.198 A 
ATOM     89  F   UNL     1       2.643   7.623 -13.887  1.00  0.00    -0.203 F 
ATOM     90  F   UNL     1       5.951   3.952 -16.199  1.00  0.00    -0.200 F 
ATOM     91  C   UNL     1       4.835   6.031 -16.288  1.00  0.00     0.200 A 
ATOM     92  F   UNL     1       3.710   8.106 -16.326  1.00  0.00    -0.200 F 
ATOM     93  F   UNL     1       5.376   6.286 -17.488  1.00  0.00    -0.200 F 
ENDBRANCH  60  83
ENDBRANCH  34  35
ENDBRANCH  27  29
ENDBRANCH  26  27
ENDBRANCH  25  26
ENDBRANCH  24  25
ENDBRANCH  23  24
ENDBRANCH   1  23
TORSDOF 18
