REMARK SMILES CC[C@@H]1CCCN1C(=O)N(CC(=O)OCCOCCOC(=O)c1ccc(-c2c3nc(c(-c4c(F)c(F)c(F)c(F)c4F)c4ccc([nH]4)c(-c4c(F)c(F)c(F)c(F)c4F)c4nc(c(-c5c(F)c(F)c(F)c(F)c5F)c5ccc2[nH]5)C=C4)C=C3)cc1)CC(F)(F)F
REMARK SMILES IDX 16 1 15 2 14 3 12 4 13 5 11 6 10 7 8 8 9 9 7 10 3 11 4 12
REMARK SMILES IDX 5 13 6 14 2 15 1 16 86 17 87 18 88 19 89 20 90 21 17 22
REMARK SMILES IDX 18 23 19 24 20 25 21 26 22 27 23 28 24 29 85 30 25 31 84 32
REMARK SMILES IDX 26 33 27 34 28 35 78 36 29 37 83 38 77 39 79 40 30 41 82 42
REMARK SMILES IDX 76 43 75 44 31 46 63 47 43 48 62 49 44 50 47 51 61 52 80 53
REMARK SMILES IDX 45 54 46 55 60 57 81 58 48 59 32 60 33 61 41 62 34 63 35 64
REMARK SMILES IDX 39 65 42 66 36 67 37 68 40 69 38 70 64 71 65 72 73 73 66 74
REMARK SMILES IDX 67 75 71 76 74 77 68 78 69 79 72 80 70 81 49 82 50 83 58 84
REMARK SMILES IDX 51 85 52 86 56 87 59 88 53 89 54 90 57 91 55 92
REMARK H PARENT 79 45 47 56
REMARK Flexibility Score: inf
ROOT
ATOM      1  C   UNL     1       0.510   3.439   2.216  1.00  0.00     0.202 C 
ENDROOT
BRANCH   1   2
ATOM      2  C   UNL     1       0.033   2.398   1.200  1.00  0.00     0.261 C 
BRANCH   2   3
ATOM      3  O   UNL     1       1.066   1.890   0.333  1.00  0.00    -0.462 OA
BRANCH   3   4
ATOM      4  C   UNL     1       0.877   2.114  -1.000  1.00  0.00     0.325 C 
ATOM      5  O   UNL     1      -0.006   2.825  -1.468  1.00  0.00    -0.250 OA
BRANCH   4   6
ATOM      6  C   UNL     1       1.852   1.350  -1.904  1.00  0.00     0.244 C 
BRANCH   6   7
ATOM      7  N   UNL     1       2.909   0.546  -1.291  1.00  0.00    -0.304 N 
BRANCH   7   8
ATOM      8  C   UNL     1       3.075  -0.812  -1.358  1.00  0.00     0.321 C 
ATOM      9  O   UNL     1       4.205  -1.260  -1.124  1.00  0.00    -0.248 OA
BRANCH   8  10
ATOM     10  N   UNL     1       2.086  -1.699  -1.685  1.00  0.00    -0.322 N 
ATOM     11  C   UNL     1       0.630  -1.643  -1.936  1.00  0.00     0.086 C 
ATOM     12  C   UNL     1       0.212  -3.120  -2.109  1.00  0.00     0.027 C 
ATOM     13  C   UNL     1       1.454  -3.782  -2.656  1.00  0.00     0.024 C 
ATOM     14  C   UNL     1       2.549  -3.077  -1.886  1.00  0.00     0.122 C 
BRANCH  11  15
ATOM     15  C   UNL     1      -0.282  -1.009  -0.880  1.00  0.00     0.022 C 
ATOM     16  C   UNL     1       0.102  -1.274   0.565  1.00  0.00     0.006 C 
ENDBRANCH  11  15
ENDBRANCH   8  10
ENDBRANCH   7   8
BRANCH   7  17
ATOM     17  C   UNL     1       4.110   1.325  -0.879  1.00  0.00     0.237 C 
BRANCH  17  18
ATOM     18  C   UNL     1       4.934   0.880   0.346  1.00  0.00     0.406 C 
ATOM     19  F   UNL     1       5.971   0.075   0.039  1.00  0.00    -0.169 F 
ATOM     20  F   UNL     1       5.489   1.983   0.923  1.00  0.00    -0.169 F 
ATOM     21  F   UNL     1       4.180   0.287   1.296  1.00  0.00    -0.169 F 
ENDBRANCH  17  18
ENDBRANCH   7  17
ENDBRANCH   6   7
ENDBRANCH   4   6
ENDBRANCH   3   4
ENDBRANCH   2   3
ENDBRANCH   1   2
BRANCH   1  22
ATOM     22  O   UNL     1       1.075   4.634   1.689  1.00  0.00    -0.374 OA
BRANCH  22  23
ATOM     23  C   UNL     1       2.359   4.541   1.079  1.00  0.00     0.202 C 
BRANCH  23  24
ATOM     24  C   UNL     1       3.538   4.237   2.011  1.00  0.00     0.261 C 
BRANCH  24  25
ATOM     25  O   UNL     1       3.430   2.946   2.644  1.00  0.00    -0.460 OA
BRANCH  25  26
ATOM     26  C   UNL     1       3.573   2.977   3.993  1.00  0.00     0.338 C 
ATOM     27  O   UNL     1       3.841   3.949   4.681  1.00  0.00    -0.246 OA
BRANCH  26  28
ATOM     28  C   UNL     1       3.218   1.686   4.614  1.00  0.00     0.060 A 
ATOM     29  C   UNL     1       2.201   1.696   5.577  1.00  0.00     0.016 A 
ATOM     30  C   UNL     1       3.981   0.535   4.409  1.00  0.00     0.016 A 
ATOM     31  C   UNL     1       1.990   0.578   6.385  1.00  0.00     0.010 A 
ATOM     32  C   UNL     1       3.765  -0.590   5.220  1.00  0.00     0.010 A 
ATOM     33  C   UNL     1       2.803  -0.555   6.245  1.00  0.00    -0.014 A 
BRANCH  33  34
ATOM     34  C   UNL     1       2.733  -1.626   7.275  1.00  0.00     0.031 A 
ATOM     35  C   UNL     1       3.739  -1.643   8.396  1.00  0.00     0.074 A 
ATOM     36  C   UNL     1       1.747  -2.540   7.254  1.00  0.00     0.049 A 
ATOM     37  N   UNL     1       3.818  -2.444   9.430  1.00  0.00    -0.248 NA
ATOM     38  C   UNL     1       4.795  -0.620   8.347  1.00  0.00     0.031 C 
ATOM     39  C   UNL     1       0.699  -2.626   6.241  1.00  0.00     0.029 A 
ATOM     40  N   UNL     1       1.468  -3.570   8.119  1.00  0.00    -0.354 N 
ATOM     41  C   UNL     1       4.925  -2.020  10.154  1.00  0.00     0.074 A 
ATOM     42  C   UNL     1       5.508  -0.914   9.425  1.00  0.00     0.031 C 
ATOM     43  C   UNL     1      -0.110  -3.657   6.540  1.00  0.00     0.029 A 
ATOM     44  C   UNL     1       0.372  -4.312   7.755  1.00  0.00     0.049 A 
ATOM     45  H   UNL     1       2.004  -3.759   8.923  1.00  0.00     0.167 HD
ATOM     46  C   UNL     1       5.407  -2.499  11.326  1.00  0.00     0.037 A 
ATOM     47  C   UNL     1      -0.175  -5.399   8.332  1.00  0.00     0.037 A 
ATOM     48  C   UNL     1       4.833  -3.595  12.062  1.00  0.00     0.049 A 
ATOM     49  C   UNL     1       0.410  -5.946   9.608  1.00  0.00     0.074 A 
ATOM     50  C   UNL     1       5.228  -4.118  13.281  1.00  0.00     0.029 A 
ATOM     51  N   UNL     1       3.747  -4.346  11.638  1.00  0.00    -0.354 N 
ATOM     52  N   UNL     1       1.422  -5.502  10.312  1.00  0.00    -0.248 NA
ATOM     53  C   UNL     1      -0.231  -7.144  10.171  1.00  0.00     0.031 C 
ATOM     54  C   UNL     1       4.410  -5.215  13.574  1.00  0.00     0.029 A 
ATOM     55  C   UNL     1       3.478  -5.348  12.558  1.00  0.00     0.049 A 
ATOM     56  H   UNL     1       3.242  -4.191  10.808  1.00  0.00     0.167 HD
ATOM     57  C   UNL     1       1.527  -6.350  11.408  1.00  0.00     0.074 A 
ATOM     58  C   UNL     1       0.466  -7.327  11.285  1.00  0.00     0.031 C 
ATOM     59  C   UNL     1       2.423  -6.319  12.425  1.00  0.00     0.037 A 
BRANCH  46  60
ATOM     60  C   UNL     1       6.633  -1.843  11.888  1.00  0.00     0.064 A 
ATOM     61  C   UNL     1       6.581  -0.571  12.477  1.00  0.00     0.173 A 
ATOM     62  C   UNL     1       7.866  -2.512  11.874  1.00  0.00     0.173 A 
ATOM     63  F   UNL     1       5.427   0.112  12.508  1.00  0.00    -0.203 F 
ATOM     64  C   UNL     1       7.724   0.017  13.012  1.00  0.00     0.198 A 
ATOM     65  C   UNL     1       9.002  -1.931  12.430  1.00  0.00     0.198 A 
ATOM     66  F   UNL     1       7.966  -3.734  11.328  1.00  0.00    -0.203 F 
ATOM     67  F   UNL     1       7.660   1.248  13.538  1.00  0.00    -0.200 F 
ATOM     68  C   UNL     1       8.932  -0.666  12.993  1.00  0.00     0.200 A 
ATOM     69  F   UNL     1      10.166  -2.596  12.421  1.00  0.00    -0.200 F 
ATOM     70  F   UNL     1      10.030  -0.101  13.514  1.00  0.00    -0.200 F 
ENDBRANCH  46  60
BRANCH  47  71
ATOM     71  C   UNL     1      -1.353  -6.050   7.705  1.00  0.00     0.064 A 
ATOM     72  C   UNL     1      -2.622  -5.976   8.295  1.00  0.00     0.173 A 
ATOM     73  C   UNL     1      -1.228  -6.769   6.507  1.00  0.00     0.173 A 
ATOM     74  F   UNL     1      -2.783  -5.323   9.455  1.00  0.00    -0.203 F 
ATOM     75  C   UNL     1      -3.720  -6.607   7.715  1.00  0.00     0.198 A 
ATOM     76  C   UNL     1      -2.332  -7.378   5.916  1.00  0.00     0.198 A 
ATOM     77  F   UNL     1      -0.033  -6.872   5.907  1.00  0.00    -0.203 F 
ATOM     78  F   UNL     1      -4.916  -6.553   8.318  1.00  0.00    -0.200 F 
ATOM     79  C   UNL     1      -3.576  -7.302   6.524  1.00  0.00     0.200 A 
ATOM     80  F   UNL     1      -2.190  -8.041   4.760  1.00  0.00    -0.200 F 
ATOM     81  F   UNL     1      -4.634  -7.904   5.965  1.00  0.00    -0.200 F 
ENDBRANCH  47  71
BRANCH  59  82
ATOM     82  C   UNL     1       2.289  -7.363  13.495  1.00  0.00     0.064 A 
ATOM     83  C   UNL     1       2.651  -8.698  13.265  1.00  0.00     0.173 A 
ATOM     84  C   UNL     1       1.832  -7.017  14.776  1.00  0.00     0.173 A 
ATOM     85  F   UNL     1       3.079  -9.082  12.053  1.00  0.00    -0.203 F 
ATOM     86  C   UNL     1       2.539  -9.654  14.272  1.00  0.00     0.198 A 
ATOM     87  C   UNL     1       1.745  -7.970  15.787  1.00  0.00     0.198 A 
ATOM     88  F   UNL     1       1.478  -5.752  15.049  1.00  0.00    -0.203 F 
ATOM     89  F   UNL     1       2.851 -10.932  14.018  1.00  0.00    -0.200 F 
ATOM     90  C   UNL     1       2.093  -9.288  15.533  1.00  0.00     0.200 A 
ATOM     91  F   UNL     1       1.323  -7.613  17.008  1.00  0.00    -0.200 F 
ATOM     92  F   UNL     1       1.990 -10.208  16.502  1.00  0.00    -0.200 F 
ENDBRANCH  59  82
ENDBRANCH  33  34
ENDBRANCH  26  28
ENDBRANCH  25  26
ENDBRANCH  24  25
ENDBRANCH  23  24
ENDBRANCH  22  23
ENDBRANCH   1  22
TORSDOF 20
