REMARK SMILES C=CCN(CC(=O)OCCOCCOC(=O)c1ccc(-c2c3nc(c(-c4c(F)c(F)c(F)c(F)c4F)c4ccc([nH]4)c(-c4c(F)c(F)c(F)c(F)c4F)c4nc(c(-c5c(F)c(F)c(F)c(F)c5F)c5ccc2[nH]5)C=C4)C=C3)cc1)c1ccc([N+](=O)[O-])cc1Br
REMARK SMILES IDX 10 1 9 2 8 3 6 4 7 5 5 6 4 7 3 8 2 9 1 10 80 11 81 12 88 13
REMARK SMILES IDX 82 14 87 15 89 16 83 17 84 18 85 19 86 20 11 21 12 22 13 23
REMARK SMILES IDX 14 24 15 25 16 26 17 27 18 28 79 29 19 30 78 31 20 32 21 33
REMARK SMILES IDX 22 34 72 35 23 36 77 37 71 38 73 39 24 40 76 41 70 42 69 43
REMARK SMILES IDX 25 45 57 46 37 47 56 48 38 49 41 50 55 51 74 52 39 53 40 54
REMARK SMILES IDX 54 56 75 57 42 58 26 59 27 60 35 61 28 62 29 63 33 64 36 65
REMARK SMILES IDX 30 66 31 67 34 68 32 69 58 70 59 71 67 72 60 73 61 74 65 75
REMARK SMILES IDX 68 76 62 77 63 78 66 79 64 80 43 81 44 82 52 83 45 84 46 85
REMARK SMILES IDX 50 86 53 87 47 88 48 89 51 90 49 91
REMARK H PARENT 73 44 41 55
REMARK Flexibility Score: inf
ROOT
ATOM      1  C   UNL     1      -6.346   1.444  -3.073  1.00  0.00     0.202 C 
ENDROOT
BRANCH   1   2
ATOM      2  C   UNL     1      -5.586   0.168  -2.688  1.00  0.00     0.261 C 
BRANCH   2   3
ATOM      3  O   UNL     1      -4.162   0.348  -2.615  1.00  0.00    -0.462 OA
BRANCH   3   4
ATOM      4  C   UNL     1      -3.416  -0.577  -3.292  1.00  0.00     0.325 C 
ATOM      5  O   UNL     1      -3.882  -1.552  -3.874  1.00  0.00    -0.250 OA
BRANCH   4   6
ATOM      6  C   UNL     1      -1.925  -0.238  -3.337  1.00  0.00     0.239 C 
BRANCH   6   7
ATOM      7  N   UNL     1      -1.387   0.318  -2.088  1.00  0.00    -0.356 N 
BRANCH   7   8
ATOM      8  C   UNL     1      -1.382  -0.477  -0.869  1.00  0.00     0.144 C 
BRANCH   8   9
ATOM      9  C   UNL     1       0.013  -0.956  -0.595  1.00  0.00    -0.014 C 
ATOM     10  C   UNL     1       0.773  -0.558   0.435  1.00  0.00     0.006 C 
ENDBRANCH   8   9
ENDBRANCH   7   8
BRANCH   7  11
ATOM     11  C   UNL     1      -0.872   1.604  -2.094  1.00  0.00     0.052 A 
ATOM     12  C   UNL     1      -1.632   2.626  -1.504  1.00  0.00     0.034 A 
ATOM     13  C   UNL     1       0.360   1.958  -2.688  1.00  0.00     0.048 A 
ATOM     14  C   UNL     1      -1.216   3.959  -1.534  1.00  0.00     0.088 A 
ATOM     15  C   UNL     1       0.809   3.283  -2.695  1.00  0.00     0.103 A 
ATOM     16  Br  UNL     1       1.497   0.668  -3.506  1.00  0.00    -0.048 Br
ATOM     17  C   UNL     1       0.004   4.276  -2.132  1.00  0.00     0.270 A 
BRANCH  17  18
ATOM     18  N   UNL     1       0.435   5.670  -2.192  1.00  0.00     0.062 N 
ATOM     19  O   UNL     1      -0.447   6.538  -2.232  1.00  0.00    -0.258 OA
ATOM     20  O   UNL     1       1.654   5.892  -2.207  1.00  0.00    -0.258 OA
ENDBRANCH  17  18
ENDBRANCH   7  11
ENDBRANCH   6   7
ENDBRANCH   4   6
ENDBRANCH   3   4
ENDBRANCH   2   3
ENDBRANCH   1   2
BRANCH   1  21
ATOM     21  O   UNL     1      -5.885   2.123  -4.239  1.00  0.00    -0.374 OA
BRANCH  21  22
ATOM     22  C   UNL     1      -4.675   2.880  -4.128  1.00  0.00     0.202 C 
BRANCH  22  23
ATOM     23  C   UNL     1      -4.710   4.037  -3.125  1.00  0.00     0.261 C 
BRANCH  23  24
ATOM     24  O   UNL     1      -4.792   3.529  -1.782  1.00  0.00    -0.460 OA
BRANCH  24  25
ATOM     25  C   UNL     1      -5.076   4.464  -0.854  1.00  0.00     0.338 C 
ATOM     26  O   UNL     1      -5.013   5.677  -0.980  1.00  0.00    -0.246 OA
BRANCH  25  27
ATOM     27  C   UNL     1      -5.640   3.797   0.328  1.00  0.00     0.060 A 
ATOM     28  C   UNL     1      -7.031   3.685   0.415  1.00  0.00     0.016 A 
ATOM     29  C   UNL     1      -4.823   3.395   1.386  1.00  0.00     0.016 A 
ATOM     30  C   UNL     1      -7.616   3.228   1.597  1.00  0.00     0.010 A 
ATOM     31  C   UNL     1      -5.413   2.921   2.565  1.00  0.00     0.010 A 
ATOM     32  C   UNL     1      -6.814   2.881   2.695  1.00  0.00    -0.014 A 
BRANCH  32  33
ATOM     33  C   UNL     1      -7.456   2.623   4.011  1.00  0.00     0.031 A 
ATOM     34  C   UNL     1      -7.452   3.703   5.061  1.00  0.00     0.074 A 
ATOM     35  C   UNL     1      -8.083   1.460   4.261  1.00  0.00     0.049 A 
ATOM     36  N   UNL     1      -8.010   3.712   6.247  1.00  0.00    -0.248 NA
ATOM     37  C   UNL     1      -6.721   4.936   4.734  1.00  0.00     0.031 C 
ATOM     38  C   UNL     1      -8.166   0.332   3.337  1.00  0.00     0.029 A 
ATOM     39  N   UNL     1      -8.772   1.039   5.372  1.00  0.00    -0.354 N 
ATOM     40  C   UNL     1      -7.700   4.946   6.802  1.00  0.00     0.074 A 
ATOM     41  C   UNL     1      -6.871   5.644   5.843  1.00  0.00     0.031 C 
ATOM     42  C   UNL     1      -8.866  -0.657   3.920  1.00  0.00     0.029 A 
ATOM     43  C   UNL     1      -9.268  -0.236   5.262  1.00  0.00     0.049 A 
ATOM     44  H   UNL     1      -8.899   1.599   6.172  1.00  0.00     0.167 HD
ATOM     45  C   UNL     1      -8.086   5.462   7.994  1.00  0.00     0.037 A 
ATOM     46  C   UNL     1      -9.963  -0.982   6.144  1.00  0.00     0.037 A 
ATOM     47  C   UNL     1      -8.918   4.782   8.951  1.00  0.00     0.049 A 
ATOM     48  C   UNL     1     -10.352  -0.400   7.477  1.00  0.00     0.074 A 
ATOM     49  C   UNL     1      -9.402   5.250  10.161  1.00  0.00     0.029 A 
ATOM     50  N   UNL     1      -9.382   3.483   8.811  1.00  0.00    -0.354 N 
ATOM     51  N   UNL     1     -10.112   0.793   7.962  1.00  0.00    -0.248 NA
ATOM     52  C   UNL     1     -11.120  -1.269   8.382  1.00  0.00     0.031 C 
ATOM     53  C   UNL     1     -10.118   4.217  10.776  1.00  0.00     0.029 A 
ATOM     54  C   UNL     1     -10.120   3.122   9.928  1.00  0.00     0.049 A 
ATOM     55  H   UNL     1      -9.212   2.903   8.034  1.00  0.00     0.167 HD
ATOM     56  C   UNL     1     -10.714   0.827   9.214  1.00  0.00     0.074 A 
ATOM     57  C   UNL     1     -11.345  -0.461   9.409  1.00  0.00     0.031 C 
ATOM     58  C   UNL     1     -10.741   1.837  10.118  1.00  0.00     0.037 A 
BRANCH  45  59
ATOM     59  C   UNL     1      -7.597   6.838   8.340  1.00  0.00     0.064 A 
ATOM     60  C   UNL     1      -8.108   7.980   7.705  1.00  0.00     0.173 A 
ATOM     61  C   UNL     1      -6.633   7.018   9.342  1.00  0.00     0.173 A 
ATOM     62  F   UNL     1      -9.024   7.859   6.732  1.00  0.00    -0.203 F 
ATOM     63  C   UNL     1      -7.650   9.251   8.044  1.00  0.00     0.198 A 
ATOM     64  C   UNL     1      -6.197   8.291   9.696  1.00  0.00     0.198 A 
ATOM     65  F   UNL     1      -6.118   5.957   9.982  1.00  0.00    -0.203 F 
ATOM     66  F   UNL     1      -8.120  10.325   7.395  1.00  0.00    -0.200 F 
ATOM     67  C   UNL     1      -6.700   9.406   9.042  1.00  0.00     0.200 A 
ATOM     68  F   UNL     1      -5.287   8.440  10.668  1.00  0.00    -0.200 F 
ATOM     69  F   UNL     1      -6.265  10.630   9.370  1.00  0.00    -0.200 F 
ENDBRANCH  45  59
BRANCH  46  70
ATOM     70  C   UNL     1     -10.342  -2.373   5.787  1.00  0.00     0.064 A 
ATOM     71  C   UNL     1     -11.675  -2.719   5.524  1.00  0.00     0.173 A 
ATOM     72  C   UNL     1      -9.376  -3.386   5.710  1.00  0.00     0.173 A 
ATOM     73  F   UNL     1     -12.637  -1.789   5.612  1.00  0.00    -0.203 F 
ATOM     74  C   UNL     1     -12.028  -4.029   5.207  1.00  0.00     0.198 A 
ATOM     75  C   UNL     1      -9.726  -4.690   5.369  1.00  0.00     0.198 A 
ATOM     76  F   UNL     1      -8.088  -3.105   5.955  1.00  0.00    -0.203 F 
ATOM     77  F   UNL     1     -13.313  -4.341   4.997  1.00  0.00    -0.200 F 
ATOM     78  C   UNL     1     -11.053  -5.012   5.123  1.00  0.00     0.200 A 
ATOM     79  F   UNL     1      -8.780  -5.634   5.279  1.00  0.00    -0.200 F 
ATOM     80  F   UNL     1     -11.392  -6.270   4.813  1.00  0.00    -0.200 F 
ENDBRANCH  46  70
BRANCH  58  81
ATOM     81  C   UNL     1     -11.490   1.601  11.398  1.00  0.00     0.064 A 
ATOM     82  C   UNL     1     -10.985   0.759  12.399  1.00  0.00     0.173 A 
ATOM     83  C   UNL     1     -12.706   2.258  11.644  1.00  0.00     0.173 A 
ATOM     84  F   UNL     1      -9.834   0.097  12.207  1.00  0.00    -0.203 F 
ATOM     85  C   UNL     1     -11.679   0.567  13.591  1.00  0.00     0.198 A 
ATOM     86  C   UNL     1     -13.384   2.083  12.847  1.00  0.00     0.198 A 
ATOM     87  F   UNL     1     -13.230   3.079  10.722  1.00  0.00    -0.203 F 
ATOM     88  F   UNL     1     -11.198  -0.275  14.517  1.00  0.00    -0.200 F 
ATOM     89  C   UNL     1     -12.874   1.233  13.817  1.00  0.00     0.200 A 
ATOM     90  F   UNL     1     -14.533   2.737  13.068  1.00  0.00    -0.200 F 
ATOM     91  F   UNL     1     -13.538   1.051  14.967  1.00  0.00    -0.200 F 
ENDBRANCH  58  81
ENDBRANCH  32  33
ENDBRANCH  25  27
ENDBRANCH  24  25
ENDBRANCH  23  24
ENDBRANCH  22  23
ENDBRANCH  21  22
ENDBRANCH   1  21
TORSDOF 19
