REMARK SMILES O=C(N[C@@H](Cc1c[nH]c2ccccc12)C(=O)N[C@@H](CO)C(=O)OCCOCCOC(=O)c1ccc(-c2c3nc(c(-c4c(F)c(F)c(F)c(F)c4F)c4ccc([nH]4)c(-c4c(F)c(F)c(F)c(F)c4F)c4nc(c(-c5c(F)c(F)c(F)c(F)c5F)c5ccc2[nH]5)C=C4)C=C3)cc1)c1ccc(F)cc1
REMARK SMILES IDX 25 1 24 2 23 3 21 4 22 5 18 6 17 7 15 8 16 9 4 11 3 12 1 13
REMARK SMILES IDX 2 14 95 16 96 17 101 18 97 19 100 20 98 21 99 22 5 23 6 24
REMARK SMILES IDX 7 25 14 26 8 27 9 28 13 29 10 31 12 32 11 33 19 34 20 35
REMARK SMILES IDX 26 37 27 38 28 39 29 40 30 41 31 42 32 43 33 44 94 45 34 46
REMARK SMILES IDX 93 47 35 48 36 49 37 50 87 51 38 52 92 53 86 54 88 55 39 56
REMARK SMILES IDX 91 57 85 58 84 59 40 61 72 62 52 63 71 64 53 65 56 66 70 67
REMARK SMILES IDX 89 68 54 69 55 70 69 72 90 73 57 74 41 75 42 76 50 77 43 78
REMARK SMILES IDX 44 79 48 80 51 81 45 82 46 83 49 84 47 85 73 86 74 87 82 88
REMARK SMILES IDX 75 89 76 90 80 91 83 92 77 93 78 94 81 95 79 96 58 97 59 98
REMARK SMILES IDX 67 99 60 100 61 101 65 102 68 103 62 104 63 105 66 106
REMARK SMILES IDX 64 107
REMARK H PARENT 17 10 3 15 8 30 20 36 88 60 56 71
REMARK Flexibility Score: inf
ROOT
ATOM      1  C   UNL     1       6.839   6.759   2.518  1.00  0.00     0.202 C 
ENDROOT
BRANCH   1   2
ATOM      2  C   UNL     1       5.498   6.587   3.242  1.00  0.00     0.261 C 
BRANCH   2   3
ATOM      3  O   UNL     1       5.096   5.216   3.374  1.00  0.00    -0.462 OA
BRANCH   3   4
ATOM      4  C   UNL     1       3.773   4.990   3.129  1.00  0.00     0.331 C 
ATOM      5  O   UNL     1       2.919   5.869   3.042  1.00  0.00    -0.250 OA
BRANCH   4   6
ATOM      6  C   UNL     1       3.449   3.500   2.927  1.00  0.00     0.218 C 
BRANCH   6   7
ATOM      7  N   UNL     1       4.571   2.562   2.925  1.00  0.00    -0.339 N 
ATOM      8  C   UNL     1       4.988   1.688   1.966  1.00  0.00     0.243 C 
ATOM      9  O   UNL     1       6.001   1.031   2.243  1.00  0.00    -0.273 OA
ATOM     10  H   UNL     1       5.111   2.562   3.748  1.00  0.00     0.164 HD
BRANCH   8  11
ATOM     11  C   UNL     1       4.293   1.460   0.586  1.00  0.00     0.176 C 
BRANCH  11  12
ATOM     12  N   UNL     1       2.908   1.005   0.708  1.00  0.00    -0.340 N 
ATOM     13  O   UNL     1       1.101  -0.236   0.230  1.00  0.00    -0.269 OA
ATOM     14  C   UNL     1       2.325  -0.139   0.220  1.00  0.00     0.251 C 
ATOM     15  H   UNL     1       2.309   1.603   1.210  1.00  0.00     0.164 HD
BRANCH  14  16
ATOM     16  C   UNL     1       3.138  -1.243  -0.345  1.00  0.00     0.040 A 
ATOM     17  C   UNL     1       4.194  -1.818   0.375  1.00  0.00     0.017 A 
ATOM     18  C   UNL     1       2.782  -1.760  -1.598  1.00  0.00     0.017 A 
ATOM     19  C   UNL     1       4.928  -2.866  -0.186  1.00  0.00     0.040 A 
ATOM     20  C   UNL     1       3.513  -2.816  -2.150  1.00  0.00     0.040 A 
ATOM     21  C   UNL     1       4.583  -3.353  -1.443  1.00  0.00     0.123 A 
ATOM     22  F   UNL     1       5.287  -4.360  -1.976  1.00  0.00    -0.207 F 
ENDBRANCH  14  16
ENDBRANCH  11  12
BRANCH  11  23
ATOM     23  C   UNL     1       4.540   2.464  -0.569  1.00  0.00     0.072 C 
BRANCH  23  24
ATOM     24  C   UNL     1       3.887   3.819  -0.553  1.00  0.00    -0.020 A 
ATOM     25  C   UNL     1       2.592   4.165  -0.213  1.00  0.00     0.087 A 
ATOM     26  C   UNL     1       4.500   5.048  -0.985  1.00  0.00     0.003 A 
ATOM     27  N   UNL     1       2.548   5.528  -0.050  1.00  0.00    -0.361 N 
ATOM     28  C   UNL     1       3.717   6.091  -0.494  1.00  0.00     0.046 A 
ATOM     29  C   UNL     1       5.690   5.379  -1.667  1.00  0.00     0.010 A 
ATOM     30  H   UNL     1       1.789   6.027   0.330  1.00  0.00     0.166 HD
ATOM     31  C   UNL     1       4.137   7.426  -0.497  1.00  0.00     0.026 A 
ATOM     32  C   UNL     1       6.109   6.714  -1.719  1.00  0.00     0.001 A 
ATOM     33  C   UNL     1       5.360   7.715  -1.106  1.00  0.00     0.002 A 
ENDBRANCH  23  24
ENDBRANCH  11  23
ENDBRANCH   8  11
ENDBRANCH   6   7
BRANCH   6  34
ATOM     34  C   UNL     1       2.345   3.094   3.902  1.00  0.00     0.193 C 
BRANCH  34  35
ATOM     35  O   UNL     1       2.761   3.225   5.256  1.00  0.00    -0.394 OA
ATOM     36  H   UNL     1       3.519   2.642   5.419  1.00  0.00     0.210 HD
ENDBRANCH  34  35
ENDBRANCH   6  34
ENDBRANCH   4   6
ENDBRANCH   3   4
ENDBRANCH   2   3
ENDBRANCH   1   2
BRANCH   1  37
ATOM     37  O   UNL     1       7.095   6.069   1.305  1.00  0.00    -0.374 OA
BRANCH  37  38
ATOM     38  C   UNL     1       7.003   4.652   1.268  1.00  0.00     0.202 C 
BRANCH  38  39
ATOM     39  C   UNL     1       8.087   3.817   1.942  1.00  0.00     0.261 C 
BRANCH  39  40
ATOM     40  O   UNL     1       8.245   4.123   3.323  1.00  0.00    -0.460 OA
BRANCH  40  41
ATOM     41  C   UNL     1       9.335   4.878   3.580  1.00  0.00     0.338 C 
ATOM     42  O   UNL     1      10.186   5.272   2.795  1.00  0.00    -0.246 OA
BRANCH  41  43
ATOM     43  C   UNL     1       9.252   5.351   4.962  1.00  0.00     0.060 A 
ATOM     44  C   UNL     1       9.381   6.729   5.178  1.00  0.00     0.016 A 
ATOM     45  C   UNL     1       9.102   4.455   6.021  1.00  0.00     0.016 A 
ATOM     46  C   UNL     1       9.421   7.216   6.470  1.00  0.00     0.010 A 
ATOM     47  C   UNL     1       9.164   4.942   7.322  1.00  0.00     0.010 A 
ATOM     48  C   UNL     1       9.375   6.315   7.540  1.00  0.00    -0.014 A 
BRANCH  48  49
ATOM     49  C   UNL     1       9.785   6.800   8.868  1.00  0.00     0.031 A 
ATOM     50  C   UNL     1      11.203   6.562   9.296  1.00  0.00     0.074 A 
ATOM     51  C   UNL     1       8.926   7.500   9.623  1.00  0.00     0.049 A 
ATOM     52  N   UNL     1      11.802   6.897  10.408  1.00  0.00    -0.248 NA
ATOM     53  C   UNL     1      12.066   5.849   8.338  1.00  0.00     0.031 C 
ATOM     54  C   UNL     1       7.549   7.824   9.254  1.00  0.00     0.029 A 
ATOM     55  N   UNL     1       9.093   8.069  10.855  1.00  0.00    -0.354 N 
ATOM     56  C   UNL     1      13.104   6.430  10.285  1.00  0.00     0.074 A 
ATOM     57  C   UNL     1      13.202   5.756   9.011  1.00  0.00     0.031 C 
ATOM     58  C   UNL     1       6.991   8.536  10.247  1.00  0.00     0.029 A 
ATOM     59  C   UNL     1       7.962   8.683  11.328  1.00  0.00     0.049 A 
ATOM     60  H   UNL     1       9.942   8.041  11.353  1.00  0.00     0.167 HD
ATOM     61  C   UNL     1      14.126   6.566  11.160  1.00  0.00     0.037 A 
ATOM     62  C   UNL     1       7.744   9.277  12.515  1.00  0.00     0.037 A 
ATOM     63  C   UNL     1      14.002   7.240  12.425  1.00  0.00     0.049 A 
ATOM     64  C   UNL     1       8.881   9.352  13.500  1.00  0.00     0.074 A 
ATOM     65  C   UNL     1      14.965   7.441  13.396  1.00  0.00     0.029 A 
ATOM     66  N   UNL     1      12.830   7.819  12.894  1.00  0.00    -0.354 N 
ATOM     67  N   UNL     1      10.114   8.919  13.381  1.00  0.00    -0.248 NA
ATOM     68  C   UNL     1       8.598  10.009  14.781  1.00  0.00     0.031 C 
ATOM     69  C   UNL     1      14.360   8.088  14.479  1.00  0.00     0.029 A 
ATOM     70  C   UNL     1      13.039   8.357  14.153  1.00  0.00     0.049 A 
ATOM     71  H   UNL     1      11.976   7.844  12.404  1.00  0.00     0.167 HD
ATOM     72  C   UNL     1      10.763   9.281  14.554  1.00  0.00     0.074 A 
ATOM     73  C   UNL     1       9.788   9.985  15.363  1.00  0.00     0.031 C 
ATOM     74  C   UNL     1      12.048   9.058  14.931  1.00  0.00     0.037 A 
BRANCH  61  75
ATOM     75  C   UNL     1      15.442   5.943  10.794  1.00  0.00     0.064 A 
ATOM     76  C   UNL     1      16.232   6.434   9.743  1.00  0.00     0.173 A 
ATOM     77  C   UNL     1      15.927   4.841  11.516  1.00  0.00     0.173 A 
ATOM     78  F   UNL     1      15.807   7.471   9.006  1.00  0.00    -0.203 F 
ATOM     79  C   UNL     1      17.443   5.830   9.412  1.00  0.00     0.198 A 
ATOM     80  C   UNL     1      17.154   4.261  11.204  1.00  0.00     0.198 A 
ATOM     81  F   UNL     1      15.212   4.327  12.527  1.00  0.00    -0.203 F 
ATOM     82  F   UNL     1      18.153   6.282   8.369  1.00  0.00    -0.200 F 
ATOM     83  C   UNL     1      17.907   4.750  10.148  1.00  0.00     0.200 A 
ATOM     84  F   UNL     1      17.605   3.225  11.925  1.00  0.00    -0.200 F 
ATOM     85  F   UNL     1      19.076   4.174   9.834  1.00  0.00    -0.200 F 
ENDBRANCH  61  75
BRANCH  62  86
ATOM     86  C   UNL     1       6.406   9.837  12.832  1.00  0.00     0.064 A 
ATOM     87  C   UNL     1       6.215  11.215  12.995  1.00  0.00     0.173 A 
ATOM     88  C   UNL     1       5.289   9.002  12.988  1.00  0.00     0.173 A 
ATOM     89  F   UNL     1       7.255  12.054  12.873  1.00  0.00    -0.203 F 
ATOM     90  C   UNL     1       4.966  11.735  13.329  1.00  0.00     0.198 A 
ATOM     91  C   UNL     1       4.033   9.525  13.289  1.00  0.00     0.198 A 
ATOM     92  F   UNL     1       5.415   7.675  12.836  1.00  0.00    -0.203 F 
ATOM     93  F   UNL     1       4.824  13.051  13.533  1.00  0.00    -0.200 F 
ATOM     94  C   UNL     1       3.875  10.890  13.470  1.00  0.00     0.200 A 
ATOM     95  F   UNL     1       2.979   8.706  13.406  1.00  0.00    -0.200 F 
ATOM     96  F   UNL     1       2.674  11.391  13.789  1.00  0.00    -0.200 F 
ENDBRANCH  62  86
BRANCH  74  97
ATOM     97  C   UNL     1      12.478   9.628  16.253  1.00  0.00     0.064 A 
ATOM     98  C   UNL     1      11.992   9.130  17.471  1.00  0.00     0.173 A 
ATOM     99  C   UNL     1      13.407  10.680  16.298  1.00  0.00     0.173 A 
ATOM    100  F   UNL     1      11.094   8.133  17.483  1.00  0.00    -0.203 F 
ATOM    101  C   UNL     1      12.384   9.695  18.682  1.00  0.00     0.198 A 
ATOM    102  C   UNL     1      13.828  11.214  17.512  1.00  0.00     0.198 A 
ATOM    103  F   UNL     1      13.914  11.185  15.163  1.00  0.00    -0.203 F 
ATOM    104  F   UNL     1      11.851   9.250  19.828  1.00  0.00    -0.200 F 
ATOM    105  C   UNL     1      13.306  10.731  18.701  1.00  0.00     0.200 A 
ATOM    106  F   UNL     1      14.734  12.201  17.529  1.00  0.00    -0.200 F 
ATOM    107  F   UNL     1      13.683  11.271  19.868  1.00  0.00    -0.200 F 
ENDBRANCH  74  97
ENDBRANCH  48  49
ENDBRANCH  41  43
ENDBRANCH  40  41
ENDBRANCH  39  40
ENDBRANCH  38  39
ENDBRANCH  37  38
ENDBRANCH   1  37
TORSDOF 22
