REMARK SMILES CC(C)CSc1cc2c(cc1Cl)C=C(C(=O)OCCOCCOC(=O)c1ccc(-c3c4nc(c(-c5c(F)c(F)c(F)c(F)c5F)c5ccc([nH]5)c(-c5c(F)c(F)c(F)c(F)c5F)c5nc(c(-c6c(F)c(F)c(F)c(F)c6F)c6ccc3[nH]6)C=C5)C=C4)cc1)[C@H](C(F)(F)F)O2
REMARK SMILES IDX 19 1 18 2 17 3 15 4 16 5 14 6 6 7 7 8 11 9 8 10 10 11 12 12
REMARK SMILES IDX 9 13 94 14 13 15 89 16 5 17 4 18 2 19 1 20 3 21 90 22 91 23
REMARK SMILES IDX 92 24 93 25 20 26 21 27 22 28 23 29 24 30 25 31 26 32 27 33
REMARK SMILES IDX 88 34 28 35 87 36 29 37 30 38 31 39 81 40 32 41 86 42 80 43
REMARK SMILES IDX 82 44 33 45 85 46 79 47 78 48 34 50 66 51 46 52 65 53 47 54
REMARK SMILES IDX 50 55 64 56 83 57 48 58 49 59 63 61 84 62 51 63 35 64 36 65
REMARK SMILES IDX 44 66 37 67 38 68 42 69 45 70 39 71 40 72 43 73 41 74 67 75
REMARK SMILES IDX 68 76 76 77 69 78 70 79 74 80 77 81 71 82 72 83 75 84 73 85
REMARK SMILES IDX 52 86 53 87 61 88 54 89 55 90 59 91 62 92 56 93 57 94 60 95
REMARK SMILES IDX 58 96
REMARK H PARENT 82 49 50 60
REMARK Flexibility Score: inf
ROOT
ATOM      1  C   UNL     1       1.243   0.242  10.163  1.00  0.00     0.202 C 
ENDROOT
BRANCH   1   2
ATOM      2  C   UNL     1       2.393   0.607   9.220  1.00  0.00     0.261 C 
BRANCH   2   3
ATOM      3  O   UNL     1       1.897   1.200   8.009  1.00  0.00    -0.460 OA
BRANCH   3   4
ATOM      4  C   UNL     1       2.027   0.434   6.907  1.00  0.00     0.338 C 
ATOM      5  O   UNL     1       2.684  -0.591   6.810  1.00  0.00    -0.246 OA
BRANCH   4   6
ATOM      6  C   UNL     1       1.143   0.929   5.836  1.00  0.00     0.087 C 
ATOM      7  C   UNL     1      -1.288   1.112   1.447  1.00  0.00     0.030 A 
ATOM      8  C   UNL     1      -0.649   2.066   2.263  1.00  0.00     0.063 A 
ATOM      9  C   UNL     1      -1.480  -0.182   1.957  1.00  0.00     0.055 A 
ATOM     10  C   UNL     1      -0.107   1.708   3.497  1.00  0.00     0.129 A 
ATOM     11  C   UNL     1      -0.913  -0.546   3.184  1.00  0.00     0.033 A 
ATOM     12  Cl  UNL     1      -2.405  -1.399   1.151  1.00  0.00    -0.083 Cl
ATOM     13  C   UNL     1      -0.196   0.388   3.933  1.00  0.00     0.019 A 
ATOM     14  O   UNL     1       0.579   2.677   4.178  1.00  0.00    -0.475 OA
ATOM     15  C   UNL     1       0.562  -0.026   5.098  1.00  0.00     0.027 C 
ATOM     16  C   UNL     1       0.960   2.398   5.562  1.00  0.00     0.316 C 
BRANCH   7  17
ATOM     17  S   UNL     1      -1.753   1.685  -0.184  1.00  0.00    -0.124 SA
BRANCH  17  18
ATOM     18  C   UNL     1      -0.960   0.475  -1.321  1.00  0.00     0.078 C 
BRANCH  18  19
ATOM     19  C   UNL     1       0.576   0.493  -1.451  1.00  0.00    -0.007 C 
ATOM     20  C   UNL     1       1.327   0.057  -0.192  1.00  0.00     0.008 C 
ATOM     21  C   UNL     1       0.980  -0.445  -2.599  1.00  0.00     0.008 C 
ENDBRANCH  18  19
ENDBRANCH  17  18
ENDBRANCH   7  17
BRANCH  16  22
ATOM     22  C   UNL     1      -0.027   3.102   6.518  1.00  0.00     0.430 C 
ATOM     23  F   UNL     1      -1.157   2.383   6.712  1.00  0.00    -0.167 F 
ATOM     24  F   UNL     1       0.518   3.335   7.735  1.00  0.00    -0.167 F 
ATOM     25  F   UNL     1      -0.403   4.314   6.038  1.00  0.00    -0.167 F 
ENDBRANCH  16  22
ENDBRANCH   4   6
ENDBRANCH   3   4
ENDBRANCH   2   3
ENDBRANCH   1   2
BRANCH   1  26
ATOM     26  O   UNL     1       0.322  -0.738   9.686  1.00  0.00    -0.374 OA
BRANCH  26  27
ATOM     27  C   UNL     1      -0.718  -0.299   8.810  1.00  0.00     0.202 C 
BRANCH  27  28
ATOM     28  C   UNL     1      -1.905   0.432   9.447  1.00  0.00     0.261 C 
BRANCH  28  29
ATOM     29  O   UNL     1      -1.532   1.730   9.940  1.00  0.00    -0.460 OA
BRANCH  29  30
ATOM     30  C   UNL     1      -1.464   1.838  11.288  1.00  0.00     0.338 C 
ATOM     31  O   UNL     1      -1.744   0.982  12.113  1.00  0.00    -0.246 OA
BRANCH  30  32
ATOM     32  C   UNL     1      -0.793   3.105  11.648  1.00  0.00     0.060 A 
ATOM     33  C   UNL     1      -1.127   4.315  11.038  1.00  0.00     0.016 A 
ATOM     34  C   UNL     1       0.189   3.064  12.648  1.00  0.00     0.016 A 
ATOM     35  C   UNL     1      -0.498   5.490  11.458  1.00  0.00     0.010 A 
ATOM     36  C   UNL     1       0.809   4.239  13.071  1.00  0.00     0.010 A 
ATOM     37  C   UNL     1       0.458   5.466  12.492  1.00  0.00    -0.014 A 
BRANCH  37  38
ATOM     38  C   UNL     1       1.000   6.740  13.029  1.00  0.00     0.031 A 
ATOM     39  C   UNL     1       2.417   7.160  12.774  1.00  0.00     0.074 A 
ATOM     40  C   UNL     1       0.188   7.527  13.762  1.00  0.00     0.049 A 
ATOM     41  N   UNL     1       3.007   8.288  13.081  1.00  0.00    -0.248 NA
ATOM     42  C   UNL     1       3.288   6.189  12.098  1.00  0.00     0.031 C 
ATOM     43  C   UNL     1      -1.191   7.198  14.123  1.00  0.00     0.029 A 
ATOM     44  N   UNL     1       0.395   8.764  14.319  1.00  0.00    -0.354 N 
ATOM     45  C   UNL     1       4.308   8.176  12.613  1.00  0.00     0.074 A 
ATOM     46  C   UNL     1       4.442   6.844  12.059  1.00  0.00     0.031 C 
ATOM     47  C   UNL     1      -1.723   8.228  14.799  1.00  0.00     0.029 A 
ATOM     48  C   UNL     1      -0.716   9.275  14.945  1.00  0.00     0.049 A 
ATOM     49  H   UNL     1       1.256   9.239  14.274  1.00  0.00     0.167 HD
ATOM     50  C   UNL     1       5.289   9.110  12.619  1.00  0.00     0.037 A 
ATOM     51  C   UNL     1      -0.908  10.460  15.556  1.00  0.00     0.037 A 
ATOM     52  C   UNL     1       5.153  10.430  13.182  1.00  0.00     0.049 A 
ATOM     53  C   UNL     1       0.215  11.461  15.591  1.00  0.00     0.074 A 
ATOM     54  C   UNL     1       6.076  11.462  13.191  1.00  0.00     0.029 A 
ATOM     55  N   UNL     1       4.029  10.897  13.848  1.00  0.00    -0.354 N 
ATOM     56  N   UNL     1       1.407  11.384  15.053  1.00  0.00    -0.248 NA
ATOM     57  C   UNL     1      -0.036  12.716  16.315  1.00  0.00     0.031 C 
ATOM     58  C   UNL     1       5.535  12.529  13.913  1.00  0.00     0.029 A 
ATOM     59  C   UNL     1       4.252  12.187  14.307  1.00  0.00     0.049 A 
ATOM     60  H   UNL     1       3.196  10.388  13.977  1.00  0.00     0.167 HD
ATOM     61  C   UNL     1       2.043  12.579  15.361  1.00  0.00     0.074 A 
ATOM     62  C   UNL     1       1.095  13.378  16.108  1.00  0.00     0.031 C 
ATOM     63  C   UNL     1       3.304  12.973  15.056  1.00  0.00     0.037 A 
BRANCH  50  64
ATOM     64  C   UNL     1       6.601   8.756  11.979  1.00  0.00     0.064 A 
ATOM     65  C   UNL     1       6.716   8.616  10.587  1.00  0.00     0.173 A 
ATOM     66  C   UNL     1       7.768   8.639  12.748  1.00  0.00     0.173 A 
ATOM     67  F   UNL     1       5.630   8.713   9.806  1.00  0.00    -0.203 F 
ATOM     68  C   UNL     1       7.947   8.354   9.992  1.00  0.00     0.198 A 
ATOM     69  C   UNL     1       9.003   8.407  12.147  1.00  0.00     0.198 A 
ATOM     70  F   UNL     1       7.717   8.775  14.082  1.00  0.00    -0.203 F 
ATOM     71  F   UNL     1       8.026   8.190   8.664  1.00  0.00    -0.200 F 
ATOM     72  C   UNL     1       9.091   8.260  10.771  1.00  0.00     0.200 A 
ATOM     73  F   UNL     1      10.110   8.334  12.899  1.00  0.00    -0.200 F 
ATOM     74  F   UNL     1      10.278   8.026  10.194  1.00  0.00    -0.200 F 
ENDBRANCH  50  64
BRANCH  51  75
ATOM     75  C   UNL     1      -2.233  10.776  16.150  1.00  0.00     0.064 A 
ATOM     76  C   UNL     1      -3.055  11.764  15.590  1.00  0.00     0.173 A 
ATOM     77  C   UNL     1      -2.715  10.085  17.272  1.00  0.00     0.173 A 
ATOM     78  F   UNL     1      -2.630  12.465  14.529  1.00  0.00    -0.203 F 
ATOM     79  C   UNL     1      -4.303  12.057  16.137  1.00  0.00     0.198 A 
ATOM     80  C   UNL     1      -3.975  10.358  17.799  1.00  0.00     0.198 A 
ATOM     81  F   UNL     1      -1.969   9.129  17.844  1.00  0.00    -0.203 F 
ATOM     82  F   UNL     1      -5.052  13.032  15.605  1.00  0.00    -0.200 F 
ATOM     83  C   UNL     1      -4.766  11.348  17.235  1.00  0.00     0.200 A 
ATOM     84  F   UNL     1      -4.425   9.660  18.850  1.00  0.00    -0.200 F 
ATOM     85  F   UNL     1      -5.971  11.622  17.752  1.00  0.00    -0.200 F 
ENDBRANCH  51  75
BRANCH  63  86
ATOM     86  C   UNL     1       3.750  14.325  15.537  1.00  0.00     0.064 A 
ATOM     87  C   UNL     1       4.008  14.567  16.895  1.00  0.00     0.173 A 
ATOM     88  C   UNL     1       4.006  15.361  14.626  1.00  0.00     0.173 A 
ATOM     89  F   UNL     1       3.765  13.614  17.808  1.00  0.00    -0.203 F 
ATOM     90  C   UNL     1       4.498  15.798  17.323  1.00  0.00     0.198 A 
ATOM     91  C   UNL     1       4.527  16.580  15.054  1.00  0.00     0.198 A 
ATOM     92  F   UNL     1       3.784  15.181  13.316  1.00  0.00    -0.203 F 
ATOM     93  F   UNL     1       4.708  16.015  18.628  1.00  0.00    -0.200 F 
ATOM     94  C   UNL     1       4.769  16.798  16.402  1.00  0.00     0.200 A 
ATOM     95  F   UNL     1       4.806  17.539  14.161  1.00  0.00    -0.200 F 
ATOM     96  F   UNL     1       5.264  17.974  16.813  1.00  0.00    -0.200 F 
ENDBRANCH  63  86
ENDBRANCH  37  38
ENDBRANCH  30  32
ENDBRANCH  29  30
ENDBRANCH  28  29
ENDBRANCH  27  28
ENDBRANCH  26  27
ENDBRANCH   1  26
TORSDOF 18
