REMARK SMILES O=C(OCCOCCOC(=O)c1[nH]ncc1C[N@H+]1CCC[C@@H](C(=O)c2ccc(Oc3ccccc3)cc2)C1)c1ccc(-c2c3nc(c(-c4c(F)c(F)c(F)c(F)c4F)c4ccc([nH]4)c(-c4c(F)c(F)c(F)c(F)c4F)c4nc(c(-c5c(F)c(F)c(F)c(F)c5F)c5ccc2[nH]5)C=C4)C=C3)cc1
REMARK SMILES IDX 8 1 7 2 6 3 5 4 4 5 3 6 2 7 1 8 39 9 40 10 101 11 41 12
REMARK SMILES IDX 100 13 42 14 43 15 44 16 94 17 45 18 99 19 93 20 95 21 46 22
REMARK SMILES IDX 98 23 92 24 91 25 47 27 79 28 59 29 78 30 60 31 63 32 77 33
REMARK SMILES IDX 96 34 61 35 62 36 76 38 97 39 64 40 48 41 49 42 57 43 50 44
REMARK SMILES IDX 51 45 55 46 58 47 52 48 53 49 56 50 54 51 80 52 81 53 89 54
REMARK SMILES IDX 82 55 83 56 87 57 90 58 84 59 85 60 88 61 86 62 65 63 66 64
REMARK SMILES IDX 74 65 67 66 68 67 72 68 75 69 69 70 70 71 73 72 71 73 9 74
REMARK SMILES IDX 10 75 11 76 12 77 13 78 16 79 14 80 15 82 17 83 18 84 19 85
REMARK SMILES IDX 38 86 20 88 22 89 21 90 23 91 24 92 25 93 26 94 37 95 27 96
REMARK SMILES IDX 36 97 28 98 29 99 30 100 31 101 35 102 32 103 34 104 33 105
REMARK H PARENT 95 26 63 37 13 81 18 87
REMARK Flexibility Score: inf
ROOT
ATOM      1  C   UNL     1       3.012   3.537   0.395  1.00  0.00     0.261 C 
ENDROOT
BRANCH   1   2
ATOM      2  C   UNL     1       2.815   2.082  -0.040  1.00  0.00     0.202 C 
BRANCH   2   3
ATOM      3  O   UNL     1       4.103   1.505  -0.281  1.00  0.00    -0.374 OA
BRANCH   3   4
ATOM      4  C   UNL     1       4.270   0.802  -1.512  1.00  0.00     0.202 C 
BRANCH   4   5
ATOM      5  C   UNL     1       3.997  -0.697  -1.404  1.00  0.00     0.261 C 
BRANCH   5   6
ATOM      6  O   UNL     1       2.637  -0.921  -1.002  1.00  0.00    -0.460 OA
BRANCH   6   7
ATOM      7  C   UNL     1       2.150  -1.159   0.235  1.00  0.00     0.338 C 
ATOM      8  O   UNL     1       0.932  -1.276   0.370  1.00  0.00    -0.246 OA
BRANCH   7   9
ATOM      9  C   UNL     1       2.994  -1.296   1.463  1.00  0.00     0.060 A 
ATOM     10  C   UNL     1       4.241  -0.702   1.659  1.00  0.00     0.016 A 
ATOM     11  C   UNL     1       2.430  -2.001   2.541  1.00  0.00     0.016 A 
ATOM     12  C   UNL     1       4.920  -0.807   2.861  1.00  0.00     0.010 A 
ATOM     13  C   UNL     1       3.097  -2.103   3.766  1.00  0.00     0.010 A 
ATOM     14  C   UNL     1       4.351  -1.506   3.919  1.00  0.00    -0.014 A 
BRANCH  14  15
ATOM     15  C   UNL     1       5.178  -1.682   5.120  1.00  0.00     0.031 A 
ATOM     16  C   UNL     1       5.916  -2.972   5.278  1.00  0.00     0.074 A 
ATOM     17  C   UNL     1       5.396  -0.629   5.926  1.00  0.00     0.049 A 
ATOM     18  N   UNL     1       6.720  -3.355   6.231  1.00  0.00    -0.248 NA
ATOM     19  C   UNL     1       5.744  -3.959   4.198  1.00  0.00     0.031 C 
ATOM     20  C   UNL     1       4.822   0.706   5.739  1.00  0.00     0.029 A 
ATOM     21  N   UNL     1       6.189  -0.499   7.033  1.00  0.00    -0.354 N 
ATOM     22  C   UNL     1       7.142  -4.627   5.871  1.00  0.00     0.074 A 
ATOM     23  C   UNL     1       6.499  -4.960   4.621  1.00  0.00     0.031 C 
ATOM     24  C   UNL     1       5.296   1.525   6.692  1.00  0.00     0.029 A 
ATOM     25  C   UNL     1       6.152   0.756   7.589  1.00  0.00     0.049 A 
ATOM     26  H   UNL     1       6.733  -1.235   7.397  1.00  0.00     0.167 HD
ATOM     27  C   UNL     1       7.994  -5.437   6.539  1.00  0.00     0.037 A 
ATOM     28  C   UNL     1       6.724   1.208   8.720  1.00  0.00     0.037 A 
ATOM     29  C   UNL     1       8.598  -5.076   7.792  1.00  0.00     0.049 A 
ATOM     30  C   UNL     1       7.566   0.239   9.509  1.00  0.00     0.074 A 
ATOM     31  C   UNL     1       9.388  -5.839   8.629  1.00  0.00     0.029 A 
ATOM     32  N   UNL     1       8.469  -3.825   8.385  1.00  0.00    -0.354 N 
ATOM     33  N   UNL     1       7.895  -0.998   9.218  1.00  0.00    -0.248 NA
ATOM     34  C   UNL     1       8.103   0.719  10.787  1.00  0.00     0.031 C 
ATOM     35  C   UNL     1       9.705  -5.062   9.749  1.00  0.00     0.029 A 
ATOM     36  C   UNL     1       9.157  -3.797   9.585  1.00  0.00     0.049 A 
ATOM     37  H   UNL     1       7.963  -3.070   8.007  1.00  0.00     0.167 HD
ATOM     38  C   UNL     1       8.690  -1.441  10.264  1.00  0.00     0.074 A 
ATOM     39  C   UNL     1       8.814  -0.327  11.185  1.00  0.00     0.031 C 
ATOM     40  C   UNL     1       9.260  -2.656  10.460  1.00  0.00     0.037 A 
BRANCH  27  41
ATOM     41  C   UNL     1       8.242  -6.794   5.953  1.00  0.00     0.064 A 
ATOM     42  C   UNL     1       9.001  -6.970   4.786  1.00  0.00     0.173 A 
ATOM     43  C   UNL     1       7.671  -7.932   6.541  1.00  0.00     0.173 A 
ATOM     44  F   UNL     1       9.540  -5.910   4.165  1.00  0.00    -0.203 F 
ATOM     45  C   UNL     1       9.155  -8.232   4.215  1.00  0.00     0.198 A 
ATOM     46  C   UNL     1       7.848  -9.195   5.982  1.00  0.00     0.198 A 
ATOM     47  F   UNL     1       6.925  -7.818   7.651  1.00  0.00    -0.203 F 
ATOM     48  F   UNL     1       9.831  -8.368   3.066  1.00  0.00    -0.200 F 
ATOM     49  C   UNL     1       8.581  -9.343   4.815  1.00  0.00     0.200 A 
ATOM     50  F   UNL     1       7.293 -10.267   6.564  1.00  0.00    -0.200 F 
ATOM     51  F   UNL     1       8.720 -10.554   4.258  1.00  0.00    -0.200 F 
ENDBRANCH  27  41
BRANCH  28  52
ATOM     52  C   UNL     1       6.472   2.594   9.199  1.00  0.00     0.064 A 
ATOM     53  C   UNL     1       7.511   3.525   9.339  1.00  0.00     0.173 A 
ATOM     54  C   UNL     1       5.180   3.009   9.564  1.00  0.00     0.173 A 
ATOM     55  F   UNL     1       8.768   3.178   9.025  1.00  0.00    -0.203 F 
ATOM     56  C   UNL     1       7.274   4.801   9.851  1.00  0.00     0.198 A 
ATOM     57  C   UNL     1       4.939   4.296  10.042  1.00  0.00     0.198 A 
ATOM     58  F   UNL     1       4.145   2.163   9.455  1.00  0.00    -0.203 F 
ATOM     59  F   UNL     1       8.296   5.648  10.031  1.00  0.00    -0.200 F 
ATOM     60  C   UNL     1       5.988   5.187  10.197  1.00  0.00     0.200 A 
ATOM     61  F   UNL     1       3.691   4.667  10.360  1.00  0.00    -0.200 F 
ATOM     62  F   UNL     1       5.762   6.411  10.692  1.00  0.00    -0.200 F 
ENDBRANCH  28  52
BRANCH  40  63
ATOM     63  C   UNL     1      10.092  -2.817  11.696  1.00  0.00     0.064 A 
ATOM     64  C   UNL     1       9.509  -2.900  12.968  1.00  0.00     0.173 A 
ATOM     65  C   UNL     1      11.486  -2.932  11.596  1.00  0.00     0.173 A 
ATOM     66  F   UNL     1       8.180  -2.779  13.111  1.00  0.00    -0.203 F 
ATOM     67  C   UNL     1      10.297  -3.064  14.102  1.00  0.00     0.198 A 
ATOM     68  C   UNL     1      12.268  -3.128  12.729  1.00  0.00     0.198 A 
ATOM     69  F   UNL     1      12.087  -2.866  10.398  1.00  0.00    -0.203 F 
ATOM     70  F   UNL     1       9.726  -3.089  15.314  1.00  0.00    -0.200 F 
ATOM     71  C   UNL     1      11.674  -3.186  13.981  1.00  0.00     0.200 A 
ATOM     72  F   UNL     1      13.595  -3.261  12.610  1.00  0.00    -0.200 F 
ATOM     73  F   UNL     1      12.430  -3.353  15.074  1.00  0.00    -0.200 F 
ENDBRANCH  40  63
ENDBRANCH  14  15
ENDBRANCH   7   9
ENDBRANCH   6   7
ENDBRANCH   5   6
ENDBRANCH   4   5
ENDBRANCH   3   4
ENDBRANCH   2   3
ENDBRANCH   1   2
BRANCH   1  74
ATOM     74  O   UNL     1       3.591   4.252  -0.703  1.00  0.00    -0.459 OA
BRANCH  74  75
ATOM     75  C   UNL     1       4.922   4.053  -0.893  1.00  0.00     0.356 C 
ATOM     76  O   UNL     1       5.749   3.837  -0.018  1.00  0.00    -0.244 OA
BRANCH  75  77
ATOM     77  C   UNL     1       5.175   3.976  -2.303  1.00  0.00     0.152 A 
ATOM     78  N   UNL     1       6.255   3.316  -2.816  1.00  0.00    -0.271 N 
ATOM     79  C   UNL     1       4.479   4.466  -3.400  1.00  0.00     0.059 A 
ATOM     80  N   UNL     1       6.222   3.185  -4.152  1.00  0.00    -0.183 NA
ATOM     81  H   UNL     1       6.988   2.968  -2.259  1.00  0.00     0.190 HD
ATOM     82  C   UNL     1       5.153   3.901  -4.509  1.00  0.00     0.145 A 
BRANCH  79  83
ATOM     83  C   UNL     1       3.306   5.397  -3.420  1.00  0.00     0.303 C 
BRANCH  83  84
ATOM     84  N   UNL     1       3.708   6.806  -3.234  1.00  0.00    -0.330 N 
ATOM     85  C   UNL     1       4.360   7.087  -1.951  1.00  0.00     0.262 C 
ATOM     86  C   UNL     1       4.476   7.294  -4.385  1.00  0.00     0.274 C 
ATOM     87  H   UNL     1       2.840   7.341  -3.191  1.00  0.00     0.348 HD
ATOM     88  C   UNL     1       4.711   8.562  -1.775  1.00  0.00     0.062 C 
ATOM     89  C   UNL     1       4.834   8.777  -4.265  1.00  0.00     0.116 C 
ATOM     90  C   UNL     1       5.561   9.045  -2.944  1.00  0.00     0.023 C 
BRANCH  89  91
ATOM     91  C   UNL     1       5.534   9.168  -5.564  1.00  0.00     0.171 C 
ATOM     92  O   UNL     1       5.015   8.966  -6.662  1.00  0.00    -0.294 OA
BRANCH  91  93
ATOM     93  C   UNL     1       6.828   9.872  -5.551  1.00  0.00     0.018 A 
ATOM     94  C   UNL     1       6.904  11.104  -6.201  1.00  0.00     0.015 A 
ATOM     95  C   UNL     1       7.961   9.311  -4.961  1.00  0.00     0.015 A 
ATOM     96  C   UNL     1       8.111  11.799  -6.217  1.00  0.00     0.048 A 
ATOM     97  C   UNL     1       9.158  10.030  -4.944  1.00  0.00     0.048 A 
ATOM     98  C   UNL     1       9.242  11.272  -5.582  1.00  0.00     0.127 A 
BRANCH  98  99
ATOM     99  O   UNL     1      10.363  12.069  -5.662  1.00  0.00    -0.457 OA
BRANCH  99 100
ATOM    100  C   UNL     1      11.510  11.674  -5.025  1.00  0.00     0.127 A 
ATOM    101  C   UNL     1      11.970  12.462  -3.971  1.00  0.00     0.047 A 
ATOM    102  C   UNL     1      12.253  10.578  -5.469  1.00  0.00     0.047 A 
ATOM    103  C   UNL     1      13.154  12.121  -3.320  1.00  0.00     0.004 A 
ATOM    104  C   UNL     1      13.426  10.227  -4.803  1.00  0.00     0.004 A 
ATOM    105  C   UNL     1      13.875  10.997  -3.728  1.00  0.00     0.000 A 
ENDBRANCH  99 100
ENDBRANCH  98  99
ENDBRANCH  91  93
ENDBRANCH  89  91
ENDBRANCH  83  84
ENDBRANCH  79  83
ENDBRANCH  75  77
ENDBRANCH  74  75
ENDBRANCH   1  74
TORSDOF 20
