REMARK SMILES Cc1ccc(-c2cc(C[C@H]3CCCC3=O)ccc2[C@@H](C)C(=O)OCCOCCOC(=O)c2ccc(-c3c4nc(c(-c5c(F)c(F)c(F)c(F)c5F)c5ccc([nH]5)c(-c5c(F)c(F)c(F)c(F)c5F)c5nc(c(-c6c(F)c(F)c(F)c(F)c6F)c6ccc3[nH]6)C=C5)C=C4)cc2)cc1
REMARK SMILES IDX 25 1 24 2 23 3 21 4 22 5 19 6 20 7 18 8 6 9 7 10 8 11 17 12
REMARK SMILES IDX 16 13 5 14 1 15 2 16 3 17 96 18 4 19 95 20 9 21 10 22 11 23
REMARK SMILES IDX 14 24 12 25 13 26 15 27 26 28 27 29 28 30 29 31 30 32 31 33
REMARK SMILES IDX 32 34 33 35 94 36 34 37 93 38 35 39 36 40 37 41 87 42 38 43
REMARK SMILES IDX 92 44 86 45 88 46 39 47 91 48 85 49 84 50 40 52 72 53 52 54
REMARK SMILES IDX 71 55 53 56 56 57 70 58 89 59 54 60 55 61 69 63 90 64 57 65
REMARK SMILES IDX 41 66 42 67 50 68 43 69 44 70 48 71 51 72 45 73 46 74 49 75
REMARK SMILES IDX 47 76 73 77 74 78 82 79 75 80 76 81 80 82 83 83 77 84 78 85
REMARK SMILES IDX 81 86 79 87 58 88 59 89 67 90 60 91 61 92 65 93 68 94 62 95
REMARK SMILES IDX 63 96 66 97 64 98
REMARK H PARENT 88 51 56 62
REMARK Flexibility Score: inf
ROOT
ATOM      1  C   UNL     1      -5.137  -3.059  -0.001  1.00  0.00     0.202 C 
ENDROOT
BRANCH   1   2
ATOM      2  C   UNL     1      -5.491  -2.978   1.449  1.00  0.00     0.261 C 
BRANCH   2   3
ATOM      3  O   UNL     1      -4.878  -1.871   2.142  1.00  0.00    -0.463 OA
BRANCH   3   4
ATOM      4  C   UNL     1      -3.517  -1.770   2.291  1.00  0.00     0.313 C 
ATOM      5  O   UNL     1      -2.743  -2.699   2.409  1.00  0.00    -0.252 OA
BRANCH   4   6
ATOM      6  C   UNL     1      -3.119  -0.287   2.265  1.00  0.00     0.127 C 
ATOM      7  C   UNL     1      -3.428   0.400   3.594  1.00  0.00     0.025 C 
BRANCH   6   8
ATOM      8  C   UNL     1      -3.789   0.361   1.044  1.00  0.00    -0.026 A 
ATOM      9  C   UNL     1      -3.100   0.532  -0.178  1.00  0.00    -0.014 A 
ATOM     10  C   UNL     1      -3.855   0.844  -1.334  1.00  0.00     0.012 A 
ATOM     11  C   UNL     1      -5.258   0.990  -1.296  1.00  0.00    -0.047 A 
ATOM     12  C   UNL     1      -5.180   0.592   1.083  1.00  0.00     0.005 A 
ATOM     13  C   UNL     1      -5.905   0.869  -0.068  1.00  0.00     0.004 A 
BRANCH   9  14
ATOM     14  C   UNL     1      -1.626   0.452  -0.244  1.00  0.00    -0.018 A 
ATOM     15  C   UNL     1       2.701   0.236  -0.012  1.00  0.00     0.044 C 
ATOM     16  C   UNL     1       1.208   0.326  -0.127  1.00  0.00    -0.051 A 
ATOM     17  C   UNL     1       0.449  -0.837  -0.279  1.00  0.00     0.004 A 
ATOM     18  C   UNL     1       0.545   1.554  -0.041  1.00  0.00     0.004 A 
ATOM     19  C   UNL     1      -0.949  -0.773  -0.331  1.00  0.00     0.009 A 
ATOM     20  C   UNL     1      -0.853   1.615  -0.104  1.00  0.00     0.009 A 
ENDBRANCH   9  14
BRANCH  11  21
ATOM     21  C   UNL     1      -6.058   1.422  -2.505  1.00  0.00     0.047 C 
BRANCH  21  22
ATOM     22  C   UNL     1      -6.994   0.424  -3.197  1.00  0.00     0.060 C 
ATOM     23  C   UNL     1      -6.327  -0.762  -3.891  1.00  0.00     0.012 C 
ATOM     24  C   UNL     1      -8.040  -0.217  -2.317  1.00  0.00     0.136 C 
ATOM     25  C   UNL     1      -6.787  -2.028  -3.184  1.00  0.00     0.009 C 
ATOM     26  C   UNL     1      -8.071  -1.713  -2.438  1.00  0.00     0.076 C 
ATOM     27  O   UNL     1      -8.834   0.416  -1.631  1.00  0.00    -0.299 OA
ENDBRANCH  21  22
ENDBRANCH  11  21
ENDBRANCH   6   8
ENDBRANCH   4   6
ENDBRANCH   3   4
ENDBRANCH   2   3
ENDBRANCH   1   2
BRANCH   1  28
ATOM     28  O   UNL     1      -3.821  -3.576  -0.041  1.00  0.00    -0.374 OA
BRANCH  28  29
ATOM     29  C   UNL     1      -3.213  -3.610  -1.313  1.00  0.00     0.202 C 
BRANCH  29  30
ATOM     30  C   UNL     1      -3.903  -4.555  -2.300  1.00  0.00     0.261 C 
BRANCH  30  31
ATOM     31  O   UNL     1      -3.874  -5.910  -1.811  1.00  0.00    -0.460 OA
BRANCH  31  32
ATOM     32  C   UNL     1      -5.012  -6.334  -1.199  1.00  0.00     0.338 C 
ATOM     33  O   UNL     1      -6.142  -6.249  -1.673  1.00  0.00    -0.246 OA
BRANCH  32  34
ATOM     34  C   UNL     1      -4.734  -6.627   0.234  1.00  0.00     0.060 A 
ATOM     35  C   UNL     1      -5.797  -6.784   1.146  1.00  0.00     0.016 A 
ATOM     36  C   UNL     1      -3.447  -6.385   0.704  1.00  0.00     0.016 A 
ATOM     37  C   UNL     1      -5.595  -6.530   2.511  1.00  0.00     0.010 A 
ATOM     38  C   UNL     1      -3.293  -5.990   2.012  1.00  0.00     0.010 A 
ATOM     39  C   UNL     1      -4.362  -6.034   2.924  1.00  0.00    -0.014 A 
BRANCH  39  40
ATOM     40  C   UNL     1      -4.033  -5.470   4.237  1.00  0.00     0.031 A 
ATOM     41  C   UNL     1      -2.933  -6.130   4.980  1.00  0.00     0.074 A 
ATOM     42  C   UNL     1      -4.474  -4.243   4.626  1.00  0.00     0.049 A 
ATOM     43  N   UNL     1      -2.558  -5.768   6.152  1.00  0.00    -0.248 NA
ATOM     44  C   UNL     1      -2.173  -7.285   4.491  1.00  0.00     0.031 C 
ATOM     45  C   UNL     1      -3.847  -3.304   5.564  1.00  0.00     0.029 A 
ATOM     46  N   UNL     1      -5.625  -3.538   4.240  1.00  0.00    -0.354 N 
ATOM     47  C   UNL     1      -1.356  -6.369   6.419  1.00  0.00     0.074 A 
ATOM     48  C   UNL     1      -1.221  -7.395   5.422  1.00  0.00     0.031 C 
ATOM     49  C   UNL     1      -4.731  -2.350   5.912  1.00  0.00     0.029 A 
ATOM     50  C   UNL     1      -6.001  -2.706   5.305  1.00  0.00     0.049 A 
ATOM     51  H   UNL     1      -6.088  -3.615   3.374  1.00  0.00     0.167 HD
ATOM     52  C   UNL     1      -0.590  -5.819   7.399  1.00  0.00     0.037 A 
ATOM     53  C   UNL     1      -7.211  -2.851   5.907  1.00  0.00     0.037 A 
ATOM     54  C   UNL     1      -1.377  -4.829   8.150  1.00  0.00     0.049 A 
ATOM     55  C   UNL     1      -6.956  -3.260   7.323  1.00  0.00     0.074 A 
ATOM     56  C   UNL     1      -1.371  -3.448   8.221  1.00  0.00     0.029 A 
ATOM     57  N   UNL     1      -2.583  -5.243   8.723  1.00  0.00    -0.354 N 
ATOM     58  N   UNL     1      -5.858  -3.873   7.680  1.00  0.00    -0.248 NA
ATOM     59  C   UNL     1      -7.806  -2.909   8.451  1.00  0.00     0.031 C 
ATOM     60  C   UNL     1      -2.633  -3.039   8.756  1.00  0.00     0.029 A 
ATOM     61  C   UNL     1      -3.385  -4.168   9.053  1.00  0.00     0.049 A 
ATOM     62  H   UNL     1      -2.830  -6.184   8.873  1.00  0.00     0.167 HD
ATOM     63  C   UNL     1      -5.782  -3.897   9.034  1.00  0.00     0.074 A 
ATOM     64  C   UNL     1      -7.046  -3.330   9.477  1.00  0.00     0.031 C 
ATOM     65  C   UNL     1      -4.687  -4.371   9.690  1.00  0.00     0.037 A 
BRANCH  52  66
ATOM     66  C   UNL     1       0.889  -6.060   7.610  1.00  0.00     0.064 A 
ATOM     67  C   UNL     1       1.538  -5.496   8.729  1.00  0.00     0.173 A 
ATOM     68  C   UNL     1       1.747  -6.746   6.721  1.00  0.00     0.173 A 
ATOM     69  F   UNL     1       0.855  -4.792   9.643  1.00  0.00    -0.203 F 
ATOM     70  C   UNL     1       2.916  -5.620   8.944  1.00  0.00     0.198 A 
ATOM     71  C   UNL     1       3.115  -6.913   6.963  1.00  0.00     0.198 A 
ATOM     72  F   UNL     1       1.323  -7.235   5.552  1.00  0.00    -0.203 F 
ATOM     73  F   UNL     1       3.481  -5.023  10.003  1.00  0.00    -0.200 F 
ATOM     74  C   UNL     1       3.702  -6.343   8.070  1.00  0.00     0.200 A 
ATOM     75  F   UNL     1       3.861  -7.613   6.096  1.00  0.00    -0.200 F 
ATOM     76  F   UNL     1       5.018  -6.473   8.281  1.00  0.00    -0.200 F 
ENDBRANCH  52  66
BRANCH  53  77
ATOM     77  C   UNL     1      -8.252  -3.323   4.945  1.00  0.00     0.064 A 
ATOM     78  C   UNL     1      -8.628  -2.416   3.926  1.00  0.00     0.173 A 
ATOM     79  C   UNL     1      -8.454  -4.687   4.687  1.00  0.00     0.173 A 
ATOM     80  F   UNL     1      -8.439  -1.098   4.103  1.00  0.00    -0.203 F 
ATOM     81  C   UNL     1      -9.027  -2.858   2.663  1.00  0.00     0.198 A 
ATOM     82  C   UNL     1      -8.859  -5.123   3.419  1.00  0.00     0.198 A 
ATOM     83  F   UNL     1      -8.114  -5.605   5.602  1.00  0.00    -0.203 F 
ATOM     84  F   UNL     1      -9.197  -1.976   1.667  1.00  0.00    -0.200 F 
ATOM     85  C   UNL     1      -9.095  -4.214   2.398  1.00  0.00     0.200 A 
ATOM     86  F   UNL     1      -8.908  -6.436   3.148  1.00  0.00    -0.200 F 
ATOM     87  F   UNL     1      -9.309  -4.642   1.144  1.00  0.00    -0.200 F 
ENDBRANCH  53  77
BRANCH  65  88
ATOM     88  C   UNL     1      -4.784  -5.026  11.039  1.00  0.00     0.064 A 
ATOM     89  C   UNL     1      -5.988  -5.540  11.556  1.00  0.00     0.173 A 
ATOM     90  C   UNL     1      -3.622  -5.331  11.781  1.00  0.00     0.173 A 
ATOM     91  F   UNL     1      -7.140  -5.469  10.876  1.00  0.00    -0.203 F 
ATOM     92  C   UNL     1      -6.041  -6.212  12.774  1.00  0.00     0.198 A 
ATOM     93  C   UNL     1      -3.670  -6.078  12.954  1.00  0.00     0.198 A 
ATOM     94  F   UNL     1      -2.402  -4.956  11.373  1.00  0.00    -0.203 F 
ATOM     95  F   UNL     1      -7.225  -6.617  13.252  1.00  0.00    -0.200 F 
ATOM     96  C   UNL     1      -4.881  -6.491  13.467  1.00  0.00     0.200 A 
ATOM     97  F   UNL     1      -2.528  -6.414  13.571  1.00  0.00    -0.200 F 
ATOM     98  F   UNL     1      -4.929  -7.181  14.613  1.00  0.00    -0.200 F 
ENDBRANCH  65  88
ENDBRANCH  39  40
ENDBRANCH  32  34
ENDBRANCH  31  32
ENDBRANCH  30  31
ENDBRANCH  29  30
ENDBRANCH  28  29
ENDBRANCH   1  28
TORSDOF 18
