REMARK SMILES C[C@@H](CC(=O)OCCOCCOC(=O)c1ccc(-c2c3nc(c(-c4c(F)c(F)c(F)c(F)c4F)c4ccc([nH]4)c(-c4c(F)c(F)c(F)c(F)c4F)c4nc(c(-c5c(F)c(F)c(F)c(F)c5F)c5ccc2[nH]5)C=C4)C=C3)cc1)NC(=O)c1ccc(O)cc1
REMARK SMILES IDX 8 1 7 2 6 3 4 4 5 5 3 6 2 7 1 8 78 9 79 10 80 12 81 13 82 14
REMARK SMILES IDX 87 15 83 16 86 17 84 18 85 19 9 21 10 22 11 23 12 24 13 25
REMARK SMILES IDX 14 26 15 27 16 28 77 29 17 30 76 31 18 32 19 33 20 34 70 35
REMARK SMILES IDX 21 36 75 37 69 38 71 39 22 40 74 41 68 42 67 43 23 45 55 46
REMARK SMILES IDX 35 47 54 48 36 49 39 50 53 51 72 52 37 53 38 54 52 56 73 57
REMARK SMILES IDX 40 58 24 59 25 60 33 61 26 62 27 63 31 64 34 65 28 66 29 67
REMARK SMILES IDX 32 68 30 69 56 70 57 71 65 72 58 73 59 74 63 75 66 76 60 77
REMARK SMILES IDX 61 78 64 79 62 80 41 81 42 82 50 83 43 84 44 85 48 86 51 87
REMARK SMILES IDX 45 88 46 89 49 90 47 91
REMARK H PARENT 78 11 85 20 71 44 39 55
REMARK Flexibility Score: inf
ROOT
ATOM      1  C   UNL     1      -0.695  -4.561   0.289  1.00  0.00     0.202 C 
ENDROOT
BRANCH   1   2
ATOM      2  C   UNL     1       0.737  -4.168  -0.075  1.00  0.00     0.261 C 
BRANCH   2   3
ATOM      3  O   UNL     1       0.833  -2.770  -0.411  1.00  0.00    -0.463 OA
BRANCH   3   4
ATOM      4  C   UNL     1       1.603  -2.489  -1.487  1.00  0.00     0.307 C 
ATOM      5  O   UNL     1       2.246  -3.322  -2.119  1.00  0.00    -0.252 OA
BRANCH   4   6
ATOM      6  C   UNL     1       1.580  -1.043  -1.923  1.00  0.00     0.147 C 
BRANCH   6   7
ATOM      7  C   UNL     1       0.993   0.065  -1.040  1.00  0.00     0.090 C 
ATOM      8  C   UNL     1       1.421   0.016   0.423  1.00  0.00     0.031 C 
BRANCH   7   9
ATOM      9  N   UNL     1      -0.462   0.160  -1.145  1.00  0.00    -0.349 N 
ATOM     10  C   UNL     1      -1.247   1.049  -1.843  1.00  0.00     0.251 C 
ATOM     11  H   UNL     1      -0.960  -0.520  -0.635  1.00  0.00     0.164 HD
ATOM     12  O   UNL     1      -2.467   1.016  -1.706  1.00  0.00    -0.269 OA
BRANCH  10  13
ATOM     13  C   UNL     1      -0.639   2.081  -2.715  1.00  0.00     0.040 A 
ATOM     14  C   UNL     1      -0.998   3.419  -2.514  1.00  0.00     0.017 A 
ATOM     15  C   UNL     1       0.243   1.748  -3.750  1.00  0.00     0.017 A 
ATOM     16  C   UNL     1      -0.419   4.422  -3.295  1.00  0.00     0.047 A 
ATOM     17  C   UNL     1       0.833   2.753  -4.522  1.00  0.00     0.047 A 
ATOM     18  C   UNL     1       0.506   4.083  -4.277  1.00  0.00     0.115 A 
BRANCH  18  19
ATOM     19  O   UNL     1       1.073   5.096  -4.992  1.00  0.00    -0.508 OA
ATOM     20  H   UNL     1       0.839   5.985  -4.811  1.00  0.00     0.293 HD
ENDBRANCH  18  19
ENDBRANCH  10  13
ENDBRANCH   7   9
ENDBRANCH   6   7
ENDBRANCH   4   6
ENDBRANCH   3   4
ENDBRANCH   2   3
ENDBRANCH   1   2
BRANCH   1  21
ATOM     21  O   UNL     1      -1.645  -4.440  -0.768  1.00  0.00    -0.374 OA
BRANCH  21  22
ATOM     22  C   UNL     1      -2.054  -3.121  -1.142  1.00  0.00     0.202 C 
BRANCH  22  23
ATOM     23  C   UNL     1      -2.909  -2.385  -0.103  1.00  0.00     0.261 C 
BRANCH  23  24
ATOM     24  O   UNL     1      -2.131  -2.014   1.057  1.00  0.00    -0.460 OA
BRANCH  24  25
ATOM     25  C   UNL     1      -2.742  -2.284   2.237  1.00  0.00     0.338 C 
ATOM     26  O   UNL     1      -3.894  -2.660   2.408  1.00  0.00    -0.246 OA
BRANCH  25  27
ATOM     27  C   UNL     1      -1.779  -2.248   3.351  1.00  0.00     0.060 A 
ATOM     28  C   UNL     1      -1.527  -3.450   4.026  1.00  0.00     0.016 A 
ATOM     29  C   UNL     1      -1.257  -1.045   3.831  1.00  0.00     0.016 A 
ATOM     30  C   UNL     1      -0.796  -3.446   5.214  1.00  0.00     0.010 A 
ATOM     31  C   UNL     1      -0.527  -1.044   5.029  1.00  0.00     0.010 A 
ATOM     32  C   UNL     1      -0.328  -2.238   5.748  1.00  0.00    -0.014 A 
BRANCH  32  33
ATOM     33  C   UNL     1       0.235  -2.223   7.124  1.00  0.00     0.031 A 
ATOM     34  C   UNL     1      -0.643  -1.814   8.278  1.00  0.00     0.074 A 
ATOM     35  C   UNL     1       1.496  -2.627   7.361  1.00  0.00     0.049 A 
ATOM     36  N   UNL     1      -0.362  -1.752   9.556  1.00  0.00    -0.248 NA
ATOM     37  C   UNL     1      -2.024  -1.431   7.947  1.00  0.00     0.031 C 
ATOM     38  C   UNL     1       2.438  -3.089   6.345  1.00  0.00     0.029 A 
ATOM     39  N   UNL     1       2.199  -2.715   8.538  1.00  0.00    -0.354 N 
ATOM     40  C   UNL     1      -1.527  -1.325  10.180  1.00  0.00     0.074 A 
ATOM     41  C   UNL     1      -2.510  -1.115   9.138  1.00  0.00     0.031 C 
ATOM     42  C   UNL     1       3.598  -3.412   6.942  1.00  0.00     0.029 A 
ATOM     43  C   UNL     1       3.489  -3.154   8.377  1.00  0.00     0.049 A 
ATOM     44  H   UNL     1       1.813  -2.486   9.414  1.00  0.00     0.167 HD
ATOM     45  C   UNL     1      -1.763  -1.138  11.501  1.00  0.00     0.037 A 
ATOM     46  C   UNL     1       4.474  -3.316   9.282  1.00  0.00     0.037 A 
ATOM     47  C   UNL     1      -0.793  -1.349  12.544  1.00  0.00     0.049 A 
ATOM     48  C   UNL     1       4.210  -3.027  10.737  1.00  0.00     0.074 A 
ATOM     49  C   UNL     1      -0.951  -1.202  13.912  1.00  0.00     0.029 A 
ATOM     50  N   UNL     1       0.518  -1.745  12.335  1.00  0.00    -0.354 N 
ATOM     51  N   UNL     1       3.098  -2.650  11.318  1.00  0.00    -0.248 NA
ATOM     52  C   UNL     1       5.342  -3.191  11.663  1.00  0.00     0.031 C 
ATOM     53  C   UNL     1       0.278  -1.465  14.527  1.00  0.00     0.029 A 
ATOM     54  C   UNL     1       1.189  -1.821  13.546  1.00  0.00     0.049 A 
ATOM     55  H   UNL     1       0.915  -1.943  11.456  1.00  0.00     0.167 HD
ATOM     56  C   UNL     1       3.386  -2.557  12.674  1.00  0.00     0.074 A 
ATOM     57  C   UNL     1       4.776  -2.928  12.833  1.00  0.00     0.031 C 
ATOM     58  C   UNL     1       2.571  -2.197  13.695  1.00  0.00     0.037 A 
BRANCH  45  59
ATOM     59  C   UNL     1      -3.128  -0.660  11.898  1.00  0.00     0.064 A 
ATOM     60  C   UNL     1      -4.244  -1.510  11.860  1.00  0.00     0.173 A 
ATOM     61  C   UNL     1      -3.314   0.651  12.362  1.00  0.00     0.173 A 
ATOM     62  F   UNL     1      -4.119  -2.768  11.414  1.00  0.00    -0.203 F 
ATOM     63  C   UNL     1      -5.501  -1.057  12.253  1.00  0.00     0.198 A 
ATOM     64  C   UNL     1      -4.567   1.092  12.777  1.00  0.00     0.198 A 
ATOM     65  F   UNL     1      -2.277   1.500  12.423  1.00  0.00    -0.203 F 
ATOM     66  F   UNL     1      -6.560  -1.873  12.174  1.00  0.00    -0.200 F 
ATOM     67  C   UNL     1      -5.660   0.241  12.716  1.00  0.00     0.200 A 
ATOM     68  F   UNL     1      -4.717   2.343  13.236  1.00  0.00    -0.200 F 
ATOM     69  F   UNL     1      -6.869   0.673  13.101  1.00  0.00    -0.200 F 
ENDBRANCH  45  59
BRANCH  46  70
ATOM     70  C   UNL     1       5.818  -3.770   8.839  1.00  0.00     0.064 A 
ATOM     71  C   UNL     1       6.303  -5.040   9.180  1.00  0.00     0.173 A 
ATOM     72  C   UNL     1       6.652  -2.932   8.084  1.00  0.00     0.173 A 
ATOM     73  F   UNL     1       5.553  -5.865   9.926  1.00  0.00    -0.203 F 
ATOM     74  C   UNL     1       7.577  -5.450   8.795  1.00  0.00     0.198 A 
ATOM     75  C   UNL     1       7.916  -3.353   7.678  1.00  0.00     0.198 A 
ATOM     76  F   UNL     1       6.235  -1.706   7.737  1.00  0.00    -0.203 F 
ATOM     77  F   UNL     1       8.034  -6.652   9.171  1.00  0.00    -0.200 F 
ATOM     78  C   UNL     1       8.380  -4.608   8.039  1.00  0.00     0.200 A 
ATOM     79  F   UNL     1       8.684  -2.540   6.940  1.00  0.00    -0.200 F 
ATOM     80  F   UNL     1       9.605  -5.004   7.667  1.00  0.00    -0.200 F 
ENDBRANCH  46  70
BRANCH  58  81
ATOM     81  C   UNL     1       3.147  -2.215  15.082  1.00  0.00     0.064 A 
ATOM     82  C   UNL     1       4.057  -1.239  15.512  1.00  0.00     0.173 A 
ATOM     83  C   UNL     1       2.751  -3.197  16.003  1.00  0.00     0.173 A 
ATOM     84  F   UNL     1       4.478  -0.289  14.665  1.00  0.00    -0.203 F 
ATOM     85  C   UNL     1       4.567  -1.258  16.808  1.00  0.00     0.198 A 
ATOM     86  C   UNL     1       3.242  -3.197  17.306  1.00  0.00     0.198 A 
ATOM     87  F   UNL     1       1.877  -4.149  15.643  1.00  0.00    -0.203 F 
ATOM     88  F   UNL     1       5.468  -0.341  17.186  1.00  0.00    -0.200 F 
ATOM     89  C   UNL     1       4.154  -2.232  17.706  1.00  0.00     0.200 A 
ATOM     90  F   UNL     1       2.834  -4.133  18.175  1.00  0.00    -0.200 F 
ATOM     91  F   UNL     1       4.641  -2.245  18.954  1.00  0.00    -0.200 F 
ENDBRANCH  58  81
ENDBRANCH  32  33
ENDBRANCH  25  27
ENDBRANCH  24  25
ENDBRANCH  23  24
ENDBRANCH  22  23
ENDBRANCH  21  22
ENDBRANCH   1  21
TORSDOF 18
