REMARK SMILES Cc1cc(C)c2c(=O)n(CCCC(=O)OCCOCCOC(=O)c3ccc(-c4c5nc(c(-c6c(F)c(F)c(F)c(F)c6F)c6ccc([nH]6)c(-c6c(F)c(F)c(F)c(F)c6F)c6nc(c(-c7c(F)c(F)c(F)c(F)c7F)c7ccc4[nH]7)C=C6)C=C5)cc3)sc2n1
REMARK SMILES IDX 17 1 16 2 15 3 13 4 14 5 12 6 11 7 10 8 9 9 1 10 2 11 3 12
REMARK SMILES IDX 89 13 4 14 88 15 5 16 6 17 87 18 7 19 8 20 18 21 19 22 20 23
REMARK SMILES IDX 21 24 22 25 23 26 24 27 25 28 86 29 26 30 85 31 27 32 28 33
REMARK SMILES IDX 29 34 79 35 30 36 84 37 78 38 80 39 31 40 83 41 77 42 76 43
REMARK SMILES IDX 32 45 64 46 44 47 63 48 45 49 48 50 62 51 81 52 46 53 47 54
REMARK SMILES IDX 61 56 82 57 49 58 33 59 34 60 42 61 35 62 36 63 40 64 43 65
REMARK SMILES IDX 37 66 38 67 41 68 39 69 65 70 66 71 74 72 67 73 68 74 72 75
REMARK SMILES IDX 75 76 69 77 70 78 73 79 71 80 50 81 51 82 59 83 52 84 53 85
REMARK SMILES IDX 57 86 60 87 54 88 55 89 58 90 56 91
REMARK H PARENT 80 44 48 55
REMARK Flexibility Score: inf
ROOT
ATOM      1  C   UNL     1      -4.644   2.362   7.615  1.00  0.00     0.202 C 
ENDROOT
BRANCH   1   2
ATOM      2  C   UNL     1      -3.757   2.417   6.375  1.00  0.00     0.261 C 
BRANCH   2   3
ATOM      3  O   UNL     1      -2.565   1.646   6.587  1.00  0.00    -0.463 OA
BRANCH   3   4
ATOM      4  C   UNL     1      -1.387   2.308   6.495  1.00  0.00     0.305 C 
ATOM      5  O   UNL     1      -1.268   3.494   6.210  1.00  0.00    -0.252 OA
BRANCH   4   6
ATOM      6  C   UNL     1      -0.191   1.433   6.818  1.00  0.00     0.124 C 
BRANCH   6   7
ATOM      7  C   UNL     1      -0.402   0.016   7.368  1.00  0.00     0.035 C 
BRANCH   7   8
ATOM      8  C   UNL     1      -1.315  -0.966   6.615  1.00  0.00     0.139 C 
BRANCH   8   9
ATOM      9  N   UNL     1      -1.024  -1.132   5.206  1.00  0.00    -0.262 N 
ATOM     10  C   UNL     1       1.170  -0.103  -0.347  1.00  0.00     0.067 C 
ATOM     11  C   UNL     1       0.674  -0.815   0.874  1.00  0.00     0.039 A 
ATOM     12  C   UNL     1       1.010  -2.155   1.119  1.00  0.00     0.027 A 
ATOM     13  N   UNL     1      -0.082  -0.086   1.719  1.00  0.00    -0.241 NA
ATOM     14  C   UNL     1       0.621  -2.771   2.322  1.00  0.00    -0.033 A 
ATOM     15  C   UNL     1      -0.426  -0.697   2.860  1.00  0.00     0.146 A 
ATOM     16  C   UNL     1       0.922  -4.211   2.590  1.00  0.00     0.045 C 
ATOM     17  C   UNL     1      -0.057  -1.976   3.234  1.00  0.00     0.081 A 
ATOM     18  S   UNL     1      -1.421   0.090   4.079  1.00  0.00    -0.035 S 
ATOM     19  C   UNL     1      -0.406  -2.244   4.649  1.00  0.00     0.270 A 
ATOM     20  O   UNL     1      -0.118  -3.280   5.228  1.00  0.00    -0.268 OA
ENDBRANCH   8   9
ENDBRANCH   7   8
ENDBRANCH   6   7
ENDBRANCH   4   6
ENDBRANCH   3   4
ENDBRANCH   2   3
ENDBRANCH   1   2
BRANCH   1  21
ATOM     21  O   UNL     1      -4.120   2.948   8.807  1.00  0.00    -0.374 OA
BRANCH  21  22
ATOM     22  C   UNL     1      -2.998   2.354   9.451  1.00  0.00     0.202 C 
BRANCH  22  23
ATOM     23  C   UNL     1      -3.227   1.055  10.210  1.00  0.00     0.261 C 
BRANCH  23  24
ATOM     24  O   UNL     1      -3.641  -0.010   9.363  1.00  0.00    -0.460 OA
BRANCH  24  25
ATOM     25  C   UNL     1      -4.970  -0.264   9.433  1.00  0.00     0.338 C 
ATOM     26  O   UNL     1      -5.834   0.456   9.890  1.00  0.00    -0.246 OA
BRANCH  25  27
ATOM     27  C   UNL     1      -5.209  -1.654   9.031  1.00  0.00     0.060 A 
ATOM     28  C   UNL     1      -6.513  -2.115   9.210  1.00  0.00     0.016 A 
ATOM     29  C   UNL     1      -4.136  -2.528   8.802  1.00  0.00     0.016 A 
ATOM     30  C   UNL     1      -6.697  -3.461   9.409  1.00  0.00     0.010 A 
ATOM     31  C   UNL     1      -4.324  -3.877   8.987  1.00  0.00     0.010 A 
ATOM     32  C   UNL     1      -5.581  -4.310   9.388  1.00  0.00    -0.014 A 
BRANCH  32  33
ATOM     33  C   UNL     1      -5.809  -5.706   9.684  1.00  0.00     0.031 A 
ATOM     34  C   UNL     1      -6.618  -6.354   8.632  1.00  0.00     0.074 A 
ATOM     35  C   UNL     1      -5.316  -6.318  10.777  1.00  0.00     0.049 A 
ATOM     36  N   UNL     1      -7.843  -6.748   8.729  1.00  0.00    -0.248 NA
ATOM     37  C   UNL     1      -6.085  -6.359   7.260  1.00  0.00     0.031 C 
ATOM     38  C   UNL     1      -4.333  -5.819  11.740  1.00  0.00     0.029 A 
ATOM     39  N   UNL     1      -5.559  -7.582  11.220  1.00  0.00    -0.354 N 
ATOM     40  C   UNL     1      -8.170  -7.246   7.475  1.00  0.00     0.074 A 
ATOM     41  C   UNL     1      -7.139  -6.804   6.575  1.00  0.00     0.031 C 
ATOM     42  C   UNL     1      -3.900  -6.845  12.512  1.00  0.00     0.029 A 
ATOM     43  C   UNL     1      -4.675  -8.031  12.195  1.00  0.00     0.049 A 
ATOM     44  H   UNL     1      -6.301  -8.132  10.880  1.00  0.00     0.167 HD
ATOM     45  C   UNL     1      -9.102  -8.228   7.359  1.00  0.00     0.037 A 
ATOM     46  C   UNL     1      -4.569  -9.311  12.638  1.00  0.00     0.037 A 
ATOM     47  C   UNL     1      -9.964  -8.252   8.516  1.00  0.00     0.049 A 
ATOM     48  C   UNL     1      -5.850  -9.987  12.311  1.00  0.00     0.074 A 
ATOM     49  C   UNL     1     -10.855  -7.365   9.087  1.00  0.00     0.029 A 
ATOM     50  N   UNL     1      -9.682  -9.182   9.485  1.00  0.00    -0.354 N 
ATOM     51  N   UNL     1      -6.989  -9.690  12.872  1.00  0.00    -0.248 NA
ATOM     52  C   UNL     1      -5.941 -10.673  11.031  1.00  0.00     0.031 C 
ATOM     53  C   UNL     1     -10.722  -7.553  10.495  1.00  0.00     0.029 A 
ATOM     54  C   UNL     1      -9.808  -8.586  10.710  1.00  0.00     0.049 A 
ATOM     55  H   UNL     1      -9.432 -10.120   9.325  1.00  0.00     0.167 HD
ATOM     56  C   UNL     1      -7.914  -9.750  11.840  1.00  0.00     0.074 A 
ATOM     57  C   UNL     1      -7.226 -10.441  10.751  1.00  0.00     0.031 C 
ATOM     58  C   UNL     1      -9.038  -8.977  11.869  1.00  0.00     0.037 A 
BRANCH  45  59
ATOM     59  C   UNL     1      -8.925  -9.427   6.456  1.00  0.00     0.064 A 
ATOM     60  C   UNL     1      -9.956 -10.386   6.402  1.00  0.00     0.173 A 
ATOM     61  C   UNL     1      -7.689  -9.836   5.905  1.00  0.00     0.173 A 
ATOM     62  F   UNL     1     -11.168 -10.116   6.912  1.00  0.00    -0.203 F 
ATOM     63  C   UNL     1      -9.736 -11.680   5.925  1.00  0.00     0.198 A 
ATOM     64  C   UNL     1      -7.489 -11.111   5.382  1.00  0.00     0.198 A 
ATOM     65  F   UNL     1      -6.590  -9.077   5.948  1.00  0.00    -0.203 F 
ATOM     66  F   UNL     1     -10.707 -12.597   6.024  1.00  0.00    -0.200 F 
ATOM     67  C   UNL     1      -8.501 -12.043   5.422  1.00  0.00     0.200 A 
ATOM     68  F   UNL     1      -6.276 -11.447   4.920  1.00  0.00    -0.200 F 
ATOM     69  F   UNL     1      -8.268 -13.301   5.026  1.00  0.00    -0.200 F 
ENDBRANCH  45  59
BRANCH  46  70
ATOM     70  C   UNL     1      -3.336 -10.084  12.945  1.00  0.00     0.064 A 
ATOM     71  C   UNL     1      -3.417 -11.351  13.553  1.00  0.00     0.173 A 
ATOM     72  C   UNL     1      -2.093  -9.748  12.375  1.00  0.00     0.173 A 
ATOM     73  F   UNL     1      -4.574 -11.771  14.084  1.00  0.00    -0.203 F 
ATOM     74  C   UNL     1      -2.337 -12.241  13.549  1.00  0.00     0.198 A 
ATOM     75  C   UNL     1      -1.014 -10.635  12.377  1.00  0.00     0.198 A 
ATOM     76  F   UNL     1      -1.928  -8.594  11.714  1.00  0.00    -0.203 F 
ATOM     77  F   UNL     1      -2.478 -13.468  14.072  1.00  0.00    -0.200 F 
ATOM     78  C   UNL     1      -1.141 -11.888  12.948  1.00  0.00     0.200 A 
ATOM     79  F   UNL     1       0.126 -10.295  11.760  1.00  0.00    -0.200 F 
ATOM     80  F   UNL     1      -0.129 -12.764  12.881  1.00  0.00    -0.200 F 
ENDBRANCH  46  70
BRANCH  58  81
ATOM     81  C   UNL     1      -9.393  -8.299  13.163  1.00  0.00     0.064 A 
ATOM     82  C   UNL     1      -8.632  -7.277  13.756  1.00  0.00     0.173 A 
ATOM     83  C   UNL     1     -10.647  -8.580  13.721  1.00  0.00     0.173 A 
ATOM     84  F   UNL     1      -7.459  -6.896  13.232  1.00  0.00    -0.203 F 
ATOM     85  C   UNL     1      -9.106  -6.580  14.868  1.00  0.00     0.198 A 
ATOM     86  C   UNL     1     -11.133  -7.859  14.807  1.00  0.00     0.198 A 
ATOM     87  F   UNL     1     -11.432  -9.517  13.167  1.00  0.00    -0.203 F 
ATOM     88  F   UNL     1      -8.367  -5.604  15.417  1.00  0.00    -0.200 F 
ATOM     89  C   UNL     1     -10.362  -6.862  15.382  1.00  0.00     0.200 A 
ATOM     90  F   UNL     1     -12.366  -8.105  15.270  1.00  0.00    -0.200 F 
ATOM     91  F   UNL     1     -10.842  -6.154  16.414  1.00  0.00    -0.200 F 
ENDBRANCH  58  81
ENDBRANCH  32  33
ENDBRANCH  25  27
ENDBRANCH  24  25
ENDBRANCH  23  24
ENDBRANCH  22  23
ENDBRANCH  21  22
ENDBRANCH   1  21
TORSDOF 17
