REMARK SMILES C[C@H](Oc1ccccc1[N+](=O)[O-])C(=O)N1CCC[C@H](C(=O)OCCOCCOC(=O)c2ccc(-c3c4nc(c(-c5c(F)c(F)c(F)c(F)c5F)c5ccc([nH]5)c(-c5c(F)c(F)c(F)c(F)c5F)c5nc(c(-c6c(F)c(F)c(F)c(F)c6F)c6ccc3[nH]6)C=C5)C=C4)cc2)C1
REMARK SMILES IDX 23 1 22 2 20 3 21 4 19 5 15 6 16 7 94 8 17 9 18 10 13 11
REMARK SMILES IDX 14 12 2 13 1 14 3 15 4 16 5 17 9 18 6 19 8 20 7 21 10 22
REMARK SMILES IDX 11 23 12 24 24 25 25 26 26 27 27 28 28 29 29 30 30 31 31 32
REMARK SMILES IDX 32 33 93 34 33 35 92 36 34 37 35 38 36 39 86 40 37 41 91 42
REMARK SMILES IDX 85 43 87 44 38 45 90 46 84 47 83 48 39 50 71 51 51 52 70 53
REMARK SMILES IDX 52 54 55 55 69 56 88 57 53 58 54 59 68 61 89 62 56 63 40 64
REMARK SMILES IDX 41 65 49 66 42 67 43 68 47 69 50 70 44 71 45 72 48 73 46 74
REMARK SMILES IDX 72 75 73 76 81 77 74 78 75 79 79 80 82 81 76 82 77 83 80 84
REMARK SMILES IDX 78 85 57 86 58 87 66 88 59 89 60 90 64 91 67 92 61 93 62 94
REMARK SMILES IDX 65 95 63 96
REMARK H PARENT 87 49 55 60
REMARK Flexibility Score: inf
ROOT
ATOM      1  C   UNL     1      -2.399  -2.309   0.979  1.00  0.00     0.261 C 
ENDROOT
BRANCH   1   2
ATOM      2  O   UNL     1      -2.463  -1.204   0.054  1.00  0.00    -0.463 OA
BRANCH   2   3
ATOM      3  C   UNL     1      -1.935  -1.384  -1.181  1.00  0.00     0.310 C 
ATOM      4  O   UNL     1      -1.398  -2.409  -1.575  1.00  0.00    -0.252 OA
BRANCH   3   5
ATOM      5  C   UNL     1      -2.109  -0.167  -2.072  1.00  0.00     0.119 C 
ATOM      6  N   UNL     1      -1.516   1.627  -0.496  1.00  0.00    -0.339 N 
ATOM      7  C   UNL     1      -2.836   2.246  -0.568  1.00  0.00     0.119 C 
ATOM      8  C   UNL     1      -1.100   0.914  -1.702  1.00  0.00     0.134 C 
ATOM      9  C   UNL     1      -3.924   1.239  -0.921  1.00  0.00     0.022 C 
ATOM     10  C   UNL     1      -3.541   0.384  -2.131  1.00  0.00     0.019 C 
BRANCH   6  11
ATOM     11  C   UNL     1      -0.794   1.681   0.698  1.00  0.00     0.263 C 
ATOM     12  O   UNL     1      -1.345   1.926   1.776  1.00  0.00    -0.271 OA
BRANCH  11  13
ATOM     13  C   UNL     1       0.758   1.648   0.614  1.00  0.00     0.259 C 
ATOM     14  C   UNL     1       1.131   2.865  -0.251  1.00  0.00     0.064 C 
BRANCH  13  15
ATOM     15  O   UNL     1       1.217   0.360   0.196  1.00  0.00    -0.474 OA
BRANCH  15  16
ATOM     16  C   UNL     1       2.477   0.123  -0.274  1.00  0.00     0.197 A 
ATOM     17  C   UNL     1       3.533   1.032  -0.219  1.00  0.00     0.054 A 
ATOM     18  C   UNL     1       2.723  -1.101  -0.921  1.00  0.00     0.310 A 
ATOM     19  C   UNL     1       4.720   0.808  -0.931  1.00  0.00     0.004 A 
ATOM     20  C   UNL     1       3.912  -1.340  -1.633  1.00  0.00     0.090 A 
ATOM     21  C   UNL     1       4.898  -0.361  -1.664  1.00  0.00     0.007 A 
BRANCH  18  22
ATOM     22  N   UNL     1       1.773  -2.205  -0.831  1.00  0.00     0.066 N 
ATOM     23  O   UNL     1       1.619  -2.891  -1.851  1.00  0.00    -0.258 OA
ATOM     24  O   UNL     1       1.255  -2.431   0.272  1.00  0.00    -0.258 OA
ENDBRANCH  18  22
ENDBRANCH  15  16
ENDBRANCH  13  15
ENDBRANCH  11  13
ENDBRANCH   6  11
ENDBRANCH   3   5
ENDBRANCH   2   3
ENDBRANCH   1   2
BRANCH   1  25
ATOM     25  C   UNL     1      -3.808  -2.815   1.308  1.00  0.00     0.202 C 
BRANCH  25  26
ATOM     26  O   UNL     1      -4.381  -3.706   0.346  1.00  0.00    -0.374 OA
BRANCH  26  27
ATOM     27  C   UNL     1      -4.844  -3.122  -0.868  1.00  0.00     0.202 C 
BRANCH  27  28
ATOM     28  C   UNL     1      -6.287  -2.609  -0.836  1.00  0.00     0.261 C 
BRANCH  28  29
ATOM     29  O   UNL     1      -6.475  -1.600   0.172  1.00  0.00    -0.460 OA
BRANCH  29  30
ATOM     30  C   UNL     1      -7.166  -2.027   1.254  1.00  0.00     0.338 C 
ATOM     31  O   UNL     1      -7.726  -3.108   1.395  1.00  0.00    -0.246 OA
BRANCH  30  32
ATOM     32  C   UNL     1      -7.080  -1.056   2.358  1.00  0.00     0.060 A 
ATOM     33  C   UNL     1      -6.800  -1.571   3.628  1.00  0.00     0.016 A 
ATOM     34  C   UNL     1      -7.379   0.301   2.194  1.00  0.00     0.016 A 
ATOM     35  C   UNL     1      -6.896  -0.752   4.749  1.00  0.00     0.010 A 
ATOM     36  C   UNL     1      -7.472   1.125   3.324  1.00  0.00     0.010 A 
ATOM     37  C   UNL     1      -7.281   0.589   4.610  1.00  0.00    -0.014 A 
BRANCH  37  38
ATOM     38  C   UNL     1      -7.622   1.351   5.838  1.00  0.00     0.031 A 
ATOM     39  C   UNL     1      -9.066   1.488   6.242  1.00  0.00     0.074 A 
ATOM     40  C   UNL     1      -6.653   1.822   6.641  1.00  0.00     0.049 A 
ATOM     41  N   UNL     1      -9.579   1.996   7.335  1.00  0.00    -0.248 NA
ATOM     42  C   UNL     1     -10.066   0.983   5.288  1.00  0.00     0.031 C 
ATOM     43  C   UNL     1      -5.219   1.735   6.372  1.00  0.00     0.029 A 
ATOM     44  N   UNL     1      -6.731   2.449   7.860  1.00  0.00    -0.354 N 
ATOM     45  C   UNL     1     -10.956   1.862   7.204  1.00  0.00     0.074 A 
ATOM     46  C   UNL     1     -11.202   1.266   5.909  1.00  0.00     0.031 C 
ATOM     47  C   UNL     1      -4.550   2.276   7.404  1.00  0.00     0.029 A 
ATOM     48  C   UNL     1      -5.507   2.756   8.399  1.00  0.00     0.049 A 
ATOM     49  H   UNL     1      -7.585   2.658   8.305  1.00  0.00     0.167 HD
ATOM     50  C   UNL     1     -11.927   2.188   8.091  1.00  0.00     0.037 A 
ATOM     51  C   UNL     1      -5.196   3.351   9.566  1.00  0.00     0.037 A 
ATOM     52  C   UNL     1     -11.686   2.777   9.382  1.00  0.00     0.049 A 
ATOM     53  C   UNL     1      -6.297   3.736  10.520  1.00  0.00     0.074 A 
ATOM     54  C   UNL     1     -12.604   3.128  10.357  1.00  0.00     0.029 A 
ATOM     55  N   UNL     1     -10.433   3.107   9.877  1.00  0.00    -0.354 N 
ATOM     56  N   UNL     1      -7.591   3.567  10.405  1.00  0.00    -0.248 NA
ATOM     57  C   UNL     1      -5.887   4.381  11.776  1.00  0.00     0.031 C 
ATOM     58  C   UNL     1     -11.910   3.710  11.424  1.00  0.00     0.029 A 
ATOM     59  C   UNL     1     -10.556   3.677  11.135  1.00  0.00     0.049 A 
ATOM     60  H   UNL     1      -9.582   2.958   9.405  1.00  0.00     0.167 HD
ATOM     61  C   UNL     1      -8.147   4.060  11.579  1.00  0.00     0.074 A 
ATOM     62  C   UNL     1      -7.047   4.517  12.401  1.00  0.00     0.031 C 
ATOM     63  C   UNL     1      -9.452   4.128  11.943  1.00  0.00     0.037 A 
BRANCH  50  64
ATOM     64  C   UNL     1     -13.348   1.927   7.686  1.00  0.00     0.064 A 
ATOM     65  C   UNL     1     -13.868   0.625   7.627  1.00  0.00     0.173 A 
ATOM     66  C   UNL     1     -14.209   2.993   7.387  1.00  0.00     0.173 A 
ATOM     67  F   UNL     1     -13.081  -0.429   7.891  1.00  0.00    -0.203 F 
ATOM     68  C   UNL     1     -15.193   0.399   7.262  1.00  0.00     0.198 A 
ATOM     69  C   UNL     1     -15.540   2.765   7.047  1.00  0.00     0.198 A 
ATOM     70  F   UNL     1     -13.762   4.257   7.432  1.00  0.00    -0.203 F 
ATOM     71  F   UNL     1     -15.657  -0.855   7.172  1.00  0.00    -0.200 F 
ATOM     72  C   UNL     1     -16.029   1.469   6.979  1.00  0.00     0.200 A 
ATOM     73  F   UNL     1     -16.350   3.800   6.784  1.00  0.00    -0.200 F 
ATOM     74  F   UNL     1     -17.305   1.250   6.633  1.00  0.00    -0.200 F 
ENDBRANCH  50  64
BRANCH  51  75
ATOM     75  C   UNL     1      -3.774   3.606   9.909  1.00  0.00     0.064 A 
ATOM     76  C   UNL     1      -3.138   2.901  10.941  1.00  0.00     0.173 A 
ATOM     77  C   UNL     1      -3.027   4.574   9.223  1.00  0.00     0.173 A 
ATOM     78  F   UNL     1      -3.820   1.986  11.645  1.00  0.00    -0.203 F 
ATOM     79  C   UNL     1      -1.815   3.168  11.284  1.00  0.00     0.198 A 
ATOM     80  C   UNL     1      -1.696   4.821   9.549  1.00  0.00     0.198 A 
ATOM     81  F   UNL     1      -3.592   5.279   8.232  1.00  0.00    -0.203 F 
ATOM     82  F   UNL     1      -1.245   2.514  12.306  1.00  0.00    -0.200 F 
ATOM     83  C   UNL     1      -1.093   4.123  10.584  1.00  0.00     0.200 A 
ATOM     84  F   UNL     1      -1.000   5.740   8.866  1.00  0.00    -0.200 F 
ATOM     85  F   UNL     1       0.180   4.380  10.915  1.00  0.00    -0.200 F 
ENDBRANCH  51  75
BRANCH  63  86
ATOM     86  C   UNL     1      -9.757   4.695  13.299  1.00  0.00     0.064 A 
ATOM     87  C   UNL     1      -9.609   6.062  13.576  1.00  0.00     0.173 A 
ATOM     88  C   UNL     1     -10.219   3.863  14.331  1.00  0.00     0.173 A 
ATOM     89  F   UNL     1      -9.157   6.897  12.627  1.00  0.00    -0.203 F 
ATOM     90  C   UNL     1      -9.879   6.570  14.844  1.00  0.00     0.198 A 
ATOM     91  C   UNL     1     -10.517   4.379  15.589  1.00  0.00     0.198 A 
ATOM     92  F   UNL     1     -10.387   2.549  14.117  1.00  0.00    -0.203 F 
ATOM     93  F   UNL     1      -9.677   7.870  15.100  1.00  0.00    -0.200 F 
ATOM     94  C   UNL     1     -10.337   5.729  15.848  1.00  0.00     0.200 A 
ATOM     95  F   UNL     1     -10.971   3.568  16.555  1.00  0.00    -0.200 F 
ATOM     96  F   UNL     1     -10.595   6.219  17.068  1.00  0.00    -0.200 F 
ENDBRANCH  63  86
ENDBRANCH  37  38
ENDBRANCH  30  32
ENDBRANCH  29  30
ENDBRANCH  28  29
ENDBRANCH  27  28
ENDBRANCH  26  27
ENDBRANCH  25  26
ENDBRANCH   1  25
TORSDOF 19
