REMARK SMILES CC(=O)NS(=O)(=O)c1ccc(-c2ccn(C(F)F)c(=O)c2)cc1C(=O)OCCOCCOC(=O)c1ccc(-c2c3nc(c(-c4c(F)c(F)c(F)c(F)c4F)c4ccc([nH]4)c(-c4c(F)c(F)c(F)c(F)c4F)c4nc(c(-c5c(F)c(F)c(F)c(F)c5F)c5ccc2[nH]5)C=C4)C=C3)cc1
REMARK SMILES IDX 29 1 28 2 27 3 26 4 24 5 25 6 23 7 8 8 9 9 10 10 22 11 11 12
REMARK SMILES IDX 5 13 6 14 7 15 4 16 1 17 2 18 3 19 12 21 13 22 21 23 14 24
REMARK SMILES IDX 19 25 15 26 20 27 16 28 17 29 18 30 30 31 31 32 32 33 33 34
REMARK SMILES IDX 34 35 35 36 36 37 97 38 37 39 96 40 38 41 39 42 40 43 90 44
REMARK SMILES IDX 41 45 95 46 89 47 91 48 42 49 94 50 88 51 87 52 43 54 75 55
REMARK SMILES IDX 55 56 74 57 56 58 59 59 73 60 92 61 57 62 58 63 72 65 93 66
REMARK SMILES IDX 60 67 44 68 45 69 53 70 46 71 47 72 51 73 54 74 48 75 49 76
REMARK SMILES IDX 52 77 50 78 76 79 77 80 85 81 78 82 79 83 83 84 86 85 80 86
REMARK SMILES IDX 81 87 84 88 82 89 61 90 62 91 70 92 63 93 64 94 68 95 71 96
REMARK SMILES IDX 65 97 66 98 69 99 67 100
REMARK H PARENT 4 20 91 53 59 64
REMARK Flexibility Score: inf
ROOT
ATOM      1  O   UNL     1       6.892   1.424   1.133  1.00  0.00    -0.374 OA
ENDROOT
BRANCH   1   2
ATOM      2  C   UNL     1       6.031   2.547   0.918  1.00  0.00     0.202 C 
BRANCH   2   3
ATOM      3  C   UNL     1       4.851   2.252  -0.005  1.00  0.00     0.261 C 
BRANCH   3   4
ATOM      4  O   UNL     1       3.938   1.387   0.691  1.00  0.00    -0.460 OA
BRANCH   4   5
ATOM      5  C   UNL     1       3.464   0.349  -0.019  1.00  0.00     0.339 C 
ATOM      6  O   UNL     1       3.552   0.178  -1.222  1.00  0.00    -0.246 OA
BRANCH   5   7
ATOM      7  C   UNL     1       2.941  -0.688   0.894  1.00  0.00     0.081 A 
ATOM      8  C   UNL     1       2.083  -0.477   1.974  1.00  0.00     0.102 A 
ATOM      9  C   UNL     1       1.628  -1.575   2.731  1.00  0.00     0.024 A 
ATOM     10  C   UNL     1       2.000  -2.878   2.392  1.00  0.00     0.010 A 
ATOM     11  C   UNL     1       3.322  -2.001   0.572  1.00  0.00     0.025 A 
ATOM     12  C   UNL     1       2.836  -3.096   1.298  1.00  0.00    -0.017 A 
BRANCH   8  13
ATOM     13  S   UNL     1       1.368   1.097   2.354  1.00  0.00     0.264 S 
ATOM     14  O   UNL     1       2.361   1.849   3.089  1.00  0.00    -0.201 OA
ATOM     15  O   UNL     1       0.058   0.850   2.914  1.00  0.00    -0.201 OA
BRANCH  13  16
ATOM     16  N   UNL     1       1.127   1.867   0.906  1.00  0.00    -0.249 N 
ATOM     17  C   UNL     1      -0.213   0.186  -0.350  1.00  0.00     0.115 C 
ATOM     18  C   UNL     1       0.102   1.618  -0.017  1.00  0.00     0.230 C 
ATOM     19  O   UNL     1      -0.371   2.557  -0.642  1.00  0.00    -0.274 OA
ATOM     20  H   UNL     1       1.772   2.572   0.670  1.00  0.00     0.183 HD
ENDBRANCH  13  16
ENDBRANCH   8  13
BRANCH  12  21
ATOM     21  C   UNL     1       3.160  -4.449   0.829  1.00  0.00    -0.011 A 
ATOM     22  C   UNL     1       4.355  -5.166   1.218  1.00  0.00     0.027 A 
ATOM     23  C   UNL     1       2.338  -4.982  -0.091  1.00  0.00     0.080 A 
ATOM     24  C   UNL     1       4.670  -6.322   0.620  1.00  0.00     0.095 A 
ATOM     25  C   UNL     1       2.662  -6.276  -0.747  1.00  0.00     0.255 A 
ATOM     26  N   UNL     1       3.853  -6.866  -0.356  1.00  0.00    -0.258 N 
ATOM     27  O   UNL     1       1.885  -6.713  -1.589  1.00  0.00    -0.269 OA
BRANCH  26  28
ATOM     28  C   UNL     1       4.233  -8.073  -1.044  1.00  0.00     0.451 C 
ATOM     29  F   UNL     1       3.290  -9.035  -0.906  1.00  0.00    -0.185 F 
ATOM     30  F   UNL     1       4.402  -7.837  -2.369  1.00  0.00    -0.185 F 
ENDBRANCH  26  28
ENDBRANCH  12  21
ENDBRANCH   5   7
ENDBRANCH   4   5
ENDBRANCH   3   4
ENDBRANCH   2   3
ENDBRANCH   1   2
BRANCH   1  31
ATOM     31  C   UNL     1       6.462   0.461   2.098  1.00  0.00     0.202 C 
BRANCH  31  32
ATOM     32  C   UNL     1       6.820   0.792   3.550  1.00  0.00     0.261 C 
BRANCH  32  33
ATOM     33  O   UNL     1       6.105   1.948   4.017  1.00  0.00    -0.460 OA
BRANCH  33  34
ATOM     34  C   UNL     1       6.858   3.066   4.145  1.00  0.00     0.338 C 
ATOM     35  O   UNL     1       8.069   3.155   4.024  1.00  0.00    -0.246 OA
BRANCH  34  36
ATOM     36  C   UNL     1       5.992   4.254   4.292  1.00  0.00     0.060 A 
ATOM     37  C   UNL     1       6.329   5.382   3.534  1.00  0.00     0.016 A 
ATOM     38  C   UNL     1       4.912   4.296   5.177  1.00  0.00     0.016 A 
ATOM     39  C   UNL     1       5.627   6.572   3.701  1.00  0.00     0.010 A 
ATOM     40  C   UNL     1       4.211   5.496   5.351  1.00  0.00     0.010 A 
ATOM     41  C   UNL     1       4.589   6.648   4.640  1.00  0.00    -0.014 A 
BRANCH  41  42
ATOM     42  C   UNL     1       4.005   7.974   4.951  1.00  0.00     0.031 A 
ATOM     43  C   UNL     1       4.518   8.743   6.136  1.00  0.00     0.074 A 
ATOM     44  C   UNL     1       3.076   8.519   4.146  1.00  0.00     0.049 A 
ATOM     45  N   UNL     1       4.206   9.947   6.545  1.00  0.00    -0.248 NA
ATOM     46  C   UNL     1       5.522   8.065   6.972  1.00  0.00     0.031 C 
ATOM     47  C   UNL     1       2.516   7.883   2.956  1.00  0.00     0.029 A 
ATOM     48  N   UNL     1       2.448   9.737   4.206  1.00  0.00    -0.354 N 
ATOM     49  C   UNL     1       4.979  10.174   7.676  1.00  0.00     0.074 A 
ATOM     50  C   UNL     1       5.749   8.971   7.912  1.00  0.00     0.031 C 
ATOM     51  C   UNL     1       1.624   8.718   2.395  1.00  0.00     0.029 A 
ATOM     52  C   UNL     1       1.542   9.939   3.196  1.00  0.00     0.049 A 
ATOM     53  H   UNL     1       2.630  10.403   4.908  1.00  0.00     0.167 HD
ATOM     54  C   UNL     1       5.052  11.291   8.439  1.00  0.00     0.037 A 
ATOM     55  C   UNL     1       0.735  10.989   2.950  1.00  0.00     0.037 A 
ATOM     56  C   UNL     1       4.286  12.486   8.207  1.00  0.00     0.049 A 
ATOM     57  C   UNL     1       0.794  12.196   3.849  1.00  0.00     0.074 A 
ATOM     58  C   UNL     1       4.311  13.678   8.911  1.00  0.00     0.029 A 
ATOM     59  N   UNL     1       3.346  12.637   7.199  1.00  0.00    -0.354 N 
ATOM     60  N   UNL     1       1.563  12.421   4.886  1.00  0.00    -0.248 NA
ATOM     61  C   UNL     1      -0.125  13.300   3.534  1.00  0.00     0.031 C 
ATOM     62  C   UNL     1       3.354  14.535   8.355  1.00  0.00     0.029 A 
ATOM     63  C   UNL     1       2.765  13.893   7.278  1.00  0.00     0.049 A 
ATOM     64  H   UNL     1       3.125  11.954   6.526  1.00  0.00     0.167 HD
ATOM     65  C   UNL     1       1.239  13.695   5.334  1.00  0.00     0.074 A 
ATOM     66  C   UNL     1       0.214  14.202   4.445  1.00  0.00     0.031 C 
ATOM     67  C   UNL     1       1.745  14.383   6.387  1.00  0.00     0.037 A 
BRANCH  54  68
ATOM     68  C   UNL     1       5.987  11.265   9.611  1.00  0.00     0.064 A 
ATOM     69  C   UNL     1       7.378  11.326   9.441  1.00  0.00     0.173 A 
ATOM     70  C   UNL     1       5.485  11.217  10.920  1.00  0.00     0.173 A 
ATOM     71  F   UNL     1       7.907  11.360   8.209  1.00  0.00    -0.203 F 
ATOM     72  C   UNL     1       8.234  11.319  10.540  1.00  0.00     0.198 A 
ATOM     73  C   UNL     1       6.343  11.234  12.017  1.00  0.00     0.198 A 
ATOM     74  F   UNL     1       4.162  11.161  11.135  1.00  0.00    -0.203 F 
ATOM     75  F   UNL     1       9.561  11.338  10.355  1.00  0.00    -0.200 F 
ATOM     76  C   UNL     1       7.715  11.279  11.826  1.00  0.00     0.200 A 
ATOM     77  F   UNL     1       5.840  11.205  13.259  1.00  0.00    -0.200 F 
ATOM     78  F   UNL     1       8.540  11.278  12.883  1.00  0.00    -0.200 F 
ENDBRANCH  54  68
BRANCH  55  79
ATOM     79  C   UNL     1      -0.200  10.949   1.796  1.00  0.00     0.064 A 
ATOM     80  C   UNL     1      -0.003  11.767   0.676  1.00  0.00     0.173 A 
ATOM     81  C   UNL     1      -1.317  10.101   1.800  1.00  0.00     0.173 A 
ATOM     82  F   UNL     1       1.036  12.614   0.640  1.00  0.00    -0.203 F 
ATOM     83  C   UNL     1      -0.898  11.751  -0.391  1.00  0.00     0.198 A 
ATOM     84  C   UNL     1      -2.197  10.067   0.721  1.00  0.00     0.198 A 
ATOM     85  F   UNL     1      -1.550   9.302   2.851  1.00  0.00    -0.203 F 
ATOM     86  F   UNL     1      -0.712  12.575  -1.431  1.00  0.00    -0.200 F 
ATOM     87  C   UNL     1      -1.991  10.897  -0.371  1.00  0.00     0.200 A 
ATOM     88  F   UNL     1      -3.248   9.236   0.742  1.00  0.00    -0.200 F 
ATOM     89  F   UNL     1      -2.851  10.881  -1.398  1.00  0.00    -0.200 F 
ENDBRANCH  55  79
BRANCH  67  90
ATOM     90  C   UNL     1       1.212  15.766   6.624  1.00  0.00     0.064 A 
ATOM     91  C   UNL     1      -0.078  15.978   7.133  1.00  0.00     0.173 A 
ATOM     92  C   UNL     1       2.011  16.891   6.370  1.00  0.00     0.173 A 
ATOM     93  F   UNL     1      -0.886  14.936   7.378  1.00  0.00    -0.203 F 
ATOM     94  C   UNL     1      -0.557  17.267   7.354  1.00  0.00     0.198 A 
ATOM     95  C   UNL     1       1.539  18.177   6.618  1.00  0.00     0.198 A 
ATOM     96  F   UNL     1       3.255  16.742   5.890  1.00  0.00    -0.203 F 
ATOM     97  F   UNL     1      -1.809  17.448   7.796  1.00  0.00    -0.200 F 
ATOM     98  C   UNL     1       0.253  18.364   7.102  1.00  0.00     0.200 A 
ATOM     99  F   UNL     1       2.328  19.235   6.386  1.00  0.00    -0.200 F 
ATOM    100  F   UNL     1      -0.208  19.603   7.319  1.00  0.00    -0.200 F 
ENDBRANCH  67  90
ENDBRANCH  41  42
ENDBRANCH  34  36
ENDBRANCH  33  34
ENDBRANCH  32  33
ENDBRANCH  31  32
ENDBRANCH   1  31
TORSDOF 18
