REMARK SMILES CSc1cccc(NC(=O)C[C@H]2Sc3cc(C(=O)OCCOCCOC(=O)c4ccc(-c5c6nc(c(-c7c(F)c(F)c(F)c(F)c7F)c7ccc([nH]7)c(-c7c(F)c(F)c(F)c(F)c7F)c7nc(c(-c8c(F)c(F)c(F)c(F)c8F)c8ccc5[nH]8)C=C7)C=C6)cc4)ccc3N=C2O)c1
REMARK SMILES IDX 21 1 20 2 19 3 17 4 18 5 16 6 12 7 13 8 95 9 14 10 94 11
REMARK SMILES IDX 15 12 93 13 92 14 91 15 11 16 9 17 8 18 10 20 7 21 3 22 4 23
REMARK SMILES IDX 97 24 5 25 6 26 2 27 1 28 96 29 22 31 23 32 24 33 25 34
REMARK SMILES IDX 26 35 27 36 28 37 29 38 90 39 30 40 89 41 31 42 32 43 33 44
REMARK SMILES IDX 83 45 34 46 88 47 82 48 84 49 35 50 87 51 81 52 80 53 36 55
REMARK SMILES IDX 68 56 48 57 67 58 49 59 52 60 66 61 85 62 50 63 51 64 65 66
REMARK SMILES IDX 86 67 53 68 37 69 38 70 46 71 39 72 40 73 44 74 47 75 41 76
REMARK SMILES IDX 42 77 45 78 43 79 69 80 70 81 78 82 71 83 72 84 76 85 79 86
REMARK SMILES IDX 73 87 74 88 77 89 75 90 54 91 55 92 63 93 56 94 57 95 61 96
REMARK SMILES IDX 64 97 58 98 59 99 62 100 60 101
REMARK H PARENT 8 19 96 30 84 54 52 65
REMARK Flexibility Score: inf
ROOT
ATOM      1  C   UNL     1       8.937   7.511  -5.718  1.00  0.00     0.202 C 
ENDROOT
BRANCH   1   2
ATOM      2  C   UNL     1       9.999   6.421  -5.897  1.00  0.00     0.261 C 
BRANCH   2   3
ATOM      3  O   UNL     1       9.454   5.247  -6.520  1.00  0.00    -0.460 OA
BRANCH   3   4
ATOM      4  C   UNL     1       9.336   4.166  -5.710  1.00  0.00     0.338 C 
ATOM      5  O   UNL     1       9.742   4.047  -4.566  1.00  0.00    -0.246 OA
BRANCH   4   6
ATOM      6  C   UNL     1       8.426   3.195  -6.350  1.00  0.00     0.061 A 
ATOM      7  C   UNL     1       3.835   1.972  -7.047  1.00  0.00     0.147 C 
ATOM      8  S   UNL     1       4.742   1.802  -5.445  1.00  0.00    -0.110 SA
ATOM      9  C   UNL     1       4.374   0.833  -7.893  1.00  0.00     0.200 C 
ATOM     10  C   UNL     1       6.366   1.960  -6.212  1.00  0.00     0.035 A 
ATOM     11  N   UNL     1       5.622   0.634  -8.168  1.00  0.00    -0.216 NA
ATOM     12  C   UNL     1       7.338   2.743  -5.594  1.00  0.00     0.033 A 
ATOM     13  C   UNL     1       6.544   1.502  -7.540  1.00  0.00     0.080 A 
ATOM     14  C   UNL     1       7.647   1.947  -8.270  1.00  0.00     0.030 A 
ATOM     15  C   UNL     1       8.565   2.830  -7.694  1.00  0.00     0.018 A 
BRANCH   7  16
ATOM     16  C   UNL     1       2.319   2.130  -7.077  1.00  0.00     0.125 C 
BRANCH  16  17
ATOM     17  C   UNL     1       1.746   2.812  -5.872  1.00  0.00     0.226 C 
ATOM     18  N   UNL     1       1.279   2.136  -4.788  1.00  0.00    -0.326 N 
ATOM     19  H   UNL     1       0.858   2.730  -4.125  1.00  0.00     0.169 HD
ATOM     20  O   UNL     1       1.689   4.047  -5.849  1.00  0.00    -0.275 OA
BRANCH  18  21
ATOM     21  C   UNL     1       1.258   0.784  -4.393  1.00  0.00     0.042 A 
ATOM     22  C   UNL     1       0.726  -0.766  -2.575  1.00  0.00     0.009 A 
ATOM     23  C   UNL     1       1.211  -1.827  -3.338  1.00  0.00     0.015 A 
ATOM     24  C   UNL     1       0.738   0.527  -3.114  1.00  0.00     0.041 A 
ATOM     25  C   UNL     1       1.707  -1.593  -4.616  1.00  0.00     0.003 A 
ATOM     26  C   UNL     1       1.730  -0.297  -5.135  1.00  0.00     0.026 A 
BRANCH  22  27
ATOM     27  S   UNL     1       0.069  -1.116  -0.954  1.00  0.00    -0.130 SA
ATOM     28  C   UNL     1       0.949   0.122   0.036  1.00  0.00     0.091 C 
ENDBRANCH  22  27
ENDBRANCH  18  21
ENDBRANCH  16  17
ENDBRANCH   7  16
BRANCH   9  29
ATOM     29  O   UNL     1       3.500  -0.064  -8.357  1.00  0.00    -0.496 OA
ATOM     30  H   UNL     1       2.585   0.039  -8.182  1.00  0.00     0.295 HD
ENDBRANCH   9  29
ENDBRANCH   4   6
ENDBRANCH   3   4
ENDBRANCH   2   3
ENDBRANCH   1   2
BRANCH   1  31
ATOM     31  O   UNL     1       7.854   7.218  -4.836  1.00  0.00    -0.374 OA
BRANCH  31  32
ATOM     32  C   UNL     1       6.783   6.429  -5.353  1.00  0.00     0.202 C 
BRANCH  32  33
ATOM     33  C   UNL     1       5.755   7.141  -6.241  1.00  0.00     0.261 C 
BRANCH  33  34
ATOM     34  O   UNL     1       6.320   7.569  -7.493  1.00  0.00    -0.460 OA
BRANCH  34  35
ATOM     35  C   UNL     1       6.541   8.902  -7.593  1.00  0.00     0.338 C 
ATOM     36  O   UNL     1       6.275   9.766  -6.776  1.00  0.00    -0.246 OA
BRANCH  35  37
ATOM     37  C   UNL     1       7.341   9.172  -8.802  1.00  0.00     0.060 A 
ATOM     38  C   UNL     1       8.540   9.884  -8.653  1.00  0.00     0.016 A 
ATOM     39  C   UNL     1       6.895   8.787 -10.066  1.00  0.00     0.016 A 
ATOM     40  C   UNL     1       9.282  10.244  -9.777  1.00  0.00     0.010 A 
ATOM     41  C   UNL     1       7.636   9.155 -11.191  1.00  0.00     0.010 A 
ATOM     42  C   UNL     1       8.817   9.909 -11.054  1.00  0.00    -0.014 A 
BRANCH  42  43
ATOM     43  C   UNL     1       9.479  10.448 -12.266  1.00  0.00     0.031 A 
ATOM     44  C   UNL     1       8.829  11.585 -13.002  1.00  0.00     0.074 A 
ATOM     45  C   UNL     1      10.624   9.912 -12.722  1.00  0.00     0.049 A 
ATOM     46  N   UNL     1       9.140  12.116 -14.156  1.00  0.00    -0.248 NA
ATOM     47  C   UNL     1       7.661  12.199 -12.350  1.00  0.00     0.031 C 
ATOM     48  C   UNL     1      11.372   8.839 -12.071  1.00  0.00     0.029 A 
ATOM     49  N   UNL     1      11.344  10.183 -13.860  1.00  0.00    -0.354 N 
ATOM     50  C   UNL     1       8.197  13.111 -14.379  1.00  0.00     0.074 A 
ATOM     51  C   UNL     1       7.287  13.093 -13.254  1.00  0.00     0.031 C 
ATOM     52  C   UNL     1      12.434   8.525 -12.832  1.00  0.00     0.029 A 
ATOM     53  C   UNL     1      12.413   9.342 -14.044  1.00  0.00     0.049 A 
ATOM     54  H   UNL     1      11.115  10.911 -14.482  1.00  0.00     0.167 HD
ATOM     55  C   UNL     1       8.103  13.962 -15.428  1.00  0.00     0.037 A 
ATOM     56  C   UNL     1      13.252   9.220 -15.092  1.00  0.00     0.037 A 
ATOM     57  C   UNL     1       9.015  13.974 -16.541  1.00  0.00     0.049 A 
ATOM     58  C   UNL     1      13.078  10.125 -16.286  1.00  0.00     0.074 A 
ATOM     59  C   UNL     1       9.023  14.813 -17.641  1.00  0.00     0.029 A 
ATOM     60  N   UNL     1      10.078  13.097 -16.700  1.00  0.00    -0.354 N 
ATOM     61  N   UNL     1      12.198  11.077 -16.484  1.00  0.00    -0.248 NA
ATOM     62  C   UNL     1      14.013   9.936 -17.405  1.00  0.00     0.031 C 
ATOM     63  C   UNL     1      10.050  14.403 -18.496  1.00  0.00     0.029 A 
ATOM     64  C   UNL     1      10.728  13.354 -17.896  1.00  0.00     0.049 A 
ATOM     65  H   UNL     1      10.333  12.395 -16.058  1.00  0.00     0.167 HD
ATOM     66  C   UNL     1      12.497  11.624 -17.726  1.00  0.00     0.074 A 
ATOM     67  C   UNL     1      13.642  10.900 -18.236  1.00  0.00     0.031 C 
ATOM     68  C   UNL     1      11.881  12.638 -18.381  1.00  0.00     0.037 A 
BRANCH  55  69
ATOM     69  C   UNL     1       6.955  14.930 -15.440  1.00  0.00     0.064 A 
ATOM     70  C   UNL     1       6.880  16.003 -14.540  1.00  0.00     0.173 A 
ATOM     71  C   UNL     1       5.935  14.805 -16.396  1.00  0.00     0.173 A 
ATOM     72  F   UNL     1       7.823  16.163 -13.599  1.00  0.00    -0.203 F 
ATOM     73  C   UNL     1       5.812  16.897 -14.577  1.00  0.00     0.198 A 
ATOM     74  C   UNL     1       4.887  15.720 -16.452  1.00  0.00     0.198 A 
ATOM     75  F   UNL     1       5.960  13.801 -17.285  1.00  0.00    -0.203 F 
ATOM     76  F   UNL     1       5.735  17.885 -13.674  1.00  0.00    -0.200 F 
ATOM     77  C   UNL     1       4.822  16.759 -15.538  1.00  0.00     0.200 A 
ATOM     78  F   UNL     1       3.940  15.594 -17.392  1.00  0.00    -0.200 F 
ATOM     79  F   UNL     1       3.800  17.626 -15.579  1.00  0.00    -0.200 F 
ENDBRANCH  55  69
BRANCH  56  80
ATOM     80  C   UNL     1      14.322   8.187 -15.071  1.00  0.00     0.064 A 
ATOM     81  C   UNL     1      15.675   8.550 -15.025  1.00  0.00     0.173 A 
ATOM     82  C   UNL     1      14.015   6.819 -15.115  1.00  0.00     0.173 A 
ATOM     83  F   UNL     1      16.020   9.845 -15.007  1.00  0.00    -0.203 F 
ATOM     84  C   UNL     1      16.680   7.585 -15.045  1.00  0.00     0.198 A 
ATOM     85  C   UNL     1      15.021   5.854 -15.102  1.00  0.00     0.198 A 
ATOM     86  F   UNL     1      12.737   6.416 -15.160  1.00  0.00    -0.203 F 
ATOM     87  F   UNL     1      17.966   7.961 -15.053  1.00  0.00    -0.200 F 
ATOM     88  C   UNL     1      16.352   6.238 -15.077  1.00  0.00     0.200 A 
ATOM     89  F   UNL     1      14.698   4.553 -15.118  1.00  0.00    -0.200 F 
ATOM     90  F   UNL     1      17.320   5.311 -15.092  1.00  0.00    -0.200 F 
ENDBRANCH  56  80
BRANCH  68  91
ATOM     91  C   UNL     1      12.458  13.073 -19.699  1.00  0.00     0.064 A 
ATOM     92  C   UNL     1      12.340  12.291 -20.856  1.00  0.00     0.173 A 
ATOM     93  C   UNL     1      13.073  14.330 -19.817  1.00  0.00     0.173 A 
ATOM     94  F   UNL     1      11.774  11.076 -20.795  1.00  0.00    -0.203 F 
ATOM     95  C   UNL     1      12.830  12.743 -22.079  1.00  0.00     0.198 A 
ATOM     96  C   UNL     1      13.531  14.793 -21.046  1.00  0.00     0.198 A 
ATOM     97  F   UNL     1      13.205  15.122 -18.741  1.00  0.00    -0.203 F 
ATOM     98  F   UNL     1      12.740  11.963 -23.164  1.00  0.00    -0.200 F 
ATOM     99  C   UNL     1      13.414  13.998 -22.175  1.00  0.00     0.200 A 
ATOM    100  F   UNL     1      14.079  16.013 -21.140  1.00  0.00    -0.200 F 
ATOM    101  F   UNL     1      13.867  14.439 -23.357  1.00  0.00    -0.200 F 
ENDBRANCH  68  91
ENDBRANCH  42  43
ENDBRANCH  35  37
ENDBRANCH  34  35
ENDBRANCH  33  34
ENDBRANCH  32  33
ENDBRANCH  31  32
ENDBRANCH   1  31
TORSDOF 19
