REMARK SMILES Cc1ccc(S(=O)(=O)n2cc(C(=O)C(=O)NCC(=O)N[C@H](Cc3c[nH]c4ccccc34)C(=O)OCCOCCOC(=O)c3ccc(-c4c5nc(c(-c6c(F)c(F)c(F)c(F)c6F)c6ccc([nH]6)c(-c6c(F)c(F)c(F)c(F)c6F)c6nc(c(-c7c(F)c(F)c(F)c(F)c7F)c7ccc4[nH]7)C=C6)C=C5)cc3)c3ccccc32)cc1
REMARK SMILES IDX 35 1 34 2 32 3 33 4 21 5 20 6 18 7 19 8 17 10 16 11 14 12
REMARK SMILES IDX 15 13 12 15 13 16 11 17 9 18 10 19 111 20 106 21 110 22
REMARK SMILES IDX 107 23 109 24 108 25 6 26 7 27 8 28 5 29 1 30 2 31 3 32
REMARK SMILES IDX 113 33 4 34 112 35 22 36 23 37 24 38 31 39 25 40 26 41 30 42
REMARK SMILES IDX 27 44 29 45 28 46 36 47 37 48 38 49 39 50 40 51 41 52 42 53
REMARK SMILES IDX 43 54 44 55 105 56 45 57 104 58 46 59 47 60 48 61 98 62
REMARK SMILES IDX 49 63 103 64 97 65 99 66 50 67 102 68 96 69 95 70 51 72
REMARK SMILES IDX 83 73 63 74 82 75 64 76 67 77 81 78 100 79 65 80 66 81 80 83
REMARK SMILES IDX 101 84 68 85 52 86 53 87 61 88 54 89 55 90 59 91 62 92 56 93
REMARK SMILES IDX 57 94 60 95 58 96 84 97 85 98 93 99 86 100 87 101 91 102
REMARK SMILES IDX 94 103 88 104 89 105 92 106 90 107 69 108 70 109 78 110
REMARK SMILES IDX 71 111 72 112 76 113 79 114 73 115 74 116 77 117 75 118
REMARK H PARENT 20 9 16 14 25 43 99 71 67 82
REMARK Flexibility Score: inf
ROOT
ATOM      1  C   UNL     1     -10.623  -0.481   4.100  1.00  0.00     0.261 C 
ENDROOT
BRANCH   1   2
ATOM      2  O   UNL     1     -10.424   0.831   3.584  1.00  0.00    -0.462 OA
BRANCH   2   3
ATOM      3  C   UNL     1      -9.956   0.945   2.307  1.00  0.00     0.329 C 
ATOM      4  O   UNL     1      -9.379   0.109   1.654  1.00  0.00    -0.250 OA
BRANCH   3   5
ATOM      5  C   UNL     1     -10.256   2.339   1.791  1.00  0.00     0.196 C 
BRANCH   5   6
ATOM      6  N   UNL     1      -9.565   3.291   2.666  1.00  0.00    -0.341 N 
ATOM      7  C   UNL     1      -8.211   3.505   2.776  1.00  0.00     0.240 C 
ATOM      8  O   UNL     1      -7.836   4.303   3.640  1.00  0.00    -0.273 OA
ATOM      9  H   UNL     1     -10.139   3.843   3.244  1.00  0.00     0.164 HD
BRANCH   7  10
ATOM     10  C   UNL     1      -7.181   2.755   1.873  1.00  0.00     0.216 C 
BRANCH  10  11
ATOM     11  N   UNL     1      -6.825   1.391   2.277  1.00  0.00    -0.340 N 
ATOM     12  C   UNL     1      -6.480   0.289   1.504  1.00  0.00     0.292 C 
ATOM     13  O   UNL     1      -6.141  -0.777   2.006  1.00  0.00    -0.265 OA
ATOM     14  H   UNL     1      -6.832   1.231   3.248  1.00  0.00     0.164 HD
BRANCH  12  15
ATOM     15  C   UNL     1      -6.449   0.427  -0.012  1.00  0.00     0.252 C 
ATOM     16  O   UNL     1      -5.721   1.328  -0.437  1.00  0.00    -0.283 OA
BRANCH  15  17
ATOM     17  C   UNL     1      -7.345  -0.327  -0.904  1.00  0.00     0.054 A 
ATOM     18  N   UNL     1      -8.707  -1.806  -1.952  1.00  0.00    -0.240 N 
ATOM     19  C   UNL     1      -7.714  -1.681  -0.976  1.00  0.00     0.117 A 
ATOM     20  C   UNL     1      -9.077  -0.495  -2.329  1.00  0.00     0.065 A 
ATOM     21  C   UNL     1      -7.977   0.295  -2.018  1.00  0.00     0.012 A 
ATOM     22  C   UNL     1     -10.073  -0.043  -3.219  1.00  0.00     0.028 A 
ATOM     23  C   UNL     1      -7.756   1.474  -2.758  1.00  0.00     0.011 A 
ATOM     24  C   UNL     1      -9.772   1.058  -4.018  1.00  0.00     0.002 A 
ATOM     25  C   UNL     1      -8.608   1.786  -3.819  1.00  0.00     0.001 A 
BRANCH  18  26
ATOM     26  S   UNL     1      -8.738  -2.834  -3.363  1.00  0.00     0.268 S 
ATOM     27  O   UNL     1      -7.725  -2.214  -4.206  1.00  0.00    -0.201 OA
ATOM     28  O   UNL     1     -10.155  -2.761  -3.710  1.00  0.00    -0.201 OA
BRANCH  26  29
ATOM     29  C   UNL     1      -8.479  -4.549  -3.623  1.00  0.00     0.088 A 
ATOM     30  C   UNL     1      -8.795  -8.549  -5.252  1.00  0.00     0.044 C 
ATOM     31  C   UNL     1      -8.608  -7.180  -4.661  1.00  0.00    -0.051 A 
ATOM     32  C   UNL     1      -8.786  -6.105  -5.515  1.00  0.00     0.005 A 
ATOM     33  C   UNL     1      -8.326  -6.928  -3.297  1.00  0.00     0.005 A 
ATOM     34  C   UNL     1      -8.705  -4.826  -5.002  1.00  0.00     0.022 A 
ATOM     35  C   UNL     1      -8.267  -5.608  -2.761  1.00  0.00     0.022 A 
ENDBRANCH  26  29
ENDBRANCH  18  26
ENDBRANCH  15  17
ENDBRANCH  12  15
ENDBRANCH  10  11
ENDBRANCH   7  10
ENDBRANCH   5   6
BRANCH   5  36
ATOM     36  C   UNL     1     -11.796   2.541   1.604  1.00  0.00     0.074 C 
BRANCH  36  37
ATOM     37  C   UNL     1     -12.771   2.007   2.652  1.00  0.00    -0.020 A 
ATOM     38  C   UNL     1     -12.761   2.263   4.014  1.00  0.00     0.087 A 
ATOM     39  C   UNL     1     -13.872   1.082   2.440  1.00  0.00     0.003 A 
ATOM     40  N   UNL     1     -13.679   1.449   4.628  1.00  0.00    -0.361 N 
ATOM     41  C   UNL     1     -14.341   0.687   3.699  1.00  0.00     0.046 A 
ATOM     42  C   UNL     1     -14.454   0.460   1.310  1.00  0.00     0.010 A 
ATOM     43  H   UNL     1     -13.841   1.416   5.598  1.00  0.00     0.166 HD
ATOM     44  C   UNL     1     -15.285  -0.336   3.888  1.00  0.00     0.026 A 
ATOM     45  C   UNL     1     -15.438  -0.529   1.480  1.00  0.00     0.001 A 
ATOM     46  C   UNL     1     -15.829  -0.937   2.752  1.00  0.00     0.002 A 
ENDBRANCH  36  37
ENDBRANCH   5  36
ENDBRANCH   3   5
ENDBRANCH   2   3
ENDBRANCH   1   2
BRANCH   1  47
ATOM     47  C   UNL     1     -11.557  -1.346   3.321  1.00  0.00     0.202 C 
BRANCH  47  48
ATOM     48  O   UNL     1     -10.813  -1.913   2.260  1.00  0.00    -0.374 OA
BRANCH  48  49
ATOM     49  C   UNL     1     -11.608  -2.501   1.252  1.00  0.00     0.202 C 
BRANCH  49  50
ATOM     50  C   UNL     1     -12.393  -3.692   1.806  1.00  0.00     0.261 C 
BRANCH  50  51
ATOM     51  O   UNL     1     -11.463  -4.601   2.446  1.00  0.00    -0.460 OA
BRANCH  51  52
ATOM     52  C   UNL     1     -11.518  -4.647   3.809  1.00  0.00     0.338 C 
ATOM     53  O   UNL     1     -12.543  -4.745   4.465  1.00  0.00    -0.246 OA
BRANCH  52  54
ATOM     54  C   UNL     1     -10.202  -4.233   4.402  1.00  0.00     0.060 A 
ATOM     55  C   UNL     1     -10.135  -3.857   5.761  1.00  0.00     0.016 A 
ATOM     56  C   UNL     1      -9.168  -3.871   3.546  1.00  0.00     0.016 A 
ATOM     57  C   UNL     1      -9.130  -2.980   6.217  1.00  0.00     0.010 A 
ATOM     58  C   UNL     1      -8.254  -2.925   3.975  1.00  0.00     0.010 A 
ATOM     59  C   UNL     1      -8.237  -2.436   5.300  1.00  0.00    -0.014 A 
BRANCH  59  60
ATOM     60  C   UNL     1      -7.294  -1.319   5.541  1.00  0.00     0.031 A 
ATOM     61  C   UNL     1      -5.856  -1.614   5.266  1.00  0.00     0.074 A 
ATOM     62  C   UNL     1      -7.680  -0.024   5.742  1.00  0.00     0.049 A 
ATOM     63  N   UNL     1      -4.881  -0.806   5.496  1.00  0.00    -0.248 NA
ATOM     64  C   UNL     1      -5.389  -2.885   4.716  1.00  0.00     0.031 C 
ATOM     65  C   UNL     1      -6.862   1.181   5.556  1.00  0.00     0.029 A 
ATOM     66  N   UNL     1      -8.917   0.536   6.143  1.00  0.00    -0.354 N 
ATOM     67  C   UNL     1      -3.756  -1.283   4.860  1.00  0.00     0.074 A 
ATOM     68  C   UNL     1      -4.108  -2.618   4.462  1.00  0.00     0.031 C 
ATOM     69  C   UNL     1      -7.495   2.261   6.043  1.00  0.00     0.029 A 
ATOM     70  C   UNL     1      -8.640   1.767   6.776  1.00  0.00     0.049 A 
ATOM     71  H   UNL     1      -9.808   0.139   6.005  1.00  0.00     0.167 HD
ATOM     72  C   UNL     1      -2.709  -0.425   4.681  1.00  0.00     0.037 A 
ATOM     73  C   UNL     1      -8.868   1.958   8.105  1.00  0.00     0.037 A 
ATOM     74  C   UNL     1      -2.944   0.810   5.457  1.00  0.00     0.049 A 
ATOM     75  C   UNL     1      -7.568   2.184   8.819  1.00  0.00     0.074 A 
ATOM     76  C   UNL     1      -3.302   2.104   5.117  1.00  0.00     0.029 A 
ATOM     77  N   UNL     1      -3.152   0.707   6.838  1.00  0.00    -0.354 N 
ATOM     78  N   UNL     1      -6.430   1.808   8.302  1.00  0.00    -0.248 NA
ATOM     79  C   UNL     1      -7.404   2.878  10.088  1.00  0.00     0.031 C 
ATOM     80  C   UNL     1      -3.830   2.733   6.286  1.00  0.00     0.029 A 
ATOM     81  C   UNL     1      -3.762   1.840   7.348  1.00  0.00     0.049 A 
ATOM     82  H   UNL     1      -2.896  -0.075   7.379  1.00  0.00     0.167 HD
ATOM     83  C   UNL     1      -5.409   2.222   9.084  1.00  0.00     0.074 A 
ATOM     84  C   UNL     1      -6.064   2.866  10.212  1.00  0.00     0.031 C 
ATOM     85  C   UNL     1      -4.114   1.942   8.767  1.00  0.00     0.037 A 
BRANCH  72  86
ATOM     86  C   UNL     1      -1.558  -0.604   3.691  1.00  0.00     0.064 A 
ATOM     87  C   UNL     1      -0.676   0.470   3.424  1.00  0.00     0.173 A 
ATOM     88  C   UNL     1      -1.284  -1.759   2.923  1.00  0.00     0.173 A 
ATOM     89  F   UNL     1      -0.776   1.633   4.081  1.00  0.00    -0.203 F 
ATOM     90  C   UNL     1       0.348   0.399   2.466  1.00  0.00     0.198 A 
ATOM     91  C   UNL     1      -0.264  -1.830   1.966  1.00  0.00     0.198 A 
ATOM     92  F   UNL     1      -1.962  -2.895   3.058  1.00  0.00    -0.203 F 
ATOM     93  F   UNL     1       1.139   1.461   2.258  1.00  0.00    -0.200 F 
ATOM     94  C   UNL     1       0.551  -0.750   1.732  1.00  0.00     0.200 A 
ATOM     95  F   UNL     1      -0.083  -2.968   1.277  1.00  0.00    -0.200 F 
ATOM     96  F   UNL     1       1.528  -0.822   0.819  1.00  0.00    -0.200 F 
ENDBRANCH  72  86
BRANCH  73  97
ATOM     97  C   UNL     1     -10.091   1.262   8.584  1.00  0.00     0.064 A 
ATOM     98  C   UNL     1     -11.324   1.861   8.261  1.00  0.00     0.173 A 
ATOM     99  C   UNL     1     -10.089  -0.123   8.815  1.00  0.00     0.173 A 
ATOM    100  F   UNL     1     -11.389   3.181   8.027  1.00  0.00    -0.203 F 
ATOM    101  C   UNL     1     -12.462   1.092   8.024  1.00  0.00     0.198 A 
ATOM    102  C   UNL     1     -11.231  -0.890   8.561  1.00  0.00     0.198 A 
ATOM    103  F   UNL     1      -8.946  -0.754   9.117  1.00  0.00    -0.203 F 
ATOM    104  F   UNL     1     -13.585   1.674   7.575  1.00  0.00    -0.200 F 
ATOM    105  C   UNL     1     -12.400  -0.287   8.124  1.00  0.00     0.200 A 
ATOM    106  F   UNL     1     -11.170  -2.228   8.633  1.00  0.00    -0.200 F 
ATOM    107  F   UNL     1     -13.446  -1.031   7.736  1.00  0.00    -0.200 F 
ENDBRANCH  73  97
BRANCH  85 108
ATOM    108  C   UNL     1      -3.085   1.795   9.840  1.00  0.00     0.064 A 
ATOM    109  C   UNL     1      -3.416   1.381  11.145  1.00  0.00     0.173 A 
ATOM    110  C   UNL     1      -1.713   1.906   9.553  1.00  0.00     0.173 A 
ATOM    111  F   UNL     1      -4.676   1.071  11.486  1.00  0.00    -0.203 F 
ATOM    112  C   UNL     1      -2.451   1.222  12.132  1.00  0.00     0.198 A 
ATOM    113  C   UNL     1      -0.744   1.671  10.525  1.00  0.00     0.198 A 
ATOM    114  F   UNL     1      -1.277   2.209   8.322  1.00  0.00    -0.203 F 
ATOM    115  F   UNL     1      -2.827   0.906  13.379  1.00  0.00    -0.200 F 
ATOM    116  C   UNL     1      -1.114   1.363  11.820  1.00  0.00     0.200 A 
ATOM    117  F   UNL     1       0.553   1.726  10.194  1.00  0.00    -0.200 F 
ATOM    118  F   UNL     1      -0.183   1.178  12.763  1.00  0.00    -0.200 F 
ENDBRANCH  85 108
ENDBRANCH  59  60
ENDBRANCH  52  54
ENDBRANCH  51  52
ENDBRANCH  50  51
ENDBRANCH  49  50
ENDBRANCH  48  49
ENDBRANCH  47  48
ENDBRANCH   1  47
TORSDOF 23
