REMARK SMILES C[C@@H](NC(=O)c1cc(C(=O)OCCOCCOC(=O)c2ccc(-c3c4nc(c(-c5c(F)c(F)c(F)c(F)c5F)c5ccc([nH]5)c(-c5c(F)c(F)c(F)c(F)c5F)c5nc(c(-c6c(F)c(F)c(F)c(F)c6F)c6ccc3[nH]6)C=C5)C=C4)cc2)n(C)n1)c1ccccc1
REMARK SMILES IDX 13 1 12 2 11 3 9 4 10 5 8 6 6 7 7 8 85 9 83 10 84 11 4 12
REMARK SMILES IDX 3 13 5 15 2 16 1 17 86 18 87 19 91 20 88 21 90 22 89 23
REMARK SMILES IDX 14 24 15 25 16 26 17 27 18 28 19 29 20 30 21 31 82 32 22 33
REMARK SMILES IDX 81 34 23 35 24 36 25 37 75 38 26 39 80 40 74 41 76 42 27 43
REMARK SMILES IDX 79 44 73 45 72 46 28 48 60 49 40 50 59 51 41 52 44 53 58 54
REMARK SMILES IDX 77 55 42 56 43 57 57 59 78 60 45 61 29 62 30 63 38 64 31 65
REMARK SMILES IDX 32 66 36 67 39 68 33 69 34 70 37 71 35 72 61 73 62 74 70 75
REMARK SMILES IDX 63 76 64 77 68 78 71 79 65 80 66 81 69 82 67 83 46 84 47 85
REMARK SMILES IDX 55 86 48 87 49 88 53 89 56 90 50 91 51 92 54 93 52 94
REMARK H PARENT 3 14 76 47 44 58
REMARK Flexibility Score: inf
ROOT
ATOM      1  C   UNL     1      -7.165  -2.525  -1.257  1.00  0.00     0.202 C 
ENDROOT
BRANCH   1   2
ATOM      2  C   UNL     1      -6.434  -3.689  -0.556  1.00  0.00     0.261 C 
BRANCH   2   3
ATOM      3  O   UNL     1      -5.392  -3.204   0.332  1.00  0.00    -0.459 OA
BRANCH   3   4
ATOM      4  C   UNL     1      -4.574  -4.183   0.837  1.00  0.00     0.356 C 
ATOM      5  O   UNL     1      -4.712  -5.375   0.592  1.00  0.00    -0.244 OA
BRANCH   4   6
ATOM      6  C   UNL     1      -3.471  -3.620   1.582  1.00  0.00     0.146 A 
ATOM      7  C   UNL     1      -1.410  -3.071   2.328  1.00  0.00     0.151 A 
ATOM      8  C   UNL     1      -2.142  -4.030   1.572  1.00  0.00     0.071 A 
ATOM      9  N   UNL     1      -2.266  -2.224   2.932  1.00  0.00    -0.167 NA
ATOM     10  N   UNL     1      -3.490  -2.585   2.483  1.00  0.00    -0.260 N 
ATOM     11  C   UNL     1      -4.638  -1.949   3.090  1.00  0.00     0.174 C 
BRANCH   7  12
ATOM     12  C   UNL     1       0.038  -3.052   2.610  1.00  0.00     0.272 C 
ATOM     13  N   UNL     1       0.900  -2.116   2.059  1.00  0.00    -0.344 N 
ATOM     14  H   UNL     1       1.635  -1.848   2.658  1.00  0.00     0.164 HD
ATOM     15  O   UNL     1       0.537  -3.866   3.391  1.00  0.00    -0.267 OA
BRANCH  13  16
ATOM     16  C   UNL     1       0.922  -1.449   0.752  1.00  0.00     0.109 C 
ATOM     17  C   UNL     1       1.952  -0.314   0.723  1.00  0.00     0.036 C 
BRANCH  16  18
ATOM     18  C   UNL     1      -0.424  -0.970   0.296  1.00  0.00    -0.026 A 
ATOM     19  C   UNL     1      -1.054   0.145   0.871  1.00  0.00     0.006 A 
ATOM     20  C   UNL     1      -1.117  -1.765  -0.619  1.00  0.00     0.006 A 
ATOM     21  C   UNL     1      -2.403   0.379   0.641  1.00  0.00     0.000 A 
ATOM     22  C   UNL     1      -2.465  -1.549  -0.818  1.00  0.00     0.000 A 
ATOM     23  C   UNL     1      -3.116  -0.506  -0.154  1.00  0.00     0.000 A 
ENDBRANCH  16  18
ENDBRANCH  13  16
ENDBRANCH   7  12
ENDBRANCH   4   6
ENDBRANCH   3   4
ENDBRANCH   2   3
ENDBRANCH   1   2
BRANCH   1  24
ATOM     24  O   UNL     1      -6.665  -2.195  -2.567  1.00  0.00    -0.374 OA
BRANCH  24  25
ATOM     25  C   UNL     1      -5.382  -1.573  -2.564  1.00  0.00     0.202 C 
BRANCH  25  26
ATOM     26  C   UNL     1      -5.415  -0.044  -2.637  1.00  0.00     0.261 C 
BRANCH  26  27
ATOM     27  O   UNL     1      -6.241   0.465  -1.578  1.00  0.00    -0.460 OA
BRANCH  27  28
ATOM     28  C   UNL     1      -7.358   1.079  -2.020  1.00  0.00     0.338 C 
ATOM     29  O   UNL     1      -7.591   1.493  -3.143  1.00  0.00    -0.246 OA
BRANCH  28  30
ATOM     30  C   UNL     1      -8.397   0.995  -0.986  1.00  0.00     0.060 A 
ATOM     31  C   UNL     1      -9.566   0.316  -1.341  1.00  0.00     0.016 A 
ATOM     32  C   UNL     1      -8.280   1.635   0.250  1.00  0.00     0.016 A 
ATOM     33  C   UNL     1     -10.667   0.353  -0.497  1.00  0.00     0.010 A 
ATOM     34  C   UNL     1      -9.390   1.668   1.101  1.00  0.00     0.010 A 
ATOM     35  C   UNL     1     -10.602   1.075   0.703  1.00  0.00    -0.014 A 
BRANCH  35  36
ATOM     36  C   UNL     1     -11.870   1.349   1.420  1.00  0.00     0.031 A 
ATOM     37  C   UNL     1     -12.547   2.676   1.212  1.00  0.00     0.074 A 
ATOM     38  C   UNL     1     -12.459   0.392   2.156  1.00  0.00     0.049 A 
ATOM     39  N   UNL     1     -13.694   3.105   1.674  1.00  0.00    -0.248 NA
ATOM     40  C   UNL     1     -11.841   3.649   0.362  1.00  0.00     0.031 C 
ATOM     41  C   UNL     1     -11.920  -0.947   2.385  1.00  0.00     0.029 A 
ATOM     42  N   UNL     1     -13.652   0.398   2.833  1.00  0.00    -0.354 N 
ATOM     43  C   UNL     1     -13.847   4.391   1.170  1.00  0.00     0.074 A 
ATOM     44  C   UNL     1     -12.661   4.689   0.398  1.00  0.00     0.031 C 
ATOM     45  C   UNL     1     -12.784  -1.639   3.147  1.00  0.00     0.029 A 
ATOM     46  C   UNL     1     -13.922  -0.783   3.478  1.00  0.00     0.049 A 
ATOM     47  H   UNL     1     -14.257   1.174   2.854  1.00  0.00     0.167 HD
ATOM     48  C   UNL     1     -14.890   5.240   1.325  1.00  0.00     0.037 A 
ATOM     49  C   UNL     1     -14.966  -1.127   4.256  1.00  0.00     0.037 A 
ATOM     50  C   UNL     1     -16.071   4.938   2.088  1.00  0.00     0.049 A 
ATOM     51  C   UNL     1     -16.082  -0.136   4.470  1.00  0.00     0.074 A 
ATOM     52  C   UNL     1     -17.190   5.725   2.296  1.00  0.00     0.029 A 
ATOM     53  N   UNL     1     -16.283   3.752   2.775  1.00  0.00    -0.354 N 
ATOM     54  N   UNL     1     -16.228   1.067   3.971  1.00  0.00    -0.248 NA
ATOM     55  C   UNL     1     -17.180  -0.557   5.351  1.00  0.00     0.031 C 
ATOM     56  C   UNL     1     -18.057   5.035   3.150  1.00  0.00     0.029 A 
ATOM     57  C   UNL     1     -17.503   3.797   3.431  1.00  0.00     0.049 A 
ATOM     58  H   UNL     1     -15.659   2.990   2.794  1.00  0.00     0.167 HD
ATOM     59  C   UNL     1     -17.442   1.537   4.455  1.00  0.00     0.074 A 
ATOM     60  C   UNL     1     -18.000   0.482   5.275  1.00  0.00     0.031 C 
ATOM     61  C   UNL     1     -18.043   2.734   4.240  1.00  0.00     0.037 A 
BRANCH  48  62
ATOM     62  C   UNL     1     -14.787   6.589   0.676  1.00  0.00     0.064 A 
ATOM     63  C   UNL     1     -14.883   6.749  -0.714  1.00  0.00     0.173 A 
ATOM     64  C   UNL     1     -14.621   7.741   1.460  1.00  0.00     0.173 A 
ATOM     65  F   UNL     1     -15.027   5.678  -1.509  1.00  0.00    -0.203 F 
ATOM     66  C   UNL     1     -14.794   8.011  -1.298  1.00  0.00     0.198 A 
ATOM     67  C   UNL     1     -14.560   9.003   0.875  1.00  0.00     0.198 A 
ATOM     68  F   UNL     1     -14.526   7.643   2.794  1.00  0.00    -0.203 F 
ATOM     69  F   UNL     1     -14.844   8.136  -2.631  1.00  0.00    -0.200 F 
ATOM     70  C   UNL     1     -14.640   9.137  -0.502  1.00  0.00     0.200 A 
ATOM     71  F   UNL     1     -14.422  10.091   1.646  1.00  0.00    -0.200 F 
ATOM     72  F   UNL     1     -14.561  10.351  -1.065  1.00  0.00    -0.200 F 
ENDBRANCH  48  62
BRANCH  49  73
ATOM     73  C   UNL     1     -15.004  -2.467   4.896  1.00  0.00     0.064 A 
ATOM     74  C   UNL     1     -15.950  -3.428   4.517  1.00  0.00     0.173 A 
ATOM     75  C   UNL     1     -14.099  -2.807   5.913  1.00  0.00     0.173 A 
ATOM     76  F   UNL     1     -16.852  -3.142   3.567  1.00  0.00    -0.203 F 
ATOM     77  C   UNL     1     -16.002  -4.673   5.143  1.00  0.00     0.198 A 
ATOM     78  C   UNL     1     -14.133  -4.061   6.517  1.00  0.00     0.198 A 
ATOM     79  F   UNL     1     -13.174  -1.922   6.312  1.00  0.00    -0.203 F 
ATOM     80  F   UNL     1     -16.945  -5.558   4.793  1.00  0.00    -0.200 F 
ATOM     81  C   UNL     1     -15.089  -4.990   6.138  1.00  0.00     0.200 A 
ATOM     82  F   UNL     1     -13.240  -4.367   7.469  1.00  0.00    -0.200 F 
ATOM     83  F   UNL     1     -15.136  -6.188   6.736  1.00  0.00    -0.200 F 
ENDBRANCH  49  73
BRANCH  61  84
ATOM     84  C   UNL     1     -19.383   2.956   4.878  1.00  0.00     0.064 A 
ATOM     85  C   UNL     1     -19.517   3.152   6.260  1.00  0.00     0.173 A 
ATOM     86  C   UNL     1     -20.544   3.013   4.091  1.00  0.00     0.173 A 
ATOM     87  F   UNL     1     -18.440   3.093   7.058  1.00  0.00    -0.203 F 
ATOM     88  C   UNL     1     -20.767   3.372   6.834  1.00  0.00     0.198 A 
ATOM     89  C   UNL     1     -21.787   3.263   4.664  1.00  0.00     0.198 A 
ATOM     90  F   UNL     1     -20.469   2.840   2.762  1.00  0.00    -0.203 F 
ATOM     91  F   UNL     1     -20.877   3.509   8.163  1.00  0.00    -0.200 F 
ATOM     92  C   UNL     1     -21.899   3.434   6.035  1.00  0.00     0.200 A 
ATOM     93  F   UNL     1     -22.878   3.336   3.889  1.00  0.00    -0.200 F 
ATOM     94  F   UNL     1     -23.100   3.651   6.589  1.00  0.00    -0.200 F 
ENDBRANCH  61  84
ENDBRANCH  35  36
ENDBRANCH  28  30
ENDBRANCH  27  28
ENDBRANCH  26  27
ENDBRANCH  25  26
ENDBRANCH  24  25
ENDBRANCH   1  24
TORSDOF 17
