REMARK SMILES CCc1cc(OCC(=O)OCCOCCOC(=O)c2ccc(-c3c4nc(c(-c5c(F)c(F)c(F)c(F)c5F)c5ccc([nH]5)c(-c5c(F)c(F)c(F)c(F)c5F)c5nc(c(-c6c(F)c(F)c(F)c(F)c6F)c6ccc3[nH]6)C=C5)C=C4)cc2)nc(Nc2ccc(C)c(F)c2)n1
REMARK SMILES IDX 12 1 11 2 10 3 8 4 9 5 7 6 6 7 5 8 3 9 4 10 93 11 83 12
REMARK SMILES IDX 82 13 2 14 1 15 84 16 85 18 86 19 92 20 87 21 90 22 88 23
REMARK SMILES IDX 91 24 89 25 13 26 14 27 15 28 16 29 17 30 18 31 19 32 20 33
REMARK SMILES IDX 81 34 21 35 80 36 22 37 23 38 24 39 74 40 25 41 79 42 73 43
REMARK SMILES IDX 75 44 26 45 78 46 72 47 71 48 27 50 59 51 39 52 58 53 40 54
REMARK SMILES IDX 43 55 57 56 76 57 41 58 42 59 56 61 77 62 44 63 28 64 29 65
REMARK SMILES IDX 37 66 30 67 31 68 35 69 38 70 32 71 33 72 36 73 34 74 60 75
REMARK SMILES IDX 61 76 69 77 62 78 63 79 67 80 70 81 64 82 65 83 68 84 66 85
REMARK SMILES IDX 45 86 46 87 54 88 47 89 48 90 52 91 55 92 49 93 50 94 53 95
REMARK SMILES IDX 51 96
REMARK H PARENT 84 17 75 49 43 60
REMARK Flexibility Score: inf
ROOT
ATOM      1  C   UNL     1       3.991  -0.881  -5.431  1.00  0.00     0.202 C 
ENDROOT
BRANCH   1   2
ATOM      2  C   UNL     1       5.251  -1.407  -4.731  1.00  0.00     0.261 C 
BRANCH   2   3
ATOM      3  O   UNL     1       4.955  -2.336  -3.664  1.00  0.00    -0.461 OA
BRANCH   3   4
ATOM      4  C   UNL     1       5.457  -2.022  -2.437  1.00  0.00     0.344 C 
ATOM      5  O   UNL     1       6.134  -1.029  -2.192  1.00  0.00    -0.248 OA
BRANCH   4   6
ATOM      6  C   UNL     1       5.126  -3.060  -1.364  1.00  0.00     0.353 C 
BRANCH   6   7
ATOM      7  O   UNL     1       4.016  -3.914  -1.544  1.00  0.00    -0.466 OA
BRANCH   7   8
ATOM      8  C   UNL     1       2.785  -3.553  -1.077  1.00  0.00     0.218 A 
ATOM      9  C   UNL     1       1.072  -2.080  -0.444  1.00  0.00     0.050 A 
ATOM     10  C   UNL     1       2.421  -2.287  -0.661  1.00  0.00     0.092 A 
ATOM     11  N   UNL     1       0.183  -3.077  -0.591  1.00  0.00    -0.218 NA
ATOM     12  C   UNL     1       0.623  -4.297  -0.926  1.00  0.00     0.230 A 
ATOM     13  N   UNL     1       1.907  -4.567  -1.169  1.00  0.00    -0.177 NA
BRANCH   9  14
ATOM     14  C   UNL     1       0.454  -0.715  -0.275  1.00  0.00     0.053 C 
ATOM     15  C   UNL     1       1.137   0.226   0.700  1.00  0.00     0.011 C 
ENDBRANCH   9  14
BRANCH  12  16
ATOM     16  N   UNL     1      -0.290  -5.341  -1.024  1.00  0.00    -0.324 N 
ATOM     17  H   UNL     1       0.087  -6.250  -1.040  1.00  0.00     0.170 HD
BRANCH  16  18
ATOM     18  C   UNL     1      -1.682  -5.247  -1.103  1.00  0.00     0.044 A 
ATOM     19  C   UNL     1      -2.489  -5.929  -0.186  1.00  0.00     0.026 A 
ATOM     20  C   UNL     1      -2.297  -4.411  -2.042  1.00  0.00     0.065 A 
ATOM     21  C   UNL     1      -3.878  -5.753  -0.186  1.00  0.00     0.008 A 
ATOM     22  C   UNL     1      -3.680  -4.262  -2.057  1.00  0.00     0.128 A 
ATOM     23  C   UNL     1      -4.489  -4.915  -1.127  1.00  0.00    -0.015 A 
ATOM     24  F   UNL     1      -4.231  -3.462  -2.982  1.00  0.00    -0.207 F 
ATOM     25  C   UNL     1      -5.969  -4.689  -1.096  1.00  0.00     0.047 C 
ENDBRANCH  16  18
ENDBRANCH  12  16
ENDBRANCH   7   8
ENDBRANCH   6   7
ENDBRANCH   4   6
ENDBRANCH   3   4
ENDBRANCH   2   3
ENDBRANCH   1   2
BRANCH   1  26
ATOM     26  O   UNL     1       3.161  -0.001  -4.670  1.00  0.00    -0.374 OA
BRANCH  26  27
ATOM     27  C   UNL     1       2.436  -0.579  -3.589  1.00  0.00     0.202 C 
BRANCH  27  28
ATOM     28  C   UNL     1       1.170  -1.357  -3.956  1.00  0.00     0.261 C 
BRANCH  28  29
ATOM     29  O   UNL     1       1.437  -2.415  -4.876  1.00  0.00    -0.460 OA
BRANCH  29  30
ATOM     30  C   UNL     1       0.733  -2.331  -6.022  1.00  0.00     0.338 C 
ATOM     31  O   UNL     1      -0.159  -1.543  -6.307  1.00  0.00    -0.246 OA
BRANCH  30  32
ATOM     32  C   UNL     1       1.320  -3.241  -7.005  1.00  0.00     0.060 A 
ATOM     33  C   UNL     1       1.793  -2.673  -8.193  1.00  0.00     0.016 A 
ATOM     34  C   UNL     1       1.345  -4.621  -6.795  1.00  0.00     0.016 A 
ATOM     35  C   UNL     1       2.243  -3.499  -9.213  1.00  0.00     0.010 A 
ATOM     36  C   UNL     1       1.792  -5.449  -7.823  1.00  0.00     0.010 A 
ATOM     37  C   UNL     1       2.204  -4.889  -9.045  1.00  0.00    -0.014 A 
BRANCH  37  38
ATOM     38  C   UNL     1       2.454  -5.755 -10.214  1.00  0.00     0.031 A 
ATOM     39  C   UNL     1       1.278  -6.282 -10.983  1.00  0.00     0.074 A 
ATOM     40  C   UNL     1       3.714  -6.025 -10.591  1.00  0.00     0.049 A 
ATOM     41  N   UNL     1       1.256  -7.060 -12.033  1.00  0.00    -0.248 NA
ATOM     42  C   UNL     1      -0.054  -5.876 -10.504  1.00  0.00     0.031 C 
ATOM     43  C   UNL     1       4.915  -5.527  -9.924  1.00  0.00     0.029 A 
ATOM     44  N   UNL     1       4.190  -6.784 -11.626  1.00  0.00    -0.354 N 
ATOM     45  C   UNL     1      -0.087  -7.237 -12.338  1.00  0.00     0.074 A 
ATOM     46  C   UNL     1      -0.852  -6.513 -11.347  1.00  0.00     0.031 C 
ATOM     47  C   UNL     1       5.996  -6.005 -10.563  1.00  0.00     0.029 A 
ATOM     48  C   UNL     1       5.559  -6.862 -11.662  1.00  0.00     0.049 A 
ATOM     49  H   UNL     1       3.606  -7.232 -12.281  1.00  0.00     0.167 HD
ATOM     50  C   UNL     1      -0.627  -7.935 -13.364  1.00  0.00     0.037 A 
ATOM     51  C   UNL     1       6.360  -7.567 -12.482  1.00  0.00     0.037 A 
ATOM     52  C   UNL     1       0.151  -8.651 -14.339  1.00  0.00     0.049 A 
ATOM     53  C   UNL     1       5.731  -8.395 -13.571  1.00  0.00     0.074 A 
ATOM     54  C   UNL     1      -0.285  -9.370 -15.436  1.00  0.00     0.029 A 
ATOM     55  N   UNL     1       1.536  -8.743 -14.322  1.00  0.00    -0.354 N 
ATOM     56  N   UNL     1       4.463  -8.530 -13.879  1.00  0.00    -0.248 NA
ATOM     57  C   UNL     1       6.641  -9.169 -14.425  1.00  0.00     0.031 C 
ATOM     58  C   UNL     1       0.834  -9.940 -16.054  1.00  0.00     0.029 A 
ATOM     59  C   UNL     1       1.970  -9.537 -15.370  1.00  0.00     0.049 A 
ATOM     60  H   UNL     1       2.123  -8.309 -13.661  1.00  0.00     0.167 HD
ATOM     61  C   UNL     1       4.421  -9.390 -14.967  1.00  0.00     0.074 A 
ATOM     62  C   UNL     1       5.796  -9.729 -15.279  1.00  0.00     0.031 C 
ATOM     63  C   UNL     1       3.347  -9.860 -15.648  1.00  0.00     0.037 A 
BRANCH  50  64
ATOM     64  C   UNL     1      -2.123  -7.978 -13.463  1.00  0.00     0.064 A 
ATOM     65  C   UNL     1      -2.870  -6.853 -13.846  1.00  0.00     0.173 A 
ATOM     66  C   UNL     1      -2.819  -9.165 -13.190  1.00  0.00     0.173 A 
ATOM     67  F   UNL     1      -2.253  -5.689 -14.103  1.00  0.00    -0.203 F 
ATOM     68  C   UNL     1      -4.259  -6.909 -13.929  1.00  0.00     0.198 A 
ATOM     69  C   UNL     1      -4.206  -9.224 -13.299  1.00  0.00     0.198 A 
ATOM     70  F   UNL     1      -2.153 -10.269 -12.820  1.00  0.00    -0.203 F 
ATOM     71  F   UNL     1      -4.955  -5.811 -14.254  1.00  0.00    -0.200 F 
ATOM     72  C   UNL     1      -4.925  -8.096 -13.661  1.00  0.00     0.200 A 
ATOM     73  F   UNL     1      -4.847 -10.374 -13.049  1.00  0.00    -0.200 F 
ATOM     74  F   UNL     1      -6.262  -8.150 -13.746  1.00  0.00    -0.200 F 
ENDBRANCH  50  64
BRANCH  51  75
ATOM     75  C   UNL     1       7.832  -7.530 -12.291  1.00  0.00     0.064 A 
ATOM     76  C   UNL     1       8.670  -6.912 -13.228  1.00  0.00     0.173 A 
ATOM     77  C   UNL     1       8.431  -8.108 -11.161  1.00  0.00     0.173 A 
ATOM     78  F   UNL     1       8.147  -6.364 -14.335  1.00  0.00    -0.203 F 
ATOM     79  C   UNL     1      10.052  -6.884 -13.049  1.00  0.00     0.198 A 
ATOM     80  C   UNL     1       9.810  -8.056 -10.970  1.00  0.00     0.198 A 
ATOM     81  F   UNL     1       7.674  -8.712 -10.234  1.00  0.00    -0.203 F 
ATOM     82  F   UNL     1      10.834  -6.318 -13.979  1.00  0.00    -0.200 F 
ATOM     83  C   UNL     1      10.620  -7.449 -11.918  1.00  0.00     0.200 A 
ATOM     84  F   UNL     1      10.353  -8.592  -9.868  1.00  0.00    -0.200 F 
ATOM     85  F   UNL     1      11.948  -7.415 -11.743  1.00  0.00    -0.200 F 
ENDBRANCH  51  75
BRANCH  63  86
ATOM     86  C   UNL     1       3.619 -10.785 -16.796  1.00  0.00     0.064 A 
ATOM     87  C   UNL     1       4.021 -12.111 -16.585  1.00  0.00     0.173 A 
ATOM     88  C   UNL     1       3.421 -10.357 -18.117  1.00  0.00     0.173 A 
ATOM     89  F   UNL     1       4.238 -12.561 -15.339  1.00  0.00    -0.203 F 
ATOM     90  C   UNL     1       4.234 -12.972 -17.657  1.00  0.00     0.198 A 
ATOM     91  C   UNL     1       3.608 -11.228 -19.186  1.00  0.00     0.198 A 
ATOM     92  F   UNL     1       3.030  -9.099 -18.369  1.00  0.00    -0.203 F 
ATOM     93  F   UNL     1       4.657 -14.224 -17.436  1.00  0.00    -0.200 F 
ATOM     94  C   UNL     1       4.019 -12.533 -18.956  1.00  0.00     0.200 A 
ATOM     95  F   UNL     1       3.387 -10.806 -20.439  1.00  0.00    -0.200 F 
ATOM     96  F   UNL     1       4.214 -13.366 -19.987  1.00  0.00    -0.200 F 
ENDBRANCH  63  86
ENDBRANCH  37  38
ENDBRANCH  30  32
ENDBRANCH  29  30
ENDBRANCH  28  29
ENDBRANCH  27  28
ENDBRANCH  26  27
ENDBRANCH   1  26
TORSDOF 19
