REMARK SMILES COc1cc2c(cc1OC)C1=C(C#N)C[N@H+](CC(=O)OCCOCCOC(=O)c3ccc(-c4c5nc(c(-c6c(F)c(F)c(F)c(F)c6F)c6ccc([nH]6)c(-c6c(F)c(F)c(F)c(F)c6F)c6nc(c(-c7c(F)c(F)c(F)c(F)c7F)c7ccc4[nH]7)C=C6)C=C5)cc3)CN1CC2
REMARK SMILES IDX 23 1 22 2 21 3 20 4 18 5 19 6 17 7 16 8 3 9 4 10 8 11 5 12
REMARK SMILES IDX 7 13 6 14 95 15 11 16 94 17 12 18 93 19 15 20 92 21 2 23
REMARK SMILES IDX 1 24 9 25 10 26 13 27 14 28 24 29 25 30 26 31 27 32 28 33
REMARK SMILES IDX 29 34 30 35 91 36 31 37 90 38 32 39 33 40 34 41 84 42 35 43
REMARK SMILES IDX 89 44 83 45 85 46 36 47 88 48 82 49 81 50 37 52 69 53 49 54
REMARK SMILES IDX 68 55 50 56 53 57 67 58 86 59 51 60 52 61 66 63 87 64 54 65
REMARK SMILES IDX 38 66 39 67 47 68 40 69 41 70 45 71 48 72 42 73 43 74 46 75
REMARK SMILES IDX 44 76 70 77 71 78 79 79 72 80 73 81 77 82 80 83 74 84 75 85
REMARK SMILES IDX 78 86 76 87 55 88 56 89 64 90 57 91 58 92 62 93 65 94 59 95
REMARK SMILES IDX 60 96 63 97 61 98
REMARK H PARENT 16 22 85 51 53 62
REMARK Flexibility Score: inf
ROOT
ATOM      1  O   UNL     1       4.849   7.391   1.306  1.00  0.00    -0.374 OA
ENDROOT
BRANCH   1   2
ATOM      2  C   UNL     1       3.484   7.555   1.669  1.00  0.00     0.202 C 
BRANCH   2   3
ATOM      3  C   UNL     1       2.650   8.591   0.899  1.00  0.00     0.261 C 
BRANCH   3   4
ATOM      4  O   UNL     1       2.694   8.428  -0.527  1.00  0.00    -0.459 OA
BRANCH   4   5
ATOM      5  C   UNL     1       3.337   9.396  -1.246  1.00  0.00     0.361 C 
ATOM      6  O   UNL     1       3.773  10.440  -0.773  1.00  0.00    -0.245 OA
BRANCH   5   7
ATOM      7  C   UNL     1       3.543   9.019  -2.729  1.00  0.00     0.388 C 
BRANCH   7   8
ATOM      8  N   UNL     1       3.072   7.664  -3.009  1.00  0.00    -0.304 N 
ATOM      9  C   UNL     1       1.024   1.189  -2.393  1.00  0.00     0.161 A 
ATOM     10  C   UNL     1       2.354   1.610  -2.447  1.00  0.00     0.055 A 
ATOM     11  C   UNL     1       0.059   1.919  -3.095  1.00  0.00     0.161 A 
ATOM     12  C   UNL     1       2.706   2.822  -3.068  1.00  0.00    -0.033 A 
ATOM     13  C   UNL     1       0.422   3.140  -3.705  1.00  0.00     0.061 A 
ATOM     14  C   UNL     1       1.712   3.678  -3.584  1.00  0.00     0.006 A 
ATOM     15  C   UNL     1       4.157   3.218  -3.092  1.00  0.00     0.058 C 
ATOM     16  C   UNL     1       2.050   5.141  -3.760  1.00  0.00     0.068 C 
ATOM     17  C   UNL     1       4.425   4.370  -4.066  1.00  0.00     0.127 C 
ATOM     18  C   UNL     1       1.182   6.177  -3.570  1.00  0.00     0.108 C 
ATOM     19  N   UNL     1       3.426   5.427  -3.913  1.00  0.00    -0.323 N 
ATOM     20  C   UNL     1       1.696   7.603  -3.490  1.00  0.00     0.314 C 
ATOM     21  C   UNL     1       3.895   6.816  -3.848  1.00  0.00     0.390 C 
ATOM     22  H   UNL     1       3.141   7.272  -2.070  1.00  0.00     0.350 HD
BRANCH   9  23
ATOM     23  O   UNL     1       0.709   0.037  -1.721  1.00  0.00    -0.493 OA
ATOM     24  C   UNL     1       1.109   0.054  -0.345  1.00  0.00     0.278 C 
ENDBRANCH   9  23
BRANCH  11  25
ATOM     25  O   UNL     1      -1.281   1.663  -3.217  1.00  0.00    -0.493 OA
ATOM     26  C   UNL     1      -1.805   0.484  -2.631  1.00  0.00     0.278 C 
ENDBRANCH  11  25
BRANCH  18  27
ATOM     27  C   UNL     1      -0.207   6.064  -3.289  1.00  0.00     0.103 C 
ATOM     28  N   UNL     1      -1.345   6.056  -3.045  1.00  0.00    -0.192 NA
ENDBRANCH  18  27
ENDBRANCH   7   8
ENDBRANCH   5   7
ENDBRANCH   4   5
ENDBRANCH   3   4
ENDBRANCH   2   3
ENDBRANCH   1   2
BRANCH   1  29
ATOM     29  C   UNL     1       5.132   6.860   0.019  1.00  0.00     0.202 C 
BRANCH  29  30
ATOM     30  C   UNL     1       4.558   5.489  -0.347  1.00  0.00     0.261 C 
BRANCH  30  31
ATOM     31  O   UNL     1       3.126   5.380  -0.247  1.00  0.00    -0.460 OA
BRANCH  31  32
ATOM     32  C   UNL     1       2.667   4.401   0.577  1.00  0.00     0.338 C 
ATOM     33  O   UNL     1       3.331   3.582   1.191  1.00  0.00    -0.246 OA
BRANCH  32  34
ATOM     34  C   UNL     1       1.200   4.492   0.727  1.00  0.00     0.060 A 
ATOM     35  C   UNL     1       0.393   4.257  -0.374  1.00  0.00     0.016 A 
ATOM     36  C   UNL     1       0.608   4.684   1.975  1.00  0.00     0.016 A 
ATOM     37  C   UNL     1      -0.993   4.177  -0.257  1.00  0.00     0.010 A 
ATOM     38  C   UNL     1      -0.789   4.610   2.104  1.00  0.00     0.010 A 
ATOM     39  C   UNL     1      -1.600   4.333   0.989  1.00  0.00    -0.014 A 
BRANCH  39  40
ATOM     40  C   UNL     1      -3.079   4.210   1.093  1.00  0.00     0.031 A 
ATOM     41  C   UNL     1      -3.915   5.430   1.325  1.00  0.00     0.074 A 
ATOM     42  C   UNL     1      -3.675   3.015   0.909  1.00  0.00     0.049 A 
ATOM     43  N   UNL     1      -5.206   5.522   1.521  1.00  0.00    -0.248 NA
ATOM     44  C   UNL     1      -3.206   6.717   1.353  1.00  0.00     0.031 C 
ATOM     45  C   UNL     1      -2.971   1.770   0.613  1.00  0.00     0.029 A 
ATOM     46  N   UNL     1      -5.000   2.649   0.919  1.00  0.00    -0.354 N 
ATOM     47  C   UNL     1      -5.460   6.871   1.717  1.00  0.00     0.074 A 
ATOM     48  C   UNL     1      -4.189   7.559   1.643  1.00  0.00     0.031 C 
ATOM     49  C   UNL     1      -3.868   0.791   0.418  1.00  0.00     0.029 A 
ATOM     50  C   UNL     1      -5.210   1.316   0.651  1.00  0.00     0.049 A 
ATOM     51  H   UNL     1      -5.732   3.282   1.100  1.00  0.00     0.167 HD
ATOM     52  C   UNL     1      -6.652   7.475   1.933  1.00  0.00     0.037 A 
ATOM     53  C   UNL     1      -6.348   0.593   0.621  1.00  0.00     0.037 A 
ATOM     54  C   UNL     1      -7.915   6.784   1.977  1.00  0.00     0.049 A 
ATOM     55  C   UNL     1      -7.650   1.282   0.943  1.00  0.00     0.074 A 
ATOM     56  C   UNL     1      -9.173   7.308   2.214  1.00  0.00     0.029 A 
ATOM     57  N   UNL     1      -8.082   5.422   1.767  1.00  0.00    -0.354 N 
ATOM     58  N   UNL     1      -7.879   2.551   1.174  1.00  0.00    -0.248 NA
ATOM     59  C   UNL     1      -8.850   0.435   1.028  1.00  0.00     0.031 C 
ATOM     60  C   UNL     1     -10.093   6.257   2.209  1.00  0.00     0.029 A 
ATOM     61  C   UNL     1      -9.421   5.086   1.899  1.00  0.00     0.049 A 
ATOM     62  H   UNL     1      -7.358   4.789   1.557  1.00  0.00     0.167 HD
ATOM     63  C   UNL     1      -9.242   2.659   1.415  1.00  0.00     0.074 A 
ATOM     64  C   UNL     1      -9.797   1.330   1.273  1.00  0.00     0.031 C 
ATOM     65  C   UNL     1      -9.963   3.759   1.740  1.00  0.00     0.037 A 
BRANCH  52  66
ATOM     66  C   UNL     1      -6.652   8.956   2.176  1.00  0.00     0.064 A 
ATOM     67  C   UNL     1      -6.388   9.875   1.150  1.00  0.00     0.173 A 
ATOM     68  C   UNL     1      -6.987   9.463   3.441  1.00  0.00     0.173 A 
ATOM     69  F   UNL     1      -6.048   9.444  -0.073  1.00  0.00    -0.203 F 
ATOM     70  C   UNL     1      -6.445  11.246   1.387  1.00  0.00     0.198 A 
ATOM     71  C   UNL     1      -7.077  10.833   3.665  1.00  0.00     0.198 A 
ATOM     72  F   UNL     1      -7.252   8.627   4.457  1.00  0.00    -0.203 F 
ATOM     73  F   UNL     1      -6.150  12.107   0.403  1.00  0.00    -0.200 F 
ATOM     74  C   UNL     1      -6.802  11.724   2.639  1.00  0.00     0.200 A 
ATOM     75  F   UNL     1      -7.438  11.291   4.872  1.00  0.00    -0.200 F 
ATOM     76  F   UNL     1      -6.876  13.044   2.859  1.00  0.00    -0.200 F 
ENDBRANCH  52  66
BRANCH  53  77
ATOM     77  C   UNL     1      -6.314  -0.865   0.308  1.00  0.00     0.064 A 
ATOM     78  C   UNL     1      -6.971  -1.382  -0.819  1.00  0.00     0.173 A 
ATOM     79  C   UNL     1      -5.642  -1.779   1.136  1.00  0.00     0.173 A 
ATOM     80  F   UNL     1      -7.657  -0.562  -1.629  1.00  0.00    -0.203 F 
ATOM     81  C   UNL     1      -6.967  -2.749  -1.097  1.00  0.00     0.198 A 
ATOM     82  C   UNL     1      -5.604  -3.139   0.835  1.00  0.00     0.198 A 
ATOM     83  F   UNL     1      -5.006  -1.349   2.235  1.00  0.00    -0.203 F 
ATOM     84  F   UNL     1      -7.649  -3.219  -2.150  1.00  0.00    -0.200 F 
ATOM     85  C   UNL     1      -6.274  -3.625  -0.276  1.00  0.00     0.200 A 
ATOM     86  F   UNL     1      -4.919  -3.978   1.624  1.00  0.00    -0.200 F 
ATOM     87  F   UNL     1      -6.261  -4.937  -0.549  1.00  0.00    -0.200 F 
ENDBRANCH  53  77
BRANCH  65  88
ATOM     88  C   UNL     1     -11.443   3.591   1.946  1.00  0.00     0.064 A 
ATOM     89  C   UNL     1     -11.958   2.921   3.065  1.00  0.00     0.173 A 
ATOM     90  C   UNL     1     -12.355   4.187   1.060  1.00  0.00     0.173 A 
ATOM     91  F   UNL     1     -11.130   2.325   3.936  1.00  0.00    -0.203 F 
ATOM     92  C   UNL     1     -13.331   2.842   3.283  1.00  0.00     0.198 A 
ATOM     93  C   UNL     1     -13.725   4.137   1.301  1.00  0.00     0.198 A 
ATOM     94  F   UNL     1     -11.916   4.848  -0.021  1.00  0.00    -0.203 F 
ATOM     95  F   UNL     1     -13.801   2.166   4.340  1.00  0.00    -0.200 F 
ATOM     96  C   UNL     1     -14.212   3.462   2.409  1.00  0.00     0.200 A 
ATOM     97  F   UNL     1     -14.574   4.756   0.468  1.00  0.00    -0.200 F 
ATOM     98  F   UNL     1     -15.532   3.406   2.636  1.00  0.00    -0.200 F 
ENDBRANCH  65  88
ENDBRANCH  39  40
ENDBRANCH  32  34
ENDBRANCH  31  32
ENDBRANCH  30  31
ENDBRANCH  29  30
ENDBRANCH   1  29
TORSDOF 18
