REMARK SMILES Cc1ccc(C(=O)OCCOCCOC(=O)c2ccc(-c3c4nc(c(-c5c(F)c(F)c(F)c(F)c5F)c5ccc([nH]5)c(-c5c(F)c(F)c(F)c(F)c5F)c5nc(c(-c6c(F)c(F)c(F)c(F)c6F)c6ccc3[nH]6)C=C5)C=C4)cc2)cc1NC(=O)c1nn(C)c(=O)c2ccccc12
REMARK SMILES IDX 11 1 10 2 9 3 8 4 6 5 7 6 5 7 1 8 2 9 3 10 81 11 4 12 80 13
REMARK SMILES IDX 82 14 83 15 84 17 85 18 86 19 96 20 87 21 91 22 95 23 88 24
REMARK SMILES IDX 89 25 92 26 94 27 90 28 93 29 12 30 13 31 14 32 15 33 16 34
REMARK SMILES IDX 17 35 18 36 79 37 19 38 78 39 20 40 21 41 22 42 72 43 23 44
REMARK SMILES IDX 77 45 71 46 73 47 24 48 76 49 70 50 69 51 25 53 57 54 37 55
REMARK SMILES IDX 56 56 38 57 41 58 55 59 74 60 39 61 40 62 54 64 75 65 42 66
REMARK SMILES IDX 26 67 27 68 35 69 28 70 29 71 33 72 36 73 30 74 31 75 34 76
REMARK SMILES IDX 32 77 58 78 59 79 67 80 60 81 61 82 65 83 68 84 62 85 63 86
REMARK SMILES IDX 66 87 64 88 43 89 44 90 52 91 45 92 46 93 50 94 53 95 47 96
REMARK SMILES IDX 48 97 51 98 49 99
REMARK H PARENT 82 16 73 52 41 63
REMARK Flexibility Score: inf
ROOT
ATOM      1  O   UNL     1      -3.754  -0.539  -2.418  1.00  0.00    -0.374 OA
ENDROOT
BRANCH   1   2
ATOM      2  C   UNL     1      -3.746   0.875  -2.419  1.00  0.00     0.202 C 
BRANCH   2   3
ATOM      3  C   UNL     1      -4.103   1.264  -1.031  1.00  0.00     0.261 C 
BRANCH   3   4
ATOM      4  O   UNL     1      -2.975   1.161  -0.170  1.00  0.00    -0.460 OA
BRANCH   4   5
ATOM      5  C   UNL     1      -2.618  -0.019   0.430  1.00  0.00     0.338 C 
ATOM      6  O   UNL     1      -3.170  -1.076   0.439  1.00  0.00    -0.246 OA
BRANCH   5   7
ATOM      7  C   UNL     1      -1.254   0.305   0.916  1.00  0.00     0.062 A 
ATOM      8  C   UNL     1       2.579   1.825  -0.054  1.00  0.00     0.046 C 
ATOM      9  C   UNL     1       1.202   1.399   0.368  1.00  0.00    -0.027 A 
ATOM     10  C   UNL     1       0.994  -0.012   0.292  1.00  0.00     0.006 A 
ATOM     11  C   UNL     1       0.169   2.257   0.833  1.00  0.00     0.045 A 
ATOM     12  C   UNL     1      -0.253  -0.562   0.520  1.00  0.00     0.016 A 
ATOM     13  C   UNL     1      -0.998   1.646   1.260  1.00  0.00     0.042 A 
BRANCH  11  14
ATOM     14  N   UNL     1       0.113   3.681   0.600  1.00  0.00    -0.320 N 
ATOM     15  C   UNL     1      -0.939   4.547   1.025  1.00  0.00     0.276 C 
ATOM     16  H   UNL     1       0.862   4.088   0.108  1.00  0.00     0.170 HD
ATOM     17  O   UNL     1      -1.459   4.552   2.132  1.00  0.00    -0.267 OA
BRANCH  15  18
ATOM     18  C   UNL     1      -1.565   5.398  -0.125  1.00  0.00     0.157 A 
ATOM     19  N   UNL     1      -1.098   5.027  -1.283  1.00  0.00    -0.164 NA
ATOM     20  C   UNL     1      -2.769   6.321  -0.016  1.00  0.00     0.020 A 
ATOM     21  N   UNL     1      -1.836   5.317  -2.396  1.00  0.00    -0.232 N 
ATOM     22  C   UNL     1      -3.297   6.792  -1.231  1.00  0.00     0.051 A 
ATOM     23  C   UNL     1      -3.505   6.625   1.140  1.00  0.00     0.011 A 
ATOM     24  C   UNL     1      -2.455   4.130  -2.954  1.00  0.00     0.178 C 
ATOM     25  C   UNL     1      -2.630   6.448  -2.492  1.00  0.00     0.274 A 
ATOM     26  C   UNL     1      -4.561   7.408  -1.330  1.00  0.00     0.014 A 
ATOM     27  C   UNL     1      -4.774   7.258   1.046  1.00  0.00     0.001 A 
ATOM     28  O   UNL     1      -2.947   6.990  -3.545  1.00  0.00    -0.267 OA
ATOM     29  C   UNL     1      -5.318   7.614  -0.189  1.00  0.00     0.001 A 
ENDBRANCH  15  18
ENDBRANCH  11  14
ENDBRANCH   5   7
ENDBRANCH   4   5
ENDBRANCH   3   4
ENDBRANCH   2   3
ENDBRANCH   1   2
BRANCH   1  30
ATOM     30  C   UNL     1      -3.523  -1.126  -3.682  1.00  0.00     0.202 C 
BRANCH  30  31
ATOM     31  C   UNL     1      -4.562  -0.696  -4.727  1.00  0.00     0.261 C 
BRANCH  31  32
ATOM     32  O   UNL     1      -5.881  -1.063  -4.260  1.00  0.00    -0.460 OA
BRANCH  32  33
ATOM     33  C   UNL     1      -6.674  -0.055  -3.797  1.00  0.00     0.338 C 
ATOM     34  O   UNL     1      -6.827   1.030  -4.335  1.00  0.00    -0.246 OA
BRANCH  33  35
ATOM     35  C   UNL     1      -7.086  -0.339  -2.385  1.00  0.00     0.060 A 
ATOM     36  C   UNL     1      -7.700   0.666  -1.612  1.00  0.00     0.016 A 
ATOM     37  C   UNL     1      -6.555  -1.461  -1.750  1.00  0.00     0.016 A 
ATOM     38  C   UNL     1      -7.624   0.625  -0.208  1.00  0.00     0.010 A 
ATOM     39  C   UNL     1      -6.396  -1.445  -0.376  1.00  0.00     0.010 A 
ATOM     40  C   UNL     1      -6.877  -0.379   0.404  1.00  0.00    -0.014 A 
BRANCH  40  41
ATOM     41  C   UNL     1      -6.388  -0.366   1.792  1.00  0.00     0.031 A 
ATOM     42  C   UNL     1      -6.783  -1.445   2.705  1.00  0.00     0.074 A 
ATOM     43  C   UNL     1      -5.362   0.432   2.171  1.00  0.00     0.049 A 
ATOM     44  N   UNL     1      -6.548  -1.437   3.972  1.00  0.00    -0.248 NA
ATOM     45  C   UNL     1      -7.550  -2.610   2.275  1.00  0.00     0.031 C 
ATOM     46  C   UNL     1      -4.370   0.259   3.238  1.00  0.00     0.029 A 
ATOM     47  N   UNL     1      -5.032   1.681   1.669  1.00  0.00    -0.354 N 
ATOM     48  C   UNL     1      -6.696  -2.734   4.391  1.00  0.00     0.074 A 
ATOM     49  C   UNL     1      -7.542  -3.335   3.396  1.00  0.00     0.031 C 
ATOM     50  C   UNL     1      -3.789   1.443   3.511  1.00  0.00     0.029 A 
ATOM     51  C   UNL     1      -4.506   2.430   2.725  1.00  0.00     0.049 A 
ATOM     52  H   UNL     1      -5.146   1.984   0.739  1.00  0.00     0.167 HD
ATOM     53  C   UNL     1      -5.887  -3.178   5.396  1.00  0.00     0.037 A 
ATOM     54  C   UNL     1      -5.114   3.577   3.121  1.00  0.00     0.037 A 
ATOM     55  C   UNL     1      -5.155  -2.058   6.019  1.00  0.00     0.049 A 
ATOM     56  C   UNL     1      -5.322   3.463   4.590  1.00  0.00     0.074 A 
ATOM     57  C   UNL     1      -3.816  -1.706   6.082  1.00  0.00     0.029 A 
ATOM     58  N   UNL     1      -5.866  -0.950   6.483  1.00  0.00    -0.354 N 
ATOM     59  N   UNL     1      -5.663   2.328   5.134  1.00  0.00    -0.248 NA
ATOM     60  C   UNL     1      -5.002   4.507   5.556  1.00  0.00     0.031 C 
ATOM     61  C   UNL     1      -3.736  -0.362   6.547  1.00  0.00     0.029 A 
ATOM     62  C   UNL     1      -5.023   0.101   6.780  1.00  0.00     0.049 A 
ATOM     63  H   UNL     1      -6.845  -0.921   6.586  1.00  0.00     0.167 HD
ATOM     64  C   UNL     1      -5.464   2.433   6.473  1.00  0.00     0.074 A 
ATOM     65  C   UNL     1      -5.133   3.828   6.709  1.00  0.00     0.031 C 
ATOM     66  C   UNL     1      -5.542   1.358   7.297  1.00  0.00     0.037 A 
BRANCH  53  67
ATOM     67  C   UNL     1      -5.553  -4.638   5.678  1.00  0.00     0.064 A 
ATOM     68  C   UNL     1      -4.627  -4.964   6.696  1.00  0.00     0.173 A 
ATOM     69  C   UNL     1      -6.023  -5.760   4.957  1.00  0.00     0.173 A 
ATOM     70  F   UNL     1      -4.098  -4.021   7.488  1.00  0.00    -0.203 F 
ATOM     71  C   UNL     1      -4.197  -6.273   6.944  1.00  0.00     0.198 A 
ATOM     72  C   UNL     1      -5.626  -7.072   5.234  1.00  0.00     0.198 A 
ATOM     73  F   UNL     1      -6.862  -5.663   3.927  1.00  0.00    -0.203 F 
ATOM     74  F   UNL     1      -3.278  -6.501   7.893  1.00  0.00    -0.200 F 
ATOM     75  C   UNL     1      -4.704  -7.329   6.219  1.00  0.00     0.200 A 
ATOM     76  F   UNL     1      -6.141  -8.081   4.516  1.00  0.00    -0.200 F 
ATOM     77  F   UNL     1      -4.305  -8.584   6.463  1.00  0.00    -0.200 F 
ENDBRANCH  53  67
BRANCH  54  78
ATOM     78  C   UNL     1      -6.058   4.079   2.073  1.00  0.00     0.064 A 
ATOM     79  C   UNL     1      -5.557   4.218   0.752  1.00  0.00     0.173 A 
ATOM     80  C   UNL     1      -7.446   4.064   2.204  1.00  0.00     0.173 A 
ATOM     81  F   UNL     1      -4.238   4.088   0.526  1.00  0.00    -0.203 F 
ATOM     82  C   UNL     1      -6.376   4.301  -0.367  1.00  0.00     0.198 A 
ATOM     83  C   UNL     1      -8.275   4.142   1.073  1.00  0.00     0.198 A 
ATOM     84  F   UNL     1      -8.013   3.865   3.401  1.00  0.00    -0.203 F 
ATOM     85  F   UNL     1      -5.829   4.323  -1.592  1.00  0.00    -0.200 F 
ATOM     86  C   UNL     1      -7.741   4.253  -0.206  1.00  0.00     0.200 A 
ATOM     87  F   UNL     1      -9.601   4.007   1.210  1.00  0.00    -0.200 F 
ATOM     88  F   UNL     1      -8.536   4.226  -1.284  1.00  0.00    -0.200 F 
ENDBRANCH  54  78
BRANCH  66  89
ATOM     89  C   UNL     1      -6.145   1.457   8.663  1.00  0.00     0.064 A 
ATOM     90  C   UNL     1      -6.973   2.529   9.050  1.00  0.00     0.173 A 
ATOM     91  C   UNL     1      -6.096   0.362   9.549  1.00  0.00     0.173 A 
ATOM     92  F   UNL     1      -7.207   3.571   8.240  1.00  0.00    -0.203 F 
ATOM     93  C   UNL     1      -7.650   2.534  10.264  1.00  0.00     0.198 A 
ATOM     94  C   UNL     1      -6.824   0.346  10.735  1.00  0.00     0.198 A 
ATOM     95  F   UNL     1      -5.389  -0.741   9.266  1.00  0.00    -0.203 F 
ATOM     96  F   UNL     1      -8.399   3.594  10.597  1.00  0.00    -0.200 F 
ATOM     97  C   UNL     1      -7.585   1.439  11.101  1.00  0.00     0.200 A 
ATOM     98  F   UNL     1      -6.809  -0.750  11.507  1.00  0.00    -0.200 F 
ATOM     99  F   UNL     1      -8.276   1.427  12.247  1.00  0.00    -0.200 F 
ENDBRANCH  66  89
ENDBRANCH  40  41
ENDBRANCH  33  35
ENDBRANCH  32  33
ENDBRANCH  31  32
ENDBRANCH  30  31
ENDBRANCH   1  30
TORSDOF 16
