REMARK SMILES Nc1nccc(N2CCC[C@@](Cc3ccc(F)cc3F)(C(=O)OCCOCCOC(=O)c3ccc(-c4c5nc(c(-c6c(F)c(F)c(F)c(F)c6F)c6ccc([nH]6)c(-c6c(F)c(F)c(F)c(F)c6F)c6nc(c(-c7c(F)c(F)c(F)c(F)c7F)c7ccc4[nH]7)C=C6)C=C5)cc3)C2)n1
REMARK SMILES IDX 26 1 25 2 24 3 23 4 21 5 22 6 11 7 7 8 8 9 95 10 9 11 10 12
REMARK SMILES IDX 6 13 2 14 3 15 96 16 4 17 5 18 1 19 12 22 13 23 14 24 19 25
REMARK SMILES IDX 15 26 18 27 20 28 16 29 17 30 27 31 28 32 29 33 30 34 31 35
REMARK SMILES IDX 32 36 33 37 94 38 34 39 93 40 35 41 36 42 37 43 87 44 38 45
REMARK SMILES IDX 92 46 86 47 88 48 39 49 91 50 85 51 84 52 40 54 72 55 52 56
REMARK SMILES IDX 71 57 53 58 56 59 70 60 89 61 54 62 55 63 69 65 90 66 57 67
REMARK SMILES IDX 41 68 42 69 50 70 43 71 44 72 48 73 51 74 45 75 46 76 49 77
REMARK SMILES IDX 47 78 73 79 74 80 82 81 75 82 76 83 80 84 83 85 77 86 78 87
REMARK SMILES IDX 81 88 79 89 58 90 59 91 67 92 60 93 61 94 65 95 68 96 62 97
REMARK SMILES IDX 63 98 66 99 64 100
REMARK H PARENT 1 20 1 21 88 53 56 64
REMARK Flexibility Score: inf
ROOT
ATOM      1  O   UNL     1       0.585  -7.115  -3.555  1.00  0.00    -0.374 OA
ENDROOT
BRANCH   1   2
ATOM      2  C   UNL     1       1.643  -7.222  -4.498  1.00  0.00     0.202 C 
BRANCH   2   3
ATOM      3  C   UNL     1       2.526  -5.989  -4.718  1.00  0.00     0.261 C 
BRANCH   3   4
ATOM      4  O   UNL     1       2.958  -5.346  -3.507  1.00  0.00    -0.463 OA
BRANCH   4   5
ATOM      5  C   UNL     1       2.454  -4.095  -3.313  1.00  0.00     0.314 C 
ATOM      6  O   UNL     1       1.701  -3.533  -4.102  1.00  0.00    -0.252 OA
BRANCH   5   7
ATOM      7  C   UNL     1       2.979  -3.407  -2.055  1.00  0.00     0.090 C 
ATOM      8  N   UNL     1       2.100  -2.048  -0.216  1.00  0.00    -0.355 N 
ATOM      9  C   UNL     1       2.578  -2.890   0.870  1.00  0.00     0.118 C 
ATOM     10  C   UNL     1       1.724  -2.737  -1.448  1.00  0.00     0.137 C 
ATOM     11  C   UNL     1       3.804  -3.666   0.379  1.00  0.00     0.023 C 
ATOM     12  C   UNL     1       3.570  -4.355  -0.977  1.00  0.00     0.023 C 
BRANCH   8  13
ATOM     13  C   UNL     1       1.275  -0.980   0.121  1.00  0.00     0.134 A 
ATOM     14  C   UNL     1      -0.798  -0.016   0.214  1.00  0.00     0.221 A 
ATOM     15  N   UNL     1      -0.314   1.197   0.491  1.00  0.00    -0.222 NA
ATOM     16  N   UNL     1      -0.058  -1.110   0.013  1.00  0.00    -0.196 NA
ATOM     17  C   UNL     1       1.021   1.293   0.591  1.00  0.00     0.119 A 
ATOM     18  C   UNL     1       1.867   0.226   0.432  1.00  0.00     0.067 A 
BRANCH  14  19
ATOM     19  N   UNL     1      -2.152  -0.138   0.103  1.00  0.00    -0.368 N 
ATOM     20  H   UNL     1      -2.731   0.646   0.245  1.00  0.00     0.159 HD
ATOM     21  H   UNL     1      -2.552  -1.010  -0.117  1.00  0.00     0.159 HD
ENDBRANCH  14  19
ENDBRANCH   8  13
BRANCH   7  22
ATOM     22  C   UNL     1       3.981  -2.304  -2.514  1.00  0.00     0.059 C 
BRANCH  22  23
ATOM     23  C   UNL     1       5.292  -2.806  -3.079  1.00  0.00    -0.011 A 
ATOM     24  C   UNL     1       5.365  -3.319  -4.382  1.00  0.00     0.010 A 
ATOM     25  C   UNL     1       6.461  -2.780  -2.306  1.00  0.00     0.129 A 
ATOM     26  C   UNL     1       6.565  -3.840  -4.867  1.00  0.00     0.040 A 
ATOM     27  C   UNL     1       7.662  -3.287  -2.785  1.00  0.00     0.078 A 
ATOM     28  F   UNL     1       6.436  -2.261  -1.070  1.00  0.00    -0.207 F 
ATOM     29  C   UNL     1       7.699  -3.825  -4.062  1.00  0.00     0.126 A 
ATOM     30  F   UNL     1       8.844  -4.334  -4.532  1.00  0.00    -0.207 F 
ENDBRANCH  22  23
ENDBRANCH   7  22
ENDBRANCH   5   7
ENDBRANCH   4   5
ENDBRANCH   3   4
ENDBRANCH   2   3
ENDBRANCH   1   2
BRANCH   1  31
ATOM     31  C   UNL     1       0.927  -7.051  -2.171  1.00  0.00     0.202 C 
BRANCH  31  32
ATOM     32  C   UNL     1       1.726  -8.223  -1.583  1.00  0.00     0.261 C 
BRANCH  32  33
ATOM     33  O   UNL     1       3.067  -8.309  -2.109  1.00  0.00    -0.460 OA
BRANCH  33  34
ATOM     34  C   UNL     1       3.415  -9.539  -2.562  1.00  0.00     0.338 C 
ATOM     35  O   UNL     1       2.748 -10.562  -2.514  1.00  0.00    -0.246 OA
BRANCH  34  36
ATOM     36  C   UNL     1       4.696  -9.495  -3.288  1.00  0.00     0.060 A 
ATOM     37  C   UNL     1       4.685  -9.800  -4.655  1.00  0.00     0.016 A 
ATOM     38  C   UNL     1       5.903  -9.336  -2.606  1.00  0.00     0.016 A 
ATOM     39  C   UNL     1       5.887  -9.995  -5.336  1.00  0.00     0.010 A 
ATOM     40  C   UNL     1       7.108  -9.541  -3.289  1.00  0.00     0.010 A 
ATOM     41  C   UNL     1       7.105  -9.909  -4.647  1.00  0.00    -0.014 A 
BRANCH  41  42
ATOM     42  C   UNL     1       8.359 -10.335  -5.319  1.00  0.00     0.031 A 
ATOM     43  C   UNL     1       8.873 -11.733  -5.107  1.00  0.00     0.074 A 
ATOM     44  C   UNL     1       9.011  -9.499  -6.146  1.00  0.00     0.049 A 
ATOM     45  N   UNL     1       9.956 -12.300  -5.577  1.00  0.00    -0.248 NA
ATOM     46  C   UNL     1       8.055 -12.614  -4.257  1.00  0.00     0.031 C 
ATOM     47  C   UNL     1       8.591  -8.139  -6.474  1.00  0.00     0.029 A 
ATOM     48  N   UNL     1      10.169  -9.677  -6.864  1.00  0.00    -0.354 N 
ATOM     49  C   UNL     1       9.949 -13.598  -5.084  1.00  0.00     0.074 A 
ATOM     50  C   UNL     1       8.767 -13.732  -4.260  1.00  0.00     0.031 C 
ATOM     51  C   UNL     1       9.479  -7.603  -7.329  1.00  0.00     0.029 A 
ATOM     52  C   UNL     1      10.545  -8.571  -7.584  1.00  0.00     0.049 A 
ATOM     53  H   UNL     1      10.680 -10.518  -6.861  1.00  0.00     0.167 HD
ATOM     54  C   UNL     1      10.843 -14.590  -5.306  1.00  0.00     0.037 A 
ATOM     55  C   UNL     1      11.635  -8.358  -8.347  1.00  0.00     0.037 A 
ATOM     56  C   UNL     1      12.019 -14.463  -6.125  1.00  0.00     0.049 A 
ATOM     57  C   UNL     1      12.654  -9.455  -8.514  1.00  0.00     0.074 A 
ATOM     58  C   UNL     1      12.986 -15.415  -6.399  1.00  0.00     0.029 A 
ATOM     59  N   UNL     1      12.387 -13.311  -6.802  1.00  0.00    -0.354 N 
ATOM     60  N   UNL     1      12.640 -10.677  -8.041  1.00  0.00    -0.248 NA
ATOM     61  C   UNL     1      13.844  -9.140  -9.320  1.00  0.00     0.031 C 
ATOM     62  C   UNL     1      13.958 -14.829  -7.215  1.00  0.00     0.029 A 
ATOM     63  C   UNL     1      13.576 -13.525  -7.481  1.00  0.00     0.049 A 
ATOM     64  H   UNL     1      11.880 -12.467  -6.801  1.00  0.00     0.167 HD
ATOM     65  C   UNL     1      13.799 -11.282  -8.509  1.00  0.00     0.074 A 
ATOM     66  C   UNL     1      14.492 -10.298  -9.312  1.00  0.00     0.031 C 
ATOM     67  C   UNL     1      14.248 -12.541  -8.290  1.00  0.00     0.037 A 
BRANCH  54  68
ATOM     68  C   UNL     1      10.597 -15.914  -4.648  1.00  0.00     0.064 A 
ATOM     69  C   UNL     1      11.393 -16.332  -3.571  1.00  0.00     0.173 A 
ATOM     70  C   UNL     1       9.634 -16.805  -5.141  1.00  0.00     0.173 A 
ATOM     71  F   UNL     1      12.332 -15.516  -3.068  1.00  0.00    -0.203 F 
ATOM     72  C   UNL     1      11.243 -17.602  -3.022  1.00  0.00     0.198 A 
ATOM     73  C   UNL     1       9.473 -18.067  -4.576  1.00  0.00     0.198 A 
ATOM     74  F   UNL     1       8.843 -16.446  -6.163  1.00  0.00    -0.203 F 
ATOM     75  F   UNL     1      12.035 -17.992  -2.013  1.00  0.00    -0.200 F 
ATOM     76  C   UNL     1      10.284 -18.468  -3.524  1.00  0.00     0.200 A 
ATOM     77  F   UNL     1       8.535 -18.898  -5.051  1.00  0.00    -0.200 F 
ATOM     78  F   UNL     1      10.141 -19.691  -2.994  1.00  0.00    -0.200 F 
ENDBRANCH  54  68
BRANCH  55  79
ATOM     79  C   UNL     1      11.825  -7.045  -9.014  1.00  0.00     0.064 A 
ATOM     80  C   UNL     1      12.129  -5.892  -8.276  1.00  0.00     0.173 A 
ATOM     81  C   UNL     1      11.718  -6.921 -10.406  1.00  0.00     0.173 A 
ATOM     82  F   UNL     1      12.251  -5.961  -6.942  1.00  0.00    -0.203 F 
ATOM     83  C   UNL     1      12.302  -4.661  -8.904  1.00  0.00     0.198 A 
ATOM     84  C   UNL     1      11.916  -5.694 -11.035  1.00  0.00     0.198 A 
ATOM     85  F   UNL     1      11.457  -8.002 -11.155  1.00  0.00    -0.203 F 
ATOM     86  F   UNL     1      12.571  -3.570  -8.174  1.00  0.00    -0.200 F 
ATOM     87  C   UNL     1      12.201  -4.564 -10.284  1.00  0.00     0.200 A 
ATOM     88  F   UNL     1      11.845  -5.610 -12.371  1.00  0.00    -0.200 F 
ATOM     89  F   UNL     1      12.387  -3.384 -10.890  1.00  0.00    -0.200 F 
ENDBRANCH  55  79
BRANCH  67  90
ATOM     90  C   UNL     1      15.532 -12.949  -8.947  1.00  0.00     0.064 A 
ATOM     91  C   UNL     1      15.524 -13.853 -10.021  1.00  0.00     0.173 A 
ATOM     92  C   UNL     1      16.773 -12.507  -8.467  1.00  0.00     0.173 A 
ATOM     93  F   UNL     1      14.363 -14.311 -10.510  1.00  0.00    -0.203 F 
ATOM     94  C   UNL     1      16.714 -14.308 -10.582  1.00  0.00     0.198 A 
ATOM     95  C   UNL     1      17.960 -12.946  -9.046  1.00  0.00     0.198 A 
ATOM     96  F   UNL     1      16.830 -11.634  -7.450  1.00  0.00    -0.203 F 
ATOM     97  F   UNL     1      16.684 -15.193 -11.588  1.00  0.00    -0.200 F 
ATOM     98  C   UNL     1      17.931 -13.852 -10.096  1.00  0.00     0.200 A 
ATOM     99  F   UNL     1      19.135 -12.491  -8.589  1.00  0.00    -0.200 F 
ATOM    100  F   UNL     1      19.076 -14.285 -10.642  1.00  0.00    -0.200 F 
ENDBRANCH  67  90
ENDBRANCH  41  42
ENDBRANCH  34  36
ENDBRANCH  33  34
ENDBRANCH  32  33
ENDBRANCH  31  32
ENDBRANCH   1  31
TORSDOF 18
