REMARK SMILES CN(C)c1ccc(C(=O)NCCCC(=O)OCCOCCOC(=O)c2ccc(-c3c4nc(c(-c5c(F)c(F)c(F)c(F)c5F)c5ccc([nH]5)c(-c5c(F)c(F)c(F)c(F)c5F)c5nc(c(-c6c(F)c(F)c(F)c(F)c6F)c6ccc3[nH]6)C=C5)C=C4)cc2)cn1
REMARK SMILES IDX 17 1 16 2 14 3 15 4 13 5 12 6 11 7 10 8 8 9 9 10 7 12 4 13
REMARK SMILES IDX 5 14 89 15 6 16 88 17 2 18 1 19 3 20 18 21 19 22 20 23 21 24
REMARK SMILES IDX 22 25 23 26 24 27 25 28 26 29 87 30 27 31 86 32 28 33 29 34
REMARK SMILES IDX 30 35 80 36 31 37 85 38 79 39 81 40 32 41 84 42 78 43 77 44
REMARK SMILES IDX 33 46 65 47 45 48 64 49 46 50 49 51 63 52 82 53 47 54 48 55
REMARK SMILES IDX 62 57 83 58 50 59 34 60 35 61 43 62 36 63 37 64 41 65 44 66
REMARK SMILES IDX 38 67 39 68 42 69 40 70 66 71 67 72 75 73 68 74 69 75 73 76
REMARK SMILES IDX 76 77 70 78 71 79 74 80 72 81 51 82 52 83 60 84 53 85 54 86
REMARK SMILES IDX 58 87 61 88 55 89 56 90 59 91 57 92
REMARK H PARENT 10 11 81 45 49 56
REMARK Flexibility Score: inf
ROOT
ATOM      1  C   UNL     1       7.029   7.039  -5.280  1.00  0.00     0.261 C 
ENDROOT
BRANCH   1   2
ATOM      2  O   UNL     1       6.151   5.996  -5.749  1.00  0.00    -0.463 OA
BRANCH   2   3
ATOM      3  C   UNL     1       6.508   5.319  -6.867  1.00  0.00     0.305 C 
ATOM      4  O   UNL     1       7.462   5.593  -7.581  1.00  0.00    -0.252 OA
BRANCH   3   5
ATOM      5  C   UNL     1       5.555   4.173  -7.150  1.00  0.00     0.124 C 
BRANCH   5   6
ATOM      6  C   UNL     1       5.212   3.277  -5.949  1.00  0.00     0.033 C 
BRANCH   6   7
ATOM      7  C   UNL     1       4.200   3.885  -4.973  1.00  0.00     0.117 C 
BRANCH   7   8
ATOM      8  N   UNL     1       2.872   3.859  -5.550  1.00  0.00    -0.352 N 
ATOM      9  C   UNL     1       1.734   3.139  -5.313  1.00  0.00     0.252 C 
ATOM     10  O   UNL     1       0.770   3.397  -6.037  1.00  0.00    -0.269 OA
ATOM     11  H   UNL     1       2.764   4.509  -6.281  1.00  0.00     0.163 HD
BRANCH   9  12
ATOM     12  C   UNL     1       1.567   2.127  -4.240  1.00  0.00     0.058 A 
ATOM     13  C   UNL     1       0.888   0.302  -2.234  1.00  0.00     0.127 A 
ATOM     14  C   UNL     1       2.225   0.574  -2.513  1.00  0.00     0.048 A 
ATOM     15  N   UNL     1      -0.092   0.890  -2.946  1.00  0.00    -0.239 NA
ATOM     16  C   UNL     1       2.566   1.456  -3.546  1.00  0.00     0.019 A 
ATOM     17  C   UNL     1       0.260   1.786  -3.907  1.00  0.00     0.127 A 
BRANCH  13  18
ATOM     18  N   UNL     1       0.559  -0.599  -1.225  1.00  0.00    -0.363 N 
ATOM     19  C   UNL     1       0.851  -0.149   0.127  1.00  0.00     0.144 C 
ATOM     20  C   UNL     1      -0.656  -1.366  -1.446  1.00  0.00     0.144 C 
ENDBRANCH  13  18
ENDBRANCH   9  12
ENDBRANCH   7   8
ENDBRANCH   6   7
ENDBRANCH   5   6
ENDBRANCH   3   5
ENDBRANCH   2   3
ENDBRANCH   1   2
BRANCH   1  21
ATOM     21  C   UNL     1       7.544   6.689  -3.880  1.00  0.00     0.202 C 
BRANCH  21  22
ATOM     22  O   UNL     1       8.658   5.792  -3.854  1.00  0.00    -0.374 OA
BRANCH  22  23
ATOM     23  C   UNL     1       8.367   4.415  -4.076  1.00  0.00     0.202 C 
BRANCH  23  24
ATOM     24  C   UNL     1       8.008   3.614  -2.819  1.00  0.00     0.261 C 
BRANCH  24  25
ATOM     25  O   UNL     1       6.831   4.132  -2.172  1.00  0.00    -0.460 OA
BRANCH  25  26
ATOM     26  C   UNL     1       7.086   4.834  -1.043  1.00  0.00     0.338 C 
ATOM     27  O   UNL     1       8.167   4.975  -0.486  1.00  0.00    -0.246 OA
BRANCH  26  28
ATOM     28  C   UNL     1       5.887   5.571  -0.607  1.00  0.00     0.060 A 
ATOM     29  C   UNL     1       6.047   6.932  -0.324  1.00  0.00     0.016 A 
ATOM     30  C   UNL     1       4.658   4.941  -0.393  1.00  0.00     0.016 A 
ATOM     31  C   UNL     1       4.995   7.657   0.228  1.00  0.00     0.010 A 
ATOM     32  C   UNL     1       3.601   5.673   0.163  1.00  0.00     0.010 A 
ATOM     33  C   UNL     1       3.777   7.024   0.511  1.00  0.00    -0.014 A 
BRANCH  33  34
ATOM     34  C   UNL     1       2.748   7.766   1.282  1.00  0.00     0.031 A 
ATOM     35  C   UNL     1       2.613   7.527   2.760  1.00  0.00     0.074 A 
ATOM     36  C   UNL     1       1.989   8.699   0.682  1.00  0.00     0.049 A 
ATOM     37  N   UNL     1       1.836   8.120   3.632  1.00  0.00    -0.248 NA
ATOM     38  C   UNL     1       3.471   6.479   3.333  1.00  0.00     0.031 C 
ATOM     39  C   UNL     1       2.046   9.046  -0.735  1.00  0.00     0.029 A 
ATOM     40  N   UNL     1       1.030   9.535   1.198  1.00  0.00    -0.354 N 
ATOM     41  C   UNL     1       2.113   7.522   4.854  1.00  0.00     0.074 A 
ATOM     42  C   UNL     1       3.099   6.492   4.605  1.00  0.00     0.031 C 
ATOM     43  C   UNL     1       1.171  10.037  -0.976  1.00  0.00     0.029 A 
ATOM     44  C   UNL     1       0.476  10.375   0.265  1.00  0.00     0.049 A 
ATOM     45  H   UNL     1       0.766   9.532   2.146  1.00  0.00     0.167 HD
ATOM     46  C   UNL     1       1.604   7.815   6.076  1.00  0.00     0.037 A 
ATOM     47  C   UNL     1      -0.484  11.310   0.399  1.00  0.00     0.037 A 
ATOM     48  C   UNL     1       0.619   8.836   6.324  1.00  0.00     0.049 A 
ATOM     49  C   UNL     1      -1.088  11.565   1.753  1.00  0.00     0.074 A 
ATOM     50  C   UNL     1       0.064   9.228   7.530  1.00  0.00     0.029 A 
ATOM     51  N   UNL     1       0.030   9.620   5.343  1.00  0.00    -0.354 N 
ATOM     52  N   UNL     1      -0.791  11.025   2.910  1.00  0.00    -0.248 NA
ATOM     53  C   UNL     1      -2.161  12.568   1.817  1.00  0.00     0.031 C 
ATOM     54  C   UNL     1      -0.900  10.209   7.272  1.00  0.00     0.029 A 
ATOM     55  C   UNL     1      -0.908  10.470   5.911  1.00  0.00     0.049 A 
ATOM     56  H   UNL     1       0.247   9.580   4.383  1.00  0.00     0.167 HD
ATOM     57  C   UNL     1      -1.621  11.636   3.842  1.00  0.00     0.074 A 
ATOM     58  C   UNL     1      -2.423  12.600   3.116  1.00  0.00     0.031 C 
ATOM     59  C   UNL     1      -1.709  11.418   5.178  1.00  0.00     0.037 A 
BRANCH  46  60
ATOM     60  C   UNL     1       2.087   6.990   7.234  1.00  0.00     0.064 A 
ATOM     61  C   UNL     1       3.397   7.102   7.727  1.00  0.00     0.173 A 
ATOM     62  C   UNL     1       1.229   6.074   7.861  1.00  0.00     0.173 A 
ATOM     63  F   UNL     1       4.263   7.953   7.155  1.00  0.00    -0.203 F 
ATOM     64  C   UNL     1       3.840   6.300   8.776  1.00  0.00     0.198 A 
ATOM     65  C   UNL     1       1.666   5.296   8.930  1.00  0.00     0.198 A 
ATOM     66  F   UNL     1      -0.035   5.929   7.433  1.00  0.00    -0.203 F 
ATOM     67  F   UNL     1       5.112   6.381   9.188  1.00  0.00    -0.200 F 
ATOM     68  C   UNL     1       2.973   5.401   9.379  1.00  0.00     0.200 A 
ATOM     69  F   UNL     1       0.824   4.434   9.518  1.00  0.00    -0.200 F 
ATOM     70  F   UNL     1       3.402   4.626  10.385  1.00  0.00    -0.200 F 
ENDBRANCH  46  60
BRANCH  47  71
ATOM     71  C   UNL     1      -0.918  12.091  -0.787  1.00  0.00     0.064 A 
ATOM     72  C   UNL     1      -0.601  13.450  -0.908  1.00  0.00     0.173 A 
ATOM     73  C   UNL     1      -1.648  11.493  -1.825  1.00  0.00     0.173 A 
ATOM     74  F   UNL     1       0.074  14.070   0.071  1.00  0.00    -0.203 F 
ATOM     75  C   UNL     1      -1.004  14.185  -2.021  1.00  0.00     0.198 A 
ATOM     76  C   UNL     1      -2.029  12.223  -2.948  1.00  0.00     0.198 A 
ATOM     77  F   UNL     1      -1.978  10.196  -1.752  1.00  0.00    -0.203 F 
ATOM     78  F   UNL     1      -0.716  15.492  -2.099  1.00  0.00    -0.200 F 
ATOM     79  C   UNL     1      -1.710  13.569  -3.044  1.00  0.00     0.200 A 
ATOM     80  F   UNL     1      -2.701  11.622  -3.939  1.00  0.00    -0.200 F 
ATOM     81  F   UNL     1      -2.087  14.274  -4.119  1.00  0.00    -0.200 F 
ENDBRANCH  47  71
BRANCH  59  82
ATOM     82  C   UNL     1      -2.696  12.252   5.945  1.00  0.00     0.064 A 
ATOM     83  C   UNL     1      -4.080  12.064   5.812  1.00  0.00     0.173 A 
ATOM     84  C   UNL     1      -2.253  13.242   6.835  1.00  0.00     0.173 A 
ATOM     85  F   UNL     1      -4.557  11.142   4.963  1.00  0.00    -0.203 F 
ATOM     86  C   UNL     1      -4.983  12.858   6.516  1.00  0.00     0.198 A 
ATOM     87  C   UNL     1      -3.157  14.013   7.561  1.00  0.00     0.198 A 
ATOM     88  F   UNL     1      -0.940  13.460   7.006  1.00  0.00    -0.203 F 
ATOM     89  F   UNL     1      -6.300  12.697   6.330  1.00  0.00    -0.200 F 
ATOM     90  C   UNL     1      -4.521  13.827   7.394  1.00  0.00     0.200 A 
ATOM     91  F   UNL     1      -2.709  14.940   8.419  1.00  0.00    -0.200 F 
ATOM     92  F   UNL     1      -5.391  14.589   8.071  1.00  0.00    -0.200 F 
ENDBRANCH  59  82
ENDBRANCH  33  34
ENDBRANCH  26  28
ENDBRANCH  25  26
ENDBRANCH  24  25
ENDBRANCH  23  24
ENDBRANCH  22  23
ENDBRANCH  21  22
ENDBRANCH   1  21
TORSDOF 19
