REMARK SMILES O=C(OCCOCCOC(=O)[C@@H]1CC[C@]2(CC[NH2+]C2)C1)c1ccc(-c2c3nc(c(-c4c(F)c(F)c(F)c(F)c4F)c4ccc([nH]4)c(-c4c(F)c(F)c(F)c(F)c4F)c4nc(c(-c5c(F)c(F)c(F)c(F)c5F)c5ccc2[nH]5)C=C4)C=C3)cc1
REMARK SMILES IDX 5 1 4 2 3 3 2 4 1 5 21 6 22 7 83 8 23 9 82 10 24 11 25 12
REMARK SMILES IDX 26 13 76 14 27 15 81 16 75 17 77 18 28 19 80 20 74 21 73 22
REMARK SMILES IDX 29 24 61 25 41 26 60 27 42 28 45 29 59 30 78 31 43 32 44 33
REMARK SMILES IDX 58 35 79 36 46 37 30 38 31 39 39 40 32 41 33 42 37 43 40 44
REMARK SMILES IDX 34 45 35 46 38 47 36 48 62 49 63 50 71 51 64 52 65 53 69 54
REMARK SMILES IDX 72 55 66 56 67 57 70 58 68 59 47 60 48 61 56 62 49 63 50 64
REMARK SMILES IDX 54 65 57 66 51 67 52 68 55 69 53 70 6 71 7 72 8 73 9 74
REMARK SMILES IDX 10 75 11 76 12 77 13 78 20 79 14 80 15 81 16 82 19 83 17 84
REMARK SMILES IDX 18 85
REMARK H PARENT 77 23 45 34 18 86 18 87
REMARK Flexibility Score: inf
ROOT
ATOM      1  C   UNL     1       4.502  -0.188  -1.115  1.00  0.00     0.202 C 
ENDROOT
BRANCH   1   2
ATOM      2  C   UNL     1       4.208  -0.676   0.311  1.00  0.00     0.261 C 
BRANCH   2   3
ATOM      3  O   UNL     1       2.781  -0.729   0.536  1.00  0.00    -0.460 OA
BRANCH   3   4
ATOM      4  C   UNL     1       2.012   0.147   1.237  1.00  0.00     0.338 C 
ATOM      5  O   UNL     1       0.810  -0.028   1.346  1.00  0.00    -0.246 OA
BRANCH   4   6
ATOM      6  C   UNL     1       2.645   1.286   1.947  1.00  0.00     0.060 A 
ATOM      7  C   UNL     1       3.710   1.979   1.399  1.00  0.00     0.016 A 
ATOM      8  C   UNL     1       2.180   1.672   3.206  1.00  0.00     0.016 A 
ATOM      9  C   UNL     1       4.482   2.821   2.147  1.00  0.00     0.010 A 
ATOM     10  C   UNL     1       2.865   2.660   3.925  1.00  0.00     0.010 A 
ATOM     11  C   UNL     1       4.057   3.190   3.411  1.00  0.00    -0.014 A 
BRANCH  11  12
ATOM     12  C   UNL     1       5.005   4.017   4.172  1.00  0.00     0.031 A 
ATOM     13  C   UNL     1       5.707   3.389   5.333  1.00  0.00     0.074 A 
ATOM     14  C   UNL     1       5.397   5.195   3.649  1.00  0.00     0.049 A 
ATOM     15  N   UNL     1       6.562   3.917   6.163  1.00  0.00    -0.248 NA
ATOM     16  C   UNL     1       5.420   1.966   5.590  1.00  0.00     0.031 C 
ATOM     17  C   UNL     1       4.891   5.773   2.395  1.00  0.00     0.029 A 
ATOM     18  N   UNL     1       6.364   6.074   4.044  1.00  0.00    -0.354 N 
ATOM     19  C   UNL     1       6.853   2.918   7.081  1.00  0.00     0.074 A 
ATOM     20  C   UNL     1       6.109   1.742   6.696  1.00  0.00     0.031 C 
ATOM     21  C   UNL     1       5.611   6.860   2.086  1.00  0.00     0.029 A 
ATOM     22  C   UNL     1       6.527   7.132   3.182  1.00  0.00     0.049 A 
ATOM     23  H   UNL     1       6.894   5.960   4.866  1.00  0.00     0.167 HD
ATOM     24  C   UNL     1       7.657   3.008   8.164  1.00  0.00     0.037 A 
ATOM     25  C   UNL     1       7.298   8.226   3.306  1.00  0.00     0.037 A 
ATOM     26  C   UNL     1       8.404   4.196   8.474  1.00  0.00     0.049 A 
ATOM     27  C   UNL     1       8.117   8.337   4.560  1.00  0.00     0.074 A 
ATOM     28  C   UNL     1       9.185   4.471   9.578  1.00  0.00     0.029 A 
ATOM     29  N   UNL     1       8.465   5.312   7.645  1.00  0.00    -0.354 N 
ATOM     30  N   UNL     1       8.277   7.456   5.521  1.00  0.00    -0.248 NA
ATOM     31  C   UNL     1       8.832   9.598   4.770  1.00  0.00     0.031 C 
ATOM     32  C   UNL     1       9.683   5.773   9.437  1.00  0.00     0.029 A 
ATOM     33  C   UNL     1       9.262   6.286   8.217  1.00  0.00     0.049 A 
ATOM     34  H   UNL     1       8.007   5.396   6.777  1.00  0.00     0.167 HD
ATOM     35  C   UNL     1       9.123   8.046   6.444  1.00  0.00     0.074 A 
ATOM     36  C   UNL     1       9.459   9.355   5.912  1.00  0.00     0.031 C 
ATOM     37  C   UNL     1       9.576   7.564   7.628  1.00  0.00     0.037 A 
BRANCH  24  38
ATOM     38  C   UNL     1       7.654   1.847   9.114  1.00  0.00     0.064 A 
ATOM     39  C   UNL     1       8.235   0.610   8.800  1.00  0.00     0.173 A 
ATOM     40  C   UNL     1       6.988   1.963  10.344  1.00  0.00     0.173 A 
ATOM     41  F   UNL     1       8.850   0.432   7.621  1.00  0.00    -0.203 F 
ATOM     42  C   UNL     1       8.120  -0.476   9.667  1.00  0.00     0.198 A 
ATOM     43  C   UNL     1       6.899   0.885  11.221  1.00  0.00     0.198 A 
ATOM     44  F   UNL     1       6.400   3.119  10.688  1.00  0.00    -0.203 F 
ATOM     45  F   UNL     1       8.621  -1.669   9.315  1.00  0.00    -0.200 F 
ATOM     46  C   UNL     1       7.455  -0.337  10.877  1.00  0.00     0.200 A 
ATOM     47  F   UNL     1       6.256   1.023  12.388  1.00  0.00    -0.200 F 
ATOM     48  F   UNL     1       7.333  -1.386  11.702  1.00  0.00    -0.200 F 
ENDBRANCH  24  38
BRANCH  25  49
ATOM     49  C   UNL     1       7.258   9.304   2.281  1.00  0.00     0.064 A 
ATOM     50  C   UNL     1       8.401   9.664   1.554  1.00  0.00     0.173 A 
ATOM     51  C   UNL     1       6.072  10.008   2.009  1.00  0.00     0.173 A 
ATOM     52  F   UNL     1       9.565   9.041   1.784  1.00  0.00    -0.203 F 
ATOM     53  C   UNL     1       8.363  10.692   0.610  1.00  0.00     0.198 A 
ATOM     54  C   UNL     1       6.026  11.008   1.040  1.00  0.00     0.198 A 
ATOM     55  F   UNL     1       4.946   9.713   2.675  1.00  0.00    -0.203 F 
ATOM     56  F   UNL     1       9.482  11.048  -0.035  1.00  0.00    -0.200 F 
ATOM     57  C   UNL     1       7.174  11.357   0.349  1.00  0.00     0.200 A 
ATOM     58  F   UNL     1       4.869  11.633   0.781  1.00  0.00    -0.200 F 
ATOM     59  F   UNL     1       7.138  12.341  -0.561  1.00  0.00    -0.200 F 
ENDBRANCH  25  49
BRANCH  37  60
ATOM     60  C   UNL     1      10.528   8.441   8.380  1.00  0.00     0.064 A 
ATOM     61  C   UNL     1      10.099   9.604   9.035  1.00  0.00     0.173 A 
ATOM     62  C   UNL     1      11.882   8.088   8.467  1.00  0.00     0.173 A 
ATOM     63  F   UNL     1       8.816   9.987   8.961  1.00  0.00    -0.203 F 
ATOM     64  C   UNL     1      11.003  10.402   9.727  1.00  0.00     0.198 A 
ATOM     65  C   UNL     1      12.776   8.870   9.189  1.00  0.00     0.198 A 
ATOM     66  F   UNL     1      12.333   6.980   7.860  1.00  0.00    -0.203 F 
ATOM     67  F   UNL     1      10.587  11.539  10.300  1.00  0.00    -0.200 F 
ATOM     68  C   UNL     1      12.338  10.030   9.810  1.00  0.00     0.200 A 
ATOM     69  F   UNL     1      14.061   8.502   9.280  1.00  0.00    -0.200 F 
ATOM     70  F   UNL     1      13.206  10.797  10.483  1.00  0.00    -0.200 F 
ENDBRANCH  37  60
ENDBRANCH  11  12
ENDBRANCH   4   6
ENDBRANCH   3   4
ENDBRANCH   2   3
ENDBRANCH   1   2
BRANCH   1  71
ATOM     71  O   UNL     1       4.062   1.126  -1.444  1.00  0.00    -0.374 OA
BRANCH  71  72
ATOM     72  C   UNL     1       2.734   1.208  -1.968  1.00  0.00     0.202 C 
BRANCH  72  73
ATOM     73  C   UNL     1       2.775   1.385  -3.481  1.00  0.00     0.261 C 
BRANCH  73  74
ATOM     74  O   UNL     1       3.264   0.182  -4.104  1.00  0.00    -0.463 OA
BRANCH  74  75
ATOM     75  C   UNL     1       4.604   0.107  -4.324  1.00  0.00     0.309 C 
ATOM     76  O   UNL     1       5.408   1.002  -4.093  1.00  0.00    -0.252 OA
BRANCH  75  77
ATOM     77  C   UNL     1       5.032  -1.265  -4.832  1.00  0.00     0.100 C 
ATOM     78  C   UNL     1       3.962  -2.039  -5.587  1.00  0.00     0.016 C 
ATOM     79  C   UNL     1       5.484  -2.223  -3.718  1.00  0.00     0.028 C 
ATOM     80  C   UNL     1       3.260  -2.865  -4.518  1.00  0.00     0.014 C 
ATOM     81  C   UNL     1       4.366  -3.293  -3.539  1.00  0.00     0.026 C 
ATOM     82  C   UNL     1       3.838  -3.426  -2.094  1.00  0.00     0.074 C 
ATOM     83  C   UNL     1       4.905  -4.708  -3.825  1.00  0.00     0.267 C 
ATOM     84  C   UNL     1       4.000  -4.885  -1.716  1.00  0.00     0.261 C 
ATOM     85  N   UNL     1       5.166  -5.290  -2.500  1.00  0.00    -0.346 N 
ATOM     86  H   UNL     1       5.234  -6.306  -2.555  1.00  0.00     0.346 HD
ATOM     87  H   UNL     1       6.048  -4.976  -2.094  1.00  0.00     0.346 HD
ENDBRANCH  75  77
ENDBRANCH  74  75
ENDBRANCH  73  74
ENDBRANCH  72  73
ENDBRANCH  71  72
ENDBRANCH   1  71
TORSDOF 14
