REMARK SMILES CC(=O)Nc1cccc(-c2cc(F)ccc2C(=O)OCCOCCOC(=O)c2ccc(-c3c4nc(c(-c5c(F)c(F)c(F)c(F)c5F)c5ccc([nH]5)c(-c5c(F)c(F)c(F)c(F)c5F)c5nc(c(-c6c(F)c(F)c(F)c(F)c6F)c6ccc3[nH]6)C=C5)C=C4)cc2)c1
REMARK SMILES IDX 22 1 21 2 20 3 19 4 17 5 18 6 16 7 10 8 11 9 12 10 15 11
REMARK SMILES IDX 13 12 14 13 9 14 5 15 6 16 91 17 7 18 8 19 4 20 1 21 2 22
REMARK SMILES IDX 3 23 23 25 24 26 25 27 26 28 27 29 28 30 29 31 90 32 30 33
REMARK SMILES IDX 89 34 31 35 32 36 33 37 83 38 34 39 88 40 82 41 84 42 35 43
REMARK SMILES IDX 87 44 81 45 80 46 36 48 68 49 48 50 67 51 49 52 52 53 66 54
REMARK SMILES IDX 85 55 50 56 51 57 65 59 86 60 53 61 37 62 38 63 46 64 39 65
REMARK SMILES IDX 40 66 44 67 47 68 41 69 42 70 45 71 43 72 69 73 70 74 78 75
REMARK SMILES IDX 71 76 72 77 76 78 79 79 73 80 74 81 77 82 75 83 54 84 55 85
REMARK SMILES IDX 63 86 56 87 57 88 61 89 64 90 58 91 59 92 62 93 60 94
REMARK H PARENT 4 24 84 47 52 58
REMARK Flexibility Score: inf
ROOT
ATOM      1  O   UNL     1       6.362   4.030   2.244  1.00  0.00    -0.374 OA
ENDROOT
BRANCH   1   2
ATOM      2  C   UNL     1       4.956   4.037   1.987  1.00  0.00     0.202 C 
BRANCH   2   3
ATOM      3  C   UNL     1       4.462   2.992   0.989  1.00  0.00     0.261 C 
BRANCH   3   4
ATOM      4  O   UNL     1       4.641   1.676   1.535  1.00  0.00    -0.460 OA
BRANCH   4   5
ATOM      5  C   UNL     1       5.078   0.738   0.669  1.00  0.00     0.338 C 
ATOM      6  O   UNL     1       5.217   0.873  -0.538  1.00  0.00    -0.246 OA
BRANCH   5   7
ATOM      7  C   UNL     1       5.512  -0.489   1.385  1.00  0.00     0.068 A 
ATOM      8  C   UNL     1       4.779  -1.141   2.408  1.00  0.00    -0.001 A 
ATOM      9  C   UNL     1       5.325  -2.340   2.919  1.00  0.00     0.048 A 
ATOM     10  C   UNL     1       6.551  -2.831   2.475  1.00  0.00     0.123 A 
ATOM     11  C   UNL     1       6.756  -0.998   0.954  1.00  0.00     0.019 A 
ATOM     12  F   UNL     1       7.033  -3.966   2.997  1.00  0.00    -0.207 F 
ATOM     13  C   UNL     1       7.281  -2.162   1.508  1.00  0.00     0.040 A 
BRANCH   8  14
ATOM     14  C   UNL     1       3.514  -0.633   2.992  1.00  0.00    -0.015 A 
ATOM     15  C   UNL     1       1.331   0.453   2.751  1.00  0.00     0.041 A 
ATOM     16  C   UNL     1       1.222   0.515   4.144  1.00  0.00     0.026 A 
ATOM     17  C   UNL     1       2.456  -0.159   2.191  1.00  0.00     0.034 A 
ATOM     18  C   UNL     1       2.215  -0.016   4.961  1.00  0.00     0.003 A 
ATOM     19  C   UNL     1       3.359  -0.567   4.389  1.00  0.00     0.009 A 
BRANCH  15  20
ATOM     20  N   UNL     1       0.325   1.106   2.020  1.00  0.00    -0.326 N 
ATOM     21  C   UNL     1       0.570   0.185  -0.289  1.00  0.00     0.114 C 
ATOM     22  C   UNL     1      -0.001   1.159   0.700  1.00  0.00     0.221 C 
ATOM     23  O   UNL     1      -0.821   2.010   0.344  1.00  0.00    -0.275 OA
ATOM     24  H   UNL     1      -0.276   1.641   2.587  1.00  0.00     0.169 HD
ENDBRANCH  15  20
ENDBRANCH   8  14
ENDBRANCH   5   7
ENDBRANCH   4   5
ENDBRANCH   3   4
ENDBRANCH   2   3
ENDBRANCH   1   2
BRANCH   1  25
ATOM     25  C   UNL     1       6.890   2.945   3.006  1.00  0.00     0.202 C 
BRANCH  25  26
ATOM     26  C   UNL     1       6.677   3.005   4.523  1.00  0.00     0.261 C 
BRANCH  26  27
ATOM     27  O   UNL     1       5.291   3.010   4.906  1.00  0.00    -0.460 OA
BRANCH  27  28
ATOM     28  C   UNL     1       4.845   4.195   5.387  1.00  0.00     0.338 C 
ATOM     29  O   UNL     1       5.491   5.218   5.563  1.00  0.00    -0.246 OA
BRANCH  28  30
ATOM     30  C   UNL     1       3.384   4.160   5.570  1.00  0.00     0.060 A 
ATOM     31  C   UNL     1       2.623   5.147   4.932  1.00  0.00     0.016 A 
ATOM     32  C   UNL     1       2.783   3.253   6.444  1.00  0.00     0.016 A 
ATOM     33  C   UNL     1       1.260   5.258   5.199  1.00  0.00     0.010 A 
ATOM     34  C   UNL     1       1.415   3.368   6.713  1.00  0.00     0.010 A 
ATOM     35  C   UNL     1       0.655   4.392   6.119  1.00  0.00    -0.014 A 
BRANCH  35  36
ATOM     36  C   UNL     1      -0.740   4.641   6.557  1.00  0.00     0.031 A 
ATOM     37  C   UNL     1      -0.987   5.306   7.881  1.00  0.00     0.074 A 
ATOM     38  C   UNL     1      -1.777   4.287   5.778  1.00  0.00     0.049 A 
ATOM     39  N   UNL     1      -2.121   5.589   8.471  1.00  0.00    -0.248 NA
ATOM     40  C   UNL     1       0.206   5.704   8.643  1.00  0.00     0.031 C 
ATOM     41  C   UNL     1      -1.665   3.677   4.457  1.00  0.00     0.029 A 
ATOM     42  N   UNL     1      -3.128   4.384   5.993  1.00  0.00    -0.354 N 
ATOM     43  C   UNL     1      -1.779   6.194   9.673  1.00  0.00     0.074 A 
ATOM     44  C   UNL     1      -0.333   6.204   9.745  1.00  0.00     0.031 C 
ATOM     45  C   UNL     1      -2.898   3.424   3.987  1.00  0.00     0.029 A 
ATOM     46  C   UNL     1      -3.883   3.844   4.983  1.00  0.00     0.049 A 
ATOM     47  H   UNL     1      -3.518   4.801   6.795  1.00  0.00     0.167 HD
ATOM     48  C   UNL     1      -2.597   6.707  10.623  1.00  0.00     0.037 A 
ATOM     49  C   UNL     1      -5.218   3.696   4.881  1.00  0.00     0.037 A 
ATOM     50  C   UNL     1      -4.034   6.704  10.545  1.00  0.00     0.049 A 
ATOM     51  C   UNL     1      -6.109   4.221   5.975  1.00  0.00     0.074 A 
ATOM     52  C   UNL     1      -4.949   7.240  11.434  1.00  0.00     0.029 A 
ATOM     53  N   UNL     1      -4.766   6.125   9.518  1.00  0.00    -0.354 N 
ATOM     54  N   UNL     1      -5.779   4.830   7.089  1.00  0.00    -0.248 NA
ATOM     55  C   UNL     1      -7.557   4.050   5.792  1.00  0.00     0.031 C 
ATOM     56  C   UNL     1      -6.236   6.938  10.973  1.00  0.00     0.029 A 
ATOM     57  C   UNL     1      -6.123   6.259   9.770  1.00  0.00     0.049 A 
ATOM     58  H   UNL     1      -4.380   5.684   8.728  1.00  0.00     0.167 HD
ATOM     59  C   UNL     1      -6.975   5.136   7.727  1.00  0.00     0.074 A 
ATOM     60  C   UNL     1      -8.039   4.653   6.871  1.00  0.00     0.031 C 
ATOM     61  C   UNL     1      -7.172   5.766   8.912  1.00  0.00     0.037 A 
BRANCH  48  62
ATOM     62  C   UNL     1      -1.948   7.289  11.845  1.00  0.00     0.064 A 
ATOM     63  C   UNL     1      -1.231   8.494  11.800  1.00  0.00     0.173 A 
ATOM     64  C   UNL     1      -2.049   6.631  13.080  1.00  0.00     0.173 A 
ATOM     65  F   UNL     1      -1.092   9.154  10.641  1.00  0.00    -0.203 F 
ATOM     66  C   UNL     1      -0.609   9.000  12.939  1.00  0.00     0.198 A 
ATOM     67  C   UNL     1      -1.451   7.155  14.223  1.00  0.00     0.198 A 
ATOM     68  F   UNL     1      -2.727   5.478  13.179  1.00  0.00    -0.203 F 
ATOM     69  F   UNL     1       0.119  10.123  12.860  1.00  0.00    -0.200 F 
ATOM     70  C   UNL     1      -0.723   8.333  14.149  1.00  0.00     0.200 A 
ATOM     71  F   UNL     1      -1.570   6.514  15.394  1.00  0.00    -0.200 F 
ATOM     72  F   UNL     1      -0.121   8.819  15.244  1.00  0.00    -0.200 F 
ENDBRANCH  48  62
BRANCH  49  73
ATOM     73  C   UNL     1      -5.785   3.014   3.690  1.00  0.00     0.064 A 
ATOM     74  C   UNL     1      -6.486   3.728   2.710  1.00  0.00     0.173 A 
ATOM     75  C   UNL     1      -5.618   1.634   3.502  1.00  0.00     0.173 A 
ATOM     76  F   UNL     1      -6.694   5.044   2.861  1.00  0.00    -0.203 F 
ATOM     77  C   UNL     1      -7.005   3.085   1.588  1.00  0.00     0.198 A 
ATOM     78  C   UNL     1      -6.117   0.997   2.369  1.00  0.00     0.198 A 
ATOM     79  F   UNL     1      -4.955   0.907   4.415  1.00  0.00    -0.203 F 
ATOM     80  F   UNL     1      -7.703   3.784   0.682  1.00  0.00    -0.200 F 
ATOM     81  C   UNL     1      -6.814   1.722   1.414  1.00  0.00     0.200 A 
ATOM     82  F   UNL     1      -5.925  -0.319   2.204  1.00  0.00    -0.200 F 
ATOM     83  F   UNL     1      -7.310   1.105   0.333  1.00  0.00    -0.200 F 
ENDBRANCH  49  73
BRANCH  61  84
ATOM     84  C   UNL     1      -8.592   5.987   9.348  1.00  0.00     0.064 A 
ATOM     85  C   UNL     1      -9.392   4.930   9.807  1.00  0.00     0.173 A 
ATOM     86  C   UNL     1      -9.143   7.277   9.351  1.00  0.00     0.173 A 
ATOM     87  F   UNL     1      -8.916   3.676   9.811  1.00  0.00    -0.203 F 
ATOM     88  C   UNL     1     -10.699   5.155  10.232  1.00  0.00     0.198 A 
ATOM     89  C   UNL     1     -10.441   7.502   9.803  1.00  0.00     0.198 A 
ATOM     90  F   UNL     1      -8.417   8.324   8.930  1.00  0.00    -0.203 F 
ATOM     91  F   UNL     1     -11.460   4.124  10.627  1.00  0.00    -0.200 F 
ATOM     92  C   UNL     1     -11.220   6.441  10.237  1.00  0.00     0.200 A 
ATOM     93  F   UNL     1     -10.937   8.747   9.820  1.00  0.00    -0.200 F 
ATOM     94  F   UNL     1     -12.475   6.655  10.654  1.00  0.00    -0.200 F 
ENDBRANCH  61  84
ENDBRANCH  35  36
ENDBRANCH  28  30
ENDBRANCH  27  28
ENDBRANCH  26  27
ENDBRANCH  25  26
ENDBRANCH   1  25
TORSDOF 16
