REMARK SMILES O=C(OCCOCCOC(=O)c1ccc(-c2c3nc(c(-c4c(F)c(F)c(F)c(F)c4F)c4ccc([nH]4)c(-c4c(F)c(F)c(F)c(F)c4F)c4nc(c(-c5c(F)c(F)c(F)c(F)c5F)c5ccc2[nH]5)C=C4)C=C3)cc1)c1ccc(NC(=O)[C@@H]2CC=CC[C@H]2C(=O)Nc2cccc([N+](=O)[O-])c2)cc1
REMARK SMILES IDX 4 1 3 2 2 3 1 4 75 5 76 6 101 7 77 8 100 9 78 10 79 11 80 12
REMARK SMILES IDX 81 14 82 15 83 16 87 17 84 18 86 19 85 20 88 21 89 22 90 23
REMARK SMILES IDX 91 25 92 26 99 27 93 28 95 29 94 30 96 31 97 32 98 33 5 34
REMARK SMILES IDX 6 35 7 36 8 37 9 38 10 39 11 40 12 41 13 42 74 43 14 44
REMARK SMILES IDX 73 45 15 46 16 47 17 48 67 49 18 50 72 51 66 52 68 53 19 54
REMARK SMILES IDX 71 55 65 56 64 57 20 59 52 60 32 61 51 62 33 63 36 64 50 65
REMARK SMILES IDX 69 66 34 67 35 68 49 70 70 71 37 72 21 73 22 74 30 75 23 76
REMARK SMILES IDX 24 77 28 78 31 79 25 80 26 81 29 82 27 83 53 84 54 85 62 86
REMARK SMILES IDX 55 87 56 88 60 89 63 90 57 91 58 92 61 93 59 94 38 95 39 96
REMARK SMILES IDX 47 97 40 98 41 99 45 100 48 101 42 102 43 103 46 104 44 105
REMARK H PARENT 79 13 90 24 68 58 36 69
REMARK Flexibility Score: inf
ROOT
ATOM      1  C   UNL     1      10.469  -9.239  -1.156  1.00  0.00     0.261 C 
ENDROOT
BRANCH   1   2
ATOM      2  O   UNL     1      11.796  -8.684  -1.235  1.00  0.00    -0.460 OA
BRANCH   2   3
ATOM      3  C   UNL     1      12.261  -7.425  -1.059  1.00  0.00     0.338 C 
ATOM      4  O   UNL     1      13.461  -7.300  -0.808  1.00  0.00    -0.246 OA
BRANCH   3   5
ATOM      5  C   UNL     1      11.438  -6.167  -1.127  1.00  0.00     0.060 A 
ATOM      6  C   UNL     1      10.190  -5.995  -1.734  1.00  0.00     0.018 A 
ATOM      7  C   UNL     1      12.010  -5.029  -0.533  1.00  0.00     0.018 A 
ATOM      8  C   UNL     1       9.421  -4.822  -1.496  1.00  0.00     0.027 A 
ATOM      9  C   UNL     1      11.277  -3.849  -0.353  1.00  0.00     0.027 A 
ATOM     10  C   UNL     1       9.927  -3.801  -0.695  1.00  0.00     0.041 A 
BRANCH  10  11
ATOM     11  N   UNL     1       9.211  -2.701  -0.201  1.00  0.00    -0.326 N 
ATOM     12  C   UNL     1       8.065  -2.505   0.512  1.00  0.00     0.228 C 
ATOM     13  H   UNL     1       9.650  -1.849  -0.429  1.00  0.00     0.169 HD
ATOM     14  O   UNL     1       7.835  -1.310   0.754  1.00  0.00    -0.274 OA
BRANCH  12  15
ATOM     15  C   UNL     1       7.050  -3.575   0.977  1.00  0.00     0.095 C 
ATOM     16  C   UNL     1       5.890  -2.866   1.739  1.00  0.00     0.041 C 
ATOM     17  C   UNL     1       7.560  -4.759   1.799  1.00  0.00     0.095 C 
ATOM     18  C   UNL     1       4.960  -3.734   2.535  1.00  0.00    -0.030 C 
ATOM     19  C   UNL     1       6.577  -5.594   2.653  1.00  0.00     0.041 C 
ATOM     20  C   UNL     1       5.276  -4.958   2.958  1.00  0.00    -0.030 C 
BRANCH  17  21
ATOM     21  C   UNL     1       8.346  -5.799   1.061  1.00  0.00     0.228 C 
ATOM     22  O   UNL     1       9.537  -5.895   1.391  1.00  0.00    -0.274 OA
ATOM     23  N   UNL     1       7.847  -6.729   0.187  1.00  0.00    -0.326 N 
ATOM     24  H   UNL     1       8.520  -7.419  -0.016  1.00  0.00     0.169 HD
BRANCH  23  25
ATOM     25  C   UNL     1       6.640  -6.980  -0.507  1.00  0.00     0.048 A 
ATOM     26  C   UNL     1       6.393  -8.299  -0.904  1.00  0.00     0.026 A 
ATOM     27  C   UNL     1       5.682  -6.045  -0.873  1.00  0.00     0.111 A 
ATOM     28  C   UNL     1       5.170  -8.680  -1.484  1.00  0.00     0.009 A 
ATOM     29  C   UNL     1       4.430  -6.414  -1.386  1.00  0.00     0.271 A 
ATOM     30  C   UNL     1       4.159  -7.744  -1.682  1.00  0.00     0.086 A 
BRANCH  29  31
ATOM     31  N   UNL     1       3.407  -5.378  -1.595  1.00  0.00     0.062 N 
ATOM     32  O   UNL     1       2.255  -5.752  -1.849  1.00  0.00    -0.258 OA
ATOM     33  O   UNL     1       3.757  -4.192  -1.494  1.00  0.00    -0.258 OA
ENDBRANCH  29  31
ENDBRANCH  23  25
ENDBRANCH  17  21
ENDBRANCH  12  15
ENDBRANCH  10  11
ENDBRANCH   3   5
ENDBRANCH   2   3
ENDBRANCH   1   2
BRANCH   1  34
ATOM     34  C   UNL     1      10.081  -9.649   0.261  1.00  0.00     0.202 C 
BRANCH  34  35
ATOM     35  O   UNL     1       9.939  -8.492   1.069  1.00  0.00    -0.374 OA
BRANCH  35  36
ATOM     36  C   UNL     1      10.844  -8.422   2.183  1.00  0.00     0.202 C 
BRANCH  36  37
ATOM     37  C   UNL     1      10.111  -8.667   3.505  1.00  0.00     0.261 C 
BRANCH  37  38
ATOM     38  O   UNL     1       9.455  -9.944   3.454  1.00  0.00    -0.460 OA
BRANCH  38  39
ATOM     39  C   UNL     1       8.153  -9.897   3.076  1.00  0.00     0.338 C 
ATOM     40  O   UNL     1       7.435  -8.922   2.994  1.00  0.00    -0.246 OA
BRANCH  39  41
ATOM     41  C   UNL     1       7.759 -11.235   2.579  1.00  0.00     0.060 A 
ATOM     42  C   UNL     1       6.799 -11.292   1.561  1.00  0.00     0.016 A 
ATOM     43  C   UNL     1       8.335 -12.408   3.073  1.00  0.00     0.016 A 
ATOM     44  C   UNL     1       6.395 -12.520   1.045  1.00  0.00     0.010 A 
ATOM     45  C   UNL     1       7.930 -13.639   2.562  1.00  0.00     0.010 A 
ATOM     46  C   UNL     1       6.936 -13.699   1.571  1.00  0.00    -0.014 A 
BRANCH  46  47
ATOM     47  C   UNL     1       6.322 -15.003   1.241  1.00  0.00     0.031 A 
ATOM     48  C   UNL     1       5.367 -15.602   2.232  1.00  0.00     0.074 A 
ATOM     49  C   UNL     1       6.617 -15.637   0.095  1.00  0.00     0.049 A 
ATOM     50  N   UNL     1       4.758 -16.758   2.210  1.00  0.00    -0.248 NA
ATOM     51  C   UNL     1       5.073 -14.787   3.422  1.00  0.00     0.031 C 
ATOM     52  C   UNL     1       7.506 -15.131  -0.947  1.00  0.00     0.029 A 
ATOM     53  N   UNL     1       6.203 -16.857  -0.374  1.00  0.00    -0.354 N 
ATOM     54  C   UNL     1       4.023 -16.814   3.387  1.00  0.00     0.074 A 
ATOM     55  C   UNL     1       4.293 -15.597   4.118  1.00  0.00     0.031 C 
ATOM     56  C   UNL     1       7.577 -16.039  -1.936  1.00  0.00     0.029 A 
ATOM     57  C   UNL     1       6.766 -17.201  -1.577  1.00  0.00     0.049 A 
ATOM     58  H   UNL     1       5.563 -17.431   0.106  1.00  0.00     0.167 HD
ATOM     59  C   UNL     1       3.189 -17.792   3.812  1.00  0.00     0.037 A 
ATOM     60  C   UNL     1       6.649 -18.337  -2.290  1.00  0.00     0.037 A 
ATOM     61  C   UNL     1       2.937 -19.002   3.076  1.00  0.00     0.049 A 
ATOM     62  C   UNL     1       5.765 -19.441  -1.766  1.00  0.00     0.074 A 
ATOM     63  C   UNL     1       2.098 -20.052   3.399  1.00  0.00     0.029 A 
ATOM     64  N   UNL     1       3.540 -19.327   1.868  1.00  0.00    -0.354 N 
ATOM     65  N   UNL     1       5.045 -19.479  -0.671  1.00  0.00    -0.248 NA
ATOM     66  C   UNL     1       5.675 -20.658  -2.584  1.00  0.00     0.031 C 
ATOM     67  C   UNL     1       2.241 -21.040   2.419  1.00  0.00     0.029 A 
ATOM     68  C   UNL     1       3.112 -20.575   1.446  1.00  0.00     0.049 A 
ATOM     69  H   UNL     1       4.178 -18.755   1.383  1.00  0.00     0.167 HD
ATOM     70  C   UNL     1       4.386 -20.702  -0.685  1.00  0.00     0.074 A 
ATOM     71  C   UNL     1       4.790 -21.373  -1.904  1.00  0.00     0.031 C 
ATOM     72  C   UNL     1       3.521 -21.221   0.222  1.00  0.00     0.037 A 
BRANCH  59  73
ATOM     73  C   UNL     1       2.533 -17.602   5.151  1.00  0.00     0.064 A 
ATOM     74  C   UNL     1       1.580 -16.595   5.375  1.00  0.00     0.173 A 
ATOM     75  C   UNL     1       2.877 -18.427   6.232  1.00  0.00     0.173 A 
ATOM     76  F   UNL     1       1.228 -15.764   4.382  1.00  0.00    -0.203 F 
ATOM     77  C   UNL     1       1.032 -16.394   6.640  1.00  0.00     0.198 A 
ATOM     78  C   UNL     1       2.298 -18.248   7.486  1.00  0.00     0.198 A 
ATOM     79  F   UNL     1       3.781 -19.405   6.076  1.00  0.00    -0.203 F 
ATOM     80  F   UNL     1       0.181 -15.379   6.846  1.00  0.00    -0.200 F 
ATOM     81  C   UNL     1       1.387 -17.224   7.692  1.00  0.00     0.200 A 
ATOM     82  F   UNL     1       2.634 -19.059   8.498  1.00  0.00    -0.200 F 
ATOM     83  F   UNL     1       0.862 -17.027   8.909  1.00  0.00    -0.200 F 
ENDBRANCH  59  73
BRANCH  60  84
ATOM     84  C   UNL     1       7.370 -18.479  -3.582  1.00  0.00     0.064 A 
ATOM     85  C   UNL     1       6.669 -18.514  -4.796  1.00  0.00     0.173 A 
ATOM     86  C   UNL     1       8.768 -18.575  -3.634  1.00  0.00     0.173 A 
ATOM     87  F   UNL     1       5.330 -18.445  -4.797  1.00  0.00    -0.203 F 
ATOM     88  C   UNL     1       7.338 -18.652  -6.011  1.00  0.00     0.198 A 
ATOM     89  C   UNL     1       9.438 -18.685  -4.851  1.00  0.00     0.198 A 
ATOM     90  F   UNL     1       9.486 -18.544  -2.502  1.00  0.00    -0.203 F 
ATOM     91  F   UNL     1       6.641 -18.720  -7.152  1.00  0.00    -0.200 F 
ATOM     92  C   UNL     1       8.722 -18.730  -6.038  1.00  0.00     0.200 A 
ATOM     93  F   UNL     1      10.777 -18.743  -4.874  1.00  0.00    -0.200 F 
ATOM     94  F   UNL     1       9.366 -18.851  -7.207  1.00  0.00    -0.200 F 
ENDBRANCH  60  84
BRANCH  72  95
ATOM     95  C   UNL     1       2.905 -22.555  -0.096  1.00  0.00     0.064 A 
ATOM     96  C   UNL     1       3.651 -23.742  -0.080  1.00  0.00     0.173 A 
ATOM     97  C   UNL     1       1.533 -22.646  -0.381  1.00  0.00     0.173 A 
ATOM     98  F   UNL     1       4.968 -23.709   0.175  1.00  0.00    -0.203 F 
ATOM     99  C   UNL     1       3.054 -24.967  -0.371  1.00  0.00     0.198 A 
ATOM    100  C   UNL     1       0.932 -23.876  -0.634  1.00  0.00     0.198 A 
ATOM    101  F   UNL     1       0.771 -21.543  -0.400  1.00  0.00    -0.203 F 
ATOM    102  F   UNL     1       3.798 -26.081  -0.407  1.00  0.00    -0.200 F 
ATOM    103  C   UNL     1       1.695 -25.033  -0.640  1.00  0.00     0.200 A 
ATOM    104  F   UNL     1      -0.385 -23.939  -0.875  1.00  0.00    -0.200 F 
ATOM    105  F   UNL     1       1.121 -26.213  -0.911  1.00  0.00    -0.200 F 
ENDBRANCH  72  95
ENDBRANCH  46  47
ENDBRANCH  39  41
ENDBRANCH  38  39
ENDBRANCH  37  38
ENDBRANCH  36  37
ENDBRANCH  35  36
ENDBRANCH  34  35
ENDBRANCH   1  34
TORSDOF 19
