REMARK SMILES Cc1ccc(F)cc1NC(=O)c1nn(C)cc1C(=O)OCCOCCOC(=O)c1ccc(-c2c3nc(c(-c4c(F)c(F)c(F)c(F)c4F)c4ccc([nH]4)c(-c4c(F)c(F)c(F)c(F)c4F)c4nc(c(-c5c(F)c(F)c(F)c(F)c5F)c5ccc2[nH]5)C=C4)C=C3)cc1
REMARK SMILES IDX 23 1 22 2 21 3 20 4 18 5 19 6 17 7 12 8 13 9 14 10 16 11
REMARK SMILES IDX 15 12 10 13 9 14 11 16 8 17 1 18 2 19 3 20 4 21 7 22 5 23
REMARK SMILES IDX 6 24 24 25 25 26 26 27 27 28 28 29 29 30 30 31 91 32 31 33
REMARK SMILES IDX 90 34 32 35 33 36 34 37 84 38 35 39 89 40 83 41 85 42 36 43
REMARK SMILES IDX 88 44 82 45 81 46 37 48 69 49 49 50 68 51 50 52 53 53 67 54
REMARK SMILES IDX 86 55 51 56 52 57 66 59 87 60 54 61 38 62 39 63 47 64 40 65
REMARK SMILES IDX 41 66 45 67 48 68 42 69 43 70 46 71 44 72 70 73 71 74 79 75
REMARK SMILES IDX 72 76 73 77 77 78 80 79 74 80 75 81 78 82 76 83 55 84 56 85
REMARK SMILES IDX 64 86 57 87 58 88 62 89 65 90 59 91 60 92 63 93 61 94
REMARK H PARENT 9 15 85 47 53 58
REMARK Flexibility Score: inf
ROOT
ATOM      1  O   UNL     1       0.937  -0.733  -3.921  1.00  0.00    -0.374 OA
ENDROOT
BRANCH   1   2
ATOM      2  C   UNL     1      -0.232  -0.723  -4.721  1.00  0.00     0.202 C 
BRANCH   2   3
ATOM      3  C   UNL     1      -1.319  -1.804  -4.583  1.00  0.00     0.261 C 
BRANCH   3   4
ATOM      4  O   UNL     1      -1.746  -2.160  -3.258  1.00  0.00    -0.460 OA
BRANCH   4   5
ATOM      5  C   UNL     1      -1.096  -3.228  -2.702  1.00  0.00     0.342 C 
ATOM      6  O   UNL     1      -0.184  -3.830  -3.238  1.00  0.00    -0.246 OA
BRANCH   5   7
ATOM      7  C   UNL     1      -1.571  -3.544  -1.368  1.00  0.00     0.111 A 
ATOM      8  C   UNL     1      -0.801  -3.853  -0.203  1.00  0.00     0.165 A 
ATOM      9  N   UNL     1      -1.598  -4.290   0.792  1.00  0.00    -0.167 NA
ATOM     10  N   UNL     1      -2.841  -4.166   0.305  1.00  0.00    -0.274 N 
ATOM     11  C   UNL     1      -2.886  -3.650  -0.954  1.00  0.00     0.125 A 
ATOM     12  C   UNL     1      -3.952  -4.603   1.116  1.00  0.00     0.173 C 
BRANCH   8  13
ATOM     13  C   UNL     1       0.652  -3.779  -0.027  1.00  0.00     0.277 C 
ATOM     14  N   UNL     1       1.252  -2.675   0.571  1.00  0.00    -0.320 N 
ATOM     15  H   UNL     1       2.235  -2.730   0.582  1.00  0.00     0.170 HD
ATOM     16  O   UNL     1       1.398  -4.651  -0.476  1.00  0.00    -0.267 OA
BRANCH  14  17
ATOM     17  C   UNL     1       0.757  -1.490   1.166  1.00  0.00     0.047 A 
ATOM     18  C   UNL     1       3.008  -0.275   0.720  1.00  0.00     0.046 C 
ATOM     19  C   UNL     1       1.585  -0.338   1.217  1.00  0.00    -0.027 A 
ATOM     20  C   UNL     1       1.031   0.899   1.625  1.00  0.00     0.008 A 
ATOM     21  C   UNL     1      -0.302   1.001   2.008  1.00  0.00     0.039 A 
ATOM     22  C   UNL     1      -0.551  -1.376   1.648  1.00  0.00     0.065 A 
ATOM     23  C   UNL     1      -1.074  -0.144   2.036  1.00  0.00     0.125 A 
ATOM     24  F   UNL     1      -2.361  -0.062   2.401  1.00  0.00    -0.207 F 
ENDBRANCH  14  17
ENDBRANCH   8  13
ENDBRANCH   5   7
ENDBRANCH   4   5
ENDBRANCH   3   4
ENDBRANCH   2   3
ENDBRANCH   1   2
BRANCH   1  25
ATOM     25  C   UNL     1       0.856  -0.761  -2.510  1.00  0.00     0.202 C 
BRANCH  25  26
ATOM     26  C   UNL     1      -0.070   0.182  -1.766  1.00  0.00     0.261 C 
BRANCH  26  27
ATOM     27  O   UNL     1      -1.393   0.286  -2.253  1.00  0.00    -0.460 OA
BRANCH  27  28
ATOM     28  C   UNL     1      -1.593   1.435  -2.922  1.00  0.00     0.338 C 
ATOM     29  O   UNL     1      -0.754   2.106  -3.501  1.00  0.00    -0.246 OA
BRANCH  28  30
ATOM     30  C   UNL     1      -2.940   1.924  -2.650  1.00  0.00     0.060 A 
ATOM     31  C   UNL     1      -3.284   3.073  -3.369  1.00  0.00     0.016 A 
ATOM     32  C   UNL     1      -3.501   1.604  -1.407  1.00  0.00     0.016 A 
ATOM     33  C   UNL     1      -3.958   4.066  -2.704  1.00  0.00     0.010 A 
ATOM     34  C   UNL     1      -4.181   2.592  -0.750  1.00  0.00     0.010 A 
ATOM     35  C   UNL     1      -4.308   3.834  -1.374  1.00  0.00    -0.014 A 
BRANCH  35  36
ATOM     36  C   UNL     1      -4.921   4.865  -0.585  1.00  0.00     0.031 A 
ATOM     37  C   UNL     1      -6.301   5.185  -0.958  1.00  0.00     0.074 A 
ATOM     38  C   UNL     1      -4.206   5.464   0.389  1.00  0.00     0.049 A 
ATOM     39  N   UNL     1      -6.788   6.371  -0.949  1.00  0.00    -0.248 NA
ATOM     40  C   UNL     1      -7.210   4.187  -1.529  1.00  0.00     0.031 C 
ATOM     41  C   UNL     1      -4.696   6.340   1.438  1.00  0.00     0.029 A 
ATOM     42  N   UNL     1      -2.806   5.490   0.533  1.00  0.00    -0.354 N 
ATOM     43  C   UNL     1      -8.142   6.229  -1.143  1.00  0.00     0.074 A 
ATOM     44  C   UNL     1      -8.329   4.904  -1.675  1.00  0.00     0.031 C 
ATOM     45  C   UNL     1      -3.659   7.024   1.953  1.00  0.00     0.029 A 
ATOM     46  C   UNL     1      -2.488   6.719   1.151  1.00  0.00     0.049 A 
ATOM     47  H   UNL     1      -2.173   4.788   0.258  1.00  0.00     0.167 HD
ATOM     48  C   UNL     1      -8.969   7.165  -0.603  1.00  0.00     0.037 A 
ATOM     49  C   UNL     1      -1.719   7.660   0.523  1.00  0.00     0.037 A 
ATOM     50  C   UNL     1      -8.179   8.178   0.088  1.00  0.00     0.049 A 
ATOM     51  C   UNL     1      -2.476   8.911   0.203  1.00  0.00     0.074 A 
ATOM     52  C   UNL     1      -7.752   8.254   1.405  1.00  0.00     0.029 A 
ATOM     53  N   UNL     1      -7.346   9.015  -0.644  1.00  0.00    -0.354 N 
ATOM     54  N   UNL     1      -3.770   8.954   0.063  1.00  0.00    -0.248 NA
ATOM     55  C   UNL     1      -1.836  10.208   0.048  1.00  0.00     0.031 C 
ATOM     56  C   UNL     1      -6.654   9.144   1.461  1.00  0.00     0.029 A 
ATOM     57  C   UNL     1      -6.415   9.616   0.182  1.00  0.00     0.049 A 
ATOM     58  H   UNL     1      -7.410   9.159  -1.616  1.00  0.00     0.167 HD
ATOM     59  C   UNL     1      -4.153  10.249  -0.163  1.00  0.00     0.074 A 
ATOM     60  C   UNL     1      -2.907  10.995  -0.141  1.00  0.00     0.031 C 
ATOM     61  C   UNL     1      -5.465  10.590  -0.337  1.00  0.00     0.037 A 
BRANCH  48  62
ATOM     62  C   UNL     1     -10.438   6.935  -0.380  1.00  0.00     0.064 A 
ATOM     63  C   UNL     1     -11.064   7.401   0.797  1.00  0.00     0.173 A 
ATOM     64  C   UNL     1     -11.276   6.244  -1.273  1.00  0.00     0.173 A 
ATOM     65  F   UNL     1     -10.396   8.109   1.715  1.00  0.00    -0.203 F 
ATOM     66  C   UNL     1     -12.403   7.142   1.086  1.00  0.00     0.198 A 
ATOM     67  C   UNL     1     -12.611   5.953  -0.966  1.00  0.00     0.198 A 
ATOM     68  F   UNL     1     -10.833   5.855  -2.477  1.00  0.00    -0.203 F 
ATOM     69  F   UNL     1     -12.937   7.609   2.224  1.00  0.00    -0.200 F 
ATOM     70  C   UNL     1     -13.173   6.402   0.214  1.00  0.00     0.200 A 
ATOM     71  F   UNL     1     -13.351   5.234  -1.821  1.00  0.00    -0.200 F 
ATOM     72  F   UNL     1     -14.454   6.135   0.505  1.00  0.00    -0.200 F 
ENDBRANCH  48  62
BRANCH  49  73
ATOM     73  C   UNL     1      -0.629   7.083  -0.307  1.00  0.00     0.064 A 
ATOM     74  C   UNL     1       0.350   6.394   0.428  1.00  0.00     0.173 A 
ATOM     75  C   UNL     1      -0.927   6.639  -1.601  1.00  0.00     0.173 A 
ATOM     76  F   UNL     1       0.740   6.855   1.627  1.00  0.00    -0.203 F 
ATOM     77  C   UNL     1       0.734   5.121   0.041  1.00  0.00     0.198 A 
ATOM     78  C   UNL     1      -0.505   5.378  -2.005  1.00  0.00     0.198 A 
ATOM     79  F   UNL     1      -1.766   7.333  -2.383  1.00  0.00    -0.203 F 
ATOM     80  F   UNL     1       1.452   4.354   0.875  1.00  0.00    -0.200 F 
ATOM     81  C   UNL     1       0.246   4.591  -1.140  1.00  0.00     0.200 A 
ATOM     82  F   UNL     1      -0.922   4.887  -3.178  1.00  0.00    -0.200 F 
ATOM     83  F   UNL     1       0.455   3.299  -1.396  1.00  0.00    -0.200 F 
ENDBRANCH  49  73
BRANCH  61  84
ATOM     84  C   UNL     1      -5.995  11.900  -0.880  1.00  0.00     0.064 A 
ATOM     85  C   UNL     1      -5.221  12.844  -1.573  1.00  0.00     0.173 A 
ATOM     86  C   UNL     1      -7.382  12.199  -0.821  1.00  0.00     0.173 A 
ATOM     87  F   UNL     1      -3.933  12.629  -1.861  1.00  0.00    -0.203 F 
ATOM     88  C   UNL     1      -5.763  14.032  -2.069  1.00  0.00     0.198 A 
ATOM     89  C   UNL     1      -7.934  13.338  -1.400  1.00  0.00     0.198 A 
ATOM     90  F   UNL     1      -8.265  11.386  -0.225  1.00  0.00    -0.203 F 
ATOM     91  F   UNL     1      -4.956  14.931  -2.649  1.00  0.00    -0.200 F 
ATOM     92  C   UNL     1      -7.119  14.272  -1.996  1.00  0.00     0.200 A 
ATOM     93  F   UNL     1      -9.263  13.510  -1.387  1.00  0.00    -0.200 F 
ATOM     94  F   UNL     1      -7.642  15.386  -2.523  1.00  0.00    -0.200 F 
ENDBRANCH  61  84
ENDBRANCH  35  36
ENDBRANCH  28  30
ENDBRANCH  27  28
ENDBRANCH  26  27
ENDBRANCH  25  26
ENDBRANCH   1  25
TORSDOF 16
