REMARK SMILES O=C(OCCOCCOC(=O)c1cc(/C=C/c2cc(O)cc(O)c2)ccc1O)c1ccc(-c2c3nc(c(-c4c(F)c(F)c(F)c(F)c4F)c4ccc([nH]4)c(-c4c(F)c(F)c(F)c(F)c4F)c4nc(c(-c5c(F)c(F)c(F)c(F)c5F)c5ccc2[nH]5)C=C4)C=C3)cc1
REMARK SMILES IDX 7 1 6 2 5 3 4 4 3 5 2 6 1 7 29 8 30 9 91 10 31 11 90 12
REMARK SMILES IDX 32 13 33 14 34 15 84 16 35 17 89 18 83 19 85 20 36 21 88 22
REMARK SMILES IDX 82 23 81 24 37 26 69 27 49 28 68 29 50 30 53 31 67 32 86 33
REMARK SMILES IDX 51 34 52 35 66 37 87 38 54 39 38 40 39 41 47 42 40 43 41 44
REMARK SMILES IDX 45 45 48 46 42 47 43 48 46 49 44 50 70 51 71 52 79 53 72 54
REMARK SMILES IDX 73 55 77 56 80 57 74 58 75 59 78 60 76 61 55 62 56 63 64 64
REMARK SMILES IDX 57 65 58 66 62 67 65 68 59 69 60 70 63 71 61 72 8 73 9 74
REMARK SMILES IDX 10 75 11 76 12 77 13 78 27 79 14 80 26 81 25 82 28 83 15 85
REMARK SMILES IDX 16 86 17 87 18 88 24 89 19 90 22 91 21 92 20 93 23 95
REMARK H PARENT 85 25 53 36 28 84 20 94 23 96
REMARK Flexibility Score: inf
ROOT
ATOM      1  C   UNL     1       2.787   0.438  -2.247  1.00  0.00     0.202 C 
ENDROOT
BRANCH   1   2
ATOM      2  O   UNL     1       4.066   0.150  -1.672  1.00  0.00    -0.374 OA
BRANCH   2   3
ATOM      3  C   UNL     1       4.261  -1.203  -1.260  1.00  0.00     0.202 C 
BRANCH   3   4
ATOM      4  C   UNL     1       3.900  -1.457   0.205  1.00  0.00     0.261 C 
BRANCH   4   5
ATOM      5  O   UNL     1       2.522  -1.127   0.446  1.00  0.00    -0.460 OA
BRANCH   5   6
ATOM      6  C   UNL     1       2.005  -0.003   0.993  1.00  0.00     0.338 C 
ATOM      7  O   UNL     1       0.784   0.075   1.125  1.00  0.00    -0.246 OA
BRANCH   6   8
ATOM      8  C   UNL     1       2.827   1.146   1.483  1.00  0.00     0.060 A 
ATOM      9  C   UNL     1       4.087   1.501   1.000  1.00  0.00     0.016 A 
ATOM     10  C   UNL     1       2.245   1.975   2.459  1.00  0.00     0.016 A 
ATOM     11  C   UNL     1       4.781   2.590   1.503  1.00  0.00     0.010 A 
ATOM     12  C   UNL     1       2.921   3.097   2.951  1.00  0.00     0.010 A 
ATOM     13  C   UNL     1       4.206   3.387   2.487  1.00  0.00    -0.014 A 
BRANCH  13  14
ATOM     14  C   UNL     1       5.056   4.425   3.094  1.00  0.00     0.031 A 
ATOM     15  C   UNL     1       5.700   4.125   4.411  1.00  0.00     0.074 A 
ATOM     16  C   UNL     1       5.372   5.521   2.383  1.00  0.00     0.049 A 
ATOM     17  N   UNL     1       6.521   4.852   5.119  1.00  0.00    -0.248 NA
ATOM     18  C   UNL     1       5.393   2.811   5.002  1.00  0.00     0.031 C 
ATOM     19  C   UNL     1       4.889   5.814   1.032  1.00  0.00     0.029 A 
ATOM     20  N   UNL     1       6.210   6.563   2.673  1.00  0.00    -0.354 N 
ATOM     21  C   UNL     1       6.805   4.098   6.249  1.00  0.00     0.074 A 
ATOM     22  C   UNL     1       6.074   2.857   6.136  1.00  0.00     0.031 C 
ATOM     23  C   UNL     1       5.471   6.943   0.595  1.00  0.00     0.029 A 
ATOM     24  C   UNL     1       6.315   7.480   1.657  1.00  0.00     0.049 A 
ATOM     25  H   UNL     1       6.691   6.647   3.528  1.00  0.00     0.167 HD
ATOM     26  C   UNL     1       7.601   4.429   7.292  1.00  0.00     0.037 A 
ATOM     27  C   UNL     1       7.008   8.632   1.610  1.00  0.00     0.037 A 
ATOM     28  C   UNL     1       8.315   5.673   7.373  1.00  0.00     0.049 A 
ATOM     29  C   UNL     1       7.820   9.014   2.819  1.00  0.00     0.074 A 
ATOM     30  C   UNL     1       9.093   6.164   8.404  1.00  0.00     0.029 A 
ATOM     31  N   UNL     1       8.334   6.628   6.363  1.00  0.00    -0.354 N 
ATOM     32  N   UNL     1       8.028   8.336   3.924  1.00  0.00    -0.248 NA
ATOM     33  C   UNL     1       8.481  10.324   2.784  1.00  0.00     0.031 C 
ATOM     34  C   UNL     1       9.548   7.435   8.034  1.00  0.00     0.029 A 
ATOM     35  C   UNL     1       9.098   7.713   6.752  1.00  0.00     0.049 A 
ATOM     36  H   UNL     1       7.872   6.544   5.498  1.00  0.00     0.167 HD
ATOM     37  C   UNL     1       8.860   9.123   4.706  1.00  0.00     0.074 A 
ATOM     38  C   UNL     1       9.131  10.324   3.940  1.00  0.00     0.031 C 
ATOM     39  C   UNL     1       9.354   8.882   5.947  1.00  0.00     0.037 A 
BRANCH  26  40
ATOM     40  C   UNL     1       7.647   3.466   8.440  1.00  0.00     0.064 A 
ATOM     41  C   UNL     1       8.298   2.226   8.351  1.00  0.00     0.173 A 
ATOM     42  C   UNL     1       6.969   3.767   9.632  1.00  0.00     0.173 A 
ATOM     43  F   UNL     1       8.931   1.875   7.221  1.00  0.00    -0.203 F 
ATOM     44  C   UNL     1       8.237   1.309   9.399  1.00  0.00     0.198 A 
ATOM     45  C   UNL     1       6.933   2.859  10.686  1.00  0.00     0.198 A 
ATOM     46  F   UNL     1       6.321   4.933   9.765  1.00  0.00    -0.203 F 
ATOM     47  F   UNL     1       8.805   0.102   9.265  1.00  0.00    -0.200 F 
ATOM     48  C   UNL     1       7.556   1.626  10.565  1.00  0.00     0.200 A 
ATOM     49  F   UNL     1       6.274   3.167  11.812  1.00  0.00    -0.200 F 
ATOM     50  F   UNL     1       7.484   0.736  11.564  1.00  0.00    -0.200 F 
ENDBRANCH  26  40
BRANCH  27  51
ATOM     51  C   UNL     1       6.944   9.503   0.406  1.00  0.00     0.064 A 
ATOM     52  C   UNL     1       8.078   9.741  -0.383  1.00  0.00     0.173 A 
ATOM     53  C   UNL     1       5.745  10.124   0.021  1.00  0.00     0.173 A 
ATOM     54  F   UNL     1       9.254   9.192  -0.047  1.00  0.00    -0.203 F 
ATOM     55  C   UNL     1       8.019  10.575  -1.499  1.00  0.00     0.198 A 
ATOM     56  C   UNL     1       5.680  10.933  -1.112  1.00  0.00     0.198 A 
ATOM     57  F   UNL     1       4.629   9.936   0.741  1.00  0.00    -0.203 F 
ATOM     58  F   UNL     1       9.129  10.821  -2.208  1.00  0.00    -0.200 F 
ATOM     59  C   UNL     1       6.819  11.165  -1.867  1.00  0.00     0.200 A 
ATOM     60  F   UNL     1       4.514  11.490  -1.468  1.00  0.00    -0.200 F 
ATOM     61  F   UNL     1       6.762  11.963  -2.941  1.00  0.00    -0.200 F 
ENDBRANCH  27  51
BRANCH  39  62
ATOM     62  C   UNL     1      10.270   9.919   6.521  1.00  0.00     0.064 A 
ATOM     63  C   UNL     1       9.788  11.149   6.989  1.00  0.00     0.173 A 
ATOM     64  C   UNL     1      11.643   9.656   6.641  1.00  0.00     0.173 A 
ATOM     65  F   UNL     1       8.485  11.449   6.880  1.00  0.00    -0.203 F 
ATOM     66  C   UNL     1      10.654  12.091   7.536  1.00  0.00     0.198 A 
ATOM     67  C   UNL     1      12.500  10.588   7.215  1.00  0.00     0.198 A 
ATOM     68  F   UNL     1      12.148   8.489   6.213  1.00  0.00    -0.203 F 
ATOM     69  F   UNL     1      10.181  13.279   7.936  1.00  0.00    -0.200 F 
ATOM     70  C   UNL     1      12.007  11.807   7.655  1.00  0.00     0.200 A 
ATOM     71  F   UNL     1      13.804  10.307   7.341  1.00  0.00    -0.200 F 
ATOM     72  F   UNL     1      12.837  12.713   8.189  1.00  0.00    -0.200 F 
ENDBRANCH  39  62
ENDBRANCH  13  14
ENDBRANCH   6   8
ENDBRANCH   5   6
ENDBRANCH   4   5
ENDBRANCH   3   4
ENDBRANCH   2   3
ENDBRANCH   1   2
BRANCH   1  73
ATOM     73  C   UNL     1       2.969   0.874  -3.700  1.00  0.00     0.261 C 
BRANCH  73  74
ATOM     74  O   UNL     1       3.512  -0.234  -4.432  1.00  0.00    -0.460 OA
BRANCH  74  75
ATOM     75  C   UNL     1       4.864  -0.275  -4.550  1.00  0.00     0.342 C 
ATOM     76  O   UNL     1       5.657   0.622  -4.315  1.00  0.00    -0.246 OA
BRANCH  75  77
ATOM     77  C   UNL     1       5.249  -1.692  -4.727  1.00  0.00     0.102 A 
ATOM     78  C   UNL     1       6.239  -2.204  -3.867  1.00  0.00     0.027 A 
ATOM     79  C   UNL     1       4.580  -2.540  -5.612  1.00  0.00     0.130 A 
ATOM     80  C   UNL     1       6.493  -3.578  -3.820  1.00  0.00    -0.025 A 
ATOM     81  C   UNL     1       4.862  -3.902  -5.610  1.00  0.00     0.048 A 
ATOM     82  C   UNL     1       5.802  -4.414  -4.710  1.00  0.00     0.012 A 
BRANCH  79  83
ATOM     83  O   UNL     1       3.657  -2.043  -6.487  1.00  0.00    -0.507 OA
ATOM     84  H   UNL     1       3.463  -1.126  -6.493  1.00  0.00     0.293 HD
ENDBRANCH  79  83
BRANCH  80  85
ATOM     85  C   UNL     1       7.464  -4.202  -2.906  1.00  0.00     0.009 C 
ATOM     86  C   UNL     1       7.827  -3.761  -1.688  1.00  0.00     0.009 C 
BRANCH  86  87
ATOM     87  C   UNL     1       8.779  -4.509  -0.845  1.00  0.00    -0.018 A 
ATOM     88  C   UNL     1       9.940  -5.080  -1.391  1.00  0.00     0.054 A 
ATOM     89  C   UNL     1       8.541  -4.642   0.532  1.00  0.00     0.054 A 
ATOM     90  C   UNL     1      10.813  -5.803  -0.582  1.00  0.00     0.119 A 
ATOM     91  C   UNL     1       9.433  -5.368   1.325  1.00  0.00     0.119 A 
ATOM     92  C   UNL     1      10.565  -5.956   0.775  1.00  0.00     0.092 A 
BRANCH  90  93
ATOM     93  O   UNL     1      11.934  -6.386  -1.095  1.00  0.00    -0.508 OA
ATOM     94  H   UNL     1      12.130  -6.302  -2.008  1.00  0.00     0.293 HD
ENDBRANCH  90  93
BRANCH  91  95
ATOM     95  O   UNL     1       9.227  -5.534   2.664  1.00  0.00    -0.508 OA
ATOM     96  H   UNL     1       9.840  -6.026   3.174  1.00  0.00     0.293 HD
ENDBRANCH  91  95
ENDBRANCH  86  87
ENDBRANCH  80  85
ENDBRANCH  75  77
ENDBRANCH  74  75
ENDBRANCH  73  74
ENDBRANCH   1  73
TORSDOF 19
