REMARK SMILES O=C(CC[NH2+]C[C@H](O)Cn1c2ccccc2c2ccccc21)OCCOCCOC(=O)c1ccc(-c2c3nc(c(-c4c(F)c(F)c(F)c(F)c4F)c4ccc([nH]4)c(-c4c(F)c(F)c(F)c(F)c4F)c4nc(c(-c5c(F)c(F)c(F)c(F)c5F)c5ccc2[nH]5)C=C4)C=C3)cc1
REMARK SMILES IDX 24 1 23 2 2 3 1 4 3 5 4 6 5 7 6 10 7 11 9 12 10 13 11 14
REMARK SMILES IDX 22 15 12 16 16 17 17 18 21 19 13 20 15 21 18 22 20 23 14 24
REMARK SMILES IDX 19 25 8 26 25 28 26 29 27 30 28 31 29 32 30 33 31 34 32 35
REMARK SMILES IDX 33 36 94 37 34 38 93 39 35 40 36 41 37 42 87 43 38 44 92 45
REMARK SMILES IDX 86 46 88 47 39 48 91 49 85 50 84 51 40 53 72 54 52 55 71 56
REMARK SMILES IDX 53 57 56 58 70 59 89 60 54 61 55 62 69 64 90 65 57 66 41 67
REMARK SMILES IDX 42 68 50 69 43 70 44 71 48 72 51 73 45 74 46 75 49 76 47 77
REMARK SMILES IDX 73 78 74 79 82 80 75 81 76 82 80 83 83 84 77 85 78 86 81 87
REMARK SMILES IDX 79 88 58 89 59 90 67 91 60 92 61 93 65 94 68 95 62 96 63 97
REMARK SMILES IDX 66 98 64 99
REMARK H PARENT 5 8 5 9 8 27 88 52 56 63
REMARK Flexibility Score: inf
ROOT
ATOM      1  C   UNL     1       1.653  -1.306  -3.220  1.00  0.00     0.261 C 
ENDROOT
BRANCH   1   2
ATOM      2  O   UNL     1       2.833  -1.820  -2.577  1.00  0.00    -0.463 OA
BRANCH   2   3
ATOM      3  C   UNL     1       2.996  -2.111  -1.274  1.00  0.00     0.311 C 
ATOM      4  O   UNL     1       3.306  -3.247  -0.926  1.00  0.00    -0.252 OA
BRANCH   3   5
ATOM      5  C   UNL     1       2.974  -0.969  -0.300  1.00  0.00     0.184 C 
BRANCH   5   6
ATOM      6  C   UNL     1       4.033   0.110  -0.482  1.00  0.00     0.272 C 
BRANCH   6   7
ATOM      7  N   UNL     1       3.924   1.011  -1.616  1.00  0.00    -0.344 N 
ATOM      8  H   UNL     1       4.302   1.909  -1.313  1.00  0.00     0.346 HD
ATOM      9  H   UNL     1       2.932   0.971  -1.850  1.00  0.00     0.346 HD
BRANCH   7  10
ATOM     10  C   UNL     1       4.579   0.685  -2.882  1.00  0.00     0.294 C 
BRANCH  10  11
ATOM     11  C   UNL     1       5.558  -0.502  -2.955  1.00  0.00     0.189 C 
BRANCH  11  12
ATOM     12  C   UNL     1       6.015  -0.724  -4.398  1.00  0.00     0.160 C 
BRANCH  12  13
ATOM     13  N   UNL     1       6.671  -2.023  -4.521  1.00  0.00    -0.338 N 
ATOM     14  C   UNL     1       6.024  -3.213  -4.793  1.00  0.00     0.049 A 
ATOM     15  C   UNL     1       8.012  -2.238  -4.273  1.00  0.00     0.049 A 
ATOM     16  C   UNL     1       4.670  -3.499  -5.043  1.00  0.00     0.027 A 
ATOM     17  C   UNL     1       6.995  -4.216  -4.749  1.00  0.00     0.007 A 
ATOM     18  C   UNL     1       8.256  -3.591  -4.491  1.00  0.00     0.007 A 
ATOM     19  C   UNL     1       9.031  -1.350  -3.886  1.00  0.00     0.027 A 
ATOM     20  C   UNL     1       4.298  -4.837  -5.206  1.00  0.00     0.002 A 
ATOM     21  C   UNL     1       6.594  -5.556  -4.934  1.00  0.00     0.011 A 
ATOM     22  C   UNL     1       9.583  -4.058  -4.394  1.00  0.00     0.011 A 
ATOM     23  C   UNL     1      10.338  -1.828  -3.822  1.00  0.00     0.002 A 
ATOM     24  C   UNL     1       5.244  -5.854  -5.144  1.00  0.00     0.001 A 
ATOM     25  C   UNL     1      10.615  -3.163  -4.085  1.00  0.00     0.001 A 
ENDBRANCH  12  13
ENDBRANCH  11  12
BRANCH  11  26
ATOM     26  O   UNL     1       6.680  -0.248  -2.104  1.00  0.00    -0.385 OA
ATOM     27  H   UNL     1       7.134   0.557  -2.400  1.00  0.00     0.211 HD
ENDBRANCH  11  26
ENDBRANCH  10  11
ENDBRANCH   7  10
ENDBRANCH   6   7
ENDBRANCH   5   6
ENDBRANCH   3   5
ENDBRANCH   2   3
ENDBRANCH   1   2
BRANCH   1  28
ATOM     28  C   UNL     1       0.761  -0.274  -2.533  1.00  0.00     0.202 C 
BRANCH  28  29
ATOM     29  O   UNL     1       0.116  -0.634  -1.321  1.00  0.00    -0.374 OA
BRANCH  29  30
ATOM     30  C   UNL     1      -0.430  -1.946  -1.213  1.00  0.00     0.202 C 
BRANCH  30  31
ATOM     31  C   UNL     1      -1.720  -2.172  -2.006  1.00  0.00     0.261 C 
BRANCH  31  32
ATOM     32  O   UNL     1      -1.435  -2.135  -3.414  1.00  0.00    -0.460 OA
BRANCH  32  33
ATOM     33  C   UNL     1      -2.215  -1.319  -4.166  1.00  0.00     0.338 C 
ATOM     34  O   UNL     1      -3.305  -0.856  -3.872  1.00  0.00    -0.246 OA
BRANCH  33  35
ATOM     35  C   UNL     1      -1.341  -0.789  -5.236  1.00  0.00     0.060 A 
ATOM     36  C   UNL     1      -0.419  -1.611  -5.889  1.00  0.00     0.016 A 
ATOM     37  C   UNL     1      -1.262   0.609  -5.352  1.00  0.00     0.016 A 
ATOM     38  C   UNL     1       0.639  -1.024  -6.575  1.00  0.00     0.010 A 
ATOM     39  C   UNL     1      -0.185   1.193  -6.013  1.00  0.00     0.010 A 
ATOM     40  C   UNL     1       0.784   0.377  -6.600  1.00  0.00    -0.014 A 
BRANCH  40  41
ATOM     41  C   UNL     1       1.817   0.935  -7.480  1.00  0.00     0.031 A 
ATOM     42  C   UNL     1       1.516   0.678  -8.917  1.00  0.00     0.074 A 
ATOM     43  C   UNL     1       2.868   1.706  -7.122  1.00  0.00     0.049 A 
ATOM     44  N   UNL     1       2.229   0.028  -9.775  1.00  0.00    -0.248 NA
ATOM     45  C   UNL     1       0.191   1.082  -9.419  1.00  0.00     0.031 C 
ATOM     46  C   UNL     1       3.131   2.318  -5.820  1.00  0.00     0.029 A 
ATOM     47  N   UNL     1       3.894   2.189  -7.894  1.00  0.00    -0.354 N 
ATOM     48  C   UNL     1       1.511   0.058 -10.968  1.00  0.00     0.074 A 
ATOM     49  C   UNL     1       0.216   0.601 -10.661  1.00  0.00     0.031 C 
ATOM     50  C   UNL     1       4.119   3.237  -5.945  1.00  0.00     0.029 A 
ATOM     51  C   UNL     1       4.616   3.229  -7.313  1.00  0.00     0.049 A 
ATOM     52  H   UNL     1       4.104   1.829  -8.786  1.00  0.00     0.167 HD
ATOM     53  C   UNL     1       2.106  -0.192 -12.164  1.00  0.00     0.037 A 
ATOM     54  C   UNL     1       5.491   4.079  -7.921  1.00  0.00     0.037 A 
ATOM     55  C   UNL     1       3.355  -0.876 -11.995  1.00  0.00     0.049 A 
ATOM     56  C   UNL     1       5.887   3.503  -9.234  1.00  0.00     0.074 A 
ATOM     57  C   UNL     1       3.718  -2.099 -11.469  1.00  0.00     0.029 A 
ATOM     58  N   UNL     1       4.510  -0.142 -12.083  1.00  0.00    -0.354 N 
ATOM     59  N   UNL     1       6.692   2.493  -9.384  1.00  0.00    -0.248 NA
ATOM     60  C   UNL     1       5.024   3.777 -10.373  1.00  0.00     0.031 C 
ATOM     61  C   UNL     1       4.953  -1.856 -10.808  1.00  0.00     0.029 A 
ATOM     62  C   UNL     1       5.310  -0.528 -11.042  1.00  0.00     0.049 A 
ATOM     63  H   UNL     1       4.723   0.534 -12.766  1.00  0.00     0.167 HD
ATOM     64  C   UNL     1       6.099   1.721 -10.371  1.00  0.00     0.074 A 
ATOM     65  C   UNL     1       5.135   2.611 -11.014  1.00  0.00     0.031 C 
ATOM     66  C   UNL     1       6.237   0.360 -10.386  1.00  0.00     0.037 A 
BRANCH  53  67
ATOM     67  C   UNL     1       1.737   0.482 -13.456  1.00  0.00     0.064 A 
ATOM     68  C   UNL     1       2.320   0.030 -14.656  1.00  0.00     0.173 A 
ATOM     69  C   UNL     1       1.103   1.740 -13.517  1.00  0.00     0.173 A 
ATOM     70  F   UNL     1       2.967  -1.145 -14.702  1.00  0.00    -0.203 F 
ATOM     71  C   UNL     1       2.341   0.820 -15.807  1.00  0.00     0.198 A 
ATOM     72  C   UNL     1       1.077   2.502 -14.683  1.00  0.00     0.198 A 
ATOM     73  F   UNL     1       0.591   2.332 -12.431  1.00  0.00    -0.203 F 
ATOM     74  F   UNL     1       3.024   0.409 -16.883  1.00  0.00    -0.200 F 
ATOM     75  C   UNL     1       1.725   2.058 -15.816  1.00  0.00     0.200 A 
ATOM     76  F   UNL     1       0.495   3.709 -14.667  1.00  0.00    -0.200 F 
ATOM     77  F   UNL     1       1.800   2.846 -16.896  1.00  0.00    -0.200 F 
ENDBRANCH  53  67
BRANCH  54  78
ATOM     78  C   UNL     1       5.780   5.502  -7.596  1.00  0.00     0.064 A 
ATOM     79  C   UNL     1       6.955   6.141  -8.031  1.00  0.00     0.173 A 
ATOM     80  C   UNL     1       4.766   6.342  -7.097  1.00  0.00     0.173 A 
ATOM     81  F   UNL     1       7.959   5.424  -8.558  1.00  0.00    -0.203 F 
ATOM     82  C   UNL     1       7.092   7.536  -7.994  1.00  0.00     0.198 A 
ATOM     83  C   UNL     1       4.905   7.731  -7.056  1.00  0.00     0.198 A 
ATOM     84  F   UNL     1       3.579   5.838  -6.731  1.00  0.00    -0.203 F 
ATOM     85  F   UNL     1       8.202   8.115  -8.474  1.00  0.00    -0.200 F 
ATOM     86  C   UNL     1       6.061   8.329  -7.519  1.00  0.00     0.200 A 
ATOM     87  F   UNL     1       3.884   8.486  -6.628  1.00  0.00    -0.200 F 
ATOM     88  F   UNL     1       6.161   9.666  -7.549  1.00  0.00    -0.200 F 
ENDBRANCH  54  78
BRANCH  66  89
ATOM     89  C   UNL     1       7.269  -0.276  -9.494  1.00  0.00     0.064 A 
ATOM     90  C   UNL     1       7.439   0.032  -8.139  1.00  0.00     0.173 A 
ATOM     91  C   UNL     1       8.067  -1.314 -10.009  1.00  0.00     0.173 A 
ATOM     92  F   UNL     1       6.606   0.856  -7.486  1.00  0.00    -0.203 F 
ATOM     93  C   UNL     1       8.460  -0.546  -7.397  1.00  0.00     0.198 A 
ATOM     94  C   UNL     1       8.984  -1.996  -9.215  1.00  0.00     0.198 A 
ATOM     95  F   UNL     1       7.939  -1.695 -11.291  1.00  0.00    -0.203 F 
ATOM     96  F   UNL     1       8.720  -0.054  -6.183  1.00  0.00    -0.200 F 
ATOM     97  C   UNL     1       9.208  -1.587  -7.915  1.00  0.00     0.200 A 
ATOM     98  F   UNL     1       9.661  -3.036  -9.720  1.00  0.00    -0.200 F 
ATOM     99  F   UNL     1      10.146  -2.190  -7.176  1.00  0.00    -0.200 F 
ENDBRANCH  66  89
ENDBRANCH  40  41
ENDBRANCH  33  35
ENDBRANCH  32  33
ENDBRANCH  31  32
ENDBRANCH  30  31
ENDBRANCH  29  30
ENDBRANCH  28  29
ENDBRANCH   1  28
TORSDOF 21
