REMARK SMILES CC(=O)N1CCN(C(=O)c2ccc(=O)n(CCC(=O)OCCOCCOC(=O)c3ccc(-c4c5nc(c(-c6c(F)c(F)c(F)c(F)c6F)c6ccc([nH]6)c(-c6c(F)c(F)c(F)c(F)c6F)c6nc(c(-c7c(F)c(F)c(F)c(F)c7F)c7ccc4[nH]7)C=C6)C=C5)cc3)n2)CC1
REMARK SMILES IDX 22 1 21 2 20 3 18 4 19 5 17 6 16 7 15 8 10 9 11 10 92 11
REMARK SMILES IDX 12 12 13 13 14 14 8 15 1 16 2 17 3 18 4 19 5 20 94 21 6 22
REMARK SMILES IDX 93 23 7 24 9 25 23 26 24 27 25 28 26 29 27 30 28 31 29 32
REMARK SMILES IDX 30 33 91 34 31 35 90 36 32 37 33 38 34 39 84 40 35 41 89 42
REMARK SMILES IDX 83 43 85 44 36 45 88 46 82 47 81 48 37 50 69 51 49 52 68 53
REMARK SMILES IDX 50 54 53 55 67 56 86 57 51 58 52 59 66 61 87 62 54 63 38 64
REMARK SMILES IDX 39 65 47 66 40 67 41 68 45 69 48 70 42 71 43 72 46 73 44 74
REMARK SMILES IDX 70 75 71 76 79 77 72 78 73 79 77 80 80 81 74 82 75 83 78 84
REMARK SMILES IDX 76 85 55 86 56 87 64 88 57 89 58 90 62 91 65 92 59 93 60 94
REMARK SMILES IDX 63 95 61 96
REMARK H PARENT 85 49 53 60
REMARK Flexibility Score: inf
ROOT
ATOM      1  C   UNL     1       8.300   3.950  -8.937  1.00  0.00     0.202 C 
ENDROOT
BRANCH   1   2
ATOM      2  C   UNL     1       7.616   3.107 -10.028  1.00  0.00     0.261 C 
BRANCH   2   3
ATOM      3  O   UNL     1       6.724   2.096  -9.512  1.00  0.00    -0.463 OA
BRANCH   3   4
ATOM      4  C   UNL     1       7.212   0.841  -9.376  1.00  0.00     0.307 C 
ATOM      5  O   UNL     1       8.323   0.479  -9.743  1.00  0.00    -0.252 OA
BRANCH   4   6
ATOM      6  C   UNL     1       6.204  -0.103  -8.755  1.00  0.00     0.146 C 
BRANCH   6   7
ATOM      7  C   UNL     1       5.772   0.225  -7.324  1.00  0.00     0.160 C 
BRANCH   7   8
ATOM      8  N   UNL     1       4.635   1.145  -7.240  1.00  0.00    -0.229 N 
ATOM      9  C   UNL     1       2.405   1.428  -6.868  1.00  0.00     0.149 A 
ATOM     10  C   UNL     1       2.436   2.848  -7.256  1.00  0.00     0.042 A 
ATOM     11  N   UNL     1       3.405   0.600  -6.911  1.00  0.00    -0.164 NA
ATOM     12  C   UNL     1       3.644   3.352  -7.480  1.00  0.00     0.076 A 
ATOM     13  C   UNL     1       4.837   2.512  -7.298  1.00  0.00     0.266 A 
ATOM     14  O   UNL     1       5.923   3.066  -7.221  1.00  0.00    -0.268 OA
BRANCH   9  15
ATOM     15  C   UNL     1       1.064   0.956  -6.372  1.00  0.00     0.274 C 
ATOM     16  C   UNL     1       1.169  -0.142  -0.151  1.00  0.00     0.114 C 
ATOM     17  C   UNL     1       0.293  -0.695  -1.243  1.00  0.00     0.219 C 
ATOM     18  O   UNL     1      -0.770  -1.246  -0.955  1.00  0.00    -0.275 OA
ATOM     19  N   UNL     1       0.691  -0.487  -2.550  1.00  0.00    -0.339 N 
ATOM     20  C   UNL     1      -0.271  -0.745  -3.630  1.00  0.00     0.141 C 
ATOM     21  C   UNL     1       2.013  -0.021  -3.003  1.00  0.00     0.141 C 
ATOM     22  C   UNL     1      -0.432   0.519  -4.481  1.00  0.00     0.141 C 
ATOM     23  C   UNL     1       1.897   1.176  -3.969  1.00  0.00     0.141 C 
ATOM     24  N   UNL     1       0.872   0.934  -4.999  1.00  0.00    -0.334 N 
ATOM     25  O   UNL     1       0.213   0.701  -7.215  1.00  0.00    -0.267 OA
ENDBRANCH   9  15
ENDBRANCH   7   8
ENDBRANCH   6   7
ENDBRANCH   4   6
ENDBRANCH   3   4
ENDBRANCH   2   3
ENDBRANCH   1   2
BRANCH   1  26
ATOM     26  O   UNL     1       9.388   3.325  -8.257  1.00  0.00    -0.374 OA
BRANCH  26  27
ATOM     27  C   UNL     1       9.046   2.526  -7.126  1.00  0.00     0.202 C 
BRANCH  27  28
ATOM     28  C   UNL     1       9.008   3.260  -5.774  1.00  0.00     0.261 C 
BRANCH  28  29
ATOM     29  O   UNL     1       7.828   4.072  -5.615  1.00  0.00    -0.460 OA
BRANCH  29  30
ATOM     30  C   UNL     1       7.963   5.382  -5.928  1.00  0.00     0.338 C 
ATOM     31  O   UNL     1       9.003   5.976  -6.143  1.00  0.00    -0.246 OA
BRANCH  30  32
ATOM     32  C   UNL     1       6.627   5.996  -6.160  1.00  0.00     0.060 A 
ATOM     33  C   UNL     1       5.496   5.678  -5.404  1.00  0.00     0.016 A 
ATOM     34  C   UNL     1       6.520   6.926  -7.204  1.00  0.00     0.016 A 
ATOM     35  C   UNL     1       4.269   6.299  -5.691  1.00  0.00     0.010 A 
ATOM     36  C   UNL     1       5.301   7.554  -7.479  1.00  0.00     0.010 A 
ATOM     37  C   UNL     1       4.162   7.256  -6.721  1.00  0.00    -0.014 A 
BRANCH  37  38
ATOM     38  C   UNL     1       2.910   8.043  -6.911  1.00  0.00     0.031 A 
ATOM     39  C   UNL     1       2.061   7.937  -8.149  1.00  0.00     0.074 A 
ATOM     40  C   UNL     1       2.561   8.927  -5.955  1.00  0.00     0.049 A 
ATOM     41  N   UNL     1       0.931   8.543  -8.428  1.00  0.00    -0.248 NA
ATOM     42  C   UNL     1       2.537   7.042  -9.211  1.00  0.00     0.031 C 
ATOM     43  C   UNL     1       3.320   9.172  -4.730  1.00  0.00     0.029 A 
ATOM     44  N   UNL     1       1.489   9.780  -5.863  1.00  0.00    -0.354 N 
ATOM     45  C   UNL     1       0.553   8.096  -9.687  1.00  0.00     0.074 A 
ATOM     46  C   UNL     1       1.599   7.198 -10.137  1.00  0.00     0.031 C 
ATOM     47  C   UNL     1       2.671  10.080  -3.988  1.00  0.00     0.029 A 
ATOM     48  C   UNL     1       1.476  10.518  -4.705  1.00  0.00     0.049 A 
ATOM     49  H   UNL     1       0.797   9.856  -6.559  1.00  0.00     0.167 HD
ATOM     50  C   UNL     1      -0.566   8.393 -10.395  1.00  0.00     0.037 A 
ATOM     51  C   UNL     1       0.609  11.447  -4.262  1.00  0.00     0.037 A 
ATOM     52  C   UNL     1      -1.591   9.316  -9.967  1.00  0.00     0.049 A 
ATOM     53  C   UNL     1      -0.591  11.807  -5.090  1.00  0.00     0.074 A 
ATOM     54  C   UNL     1      -2.777   9.645 -10.605  1.00  0.00     0.029 A 
ATOM     55  N   UNL     1      -1.546  10.077  -8.807  1.00  0.00    -0.354 N 
ATOM     56  N   UNL     1      -0.979  11.312  -6.239  1.00  0.00    -0.248 NA
ATOM     57  C   UNL     1      -1.474  12.853  -4.557  1.00  0.00     0.031 C 
ATOM     58  C   UNL     1      -3.415  10.647  -9.867  1.00  0.00     0.029 A 
ATOM     59  C   UNL     1      -2.663  10.899  -8.732  1.00  0.00     0.049 A 
ATOM     60  H   UNL     1      -0.827  10.040  -8.136  1.00  0.00     0.167 HD
ATOM     61  C   UNL     1      -2.158  11.972  -6.560  1.00  0.00     0.074 A 
ATOM     62  C   UNL     1      -2.432  12.889  -5.473  1.00  0.00     0.031 C 
ATOM     63  C   UNL     1      -2.937  11.823  -7.659  1.00  0.00     0.037 A 
BRANCH  50  64
ATOM     64  C   UNL     1      -0.755   7.709 -11.723  1.00  0.00     0.064 A 
ATOM     65  C   UNL     1      -1.015   6.332 -11.803  1.00  0.00     0.173 A 
ATOM     66  C   UNL     1      -0.749   8.442 -12.921  1.00  0.00     0.173 A 
ATOM     67  F   UNL     1      -1.031   5.582 -10.690  1.00  0.00    -0.203 F 
ATOM     68  C   UNL     1      -1.229   5.710 -13.032  1.00  0.00     0.198 A 
ATOM     69  C   UNL     1      -0.997   7.823 -14.144  1.00  0.00     0.198 A 
ATOM     70  F   UNL     1      -0.523   9.764 -12.904  1.00  0.00    -0.203 F 
ATOM     71  F   UNL     1      -1.429   4.386 -13.084  1.00  0.00    -0.200 F 
ATOM     72  C   UNL     1      -1.228   6.457 -14.200  1.00  0.00     0.200 A 
ATOM     73  F   UNL     1      -1.014   8.550 -15.270  1.00  0.00    -0.200 F 
ATOM     74  F   UNL     1      -1.444   5.859 -15.380  1.00  0.00    -0.200 F 
ENDBRANCH  50  64
BRANCH  51  75
ATOM     75  C   UNL     1       0.834  12.060  -2.928  1.00  0.00     0.064 A 
ATOM     76  C   UNL     1       0.014  11.723  -1.844  1.00  0.00     0.173 A 
ATOM     77  C   UNL     1       1.909  12.930  -2.693  1.00  0.00     0.173 A 
ATOM     78  F   UNL     1      -1.035  10.909  -2.026  1.00  0.00    -0.203 F 
ATOM     79  C   UNL     1       0.265  12.229  -0.571  1.00  0.00     0.198 A 
ATOM     80  C   UNL     1       2.176  13.411  -1.415  1.00  0.00     0.198 A 
ATOM     81  F   UNL     1       2.727  13.273  -3.700  1.00  0.00    -0.203 F 
ATOM     82  F   UNL     1      -0.543  11.903   0.447  1.00  0.00    -0.200 F 
ATOM     83  C   UNL     1       1.353  13.061  -0.354  1.00  0.00     0.200 A 
ATOM     84  F   UNL     1       3.241  14.197  -1.205  1.00  0.00    -0.200 F 
ATOM     85  F   UNL     1       1.611  13.522   0.877  1.00  0.00    -0.200 F 
ENDBRANCH  51  75
BRANCH  63  86
ATOM     86  C   UNL     1      -4.180  12.665  -7.754  1.00  0.00     0.064 A 
ATOM     87  C   UNL     1      -4.117  14.048  -7.983  1.00  0.00     0.173 A 
ATOM     88  C   UNL     1      -5.451  12.074  -7.681  1.00  0.00     0.173 A 
ATOM     89  F   UNL     1      -2.929  14.668  -8.046  1.00  0.00    -0.203 F 
ATOM     90  C   UNL     1      -5.277  14.808  -8.120  1.00  0.00     0.198 A 
ATOM     91  C   UNL     1      -6.608  12.831  -7.850  1.00  0.00     0.198 A 
ATOM     92  F   UNL     1      -5.572  10.755  -7.467  1.00  0.00    -0.203 F 
ATOM     93  F   UNL     1      -5.190  16.133  -8.299  1.00  0.00    -0.200 F 
ATOM     94  C   UNL     1      -6.521  14.197  -8.065  1.00  0.00     0.200 A 
ATOM     95  F   UNL     1      -7.809  12.236  -7.811  1.00  0.00    -0.200 F 
ATOM     96  F   UNL     1      -7.635  14.927  -8.214  1.00  0.00    -0.200 F 
ENDBRANCH  63  86
ENDBRANCH  37  38
ENDBRANCH  30  32
ENDBRANCH  29  30
ENDBRANCH  28  29
ENDBRANCH  27  28
ENDBRANCH  26  27
ENDBRANCH   1  26
TORSDOF 17
