REMARK SMILES CN(c1ccc(C(=O)OCCOCCOC(=O)c2ccc(-c3c4nc(c(-c5c(F)c(F)c(F)c(F)c5F)c5ccc([nH]5)c(-c5c(F)c(F)c(F)c(F)c5F)c5nc(c(-c6c(F)c(F)c(F)c(F)c6F)c6ccc3[nH]6)C=C5)C=C4)cc2)cc1[N+](=O)[O-])C1CC1
REMARK SMILES IDX 12 1 11 2 10 3 9 4 7 5 8 6 6 7 3 8 4 9 82 10 5 11 81 12 2 13
REMARK SMILES IDX 1 14 86 15 87 16 88 17 83 18 84 19 85 20 13 21 14 22 15 23
REMARK SMILES IDX 16 24 17 25 18 26 19 27 80 28 20 29 79 30 21 31 22 32 23 33
REMARK SMILES IDX 73 34 24 35 78 36 72 37 74 38 25 39 77 40 71 41 70 42 26 44
REMARK SMILES IDX 58 45 38 46 57 47 39 48 42 49 56 50 75 51 40 52 41 53 55 55
REMARK SMILES IDX 76 56 43 57 27 58 28 59 36 60 29 61 30 62 34 63 37 64 31 65
REMARK SMILES IDX 32 66 35 67 33 68 59 69 60 70 68 71 61 72 62 73 66 74 69 75
REMARK SMILES IDX 63 76 64 77 67 78 65 79 44 80 45 81 53 82 46 83 47 84 51 85
REMARK SMILES IDX 54 86 48 87 49 88 52 89 50 90
REMARK H PARENT 74 43 42 54
REMARK Flexibility Score: inf
ROOT
ATOM      1  O   UNL     1      -4.829  -6.022   3.219  1.00  0.00    -0.374 OA
ENDROOT
BRANCH   1   2
ATOM      2  C   UNL     1      -5.314  -5.149   4.238  1.00  0.00     0.202 C 
BRANCH   2   3
ATOM      3  C   UNL     1      -4.248  -4.388   5.030  1.00  0.00     0.261 C 
BRANCH   3   4
ATOM      4  O   UNL     1      -3.475  -3.529   4.174  1.00  0.00    -0.460 OA
BRANCH   4   5
ATOM      5  C   UNL     1      -2.175  -3.882   4.041  1.00  0.00     0.338 C 
ATOM      6  O   UNL     1      -1.584  -4.744   4.674  1.00  0.00    -0.246 OA
BRANCH   5   7
ATOM      7  C   UNL     1      -1.549  -3.166   2.903  1.00  0.00     0.067 A 
ATOM      8  C   UNL     1      -0.192  -1.911   0.734  1.00  0.00     0.116 A 
ATOM      9  C   UNL     1       0.186  -3.177   1.204  1.00  0.00     0.034 A 
ATOM     10  C   UNL     1      -1.291  -1.303   1.383  1.00  0.00     0.293 A 
ATOM     11  C   UNL     1      -0.480  -3.800   2.263  1.00  0.00     0.018 A 
ATOM     12  C   UNL     1      -1.971  -1.914   2.458  1.00  0.00     0.103 A 
BRANCH   8  13
ATOM     13  N   UNL     1       0.575  -1.304  -0.272  1.00  0.00    -0.366 N 
ATOM     14  C   UNL     1       1.296  -0.082   0.086  1.00  0.00     0.144 C 
BRANCH  13  15
ATOM     15  C   UNL     1       0.905  -1.909  -1.577  1.00  0.00     0.082 C 
ATOM     16  C   UNL     1       0.736  -3.345  -1.988  1.00  0.00     0.027 C 
ATOM     17  C   UNL     1      -0.193  -2.303  -2.530  1.00  0.00     0.027 C 
ENDBRANCH  13  15
ENDBRANCH   8  13
BRANCH  10  18
ATOM     18  N   UNL     1      -1.776   0.009   0.968  1.00  0.00     0.065 N 
ATOM     19  O   UNL     1      -1.991   0.832   1.870  1.00  0.00    -0.258 OA
ATOM     20  O   UNL     1      -1.980   0.209  -0.236  1.00  0.00    -0.258 OA
ENDBRANCH  10  18
ENDBRANCH   5   7
ENDBRANCH   4   5
ENDBRANCH   3   4
ENDBRANCH   2   3
ENDBRANCH   1   2
BRANCH   1  21
ATOM     21  C   UNL     1      -4.494  -5.431   1.962  1.00  0.00     0.202 C 
BRANCH  21  22
ATOM     22  C   UNL     1      -5.671  -5.101   1.036  1.00  0.00     0.261 C 
BRANCH  22  23
ATOM     23  O   UNL     1      -6.484  -4.036   1.565  1.00  0.00    -0.460 OA
BRANCH  23  24
ATOM     24  C   UNL     1      -7.736  -4.402   1.929  1.00  0.00     0.338 C 
ATOM     25  O   UNL     1      -8.268  -5.490   1.767  1.00  0.00    -0.246 OA
BRANCH  24  26
ATOM     26  C   UNL     1      -8.355  -3.341   2.745  1.00  0.00     0.060 A 
ATOM     27  C   UNL     1      -8.871  -3.709   3.994  1.00  0.00     0.016 A 
ATOM     28  C   UNL     1      -8.490  -2.030   2.282  1.00  0.00     0.016 A 
ATOM     29  C   UNL     1      -9.566  -2.780   4.764  1.00  0.00     0.010 A 
ATOM     30  C   UNL     1      -9.195  -1.099   3.054  1.00  0.00     0.010 A 
ATOM     31  C   UNL     1      -9.764  -1.478   4.284  1.00  0.00    -0.014 A 
BRANCH  31  32
ATOM     32  C   UNL     1     -10.665  -0.562   5.026  1.00  0.00     0.031 A 
ATOM     33  C   UNL     1     -12.085  -0.389   4.562  1.00  0.00     0.074 A 
ATOM     34  C   UNL     1     -10.235   0.071   6.131  1.00  0.00     0.049 A 
ATOM     35  N   UNL     1     -13.044   0.340   5.076  1.00  0.00    -0.248 NA
ATOM     36  C   UNL     1     -12.478  -1.137   3.358  1.00  0.00     0.031 C 
ATOM     37  C   UNL     1      -8.890  -0.036   6.694  1.00  0.00     0.029 A 
ATOM     38  N   UNL     1     -10.888   0.931   6.978  1.00  0.00    -0.354 N 
ATOM     39  C   UNL     1     -14.150   0.137   4.262  1.00  0.00     0.074 A 
ATOM     40  C   UNL     1     -13.737  -0.756   3.201  1.00  0.00     0.031 C 
ATOM     41  C   UNL     1      -8.816   0.734   7.793  1.00  0.00     0.029 A 
ATOM     42  C   UNL     1     -10.099   1.405   7.996  1.00  0.00     0.049 A 
ATOM     43  H   UNL     1     -11.833   1.184   6.866  1.00  0.00     0.167 HD
ATOM     44  C   UNL     1     -15.401   0.641   4.395  1.00  0.00     0.037 A 
ATOM     45  C   UNL     1     -10.378   2.290   8.972  1.00  0.00     0.037 A 
ATOM     46  C   UNL     1     -15.813   1.529   5.452  1.00  0.00     0.049 A 
ATOM     47  C   UNL     1     -11.762   2.879   9.064  1.00  0.00     0.074 A 
ATOM     48  C   UNL     1     -17.065   2.069   5.686  1.00  0.00     0.029 A 
ATOM     49  N   UNL     1     -14.976   2.014   6.445  1.00  0.00    -0.354 N 
ATOM     50  N   UNL     1     -12.812   2.649   8.314  1.00  0.00    -0.248 NA
ATOM     51  C   UNL     1     -11.998   3.847  10.145  1.00  0.00     0.031 C 
ATOM     52  C   UNL     1     -16.975   2.921   6.792  1.00  0.00     0.029 A 
ATOM     53  C   UNL     1     -15.679   2.871   7.279  1.00  0.00     0.049 A 
ATOM     54  H   UNL     1     -14.024   1.784   6.544  1.00  0.00     0.167 HD
ATOM     55  C   UNL     1     -13.837   3.423   8.844  1.00  0.00     0.074 A 
ATOM     56  C   UNL     1     -13.288   4.113   9.992  1.00  0.00     0.031 C 
ATOM     57  C   UNL     1     -15.118   3.553   8.417  1.00  0.00     0.037 A 
BRANCH  44  58
ATOM     58  C   UNL     1     -16.417   0.258   3.359  1.00  0.00     0.064 A 
ATOM     59  C   UNL     1     -16.962  -1.033   3.304  1.00  0.00     0.173 A 
ATOM     60  C   UNL     1     -16.883   1.208   2.437  1.00  0.00     0.173 A 
ATOM     61  F   UNL     1     -16.541  -1.981   4.154  1.00  0.00    -0.203 F 
ATOM     62  C   UNL     1     -17.922  -1.365   2.350  1.00  0.00     0.198 A 
ATOM     63  C   UNL     1     -17.862   0.880   1.503  1.00  0.00     0.198 A 
ATOM     64  F   UNL     1     -16.397   2.458   2.450  1.00  0.00    -0.203 F 
ATOM     65  F   UNL     1     -18.400  -2.616   2.291  1.00  0.00    -0.200 F 
ATOM     66  C   UNL     1     -18.377  -0.407   1.457  1.00  0.00     0.200 A 
ATOM     67  F   UNL     1     -18.309   1.810   0.648  1.00  0.00    -0.200 F 
ATOM     68  F   UNL     1     -19.307  -0.725   0.546  1.00  0.00    -0.200 F 
ENDBRANCH  44  58
BRANCH  45  69
ATOM     69  C   UNL     1      -9.323   2.683   9.943  1.00  0.00     0.064 A 
ATOM     70  C   UNL     1      -9.407   2.315  11.293  1.00  0.00     0.173 A 
ATOM     71  C   UNL     1      -8.223   3.455   9.543  1.00  0.00     0.173 A 
ATOM     72  F   UNL     1     -10.455   1.600  11.729  1.00  0.00    -0.203 F 
ATOM     73  C   UNL     1      -8.441   2.723  12.210  1.00  0.00     0.198 A 
ATOM     74  C   UNL     1      -7.242   3.837  10.456  1.00  0.00     0.198 A 
ATOM     75  F   UNL     1      -8.098   3.834   8.263  1.00  0.00    -0.203 F 
ATOM     76  F   UNL     1      -8.571   2.400  13.505  1.00  0.00    -0.200 F 
ATOM     77  C   UNL     1      -7.356   3.478  11.790  1.00  0.00     0.200 A 
ATOM     78  F   UNL     1      -6.190   4.557  10.043  1.00  0.00    -0.200 F 
ATOM     79  F   UNL     1      -6.427   3.869  12.673  1.00  0.00    -0.200 F 
ENDBRANCH  45  69
BRANCH  57  80
ATOM     80  C   UNL     1     -16.017   4.458   9.210  1.00  0.00     0.064 A 
ATOM     81  C   UNL     1     -15.862   5.852   9.190  1.00  0.00     0.173 A 
ATOM     82  C   UNL     1     -17.059   3.925   9.985  1.00  0.00     0.173 A 
ATOM     83  F   UNL     1     -14.871   6.410   8.477  1.00  0.00    -0.203 F 
ATOM     84  C   UNL     1     -16.695   6.677   9.941  1.00  0.00     0.198 A 
ATOM     85  C   UNL     1     -17.911   4.755  10.710  1.00  0.00     0.198 A 
ATOM     86  F   UNL     1     -17.257   2.599  10.033  1.00  0.00    -0.203 F 
ATOM     87  F   UNL     1     -16.492   8.001   9.950  1.00  0.00    -0.200 F 
ATOM     88  C   UNL     1     -17.722   6.128  10.695  1.00  0.00     0.200 A 
ATOM     89  F   UNL     1     -18.910   4.224  11.427  1.00  0.00    -0.200 F 
ATOM     90  F   UNL     1     -18.523   6.924  11.417  1.00  0.00    -0.200 F 
ENDBRANCH  57  80
ENDBRANCH  31  32
ENDBRANCH  24  26
ENDBRANCH  23  24
ENDBRANCH  22  23
ENDBRANCH  21  22
ENDBRANCH   1  21
TORSDOF 17
