REMARK SMILES O=C(CC1(NC(=O)c2ccc3cc[nH]c3c2)CCC1)OCCOCCOC(=O)c1ccc(-c2c3nc(c(-c4c(F)c(F)c(F)c(F)c4F)c4ccc([nH]4)c(-c4c(F)c(F)c(F)c(F)c4F)c4nc(c(-c5c(F)c(F)c(F)c(F)c5F)c5ccc2[nH]5)C=C4)C=C3)cc1
REMARK SMILES IDX 22 1 21 2 20 3 2 4 1 5 3 6 4 7 17 8 19 9 18 10 5 11 6 12
REMARK SMILES IDX 7 14 8 15 9 16 16 17 10 18 15 19 11 20 14 21 12 22 13 23
REMARK SMILES IDX 23 25 24 26 25 27 26 28 27 29 28 30 29 31 30 32 91 33 31 34
REMARK SMILES IDX 90 35 32 36 33 37 34 38 84 39 35 40 89 41 83 42 85 43 36 44
REMARK SMILES IDX 88 45 82 46 81 47 37 49 69 50 49 51 68 52 50 53 53 54 67 55
REMARK SMILES IDX 86 56 51 57 52 58 66 60 87 61 54 62 38 63 39 64 47 65 40 66
REMARK SMILES IDX 41 67 45 68 48 69 42 70 43 71 46 72 44 73 70 74 71 75 79 76
REMARK SMILES IDX 72 77 73 78 77 79 80 80 74 81 75 82 78 83 76 84 55 85 56 86
REMARK SMILES IDX 64 87 57 88 58 89 62 90 65 91 59 92 60 93 63 94 61 95
REMARK H PARENT 5 13 14 24 85 48 53 59
REMARK Flexibility Score: inf
ROOT
ATOM      1  C   UNL     1       4.983  -0.247   1.698  1.00  0.00     0.202 C 
ENDROOT
BRANCH   1   2
ATOM      2  C   UNL     1       4.748   1.016   0.871  1.00  0.00     0.261 C 
BRANCH   2   3
ATOM      3  O   UNL     1       3.350   1.315   0.734  1.00  0.00    -0.463 OA
BRANCH   3   4
ATOM      4  C   UNL     1       2.647   0.922  -0.356  1.00  0.00     0.308 C 
ATOM      5  O   UNL     1       1.560   1.434  -0.606  1.00  0.00    -0.252 OA
BRANCH   4   6
ATOM      6  C   UNL     1       3.229  -0.192  -1.187  1.00  0.00     0.151 C 
BRANCH   6   7
ATOM      7  C   UNL     1       3.451   0.100  -2.655  1.00  0.00     0.051 C 
ATOM      8  C   UNL     1       3.667   1.595  -3.068  1.00  0.00     0.029 C 
ATOM      9  C   UNL     1       4.973  -0.125  -3.008  1.00  0.00     0.029 C 
ATOM     10  C   UNL     1       5.184   1.387  -3.094  1.00  0.00     0.005 C 
BRANCH   7  11
ATOM     11  N   UNL     1       2.603  -0.645  -3.636  1.00  0.00    -0.346 N 
ATOM     12  C   UNL     1       1.696  -1.685  -3.586  1.00  0.00     0.251 C 
ATOM     13  H   UNL     1       2.721  -0.307  -4.553  1.00  0.00     0.164 HD
ATOM     14  O   UNL     1       1.445  -2.291  -4.627  1.00  0.00    -0.269 OA
BRANCH  12  15
ATOM     15  C   UNL     1       1.020  -2.124  -2.350  1.00  0.00     0.041 A 
ATOM     16  C   UNL     1       0.241  -1.233  -1.609  1.00  0.00     0.014 A 
ATOM     17  C   UNL     1       1.161  -3.465  -1.952  1.00  0.00     0.040 A 
ATOM     18  C   UNL     1      -0.306  -1.624  -0.378  1.00  0.00     0.011 A 
ATOM     19  C   UNL     1       0.586  -3.840  -0.729  1.00  0.00     0.046 A 
ATOM     20  C   UNL     1      -0.115  -2.943   0.079  1.00  0.00    -0.001 A 
ATOM     21  N   UNL     1       0.578  -5.057  -0.082  1.00  0.00    -0.361 N 
ATOM     22  C   UNL     1      -0.477  -3.642   1.264  1.00  0.00     0.028 A 
ATOM     23  C   UNL     1      -0.032  -4.938   1.139  1.00  0.00     0.083 A 
ATOM     24  H   UNL     1       0.955  -5.891  -0.446  1.00  0.00     0.166 HD
ENDBRANCH  12  15
ENDBRANCH   7  11
ENDBRANCH   6   7
ENDBRANCH   4   6
ENDBRANCH   3   4
ENDBRANCH   2   3
ENDBRANCH   1   2
BRANCH   1  25
ATOM     25  O   UNL     1       4.514  -1.498   1.197  1.00  0.00    -0.374 OA
BRANCH  25  26
ATOM     26  C   UNL     1       3.176  -1.876   1.559  1.00  0.00     0.202 C 
BRANCH  26  27
ATOM     27  C   UNL     1       3.015  -2.559   2.921  1.00  0.00     0.261 C 
BRANCH  27  28
ATOM     28  O   UNL     1       3.314  -1.642   3.981  1.00  0.00    -0.460 OA
BRANCH  28  29
ATOM     29  C   UNL     1       4.573  -1.737   4.463  1.00  0.00     0.338 C 
ATOM     30  O   UNL     1       5.378  -2.635   4.274  1.00  0.00    -0.246 OA
BRANCH  29  31
ATOM     31  C   UNL     1       4.948  -0.430   5.040  1.00  0.00     0.060 A 
ATOM     32  C   UNL     1       6.228   0.054   4.727  1.00  0.00     0.016 A 
ATOM     33  C   UNL     1       4.062   0.333   5.806  1.00  0.00     0.016 A 
ATOM     34  C   UNL     1       6.663   1.258   5.254  1.00  0.00     0.010 A 
ATOM     35  C   UNL     1       4.510   1.526   6.370  1.00  0.00     0.010 A 
ATOM     36  C   UNL     1       5.836   1.940   6.153  1.00  0.00    -0.014 A 
BRANCH  36  37
ATOM     37  C   UNL     1       6.504   2.822   7.130  1.00  0.00     0.031 A 
ATOM     38  C   UNL     1       6.941   2.188   8.423  1.00  0.00     0.074 A 
ATOM     39  C   UNL     1       6.808   4.093   6.829  1.00  0.00     0.049 A 
ATOM     40  N   UNL     1       7.589   2.706   9.431  1.00  0.00    -0.248 NA
ATOM     41  C   UNL     1       6.601   0.764   8.601  1.00  0.00     0.031 C 
ATOM     42  C   UNL     1       6.486   4.768   5.575  1.00  0.00     0.029 A 
ATOM     43  N   UNL     1       7.475   5.036   7.564  1.00  0.00    -0.354 N 
ATOM     44  C   UNL     1       7.722   1.678  10.357  1.00  0.00     0.074 A 
ATOM     45  C   UNL     1       7.060   0.517   9.815  1.00  0.00     0.031 C 
ATOM     46  C   UNL     1       6.957   6.026   5.627  1.00  0.00     0.029 A 
ATOM     47  C   UNL     1       7.587   6.245   6.927  1.00  0.00     0.049 A 
ATOM     48  H   UNL     1       7.838   4.863   8.463  1.00  0.00     0.167 HD
ATOM     49  C   UNL     1       8.352   1.701  11.553  1.00  0.00     0.037 A 
ATOM     50  C   UNL     1       8.133   7.394   7.366  1.00  0.00     0.037 A 
ATOM     51  C   UNL     1       9.009   2.867  12.074  1.00  0.00     0.049 A 
ATOM     52  C   UNL     1       8.772   7.413   8.732  1.00  0.00     0.074 A 
ATOM     53  C   UNL     1       9.682   3.018  13.271  1.00  0.00     0.029 A 
ATOM     54  N   UNL     1       9.063   4.091  11.421  1.00  0.00    -0.354 N 
ATOM     55  N   UNL     1       8.906   6.438   9.602  1.00  0.00    -0.248 NA
ATOM     56  C   UNL     1       9.348   8.690   9.172  1.00  0.00     0.031 C 
ATOM     57  C   UNL     1      10.091   4.352  13.370  1.00  0.00     0.029 A 
ATOM     58  C   UNL     1       9.740   5.012  12.201  1.00  0.00     0.049 A 
ATOM     59  H   UNL     1       8.678   4.277  10.534  1.00  0.00     0.167 HD
ATOM     60  C   UNL     1       9.615   6.971  10.671  1.00  0.00     0.074 A 
ATOM     61  C   UNL     1       9.892   8.353  10.332  1.00  0.00     0.031 C 
ATOM     62  C   UNL     1      10.009   6.377  11.826  1.00  0.00     0.037 A 
BRANCH  49  63
ATOM     63  C   UNL     1       8.313   0.451  12.383  1.00  0.00     0.064 A 
ATOM     64  C   UNL     1       8.998  -0.717  12.009  1.00  0.00     0.173 A 
ATOM     65  C   UNL     1       7.571   0.420  13.573  1.00  0.00     0.173 A 
ATOM     66  F   UNL     1       9.699  -0.752  10.866  1.00  0.00    -0.203 F 
ATOM     67  C   UNL     1       8.918  -1.873  12.782  1.00  0.00     0.198 A 
ATOM     68  C   UNL     1       7.522  -0.726  14.361  1.00  0.00     0.198 A 
ATOM     69  F   UNL     1       6.890   1.504  13.973  1.00  0.00    -0.203 F 
ATOM     70  F   UNL     1       9.532  -2.993  12.375  1.00  0.00    -0.200 F 
ATOM     71  C   UNL     1       8.188  -1.875  13.961  1.00  0.00     0.200 A 
ATOM     72  F   UNL     1       6.824  -0.722  15.504  1.00  0.00    -0.200 F 
ATOM     73  F   UNL     1       8.118  -2.986  14.707  1.00  0.00    -0.200 F 
ENDBRANCH  49  63
BRANCH  50  74
ATOM     74  C   UNL     1       8.105   8.609   6.511  1.00  0.00     0.064 A 
ATOM     75  C   UNL     1       9.286   9.164   5.997  1.00  0.00     0.173 A 
ATOM     76  C   UNL     1       6.897   9.252   6.201  1.00  0.00     0.173 A 
ATOM     77  F   UNL     1      10.469   8.598   6.279  1.00  0.00    -0.203 F 
ATOM     78  C   UNL     1       9.262  10.326   5.228  1.00  0.00     0.198 A 
ATOM     79  C   UNL     1       6.871  10.396   5.406  1.00  0.00     0.198 A 
ATOM     80  F   UNL     1       5.738   8.763   6.665  1.00  0.00    -0.203 F 
ATOM     81  F   UNL     1      10.410  10.862   4.793  1.00  0.00    -0.200 F 
ATOM     82  C   UNL     1       8.054  10.938   4.928  1.00  0.00     0.200 A 
ATOM     83  F   UNL     1       5.700  10.975   5.106  1.00  0.00    -0.200 F 
ATOM     84  F   UNL     1       8.031  12.054   4.187  1.00  0.00    -0.200 F 
ENDBRANCH  50  74
BRANCH  62  85
ATOM     85  C   UNL     1      10.834   7.201  12.772  1.00  0.00     0.064 A 
ATOM     86  C   UNL     1      10.295   8.285  13.479  1.00  0.00     0.173 A 
ATOM     87  C   UNL     1      12.184   6.879  12.991  1.00  0.00     0.173 A 
ATOM     88  F   UNL     1       9.013   8.639  13.300  1.00  0.00    -0.203 F 
ATOM     89  C   UNL     1      11.088   9.045  14.335  1.00  0.00     0.198 A 
ATOM     90  C   UNL     1      12.962   7.616  13.877  1.00  0.00     0.198 A 
ATOM     91  F   UNL     1      12.745   5.842  12.350  1.00  0.00    -0.203 F 
ATOM     92  F   UNL     1      10.570  10.119  14.947  1.00  0.00    -0.200 F 
ATOM     93  C   UNL     1      12.418   8.706  14.538  1.00  0.00     0.200 A 
ATOM     94  F   UNL     1      14.240   7.273  14.088  1.00  0.00    -0.200 F 
ATOM     95  F   UNL     1      13.178   9.438  15.364  1.00  0.00    -0.200 F 
ENDBRANCH  62  85
ENDBRANCH  36  37
ENDBRANCH  29  31
ENDBRANCH  28  29
ENDBRANCH  27  28
ENDBRANCH  26  27
ENDBRANCH  25  26
ENDBRANCH   1  25
TORSDOF 17
