REMARK SMILES C[C@H]1CS(=O)(=O)N(c2cccc(C(=O)Nc3ccc(O)c(C(=O)OCCOCCOC(=O)c4ccc(-c5c6nc(c(-c7c(F)c(F)c(F)c(F)c7F)c7ccc([nH]7)c(-c7c(F)c(F)c(F)c(F)c7F)c7nc(c(-c8c(F)c(F)c(F)c(F)c8F)c8ccc5[nH]8)C=C7)C=C6)cc4)c3)c2)C1=O
REMARK SMILES IDX 26 1 25 2 24 3 22 4 23 5 21 6 16 7 17 8 96 9 18 10 19 11
REMARK SMILES IDX 15 12 13 13 14 14 12 16 8 17 9 18 97 19 10 20 11 21 7 22
REMARK SMILES IDX 1 23 2 24 3 25 98 26 4 27 99 28 5 29 6 30 20 31 27 33 28 34
REMARK SMILES IDX 29 35 30 36 31 37 32 38 33 39 34 40 95 41 35 42 94 43 36 44
REMARK SMILES IDX 37 45 38 46 88 47 39 48 93 49 87 50 89 51 40 52 92 53 86 54
REMARK SMILES IDX 85 55 41 57 73 58 53 59 72 60 54 61 57 62 71 63 90 64 55 65
REMARK SMILES IDX 56 66 70 68 91 69 58 70 42 71 43 72 51 73 44 74 45 75 49 76
REMARK SMILES IDX 52 77 46 78 47 79 50 80 48 81 74 82 75 83 83 84 76 85 77 86
REMARK SMILES IDX 81 87 84 88 78 89 79 90 82 91 80 92 59 93 60 94 68 95 61 96
REMARK SMILES IDX 62 97 66 98 69 99 63 100 64 101 67 102 65 103
REMARK H PARENT 15 15 20 32 89 56 57 67
REMARK Flexibility Score: inf
ROOT
ATOM      1  C   UNL     1      -2.248  -0.063  -0.297  1.00  0.00     0.202 C 
ENDROOT
BRANCH   1   2
ATOM      2  C   UNL     1      -1.992  -1.445   0.320  1.00  0.00     0.261 C 
BRANCH   2   3
ATOM      3  O   UNL     1      -2.440  -1.657   1.663  1.00  0.00    -0.460 OA
BRANCH   3   4
ATOM      4  C   UNL     1      -1.516  -1.350   2.601  1.00  0.00     0.342 C 
ATOM      5  O   UNL     1      -0.433  -0.810   2.428  1.00  0.00    -0.246 OA
BRANCH   4   6
ATOM      6  C   UNL     1      -1.944  -1.693   3.956  1.00  0.00     0.103 A 
ATOM      7  C   UNL     1      -2.338  -3.486   5.484  1.00  0.00     0.042 A 
ATOM      8  C   UNL     1      -2.120  -2.624   6.565  1.00  0.00     0.030 A 
ATOM      9  C   UNL     1      -2.410  -2.982   4.189  1.00  0.00     0.045 A 
ATOM     10  C   UNL     1      -1.757  -1.296   6.331  1.00  0.00     0.049 A 
ATOM     11  C   UNL     1      -1.594  -0.859   5.024  1.00  0.00     0.130 A 
BRANCH   7  12
ATOM     12  N   UNL     1      -2.328  -4.864   5.730  1.00  0.00    -0.322 N 
ATOM     13  C   UNL     1      -1.865  -5.905   4.944  1.00  0.00     0.255 C 
ATOM     14  O   UNL     1      -2.150  -7.057   5.273  1.00  0.00    -0.269 OA
ATOM     15  H   UNL     1      -2.710  -5.134   6.596  1.00  0.00     0.170 HD
BRANCH  13  16
ATOM     16  C   UNL     1      -0.975  -5.707   3.750  1.00  0.00     0.042 A 
ATOM     17  C   UNL     1       0.700  -4.469   2.443  1.00  0.00     0.061 A 
ATOM     18  C   UNL     1       0.576  -5.431   1.434  1.00  0.00     0.027 A 
ATOM     19  C   UNL     1      -0.031  -4.666   3.628  1.00  0.00     0.041 A 
ATOM     20  C   UNL     1      -0.292  -6.517   1.573  1.00  0.00     0.003 A 
ATOM     21  C   UNL     1      -1.079  -6.644   2.716  1.00  0.00     0.014 A 
BRANCH  17  22
ATOM     22  N   UNL     1       1.488  -3.285   2.228  1.00  0.00    -0.207 N 
ATOM     23  C   UNL     1       1.720  -0.111   0.426  1.00  0.00     0.019 C 
ATOM     24  C   UNL     1       2.382  -1.341   1.051  1.00  0.00     0.094 C 
ATOM     25  C   UNL     1       2.771  -1.106   2.510  1.00  0.00     0.173 C 
ATOM     26  C   UNL     1       1.507  -2.593   0.991  1.00  0.00     0.244 C 
ATOM     27  S   UNL     1       2.510  -2.633   3.382  1.00  0.00     0.242 S 
ATOM     28  O   UNL     1       0.948  -2.963  -0.035  1.00  0.00    -0.273 OA
ATOM     29  O   UNL     1       3.744  -3.388   3.374  1.00  0.00    -0.206 OA
ATOM     30  O   UNL     1       1.790  -2.345   4.602  1.00  0.00    -0.206 OA
ENDBRANCH  17  22
ENDBRANCH  13  16
ENDBRANCH   7  12
BRANCH  11  31
ATOM     31  O   UNL     1      -1.023   0.372   4.846  1.00  0.00    -0.507 OA
ATOM     32  H   UNL     1      -0.804   0.898   5.589  1.00  0.00     0.293 HD
ENDBRANCH  11  31
ENDBRANCH   4   6
ENDBRANCH   3   4
ENDBRANCH   2   3
ENDBRANCH   1   2
BRANCH   1  33
ATOM     33  O   UNL     1      -2.099   1.104   0.493  1.00  0.00    -0.374 OA
BRANCH  33  34
ATOM     34  C   UNL     1      -2.938   1.315   1.623  1.00  0.00     0.202 C 
BRANCH  34  35
ATOM     35  C   UNL     1      -4.456   1.091   1.548  1.00  0.00     0.261 C 
BRANCH  35  36
ATOM     36  O   UNL     1      -4.845  -0.188   1.022  1.00  0.00    -0.460 OA
BRANCH  36  37
ATOM     37  C   UNL     1      -5.511  -0.136  -0.157  1.00  0.00     0.338 C 
ATOM     38  O   UNL     1      -5.840   0.859  -0.781  1.00  0.00    -0.246 OA
BRANCH  37  39
ATOM     39  C   UNL     1      -5.627  -1.490  -0.727  1.00  0.00     0.060 A 
ATOM     40  C   UNL     1      -5.122  -1.705  -2.018  1.00  0.00     0.016 A 
ATOM     41  C   UNL     1      -6.315  -2.497  -0.051  1.00  0.00     0.016 A 
ATOM     42  C   UNL     1      -5.351  -2.916  -2.665  1.00  0.00     0.010 A 
ATOM     43  C   UNL     1      -6.570  -3.700  -0.712  1.00  0.00     0.010 A 
ATOM     44  C   UNL     1      -6.130  -3.893  -2.035  1.00  0.00    -0.014 A 
BRANCH  44  45
ATOM     45  C   UNL     1      -6.708  -4.997  -2.832  1.00  0.00     0.031 A 
ATOM     46  C   UNL     1      -8.076  -4.792  -3.421  1.00  0.00     0.074 A 
ATOM     47  C   UNL     1      -6.048  -6.152  -3.012  1.00  0.00     0.049 A 
ATOM     48  N   UNL     1      -8.864  -5.648  -4.017  1.00  0.00    -0.248 NA
ATOM     49  C   UNL     1      -8.633  -3.433  -3.314  1.00  0.00     0.031 C 
ATOM     50  C   UNL     1      -4.692  -6.433  -2.548  1.00  0.00     0.029 A 
ATOM     51  N   UNL     1      -6.449  -7.315  -3.619  1.00  0.00    -0.354 N 
ATOM     52  C   UNL     1     -10.013  -4.936  -4.337  1.00  0.00     0.074 A 
ATOM     53  C   UNL     1      -9.828  -3.584  -3.863  1.00  0.00     0.031 C 
ATOM     54  C   UNL     1      -4.382  -7.704  -2.861  1.00  0.00     0.029 A 
ATOM     55  C   UNL     1      -5.534  -8.332  -3.507  1.00  0.00     0.049 A 
ATOM     56  H   UNL     1      -7.308  -7.411  -4.090  1.00  0.00     0.167 HD
ATOM     57  C   UNL     1     -11.127  -5.377  -4.967  1.00  0.00     0.037 A 
ATOM     58  C   UNL     1      -5.641  -9.630  -3.852  1.00  0.00     0.037 A 
ATOM     59  C   UNL     1     -11.305  -6.728  -5.426  1.00  0.00     0.049 A 
ATOM     60  C   UNL     1      -6.922 -10.119  -4.481  1.00  0.00     0.074 A 
ATOM     61  C   UNL     1     -12.396  -7.288  -6.064  1.00  0.00     0.029 A 
ATOM     62  N   UNL     1     -10.358  -7.732  -5.287  1.00  0.00    -0.354 N 
ATOM     63  N   UNL     1      -8.010  -9.448  -4.775  1.00  0.00    -0.248 NA
ATOM     64  C   UNL     1      -6.991 -11.547  -4.823  1.00  0.00     0.031 C 
ATOM     65  C   UNL     1     -12.126  -8.644  -6.274  1.00  0.00     0.029 A 
ATOM     66  C   UNL     1     -10.846  -8.915  -5.815  1.00  0.00     0.049 A 
ATOM     67  H   UNL     1      -9.471  -7.621  -4.875  1.00  0.00     0.167 HD
ATOM     68  C   UNL     1      -8.875 -10.360  -5.368  1.00  0.00     0.074 A 
ATOM     69  C   UNL     1      -8.186 -11.633  -5.392  1.00  0.00     0.031 C 
ATOM     70  C   UNL     1     -10.126 -10.161  -5.853  1.00  0.00     0.037 A 
BRANCH  57  71
ATOM     71  C   UNL     1     -12.248  -4.399  -5.154  1.00  0.00     0.064 A 
ATOM     72  C   UNL     1     -12.161  -3.342  -6.072  1.00  0.00     0.173 A 
ATOM     73  C   UNL     1     -13.430  -4.527  -4.409  1.00  0.00     0.173 A 
ATOM     74  F   UNL     1     -11.043  -3.164  -6.792  1.00  0.00    -0.203 F 
ATOM     75  C   UNL     1     -13.207  -2.435  -6.220  1.00  0.00     0.198 A 
ATOM     76  C   UNL     1     -14.485  -3.635  -4.580  1.00  0.00     0.198 A 
ATOM     77  F   UNL     1     -13.563  -5.519  -3.516  1.00  0.00    -0.203 F 
ATOM     78  F   UNL     1     -13.083  -1.404  -7.067  1.00  0.00    -0.200 F 
ATOM     79  C   UNL     1     -14.370  -2.586  -5.479  1.00  0.00     0.200 A 
ATOM     80  F   UNL     1     -15.611  -3.787  -3.869  1.00  0.00    -0.200 F 
ATOM     81  F   UNL     1     -15.377  -1.713  -5.625  1.00  0.00    -0.200 F 
ENDBRANCH  57  71
BRANCH  58  82
ATOM     82  C   UNL     1      -4.516 -10.566  -3.589  1.00  0.00     0.064 A 
ATOM     83  C   UNL     1      -3.784 -11.130  -4.642  1.00  0.00     0.173 A 
ATOM     84  C   UNL     1      -4.160 -10.927  -2.281  1.00  0.00     0.173 A 
ATOM     85  F   UNL     1      -4.103 -10.836  -5.911  1.00  0.00    -0.203 F 
ATOM     86  C   UNL     1      -2.751 -12.033  -4.399  1.00  0.00     0.198 A 
ATOM     87  C   UNL     1      -3.109 -11.808  -2.037  1.00  0.00     0.198 A 
ATOM     88  F   UNL     1      -4.830 -10.417  -1.237  1.00  0.00    -0.203 F 
ATOM     89  F   UNL     1      -2.096 -12.591  -5.426  1.00  0.00    -0.200 F 
ATOM     90  C   UNL     1      -2.410 -12.367  -3.096  1.00  0.00     0.200 A 
ATOM     91  F   UNL     1      -2.775 -12.118  -0.777  1.00  0.00    -0.200 F 
ATOM     92  F   UNL     1      -1.413 -13.231  -2.863  1.00  0.00    -0.200 F 
ENDBRANCH  58  82
BRANCH  70  93
ATOM     93  C   UNL     1     -10.808 -11.324  -6.511  1.00  0.00     0.064 A 
ATOM     94  C   UNL     1     -11.340 -12.386  -5.767  1.00  0.00     0.173 A 
ATOM     95  C   UNL     1     -10.996 -11.332  -7.902  1.00  0.00     0.173 A 
ATOM     96  F   UNL     1     -11.175 -12.429  -4.437  1.00  0.00    -0.203 F 
ATOM     97  C   UNL     1     -12.024 -13.424  -6.396  1.00  0.00     0.198 A 
ATOM     98  C   UNL     1     -11.703 -12.356  -8.523  1.00  0.00     0.198 A 
ATOM     99  F   UNL     1     -10.512 -10.332  -8.655  1.00  0.00    -0.203 F 
ATOM    100  F   UNL     1     -12.497 -14.447  -5.671  1.00  0.00    -0.200 F 
ATOM    101  C   UNL     1     -12.213 -13.403  -7.770  1.00  0.00     0.200 A 
ATOM    102  F   UNL     1     -11.898 -12.326  -9.848  1.00  0.00    -0.200 F 
ATOM    103  F   UNL     1     -12.886 -14.394  -8.370  1.00  0.00    -0.200 F 
ENDBRANCH  70  93
ENDBRANCH  44  45
ENDBRANCH  37  39
ENDBRANCH  36  37
ENDBRANCH  35  36
ENDBRANCH  34  35
ENDBRANCH  33  34
ENDBRANCH   1  33
TORSDOF 18
