REMARK SMILES CC[N@@H+](C)Cc1cc2c(cc1Cl)C=C(C(=O)OCCOCCOC(=O)c1ccc(-c3c4nc(c(-c5c(F)c(F)c(F)c(F)c5F)c5ccc([nH]5)c(-c5c(F)c(F)c(F)c(F)c5F)c5nc(c(-c6c(F)c(F)c(F)c(F)c6F)c6ccc3[nH]6)C=C5)C=C4)cc1)[C@@H](C(F)(F)F)O2
REMARK SMILES IDX 19 1 18 2 17 3 15 4 16 5 14 6 6 7 7 8 11 9 8 10 10 11 12 12
REMARK SMILES IDX 9 13 94 14 13 15 89 16 5 17 3 18 4 19 2 21 1 22 90 23 91 24
REMARK SMILES IDX 92 25 93 26 20 27 21 28 22 29 23 30 24 31 25 32 26 33 27 34
REMARK SMILES IDX 88 35 28 36 87 37 29 38 30 39 31 40 81 41 32 42 86 43 80 44
REMARK SMILES IDX 82 45 33 46 85 47 79 48 78 49 34 51 66 52 46 53 65 54 47 55
REMARK SMILES IDX 50 56 64 57 83 58 48 59 49 60 63 62 84 63 51 64 35 65 36 66
REMARK SMILES IDX 44 67 37 68 38 69 42 70 45 71 39 72 40 73 43 74 41 75 67 76
REMARK SMILES IDX 68 77 76 78 69 79 70 80 74 81 77 82 71 83 72 84 75 85 73 86
REMARK SMILES IDX 52 87 53 88 61 89 54 90 55 91 59 92 62 93 56 94 57 95 60 96
REMARK SMILES IDX 58 97
REMARK H PARENT 3 20 82 50 50 61
REMARK Flexibility Score: inf
ROOT
ATOM      1  C   UNL     1       4.536  10.829  -0.654  1.00  0.00     0.202 C 
ENDROOT
BRANCH   1   2
ATOM      2  C   UNL     1       4.520  10.423  -2.130  1.00  0.00     0.261 C 
BRANCH   2   3
ATOM      3  O   UNL     1       3.891   9.151  -2.326  1.00  0.00    -0.460 OA
BRANCH   3   4
ATOM      4  C   UNL     1       4.747   8.144  -2.623  1.00  0.00     0.338 C 
ATOM      5  O   UNL     1       5.937   8.243  -2.870  1.00  0.00    -0.246 OA
BRANCH   4   6
ATOM      6  C   UNL     1       4.049   6.853  -2.482  1.00  0.00     0.087 C 
ATOM      7  C   UNL     1       3.007   1.954  -2.180  1.00  0.00     0.029 A 
ATOM      8  C   UNL     1       2.269   3.120  -2.449  1.00  0.00     0.058 A 
ATOM      9  C   UNL     1       4.331   2.125  -1.727  1.00  0.00     0.050 A 
ATOM     10  C   UNL     1       2.830   4.390  -2.330  1.00  0.00     0.128 A 
ATOM     11  C   UNL     1       4.893   3.402  -1.595  1.00  0.00     0.033 A 
ATOM     12  Cl  UNL     1       5.362   0.787  -1.352  1.00  0.00    -0.084 Cl
ATOM     13  C   UNL     1       4.155   4.534  -1.937  1.00  0.00     0.019 A 
ATOM     14  O   UNL     1       2.005   5.438  -2.619  1.00  0.00    -0.475 OA
ATOM     15  C   UNL     1       4.771   5.846  -1.970  1.00  0.00     0.027 C 
ATOM     16  C   UNL     1       2.610   6.727  -2.903  1.00  0.00     0.316 C 
BRANCH   7  17
ATOM     17  C   UNL     1       2.461   0.568  -2.492  1.00  0.00     0.300 C 
BRANCH  17  18
ATOM     18  N   UNL     1       1.014   0.315  -2.411  1.00  0.00    -0.334 N 
ATOM     19  C   UNL     1       0.269   0.635  -3.619  1.00  0.00     0.333 C 
ATOM     20  H   UNL     1       0.986  -0.704  -2.359  1.00  0.00     0.348 HD
BRANCH  18  21
ATOM     21  C   UNL     1       0.353   0.704  -1.169  1.00  0.00     0.258 C 
ATOM     22  C   UNL     1       0.893  -0.054   0.040  1.00  0.00     0.071 C 
ENDBRANCH  18  21
ENDBRANCH  17  18
ENDBRANCH   7  17
BRANCH  16  23
ATOM     23  C   UNL     1       2.393   7.055  -4.386  1.00  0.00     0.430 C 
ATOM     24  F   UNL     1       1.102   6.854  -4.748  1.00  0.00    -0.167 F 
ATOM     25  F   UNL     1       2.672   8.351  -4.659  1.00  0.00    -0.167 F 
ATOM     26  F   UNL     1       3.165   6.294  -5.194  1.00  0.00    -0.167 F 
ENDBRANCH  16  23
ENDBRANCH   4   6
ENDBRANCH   3   4
ENDBRANCH   2   3
ENDBRANCH   1   2
BRANCH   1  27
ATOM     27  O   UNL     1       5.106   9.918   0.281  1.00  0.00    -0.374 OA
BRANCH  27  28
ATOM     28  C   UNL     1       4.349   8.774   0.673  1.00  0.00     0.202 C 
BRANCH  28  29
ATOM     29  C   UNL     1       3.110   8.981   1.554  1.00  0.00     0.261 C 
BRANCH  29  30
ATOM     30  O   UNL     1       2.059   9.687   0.872  1.00  0.00    -0.460 OA
BRANCH  30  31
ATOM     31  C   UNL     1       1.820  10.939   1.334  1.00  0.00     0.338 C 
ATOM     32  O   UNL     1       2.366  11.505   2.268  1.00  0.00    -0.246 OA
BRANCH  31  33
ATOM     33  C   UNL     1       0.922  11.634   0.396  1.00  0.00     0.060 A 
ATOM     34  C   UNL     1      -0.353  11.140   0.120  1.00  0.00     0.016 A 
ATOM     35  C   UNL     1       1.364  12.834  -0.177  1.00  0.00     0.016 A 
ATOM     36  C   UNL     1      -1.200  11.873  -0.715  1.00  0.00     0.010 A 
ATOM     37  C   UNL     1       0.520  13.560  -1.014  1.00  0.00     0.010 A 
ATOM     38  C   UNL     1      -0.778  13.096  -1.268  1.00  0.00    -0.014 A 
BRANCH  38  39
ATOM     39  C   UNL     1      -1.742  13.963  -1.988  1.00  0.00     0.031 A 
ATOM     40  C   UNL     1      -1.690  14.131  -3.475  1.00  0.00     0.074 A 
ATOM     41  C   UNL     1      -2.656  14.633  -1.262  1.00  0.00     0.049 A 
ATOM     42  N   UNL     1      -2.490  14.819  -4.252  1.00  0.00    -0.248 NA
ATOM     43  C   UNL     1      -0.599  13.448  -4.183  1.00  0.00     0.031 C 
ATOM     44  C   UNL     1      -2.769  14.577   0.196  1.00  0.00     0.029 A 
ATOM     45  N   UNL     1      -3.661  15.484  -1.644  1.00  0.00    -0.354 N 
ATOM     46  C   UNL     1      -2.014  14.636  -5.542  1.00  0.00     0.074 A 
ATOM     47  C   UNL     1      -0.824  13.816  -5.438  1.00  0.00     0.031 C 
ATOM     48  C   UNL     1      -3.806  15.333   0.583  1.00  0.00     0.029 A 
ATOM     49  C   UNL     1      -4.408  15.954  -0.593  1.00  0.00     0.049 A 
ATOM     50  H   UNL     1      -3.830  15.733  -2.581  1.00  0.00     0.167 HD
ATOM     51  C   UNL     1      -2.538  15.098  -6.703  1.00  0.00     0.037 A 
ATOM     52  C   UNL     1      -5.463  16.791  -0.576  1.00  0.00     0.037 A 
ATOM     53  C   UNL     1      -3.711  15.933  -6.791  1.00  0.00     0.049 A 
ATOM     54  C   UNL     1      -5.995  17.326  -1.875  1.00  0.00     0.074 A 
ATOM     55  C   UNL     1      -4.336  16.424  -7.925  1.00  0.00     0.029 A 
ATOM     56  N   UNL     1      -4.427  16.417  -5.704  1.00  0.00    -0.354 N 
ATOM     57  N   UNL     1      -5.584  17.089  -3.097  1.00  0.00    -0.248 NA
ATOM     58  C   UNL     1      -7.144  18.239  -1.795  1.00  0.00     0.031 C 
ATOM     59  C   UNL     1      -5.388  17.253  -7.524  1.00  0.00     0.029 A 
ATOM     60  C   UNL     1      -5.467  17.225  -6.141  1.00  0.00     0.049 A 
ATOM     61  H   UNL     1      -4.226  16.216  -4.762  1.00  0.00     0.167 HD
ATOM     62  C   UNL     1      -6.436  17.798  -3.932  1.00  0.00     0.074 A 
ATOM     63  C   UNL     1      -7.398  18.464  -3.077  1.00  0.00     0.031 C 
ATOM     64  C   UNL     1      -6.421  17.886  -5.285  1.00  0.00     0.037 A 
BRANCH  51  65
ATOM     65  C   UNL     1      -1.855  14.709  -7.984  1.00  0.00     0.064 A 
ATOM     66  C   UNL     1      -1.887  13.390  -8.460  1.00  0.00     0.173 A 
ATOM     67  C   UNL     1      -1.227  15.677  -8.783  1.00  0.00     0.173 A 
ATOM     68  F   UNL     1      -2.470  12.424  -7.734  1.00  0.00    -0.203 F 
ATOM     69  C   UNL     1      -1.301  13.050  -9.677  1.00  0.00     0.198 A 
ATOM     70  C   UNL     1      -0.669  15.340 -10.014  1.00  0.00     0.198 A 
ATOM     71  F   UNL     1      -1.174  16.956  -8.382  1.00  0.00    -0.203 F 
ATOM     72  F   UNL     1      -1.314  11.776 -10.093  1.00  0.00    -0.200 F 
ATOM     73  C   UNL     1      -0.702  14.027 -10.458  1.00  0.00     0.200 A 
ATOM     74  F   UNL     1      -0.107  16.289 -10.776  1.00  0.00    -0.200 F 
ATOM     75  F   UNL     1      -0.154  13.702 -11.637  1.00  0.00    -0.200 F 
ENDBRANCH  51  65
BRANCH  52  76
ATOM     76  C   UNL     1      -6.104  17.126   0.721  1.00  0.00     0.064 A 
ATOM     77  C   UNL     1      -7.376  16.634   1.041  1.00  0.00     0.173 A 
ATOM     78  C   UNL     1      -5.439  17.898   1.685  1.00  0.00     0.173 A 
ATOM     79  F   UNL     1      -8.057  15.905   0.144  1.00  0.00    -0.203 F 
ATOM     80  C   UNL     1      -7.962  16.905   2.275  1.00  0.00     0.198 A 
ATOM     81  C   UNL     1      -6.014  18.143   2.930  1.00  0.00     0.198 A 
ATOM     82  F   UNL     1      -4.216  18.385   1.430  1.00  0.00    -0.203 F 
ATOM     83  F   UNL     1      -9.191  16.445   2.545  1.00  0.00    -0.200 F 
ATOM     84  C   UNL     1      -7.276  17.649   3.223  1.00  0.00     0.200 A 
ATOM     85  F   UNL     1      -5.339  18.846   3.850  1.00  0.00    -0.200 F 
ATOM     86  F   UNL     1      -7.831  17.891   4.418  1.00  0.00    -0.200 F 
ENDBRANCH  52  76
BRANCH  64  87
ATOM     87  C   UNL     1      -7.492  18.713  -5.941  1.00  0.00     0.064 A 
ATOM     88  C   UNL     1      -7.511  20.112  -5.840  1.00  0.00     0.173 A 
ATOM     89  C   UNL     1      -8.477  18.100  -6.733  1.00  0.00     0.173 A 
ATOM     90  F   UNL     1      -6.602  20.747  -5.086  1.00  0.00    -0.203 F 
ATOM     91  C   UNL     1      -8.487  20.864  -6.490  1.00  0.00     0.198 A 
ATOM     92  C   UNL     1      -9.429  18.858  -7.409  1.00  0.00     0.198 A 
ATOM     93  F   UNL     1      -8.502  16.766  -6.869  1.00  0.00    -0.203 F 
ATOM     94  F   UNL     1      -8.511  22.196  -6.343  1.00  0.00    -0.200 F 
ATOM     95  C   UNL     1      -9.438  20.238  -7.282  1.00  0.00     0.200 A 
ATOM     96  F   UNL     1     -10.336  18.251  -8.188  1.00  0.00    -0.200 F 
ATOM     97  F   UNL     1     -10.366  20.965  -7.920  1.00  0.00    -0.200 F 
ENDBRANCH  64  87
ENDBRANCH  38  39
ENDBRANCH  31  33
ENDBRANCH  30  31
ENDBRANCH  29  30
ENDBRANCH  28  29
ENDBRANCH  27  28
ENDBRANCH   1  27
TORSDOF 18
