REMARK SMILES CC1CCN(S(=O)(=O)N2CCC[C@H](c3cccc(C(=O)OCCOCCOC(=O)c4ccc(-c5c6nc(c(-c7c(F)c(F)c(F)c(F)c7F)c7ccc([nH]7)c(-c7c(F)c(F)c(F)c(F)c7F)c7nc(c(-c8c(F)c(F)c(F)c(F)c8F)c8ccc5[nH]8)C=C7)C=C6)cc4)c3)C2)CC1
REMARK SMILES IDX 23 1 22 2 21 3 19 4 20 5 18 6 14 7 15 8 93 9 16 10 17 11
REMARK SMILES IDX 13 12 9 13 10 14 94 15 11 16 12 17 6 18 7 19 8 20 5 21 1 22
REMARK SMILES IDX 2 23 3 24 96 25 4 26 95 27 24 28 25 29 26 30 27 31 28 32
REMARK SMILES IDX 29 33 30 34 31 35 92 36 32 37 91 38 33 39 34 40 35 41 85 42
REMARK SMILES IDX 36 43 90 44 84 45 86 46 37 47 89 48 83 49 82 50 38 52 70 53
REMARK SMILES IDX 50 54 69 55 51 56 54 57 68 58 87 59 52 60 53 61 67 63 88 64
REMARK SMILES IDX 55 65 39 66 40 67 48 68 41 69 42 70 46 71 49 72 43 73 44 74
REMARK SMILES IDX 47 75 45 76 71 77 72 78 80 79 73 80 74 81 78 82 81 83 75 84
REMARK SMILES IDX 76 85 79 86 77 87 56 88 57 89 65 90 58 91 59 92 63 93 66 94
REMARK SMILES IDX 60 95 61 96 64 97 62 98
REMARK H PARENT 86 51 54 62
REMARK Flexibility Score: inf
ROOT
ATOM      1  C   UNL     1       3.271  -8.862  -7.868  1.00  0.00     0.202 C 
ENDROOT
BRANCH   1   2
ATOM      2  C   UNL     1       4.453  -7.924  -7.600  1.00  0.00     0.261 C 
BRANCH   2   3
ATOM      3  O   UNL     1       4.072  -6.832  -6.753  1.00  0.00    -0.460 OA
BRANCH   3   4
ATOM      4  C   UNL     1       3.982  -5.628  -7.375  1.00  0.00     0.338 C 
ATOM      5  O   UNL     1       4.352  -5.361  -8.506  1.00  0.00    -0.246 OA
BRANCH   4   6
ATOM      6  C   UNL     1       3.185  -4.701  -6.538  1.00  0.00     0.060 A 
ATOM      7  C   UNL     1       2.434  -3.874  -4.367  1.00  0.00    -0.043 A 
ATOM      8  C   UNL     1       1.605  -2.965  -5.045  1.00  0.00     0.004 A 
ATOM      9  C   UNL     1       3.188  -4.775  -5.141  1.00  0.00     0.019 A 
ATOM     10  C   UNL     1       1.565  -2.920  -6.441  1.00  0.00     0.001 A 
ATOM     11  C   UNL     1       2.368  -3.774  -7.188  1.00  0.00     0.016 A 
BRANCH   7  12
ATOM     12  C   UNL     1       2.522  -3.940  -2.844  1.00  0.00     0.034 C 
ATOM     13  N   UNL     1       2.557  -1.521  -2.203  1.00  0.00    -0.188 NA
ATOM     14  C   UNL     1       3.979  -1.547  -1.815  1.00  0.00     0.103 C 
ATOM     15  C   UNL     1       1.825  -2.804  -2.071  1.00  0.00     0.111 C 
ATOM     16  C   UNL     1       4.699  -2.691  -2.525  1.00  0.00     0.017 C 
ATOM     17  C   UNL     1       3.973  -4.017  -2.316  1.00  0.00     0.011 C 
BRANCH  13  18
ATOM     18  S   UNL     1       1.725  -0.079  -2.007  1.00  0.00     0.281 S 
ATOM     19  O   UNL     1       0.407  -0.251  -2.567  1.00  0.00    -0.195 OA
ATOM     20  O   UNL     1       2.577   0.995  -2.473  1.00  0.00    -0.195 OA
BRANCH  18  21
ATOM     21  N   UNL     1       1.599   0.104  -0.321  1.00  0.00    -0.189 NA
ATOM     22  C   UNL     1      -2.650   0.081  -0.009  1.00  0.00     0.008 C 
ATOM     23  C   UNL     1      -1.218   0.186   0.514  1.00  0.00    -0.012 C 
ATOM     24  C   UNL     1      -0.511   1.416  -0.091  1.00  0.00     0.020 C 
ATOM     25  C   UNL     1      -0.466  -1.129   0.256  1.00  0.00     0.020 C 
ATOM     26  C   UNL     1       1.008   1.412   0.096  1.00  0.00     0.104 C 
ATOM     27  C   UNL     1       1.019  -0.960   0.524  1.00  0.00     0.104 C 
ENDBRANCH  18  21
ENDBRANCH  13  18
ENDBRANCH   7  12
ENDBRANCH   4   6
ENDBRANCH   3   4
ENDBRANCH   2   3
ENDBRANCH   1   2
BRANCH   1  28
ATOM     28  O   UNL     1       2.135  -8.319  -8.539  1.00  0.00    -0.374 OA
BRANCH  28  29
ATOM     29  C   UNL     1       1.228  -7.526  -7.774  1.00  0.00     0.202 C 
BRANCH  29  30
ATOM     30  C   UNL     1       0.241  -8.254  -6.854  1.00  0.00     0.261 C 
BRANCH  30  31
ATOM     31  O   UNL     1       0.895  -9.050  -5.851  1.00  0.00    -0.460 OA
BRANCH  31  32
ATOM     32  C   UNL     1       0.850 -10.382  -6.091  1.00  0.00     0.338 C 
ATOM     33  O   UNL     1       0.263 -10.954  -6.994  1.00  0.00    -0.246 OA
BRANCH  32  34
ATOM     34  C   UNL     1       1.776 -11.093  -5.192  1.00  0.00     0.060 A 
ATOM     35  C   UNL     1       2.724 -11.929  -5.793  1.00  0.00     0.016 A 
ATOM     36  C   UNL     1       1.666 -11.025  -3.802  1.00  0.00     0.016 A 
ATOM     37  C   UNL     1       3.523 -12.751  -5.006  1.00  0.00     0.010 A 
ATOM     38  C   UNL     1       2.474 -11.852  -3.011  1.00  0.00     0.010 A 
ATOM     39  C   UNL     1       3.377 -12.748  -3.612  1.00  0.00    -0.014 A 
BRANCH  39  40
ATOM     40  C   UNL     1       4.104 -13.772  -2.821  1.00  0.00     0.031 A 
ATOM     41  C   UNL     1       3.365 -14.970  -2.290  1.00  0.00     0.074 A 
ATOM     42  C   UNL     1       5.435 -13.673  -2.655  1.00  0.00     0.049 A 
ATOM     43  N   UNL     1       3.829 -16.015  -1.651  1.00  0.00    -0.248 NA
ATOM     44  C   UNL     1       1.911 -14.995  -2.505  1.00  0.00     0.031 C 
ATOM     45  C   UNL     1       6.263 -12.570  -3.143  1.00  0.00     0.029 A 
ATOM     46  N   UNL     1       6.326 -14.519  -2.045  1.00  0.00    -0.354 N 
ATOM     47  C   UNL     1       2.727 -16.821  -1.391  1.00  0.00     0.074 A 
ATOM     48  C   UNL     1       1.566 -16.123  -1.901  1.00  0.00     0.031 C 
ATOM     49  C   UNL     1       7.545 -12.815  -2.827  1.00  0.00     0.029 A 
ATOM     50  C   UNL     1       7.624 -14.075  -2.090  1.00  0.00     0.049 A 
ATOM     51  H   UNL     1       6.060 -15.365  -1.617  1.00  0.00     0.167 HD
ATOM     52  C   UNL     1       2.689 -18.038  -0.797  1.00  0.00     0.037 A 
ATOM     53  C   UNL     1       8.748 -14.619  -1.587  1.00  0.00     0.037 A 
ATOM     54  C   UNL     1       3.848 -18.730  -0.290  1.00  0.00     0.049 A 
ATOM     55  C   UNL     1       8.669 -15.948  -0.882  1.00  0.00     0.074 A 
ATOM     56  C   UNL     1       3.918 -19.978   0.304  1.00  0.00     0.029 A 
ATOM     57  N   UNL     1       5.141 -18.226  -0.309  1.00  0.00    -0.354 N 
ATOM     58  N   UNL     1       7.630 -16.722  -0.682  1.00  0.00    -0.248 NA
ATOM     59  C   UNL     1       9.927 -16.484  -0.345  1.00  0.00     0.031 C 
ATOM     60  C   UNL     1       5.240 -20.200   0.706  1.00  0.00     0.029 A 
ATOM     61  C   UNL     1       6.010 -19.123   0.296  1.00  0.00     0.049 A 
ATOM     62  H   UNL     1       5.404 -17.359  -0.695  1.00  0.00     0.167 HD
ATOM     63  C   UNL     1       8.111 -17.843  -0.017  1.00  0.00     0.074 A 
ATOM     64  C   UNL     1       9.541 -17.662   0.122  1.00  0.00     0.031 C 
ATOM     65  C   UNL     1       7.430 -18.925   0.441  1.00  0.00     0.037 A 
BRANCH  52  66
ATOM     66  C   UNL     1       1.346 -18.694  -0.635  1.00  0.00     0.064 A 
ATOM     67  C   UNL     1       0.619 -19.179  -1.734  1.00  0.00     0.173 A 
ATOM     68  C   UNL     1       0.795 -18.878   0.643  1.00  0.00     0.173 A 
ATOM     69  F   UNL     1       1.092 -19.020  -2.979  1.00  0.00    -0.203 F 
ATOM     70  C   UNL     1      -0.618 -19.795  -1.562  1.00  0.00     0.198 A 
ATOM     71  C   UNL     1      -0.426 -19.525   0.815  1.00  0.00     0.198 A 
ATOM     72  F   UNL     1       1.448 -18.440   1.730  1.00  0.00    -0.203 F 
ATOM     73  F   UNL     1      -1.317 -20.204  -2.630  1.00  0.00    -0.200 F 
ATOM     74  C   UNL     1      -1.135 -19.976  -0.288  1.00  0.00     0.200 A 
ATOM     75  F   UNL     1      -0.915 -19.712   2.048  1.00  0.00    -0.200 F 
ATOM     76  F   UNL     1      -2.321 -20.578  -0.122  1.00  0.00    -0.200 F 
ENDBRANCH  52  66
BRANCH  53  77
ATOM     77  C   UNL     1      10.046 -13.908  -1.729  1.00  0.00     0.064 A 
ATOM     78  C   UNL     1      11.085 -14.436  -2.509  1.00  0.00     0.173 A 
ATOM     79  C   UNL     1      10.281 -12.692  -1.069  1.00  0.00     0.173 A 
ATOM     80  F   UNL     1      10.918 -15.607  -3.142  1.00  0.00    -0.203 F 
ATOM     81  C   UNL     1      12.315 -13.788  -2.603  1.00  0.00     0.198 A 
ATOM     82  C   UNL     1      11.499 -12.028  -1.193  1.00  0.00     0.198 A 
ATOM     83  F   UNL     1       9.321 -12.142  -0.311  1.00  0.00    -0.203 F 
ATOM     84  F   UNL     1      13.309 -14.344  -3.310  1.00  0.00    -0.200 F 
ATOM     85  C   UNL     1      12.519 -12.582  -1.951  1.00  0.00     0.200 A 
ATOM     86  F   UNL     1      11.685 -10.854  -0.574  1.00  0.00    -0.200 F 
ATOM     87  F   UNL     1      13.701 -11.958  -2.045  1.00  0.00    -0.200 F 
ENDBRANCH  53  77
BRANCH  65  88
ATOM     88  C   UNL     1       8.235 -20.003   1.116  1.00  0.00     0.064 A 
ATOM     89  C   UNL     1       8.866 -19.790   2.352  1.00  0.00     0.173 A 
ATOM     90  C   UNL     1       8.382 -21.264   0.517  1.00  0.00     0.173 A 
ATOM     91  F   UNL     1       8.769 -18.600   2.964  1.00  0.00    -0.203 F 
ATOM     92  C   UNL     1       9.653 -20.780   2.936  1.00  0.00     0.198 A 
ATOM     93  C   UNL     1       9.136 -22.265   1.124  1.00  0.00     0.198 A 
ATOM     94  F   UNL     1       7.792 -21.528  -0.658  1.00  0.00    -0.203 F 
ATOM     95  F   UNL     1      10.308 -20.525   4.077  1.00  0.00    -0.200 F 
ATOM     96  C   UNL     1       9.784 -22.017   2.324  1.00  0.00     0.200 A 
ATOM     97  F   UNL     1       9.245 -23.466   0.540  1.00  0.00    -0.200 F 
ATOM     98  F   UNL     1      10.545 -22.967   2.885  1.00  0.00    -0.200 F 
ENDBRANCH  65  88
ENDBRANCH  39  40
ENDBRANCH  32  34
ENDBRANCH  31  32
ENDBRANCH  30  31
ENDBRANCH  29  30
ENDBRANCH  28  29
ENDBRANCH   1  28
TORSDOF 17
