REMARK SMILES CCC(CC)(CC(=O)Nc1cccc(Br)c1)C(=O)OCCOCCOC(=O)c1ccc(-c2c3nc(c(-c4c(F)c(F)c(F)c(F)c4F)c4ccc([nH]4)c(-c4c(F)c(F)c(F)c(F)c4F)c4nc(c(-c5c(F)c(F)c(F)c(F)c5F)c5ccc2[nH]5)C=C4)C=C3)cc1
REMARK SMILES IDX 21 1 20 2 19 3 17 4 18 5 3 6 2 7 1 8 4 9 5 10 6 11 7 12 8 13
REMARK SMILES IDX 9 14 10 16 11 17 16 18 12 19 14 20 13 21 15 22 22 23 23 24
REMARK SMILES IDX 24 25 25 26 26 27 27 28 28 29 29 30 90 31 30 32 89 33 31 34
REMARK SMILES IDX 32 35 33 36 83 37 34 38 88 39 82 40 84 41 35 42 87 43 81 44
REMARK SMILES IDX 80 45 36 47 68 48 48 49 67 50 49 51 52 52 66 53 85 54 50 55
REMARK SMILES IDX 51 56 65 58 86 59 53 60 37 61 38 62 46 63 39 64 40 65 44 66
REMARK SMILES IDX 47 67 41 68 42 69 45 70 43 71 69 72 70 73 78 74 71 75 72 76
REMARK SMILES IDX 76 77 79 78 73 79 74 80 77 81 75 82 54 83 55 84 63 85 56 86
REMARK SMILES IDX 57 87 61 88 64 89 58 90 59 91 62 92 60 93
REMARK H PARENT 9 15 84 46 52 57
REMARK Flexibility Score: inf
ROOT
ATOM      1  C   UNL     1       5.427   2.804  -0.881  1.00  0.00     0.202 C 
ENDROOT
BRANCH   1   2
ATOM      2  C   UNL     1       4.462   2.673  -2.069  1.00  0.00     0.261 C 
BRANCH   2   3
ATOM      3  O   UNL     1       3.067   2.832  -1.734  1.00  0.00    -0.463 OA
BRANCH   3   4
ATOM      4  C   UNL     1       2.264   1.858  -2.222  1.00  0.00     0.312 C 
ATOM      5  O   UNL     1       2.671   0.974  -2.975  1.00  0.00    -0.252 OA
BRANCH   4   6
ATOM      6  C   UNL     1       0.803   1.877  -1.725  1.00  0.00     0.076 C 
BRANCH   6   7
ATOM      7  C   UNL     1       0.670   0.767  -0.670  1.00  0.00     0.016 C 
ATOM      8  C   UNL     1       0.996  -0.670  -1.051  1.00  0.00     0.005 C 
ENDBRANCH   6   7
BRANCH   6   9
ATOM      9  C   UNL     1      -0.015   1.555  -3.030  1.00  0.00     0.016 C 
ATOM     10  C   UNL     1      -1.526   1.434  -2.894  1.00  0.00     0.005 C 
ENDBRANCH   6   9
BRANCH   6  11
ATOM     11  C   UNL     1       0.246   3.222  -1.163  1.00  0.00     0.119 C 
BRANCH  11  12
ATOM     12  C   UNL     1       0.657   3.882   0.153  1.00  0.00     0.225 C 
ATOM     13  O   UNL     1       1.334   4.918   0.113  1.00  0.00    -0.275 OA
ATOM     14  N   UNL     1       0.223   3.513   1.396  1.00  0.00    -0.326 N 
ATOM     15  H   UNL     1       0.630   4.026   2.131  1.00  0.00     0.169 HD
BRANCH  14  16
ATOM     16  C   UNL     1      -0.692   2.543   1.818  1.00  0.00     0.042 A 
ATOM     17  C   UNL     1      -0.226   1.293   2.234  1.00  0.00     0.026 A 
ATOM     18  C   UNL     1      -2.013   2.896   2.091  1.00  0.00     0.041 A 
ATOM     19  C   UNL     1      -1.108   0.327   2.725  1.00  0.00     0.003 A 
ATOM     20  C   UNL     1      -2.884   1.945   2.635  1.00  0.00     0.020 A 
ATOM     21  C   UNL     1      -2.447   0.651   2.917  1.00  0.00     0.016 A 
ATOM     22  Br  UNL     1      -4.669   2.424   3.038  1.00  0.00    -0.051 Br
ENDBRANCH  14  16
ENDBRANCH  11  12
ENDBRANCH   6  11
ENDBRANCH   4   6
ENDBRANCH   3   4
ENDBRANCH   2   3
ENDBRANCH   1   2
BRANCH   1  23
ATOM     23  O   UNL     1       4.957   2.385   0.394  1.00  0.00    -0.374 OA
BRANCH  23  24
ATOM     24  C   UNL     1       3.945   3.196   0.999  1.00  0.00     0.202 C 
BRANCH  24  25
ATOM     25  C   UNL     1       4.236   4.699   1.107  1.00  0.00     0.261 C 
BRANCH  25  26
ATOM     26  O   UNL     1       4.207   5.335  -0.188  1.00  0.00    -0.460 OA
BRANCH  26  27
ATOM     27  C   UNL     1       5.155   6.272  -0.389  1.00  0.00     0.338 C 
ATOM     28  O   UNL     1       5.973   6.694   0.421  1.00  0.00    -0.246 OA
BRANCH  27  29
ATOM     29  C   UNL     1       5.219   6.615  -1.817  1.00  0.00     0.060 A 
ATOM     30  C   UNL     1       6.362   6.236  -2.533  1.00  0.00     0.016 A 
ATOM     31  C   UNL     1       4.235   7.406  -2.412  1.00  0.00     0.016 A 
ATOM     32  C   UNL     1       6.552   6.693  -3.836  1.00  0.00     0.010 A 
ATOM     33  C   UNL     1       4.435   7.876  -3.714  1.00  0.00     0.010 A 
ATOM     34  C   UNL     1       5.612   7.554  -4.416  1.00  0.00    -0.014 A 
BRANCH  34  35
ATOM     35  C   UNL     1       5.934   8.257  -5.681  1.00  0.00     0.031 A 
ATOM     36  C   UNL     1       6.476   9.657  -5.615  1.00  0.00     0.074 A 
ATOM     37  C   UNL     1       5.741   7.664  -6.872  1.00  0.00     0.049 A 
ATOM     38  N   UNL     1       6.735  10.497  -6.584  1.00  0.00    -0.248 NA
ATOM     39  C   UNL     1       6.760  10.181  -4.270  1.00  0.00     0.031 C 
ATOM     40  C   UNL     1       5.261   6.299  -7.064  1.00  0.00     0.029 A 
ATOM     41  N   UNL     1       5.905   8.151  -8.145  1.00  0.00    -0.354 N 
ATOM     42  C   UNL     1       7.194  11.653  -5.966  1.00  0.00     0.074 A 
ATOM     43  C   UNL     1       7.165  11.412  -4.540  1.00  0.00     0.031 C 
ATOM     44  C   UNL     1       5.133   6.067  -8.381  1.00  0.00     0.029 A 
ATOM     45  C   UNL     1       5.491   7.278  -9.119  1.00  0.00     0.049 A 
ATOM     46  H   UNL     1       6.282   9.039  -8.339  1.00  0.00     0.167 HD
ATOM     47  C   UNL     1       7.601  12.811  -6.539  1.00  0.00     0.037 A 
ATOM     48  C   UNL     1       5.375   7.453 -10.450  1.00  0.00     0.037 A 
ATOM     49  C   UNL     1       7.630  13.046  -7.958  1.00  0.00     0.049 A 
ATOM     50  C   UNL     1       5.779   8.766 -11.065  1.00  0.00     0.074 A 
ATOM     51  C   UNL     1       8.060  14.170  -8.640  1.00  0.00     0.029 A 
ATOM     52  N   UNL     1       7.197  12.139  -8.915  1.00  0.00    -0.354 N 
ATOM     53  N   UNL     1       6.240   9.846 -10.480  1.00  0.00    -0.248 NA
ATOM     54  C   UNL     1       5.649   8.887 -12.524  1.00  0.00     0.031 C 
ATOM     55  C   UNL     1       7.839  13.964 -10.006  1.00  0.00     0.029 A 
ATOM     56  C   UNL     1       7.319  12.691 -10.179  1.00  0.00     0.049 A 
ATOM     57  H   UNL     1       6.853  11.237  -8.723  1.00  0.00     0.167 HD
ATOM     58  C   UNL     1       6.475  10.763 -11.496  1.00  0.00     0.074 A 
ATOM     59  C   UNL     1       6.111  10.112 -12.738  1.00  0.00     0.031 C 
ATOM     60  C   UNL     1       6.955  12.028 -11.407  1.00  0.00     0.037 A 
BRANCH  47  61
ATOM     61  C   UNL     1       8.005  13.927  -5.621  1.00  0.00     0.064 A 
ATOM     62  C   UNL     1       9.195  13.883  -4.879  1.00  0.00     0.173 A 
ATOM     63  C   UNL     1       7.188  15.060  -5.486  1.00  0.00     0.173 A 
ATOM     64  F   UNL     1      10.004  12.816  -4.963  1.00  0.00    -0.203 F 
ATOM     65  C   UNL     1       9.534  14.917  -4.010  1.00  0.00     0.198 A 
ATOM     66  C   UNL     1       7.545  16.104  -4.637  1.00  0.00     0.198 A 
ATOM     67  F   UNL     1       6.042  15.154  -6.177  1.00  0.00    -0.203 F 
ATOM     68  F   UNL     1      10.649  14.830  -3.270  1.00  0.00    -0.200 F 
ATOM     69  C   UNL     1       8.712  16.028  -3.893  1.00  0.00     0.200 A 
ATOM     70  F   UNL     1       6.753  17.181  -4.533  1.00  0.00    -0.200 F 
ATOM     71  F   UNL     1       9.039  17.020  -3.054  1.00  0.00    -0.200 F 
ENDBRANCH  47  61
BRANCH  48  72
ATOM     72  C   UNL     1       4.821   6.354 -11.280  1.00  0.00     0.064 A 
ATOM     73  C   UNL     1       5.635   5.615 -12.147  1.00  0.00     0.173 A 
ATOM     74  C   UNL     1       3.465   6.003 -11.197  1.00  0.00     0.173 A 
ATOM     75  F   UNL     1       6.932   5.930 -12.279  1.00  0.00    -0.203 F 
ATOM     76  C   UNL     1       5.114   4.565 -12.902  1.00  0.00     0.198 A 
ATOM     77  C   UNL     1       2.950   4.939 -11.934  1.00  0.00     0.198 A 
ATOM     78  F   UNL     1       2.644   6.682 -10.383  1.00  0.00    -0.203 F 
ATOM     79  F   UNL     1       5.908   3.890 -13.745  1.00  0.00    -0.200 F 
ATOM     80  C   UNL     1       3.775   4.222 -12.788  1.00  0.00     0.200 A 
ATOM     81  F   UNL     1       1.658   4.604 -11.811  1.00  0.00    -0.200 F 
ATOM     82  F   UNL     1       3.278   3.204 -13.503  1.00  0.00    -0.200 F 
ENDBRANCH  48  72
BRANCH  60  83
ATOM     83  C   UNL     1       7.146  12.791 -12.685  1.00  0.00     0.064 A 
ATOM     84  C   UNL     1       6.059  13.327 -13.390  1.00  0.00     0.173 A 
ATOM     85  C   UNL     1       8.438  13.051 -13.168  1.00  0.00     0.173 A 
ATOM     86  F   UNL     1       4.805  13.095 -12.976  1.00  0.00    -0.203 F 
ATOM     87  C   UNL     1       6.259  14.088 -14.540  1.00  0.00     0.198 A 
ATOM     88  C   UNL     1       8.635  13.832 -14.303  1.00  0.00     0.198 A 
ATOM     89  F   UNL     1       9.510  12.565 -12.524  1.00  0.00    -0.203 F 
ATOM     90  F   UNL     1       5.206  14.567 -15.216  1.00  0.00    -0.200 F 
ATOM     91  C   UNL     1       7.546  14.347 -14.989  1.00  0.00     0.200 A 
ATOM     92  F   UNL     1       9.879  14.092 -14.728  1.00  0.00    -0.200 F 
ATOM     93  F   UNL     1       7.736  15.092 -16.087  1.00  0.00    -0.200 F 
ENDBRANCH  60  83
ENDBRANCH  34  35
ENDBRANCH  27  29
ENDBRANCH  26  27
ENDBRANCH  25  26
ENDBRANCH  24  25
ENDBRANCH  23  24
ENDBRANCH   1  23
TORSDOF 19
