REMARK SMILES Cc1cccc2c1[C@H]1c3c(C)cccc3[C@H](CC(=O)OCCOCCOC(=O)c3ccc(-c4c5nc(c(-c6c(F)c(F)c(F)c(F)c6F)c6ccc([nH]6)c(-c6c(F)c(F)c(F)c(F)c6F)c6nc(c(-c7c(F)c(F)c(F)c(F)c7F)c7ccc4[nH]7)C=C6)C=C5)cc3)C[C@H]1CC2
REMARK SMILES IDX 24 1 23 2 22 3 21 4 20 5 18 6 19 7 17 8 16 9 1 10 2 11 3 12
REMARK SMILES IDX 7 13 4 14 6 15 8 16 5 17 95 18 9 19 93 20 94 21 10 22 15 23
REMARK SMILES IDX 92 24 12 25 11 26 14 27 13 28 25 29 26 30 27 31 28 32 29 33
REMARK SMILES IDX 30 34 91 35 31 36 90 37 32 38 33 39 34 40 84 41 35 42 89 43
REMARK SMILES IDX 83 44 85 45 36 46 88 47 82 48 81 49 37 51 69 52 49 53 68 54
REMARK SMILES IDX 50 55 53 56 67 57 86 58 51 59 52 60 66 62 87 63 54 64 38 65
REMARK SMILES IDX 39 66 47 67 40 68 41 69 45 70 48 71 42 72 43 73 46 74 44 75
REMARK SMILES IDX 70 76 71 77 79 78 72 79 73 80 77 81 80 82 74 83 75 84 78 85
REMARK SMILES IDX 76 86 55 87 56 88 64 89 57 90 58 91 62 92 65 93 59 94 60 95
REMARK SMILES IDX 63 96 61 97
REMARK H PARENT 85 50 53 61
REMARK Flexibility Score: inf
ROOT
ATOM      1  C   UNL     1      -2.331   2.291   2.949  1.00  0.00     0.202 C 
ENDROOT
BRANCH   1   2
ATOM      2  O   UNL     1      -2.155   3.508   3.657  1.00  0.00    -0.374 OA
BRANCH   2   3
ATOM      3  C   UNL     1      -1.535   3.437   4.940  1.00  0.00     0.202 C 
BRANCH   3   4
ATOM      4  C   UNL     1      -2.054   2.402   5.943  1.00  0.00     0.261 C 
BRANCH   4   5
ATOM      5  O   UNL     1      -1.715   1.033   5.613  1.00  0.00    -0.463 OA
BRANCH   5   6
ATOM      6  C   UNL     1      -2.735   0.141   5.761  1.00  0.00     0.306 C 
ATOM      7  O   UNL     1      -3.902   0.449   5.974  1.00  0.00    -0.252 OA
BRANCH   6   8
ATOM      8  C   UNL     1      -2.270  -1.301   5.782  1.00  0.00     0.131 C 
BRANCH   8   9
ATOM      9  C   UNL     1      -2.117  -2.113   4.470  1.00  0.00     0.031 C 
ATOM     10  C   UNL     1       1.266  -0.412  -0.053  1.00  0.00     0.044 C 
ATOM     11  C   UNL     1       0.647  -1.746  -0.389  1.00  0.00    -0.047 A 
ATOM     12  C   UNL     1       0.880  -2.221  -1.692  1.00  0.00     0.004 A 
ATOM     13  C   UNL     1      -0.138  -2.526   0.500  1.00  0.00    -0.034 A 
ATOM     14  C   UNL     1       0.421  -3.470  -2.094  1.00  0.00     0.001 A 
ATOM     15  C   UNL     1      -0.448  -3.856   0.138  1.00  0.00    -0.044 A 
ATOM     16  C   UNL     1      -0.665  -2.002   1.832  1.00  0.00     0.053 C 
ATOM     17  C   UNL     1      -0.201  -4.300  -1.170  1.00  0.00     0.004 A 
ATOM     18  C   UNL     1      -0.901  -4.880   1.155  1.00  0.00     0.036 C 
ATOM     19  C   UNL     1      -2.155  -1.548   1.923  1.00  0.00    -0.034 A 
ATOM     20  C   UNL     1      -0.362  -3.083   2.889  1.00  0.00     0.002 C 
ATOM     21  C   UNL     1      -1.151  -4.365   2.576  1.00  0.00     0.009 C 
ATOM     22  C   UNL     1      -2.884  -0.963   0.847  1.00  0.00    -0.047 A 
ATOM     23  C   UNL     1      -2.802  -1.599   3.207  1.00  0.00    -0.040 A 
ATOM     24  C   UNL     1      -0.643  -2.491   4.270  1.00  0.00     0.013 C 
ATOM     25  C   UNL     1      -4.224  -0.568   1.034  1.00  0.00     0.004 A 
ATOM     26  C   UNL     1      -2.327  -0.678  -0.521  1.00  0.00     0.044 C 
ATOM     27  C   UNL     1      -4.159  -1.238   3.326  1.00  0.00     0.004 A 
ATOM     28  C   UNL     1      -4.862  -0.718   2.253  1.00  0.00     0.001 A 
ENDBRANCH   8   9
ENDBRANCH   6   8
ENDBRANCH   5   6
ENDBRANCH   4   5
ENDBRANCH   3   4
ENDBRANCH   2   3
ENDBRANCH   1   2
BRANCH   1  29
ATOM     29  C   UNL     1      -1.070   1.552   2.504  1.00  0.00     0.261 C 
BRANCH  29  30
ATOM     30  O   UNL     1       0.113   1.860   3.224  1.00  0.00    -0.460 OA
BRANCH  30  31
ATOM     31  C   UNL     1       1.067   2.520   2.545  1.00  0.00     0.338 C 
ATOM     32  O   UNL     1       1.091   2.873   1.383  1.00  0.00    -0.246 OA
BRANCH  31  33
ATOM     33  C   UNL     1       2.122   2.751   3.528  1.00  0.00     0.060 A 
ATOM     34  C   UNL     1       2.134   3.963   4.221  1.00  0.00     0.016 A 
ATOM     35  C   UNL     1       3.050   1.740   3.790  1.00  0.00     0.016 A 
ATOM     36  C   UNL     1       3.115   4.183   5.176  1.00  0.00     0.010 A 
ATOM     37  C   UNL     1       4.038   1.964   4.742  1.00  0.00     0.010 A 
ATOM     38  C   UNL     1       4.091   3.201   5.405  1.00  0.00    -0.014 A 
BRANCH  38  39
ATOM     39  C   UNL     1       5.296   3.584   6.162  1.00  0.00     0.031 A 
ATOM     40  C   UNL     1       6.453   4.133   5.383  1.00  0.00     0.074 A 
ATOM     41  C   UNL     1       5.310   3.531   7.502  1.00  0.00     0.049 A 
ATOM     42  N   UNL     1       7.568   4.659   5.814  1.00  0.00    -0.248 NA
ATOM     43  C   UNL     1       6.327   4.100   3.915  1.00  0.00     0.031 C 
ATOM     44  C   UNL     1       4.212   3.052   8.338  1.00  0.00     0.029 A 
ATOM     45  N   UNL     1       6.278   3.910   8.393  1.00  0.00    -0.354 N 
ATOM     46  C   UNL     1       8.255   5.051   4.674  1.00  0.00     0.074 A 
ATOM     47  C   UNL     1       7.469   4.646   3.532  1.00  0.00     0.031 C 
ATOM     48  C   UNL     1       4.559   3.189   9.629  1.00  0.00     0.029 A 
ATOM     49  C   UNL     1       5.907   3.750   9.704  1.00  0.00     0.049 A 
ATOM     50  H   UNL     1       7.155   4.263   8.120  1.00  0.00     0.167 HD
ATOM     51  C   UNL     1       9.427   5.720   4.593  1.00  0.00     0.037 A 
ATOM     52  C   UNL     1       6.585   4.041  10.830  1.00  0.00     0.037 A 
ATOM     53  C   UNL     1      10.214   6.081   5.738  1.00  0.00     0.049 A 
ATOM     54  C   UNL     1       7.948   4.671  10.712  1.00  0.00     0.074 A 
ATOM     55  C   UNL     1      11.436   6.724   5.780  1.00  0.00     0.029 A 
ATOM     56  N   UNL     1       9.853   5.811   7.052  1.00  0.00    -0.354 N 
ATOM     57  N   UNL     1       8.589   5.059   9.634  1.00  0.00    -0.248 NA
ATOM     58  C   UNL     1       8.681   4.905  11.963  1.00  0.00     0.031 C 
ATOM     59  C   UNL     1      11.838   6.800   7.117  1.00  0.00     0.029 A 
ATOM     60  C   UNL     1      10.843   6.250   7.913  1.00  0.00     0.049 A 
ATOM     61  H   UNL     1       9.017   5.371   7.329  1.00  0.00     0.167 HD
ATOM     62  C   UNL     1       9.789   5.601  10.075  1.00  0.00     0.074 A 
ATOM     63  C   UNL     1       9.780   5.503  11.521  1.00  0.00     0.031 C 
ATOM     64  C   UNL     1      10.805   6.134   9.350  1.00  0.00     0.037 A 
BRANCH  51  65
ATOM     65  C   UNL     1       9.915   6.079   3.222  1.00  0.00     0.064 A 
ATOM     66  C   UNL     1       9.265   7.055   2.448  1.00  0.00     0.173 A 
ATOM     67  C   UNL     1      11.033   5.440   2.668  1.00  0.00     0.173 A 
ATOM     68  F   UNL     1       8.176   7.678   2.923  1.00  0.00    -0.203 F 
ATOM     69  C   UNL     1       9.702   7.357   1.161  1.00  0.00     0.198 A 
ATOM     70  C   UNL     1      11.484   5.766   1.392  1.00  0.00     0.198 A 
ATOM     71  F   UNL     1      11.685   4.496   3.362  1.00  0.00    -0.203 F 
ATOM     72  F   UNL     1       9.033   8.253   0.421  1.00  0.00    -0.200 F 
ATOM     73  C   UNL     1      10.814   6.717   0.636  1.00  0.00     0.200 A 
ATOM     74  F   UNL     1      12.563   5.151   0.887  1.00  0.00    -0.200 F 
ATOM     75  F   UNL     1      11.234   7.009  -0.602  1.00  0.00    -0.200 F 
ENDBRANCH  51  65
BRANCH  52  76
ATOM     76  C   UNL     1       5.960   3.781  12.152  1.00  0.00     0.064 A 
ATOM     77  C   UNL     1       5.534   4.839  12.966  1.00  0.00     0.173 A 
ATOM     78  C   UNL     1       5.733   2.474  12.608  1.00  0.00     0.173 A 
ATOM     79  F   UNL     1       5.745   6.106  12.582  1.00  0.00    -0.203 F 
ATOM     80  C   UNL     1       4.903   4.600  14.185  1.00  0.00     0.198 A 
ATOM     81  C   UNL     1       5.082   2.236  13.817  1.00  0.00     0.198 A 
ATOM     82  F   UNL     1       6.122   1.427  11.866  1.00  0.00    -0.203 F 
ATOM     83  F   UNL     1       4.521   5.629  14.953  1.00  0.00    -0.200 F 
ATOM     84  C   UNL     1       4.668   3.299  14.605  1.00  0.00     0.200 A 
ATOM     85  F   UNL     1       4.846   0.977  14.212  1.00  0.00    -0.200 F 
ATOM     86  F   UNL     1       4.044   3.070  15.769  1.00  0.00    -0.200 F 
ENDBRANCH  52  76
BRANCH  64  87
ATOM     87  C   UNL     1      11.991   6.658  10.104  1.00  0.00     0.064 A 
ATOM     88  C   UNL     1      12.921   5.790  10.695  1.00  0.00     0.173 A 
ATOM     89  C   UNL     1      12.251   8.036  10.152  1.00  0.00     0.173 A 
ATOM     90  F   UNL     1      12.710   4.466  10.684  1.00  0.00    -0.203 F 
ATOM     91  C   UNL     1      14.063   6.286  11.317  1.00  0.00     0.198 A 
ATOM     92  C   UNL     1      13.409   8.525  10.748  1.00  0.00     0.198 A 
ATOM     93  F   UNL     1      11.396   8.905   9.590  1.00  0.00    -0.203 F 
ATOM     94  F   UNL     1      14.924   5.441  11.902  1.00  0.00    -0.200 F 
ATOM     95  C   UNL     1      14.312   7.650  11.332  1.00  0.00     0.200 A 
ATOM     96  F   UNL     1      13.657   9.842  10.745  1.00  0.00    -0.200 F 
ATOM     97  F   UNL     1      15.424   8.123  11.912  1.00  0.00    -0.200 F 
ENDBRANCH  64  87
ENDBRANCH  38  39
ENDBRANCH  31  33
ENDBRANCH  30  31
ENDBRANCH  29  30
ENDBRANCH   1  29
TORSDOF 15
