REMARK SMILES CC1(C)C(C(=O)Nc2ccc(CC(=O)OCCOCCOC(=O)c3ccc(-c4c5nc(c(-c6c(F)c(F)c(F)c(F)c6F)c6ccc([nH]6)c(-c6c(F)c(F)c(F)c(F)c6F)c6nc(c(-c7c(F)c(F)c(F)c(F)c7F)c7ccc4[nH]7)C=C6)C=C5)cc3)cc2)C1(C)C
REMARK SMILES IDX 17 1 16 2 15 3 13 4 14 5 12 6 11 7 8 8 9 9 88 10 10 11 87 12
REMARK SMILES IDX 7 13 5 14 6 15 4 17 1 18 2 19 3 20 89 21 90 22 91 23 18 24
REMARK SMILES IDX 19 25 20 26 21 27 22 28 23 29 24 30 25 31 86 32 26 33 85 34
REMARK SMILES IDX 27 35 28 36 29 37 79 38 30 39 84 40 78 41 80 42 31 43 83 44
REMARK SMILES IDX 77 45 76 46 32 48 64 49 44 50 63 51 45 52 48 53 62 54 81 55
REMARK SMILES IDX 46 56 47 57 61 59 82 60 49 61 33 62 34 63 42 64 35 65 36 66
REMARK SMILES IDX 40 67 43 68 37 69 38 70 41 71 39 72 65 73 66 74 74 75 67 76
REMARK SMILES IDX 68 77 72 78 75 79 69 80 70 81 73 82 71 83 50 84 51 85 59 86
REMARK SMILES IDX 52 87 53 88 57 89 60 90 54 91 55 92 58 93 56 94
REMARK H PARENT 7 16 80 47 48 58
REMARK Flexibility Score: inf
ROOT
ATOM      1  C   UNL     1      -7.714  -1.366  -5.228  1.00  0.00     0.202 C 
ENDROOT
BRANCH   1   2
ATOM      2  C   UNL     1      -7.454  -2.164  -3.949  1.00  0.00     0.261 C 
BRANCH   2   3
ATOM      3  O   UNL     1      -6.077  -2.029  -3.558  1.00  0.00    -0.463 OA
BRANCH   3   4
ATOM      4  C   UNL     1      -5.402  -3.190  -3.375  1.00  0.00     0.310 C 
ATOM      5  O   UNL     1      -5.922  -4.299  -3.314  1.00  0.00    -0.252 OA
BRANCH   4   6
ATOM      6  C   UNL     1      -3.916  -3.006  -3.235  1.00  0.00     0.158 C 
BRANCH   6   7
ATOM      7  C   UNL     1      -3.287  -1.703  -3.682  1.00  0.00    -0.037 A 
ATOM      8  C   UNL     1      -1.480   0.369  -4.096  1.00  0.00     0.041 A 
ATOM      9  C   UNL     1      -1.665  -0.573  -5.104  1.00  0.00     0.026 A 
ATOM     10  C   UNL     1      -2.371   0.430  -3.025  1.00  0.00     0.026 A 
ATOM     11  C   UNL     1      -2.541  -1.637  -4.873  1.00  0.00     0.006 A 
ATOM     12  C   UNL     1      -3.286  -0.600  -2.823  1.00  0.00     0.006 A 
BRANCH   8  13
ATOM     13  N   UNL     1      -0.282   1.103  -4.093  1.00  0.00    -0.326 N 
ATOM     14  C   UNL     1       0.320   1.551  -2.940  1.00  0.00     0.228 C 
ATOM     15  O   UNL     1       0.265   2.734  -2.613  1.00  0.00    -0.274 OA
ATOM     16  H   UNL     1       0.147   1.306  -4.956  1.00  0.00     0.169 HD
BRANCH  14  17
ATOM     17  C   UNL     1       1.313   0.661  -2.244  1.00  0.00     0.091 C 
ATOM     18  C   UNL     1       1.905   0.121   0.221  1.00  0.00     0.012 C 
ATOM     19  C   UNL     1       0.984  -0.110  -0.961  1.00  0.00    -0.017 C 
ATOM     20  C   UNL     1      -0.439  -0.279  -0.485  1.00  0.00     0.012 C 
ATOM     21  C   UNL     1       1.504  -0.854  -2.216  1.00  0.00    -0.017 C 
ATOM     22  C   UNL     1       2.936  -1.367  -2.210  1.00  0.00     0.012 C 
ATOM     23  C   UNL     1       0.639  -1.797  -3.012  1.00  0.00     0.012 C 
ENDBRANCH  14  17
ENDBRANCH   8  13
ENDBRANCH   6   7
ENDBRANCH   4   6
ENDBRANCH   3   4
ENDBRANCH   2   3
ENDBRANCH   1   2
BRANCH   1  24
ATOM     24  O   UNL     1      -7.139  -1.911  -6.418  1.00  0.00    -0.374 OA
BRANCH  24  25
ATOM     25  C   UNL     1      -5.731  -1.747  -6.592  1.00  0.00     0.202 C 
BRANCH  25  26
ATOM     26  C   UNL     1      -5.280  -0.381  -7.118  1.00  0.00     0.261 C 
BRANCH  26  27
ATOM     27  O   UNL     1      -5.623   0.681  -6.212  1.00  0.00    -0.460 OA
BRANCH  27  28
ATOM     28  C   UNL     1      -6.505   1.578  -6.715  1.00  0.00     0.338 C 
ATOM     29  O   UNL     1      -6.912   1.652  -7.862  1.00  0.00    -0.246 OA
BRANCH  28  30
ATOM     30  C   UNL     1      -7.082   2.398  -5.635  1.00  0.00     0.060 A 
ATOM     31  C   UNL     1      -8.479   2.458  -5.571  1.00  0.00     0.016 A 
ATOM     32  C   UNL     1      -6.298   3.166  -4.770  1.00  0.00     0.016 A 
ATOM     33  C   UNL     1      -9.099   3.338  -4.691  1.00  0.00     0.010 A 
ATOM     34  C   UNL     1      -6.925   4.057  -3.886  1.00  0.00     0.010 A 
ATOM     35  C   UNL     1      -8.326   4.177  -3.875  1.00  0.00    -0.014 A 
BRANCH  35  36
ATOM     36  C   UNL     1      -9.018   5.255  -3.125  1.00  0.00     0.031 A 
ATOM     37  C   UNL     1      -9.062   6.643  -3.704  1.00  0.00     0.074 A 
ATOM     38  C   UNL     1      -9.681   4.975  -1.989  1.00  0.00     0.049 A 
ATOM     39  N   UNL     1      -9.714   7.698  -3.280  1.00  0.00    -0.248 NA
ATOM     40  C   UNL     1      -8.274   6.876  -4.925  1.00  0.00     0.031 C 
ATOM     41  C   UNL     1      -9.723   3.667  -1.338  1.00  0.00     0.029 A 
ATOM     42  N   UNL     1     -10.460   5.774  -1.190  1.00  0.00    -0.354 N 
ATOM     43  C   UNL     1      -9.417   8.713  -4.181  1.00  0.00     0.074 A 
ATOM     44  C   UNL     1      -8.504   8.161  -5.158  1.00  0.00     0.031 C 
ATOM     45  C   UNL     1     -10.492   3.751  -0.238  1.00  0.00     0.029 A 
ATOM     46  C   UNL     1     -10.987   5.120  -0.103  1.00  0.00     0.049 A 
ATOM     47  H   UNL     1     -10.626   6.726  -1.378  1.00  0.00     0.167 HD
ATOM     48  C   UNL     1      -9.877   9.987  -4.198  1.00  0.00     0.037 A 
ATOM     49  C   UNL     1     -11.778   5.577   0.887  1.00  0.00     0.037 A 
ATOM     50  C   UNL     1     -10.799  10.532  -3.237  1.00  0.00     0.049 A 
ATOM     51  C   UNL     1     -12.252   7.007   0.853  1.00  0.00     0.074 A 
ATOM     52  C   UNL     1     -11.364  11.796  -3.205  1.00  0.00     0.029 A 
ATOM     53  N   UNL     1     -11.285   9.848  -2.134  1.00  0.00    -0.354 N 
ATOM     54  N   UNL     1     -12.023   7.936  -0.043  1.00  0.00    -0.248 NA
ATOM     55  C   UNL     1     -13.106   7.448   1.966  1.00  0.00     0.031 C 
ATOM     56  C   UNL     1     -12.154  11.892  -2.055  1.00  0.00     0.029 A 
ATOM     57  C   UNL     1     -12.118  10.674  -1.397  1.00  0.00     0.049 A 
ATOM     58  H   UNL     1     -11.070   8.914  -1.909  1.00  0.00     0.167 HD
ATOM     59  C   UNL     1     -12.720   9.059   0.384  1.00  0.00     0.074 A 
ATOM     60  C   UNL     1     -13.400   8.689   1.606  1.00  0.00     0.031 C 
ATOM     61  C   UNL     1     -12.787  10.289  -0.182  1.00  0.00     0.037 A 
BRANCH  48  62
ATOM     62  C   UNL     1      -9.385  10.895  -5.285  1.00  0.00     0.064 A 
ATOM     63  C   UNL     1      -9.854  10.787  -6.601  1.00  0.00     0.173 A 
ATOM     64  C   UNL     1      -8.494  11.937  -4.986  1.00  0.00     0.173 A 
ATOM     65  F   UNL     1     -10.700   9.802  -6.939  1.00  0.00    -0.203 F 
ATOM     66  C   UNL     1      -9.441  11.685  -7.583  1.00  0.00     0.198 A 
ATOM     67  C   UNL     1      -8.101  12.846  -5.964  1.00  0.00     0.198 A 
ATOM     68  F   UNL     1      -8.021  12.085  -3.739  1.00  0.00    -0.203 F 
ATOM     69  F   UNL     1      -9.884  11.552  -8.841  1.00  0.00    -0.200 F 
ATOM     70  C   UNL     1      -8.573  12.719  -7.261  1.00  0.00     0.200 A 
ATOM     71  F   UNL     1      -7.271  13.850  -5.649  1.00  0.00    -0.200 F 
ATOM     72  F   UNL     1      -8.191  13.592  -8.203  1.00  0.00    -0.200 F 
ENDBRANCH  48  62
BRANCH  49  73
ATOM     73  C   UNL     1     -12.173   4.678   2.003  1.00  0.00     0.064 A 
ATOM     74  C   UNL     1     -13.504   4.276   2.179  1.00  0.00     0.173 A 
ATOM     75  C   UNL     1     -11.230   4.242   2.945  1.00  0.00     0.173 A 
ATOM     76  F   UNL     1     -14.448   4.689   1.319  1.00  0.00    -0.203 F 
ATOM     77  C   UNL     1     -13.882   3.495   3.270  1.00  0.00     0.198 A 
ATOM     78  C   UNL     1     -11.603   3.437   4.019  1.00  0.00     0.198 A 
ATOM     79  F   UNL     1      -9.943   4.600   2.823  1.00  0.00    -0.203 F 
ATOM     80  F   UNL     1     -15.171   3.174   3.446  1.00  0.00    -0.200 F 
ATOM     81  C   UNL     1     -12.931   3.073   4.187  1.00  0.00     0.200 A 
ATOM     82  F   UNL     1     -10.679   3.023   4.896  1.00  0.00    -0.200 F 
ATOM     83  F   UNL     1     -13.295   2.328   5.239  1.00  0.00    -0.200 F 
ENDBRANCH  49  73
BRANCH  61  84
ATOM     84  C   UNL     1     -13.638  11.315   0.508  1.00  0.00     0.064 A 
ATOM     85  C   UNL     1     -13.242  11.898   1.721  1.00  0.00     0.173 A 
ATOM     86  C   UNL     1     -14.851  11.734  -0.058  1.00  0.00     0.173 A 
ATOM     87  F   UNL     1     -12.098  11.519   2.310  1.00  0.00    -0.203 F 
ATOM     88  C   UNL     1     -14.045  12.841   2.357  1.00  0.00     0.198 A 
ATOM     89  C   UNL     1     -15.637  12.698   0.566  1.00  0.00     0.198 A 
ATOM     90  F   UNL     1     -15.271  11.213  -1.221  1.00  0.00    -0.203 F 
ATOM     91  F   UNL     1     -13.672  13.345   3.542  1.00  0.00    -0.200 F 
ATOM     92  C   UNL     1     -15.239  13.244   1.777  1.00  0.00     0.200 A 
ATOM     93  F   UNL     1     -16.785  13.096  -0.001  1.00  0.00    -0.200 F 
ATOM     94  F   UNL     1     -16.010  14.151   2.391  1.00  0.00    -0.200 F 
ENDBRANCH  61  84
ENDBRANCH  35  36
ENDBRANCH  28  30
ENDBRANCH  27  28
ENDBRANCH  26  27
ENDBRANCH  25  26
ENDBRANCH  24  25
ENDBRANCH   1  24
TORSDOF 17
