REMARK SMILES O=C(OCCOCCOC(=O)c1ccc(NC(=O)c2ccc([N+](=O)[O-])cc2Cl)cc1Cl)c1ccc(-c2c3nc(c(-c4c(F)c(F)c(F)c(F)c4F)c4ccc([nH]4)c(-c4c(F)c(F)c(F)c(F)c4F)c4nc(c(-c5c(F)c(F)c(F)c(F)c5F)c5ccc2[nH]5)C=C4)C=C3)cc1
REMARK SMILES IDX 7 1 6 2 5 3 4 4 3 5 2 6 1 7 32 8 33 9 94 10 34 11 93 12
REMARK SMILES IDX 35 13 36 14 37 15 87 16 38 17 92 18 86 19 88 20 39 21 91 22
REMARK SMILES IDX 85 23 84 24 40 26 72 27 52 28 71 29 53 30 56 31 70 32 89 33
REMARK SMILES IDX 54 34 55 35 69 37 90 38 57 39 41 40 42 41 50 42 43 43 44 44
REMARK SMILES IDX 48 45 51 46 45 47 46 48 49 49 47 50 73 51 74 52 82 53 75 54
REMARK SMILES IDX 76 55 80 56 83 57 77 58 78 59 81 60 79 61 58 62 59 63 67 64
REMARK SMILES IDX 60 65 61 66 65 67 68 68 62 69 63 70 66 71 64 72 8 73 9 74
REMARK SMILES IDX 10 75 11 76 12 77 13 78 30 79 14 80 29 81 31 82 15 83 16 84
REMARK SMILES IDX 17 85 18 87 19 88 20 89 27 90 21 91 26 92 28 93 22 94 23 95
REMARK SMILES IDX 24 96 25 97
REMARK H PARENT 88 25 56 36 16 86
REMARK Flexibility Score: inf
ROOT
ATOM      1  C   UNL     1       2.799   1.487   1.627  1.00  0.00     0.202 C 
ENDROOT
BRANCH   1   2
ATOM      2  O   UNL     1       4.148   1.420   1.139  1.00  0.00    -0.374 OA
BRANCH   2   3
ATOM      3  C   UNL     1       4.327   1.874  -0.205  1.00  0.00     0.202 C 
BRANCH   3   4
ATOM      4  C   UNL     1       4.018   0.826  -1.282  1.00  0.00     0.261 C 
BRANCH   4   5
ATOM      5  O   UNL     1       2.663   0.357  -1.165  1.00  0.00    -0.460 OA
BRANCH   5   6
ATOM      6  C   UNL     1       2.211  -0.841  -0.727  1.00  0.00     0.338 C 
ATOM      7  O   UNL     1       1.014  -1.096  -0.843  1.00  0.00    -0.246 OA
BRANCH   6   8
ATOM      8  C   UNL     1       3.082  -1.875  -0.085  1.00  0.00     0.060 A 
ATOM      9  C   UNL     1       4.298  -1.611   0.544  1.00  0.00     0.016 A 
ATOM     10  C   UNL     1       2.588  -3.191  -0.027  1.00  0.00     0.016 A 
ATOM     11  C   UNL     1       5.037  -2.616   1.149  1.00  0.00     0.010 A 
ATOM     12  C   UNL     1       3.299  -4.203   0.631  1.00  0.00     0.010 A 
ATOM     13  C   UNL     1       4.536  -3.913   1.212  1.00  0.00    -0.014 A 
BRANCH  13  14
ATOM     14  C   UNL     1       5.383  -4.933   1.856  1.00  0.00     0.031 A 
ATOM     15  C   UNL     1       6.146  -5.888   0.994  1.00  0.00     0.074 A 
ATOM     16  C   UNL     1       5.587  -4.862   3.185  1.00  0.00     0.049 A 
ATOM     17  N   UNL     1       6.988  -6.823   1.341  1.00  0.00    -0.248 NA
ATOM     18  C   UNL     1       5.952  -5.758  -0.460  1.00  0.00     0.031 C 
ATOM     19  C   UNL     1       4.964  -3.882   4.079  1.00  0.00     0.029 A 
ATOM     20  N   UNL     1       6.405  -5.588   4.008  1.00  0.00    -0.354 N 
ATOM     21  C   UNL     1       7.420  -7.396   0.154  1.00  0.00     0.074 A 
ATOM     22  C   UNL     1       6.739  -6.717  -0.925  1.00  0.00     0.031 C 
ATOM     23  C   UNL     1       5.452  -4.044   5.318  1.00  0.00     0.029 A 
ATOM     24  C   UNL     1       6.368  -5.178   5.319  1.00  0.00     0.049 A 
ATOM     25  H   UNL     1       6.967  -6.332   3.691  1.00  0.00     0.167 HD
ATOM     26  C   UNL     1       8.308  -8.404  -0.010  1.00  0.00     0.037 A 
ATOM     27  C   UNL     1       6.989  -5.689   6.399  1.00  0.00     0.037 A 
ATOM     28  C   UNL     1       8.961  -9.069   1.085  1.00  0.00     0.049 A 
ATOM     29  C   UNL     1       7.895  -6.873   6.193  1.00  0.00     0.074 A 
ATOM     30  C   UNL     1       9.807 -10.161   1.057  1.00  0.00     0.029 A 
ATOM     31  N   UNL     1       8.835  -8.690   2.416  1.00  0.00    -0.354 N 
ATOM     32  N   UNL     1       8.245  -7.462   5.073  1.00  0.00    -0.248 NA
ATOM     33  C   UNL     1       8.481  -7.474   7.396  1.00  0.00     0.031 C 
ATOM     34  C   UNL     1      10.165 -10.466   2.375  1.00  0.00     0.029 A 
ATOM     35  C   UNL     1       9.579  -9.535   3.221  1.00  0.00     0.049 A 
ATOM     36  H   UNL     1       8.297  -7.932   2.738  1.00  0.00     0.167 HD
ATOM     37  C   UNL     1       9.095  -8.496   5.434  1.00  0.00     0.074 A 
ATOM     38  C   UNL     1       9.237  -8.430   6.875  1.00  0.00     0.031 C 
ATOM     39  C   UNL     1       9.694  -9.429   4.653  1.00  0.00     0.037 A 
BRANCH  26  40
ATOM     40  C   UNL     1       8.563  -8.871  -1.411  1.00  0.00     0.064 A 
ATOM     41  C   UNL     1       9.318  -8.113  -2.317  1.00  0.00     0.173 A 
ATOM     42  C   UNL     1       8.027 -10.088  -1.858  1.00  0.00     0.173 A 
ATOM     43  F   UNL     1       9.827  -6.928  -1.947  1.00  0.00    -0.203 F 
ATOM     44  C   UNL     1       9.510  -8.546  -3.627  1.00  0.00     0.198 A 
ATOM     45  C   UNL     1       8.240 -10.529  -3.161  1.00  0.00     0.198 A 
ATOM     46  F   UNL     1       7.290 -10.846  -1.033  1.00  0.00    -0.203 F 
ATOM     47  F   UNL     1      10.193  -7.782  -4.492  1.00  0.00    -0.200 F 
ATOM     48  C   UNL     1       8.975  -9.755  -4.047  1.00  0.00     0.200 A 
ATOM     49  F   UNL     1       7.723 -11.698  -3.564  1.00  0.00    -0.200 F 
ATOM     50  F   UNL     1       9.156 -10.169  -5.309  1.00  0.00    -0.200 F 
ENDBRANCH  26  40
BRANCH  27  51
ATOM     51  C   UNL     1       6.732  -5.134   7.756  1.00  0.00     0.064 A 
ATOM     52  C   UNL     1       7.756  -4.559   8.521  1.00  0.00     0.173 A 
ATOM     53  C   UNL     1       5.455  -5.207   8.337  1.00  0.00     0.173 A 
ATOM     54  F   UNL     1       9.001  -4.484   8.026  1.00  0.00    -0.203 F 
ATOM     55  C   UNL     1       7.521  -4.106   9.819  1.00  0.00     0.198 A 
ATOM     56  C   UNL     1       5.213  -4.721   9.620  1.00  0.00     0.198 A 
ATOM     57  F   UNL     1       4.436  -5.751   7.656  1.00  0.00    -0.203 F 
ATOM     58  F   UNL     1       8.533  -3.618  10.550  1.00  0.00    -0.200 F 
ATOM     59  C   UNL     1       6.249  -4.183  10.366  1.00  0.00     0.200 A 
ATOM     60  F   UNL     1       3.978  -4.787  10.137  1.00  0.00    -0.200 F 
ATOM     61  F   UNL     1       6.025  -3.752  11.615  1.00  0.00    -0.200 F 
ENDBRANCH  27  51
BRANCH  39  62
ATOM     62  C   UNL     1      10.563 -10.430   5.352  1.00  0.00     0.064 A 
ATOM     63  C   UNL     1      10.013 -11.452   6.139  1.00  0.00     0.173 A 
ATOM     64  C   UNL     1      11.957 -10.381   5.210  1.00  0.00     0.173 A 
ATOM     65  F   UNL     1       8.685 -11.527   6.316  1.00  0.00    -0.203 F 
ATOM     66  C   UNL     1      10.831 -12.373   6.784  1.00  0.00     0.198 A 
ATOM     67  C   UNL     1      12.770 -11.322   5.832  1.00  0.00     0.198 A 
ATOM     68  F   UNL     1      12.528  -9.425   4.461  1.00  0.00    -0.203 F 
ATOM     69  F   UNL     1      10.289 -13.309   7.574  1.00  0.00    -0.200 F 
ATOM     70  C   UNL     1      12.208 -12.311   6.625  1.00  0.00     0.200 A 
ATOM     71  F   UNL     1      14.099 -11.269   5.667  1.00  0.00    -0.200 F 
ATOM     72  F   UNL     1      12.995 -13.202   7.244  1.00  0.00    -0.200 F 
ENDBRANCH  39  62
ENDBRANCH  13  14
ENDBRANCH   6   8
ENDBRANCH   5   6
ENDBRANCH   4   5
ENDBRANCH   3   4
ENDBRANCH   2   3
ENDBRANCH   1   2
BRANCH   1  73
ATOM     73  C   UNL     1       2.776   2.225   2.966  1.00  0.00     0.261 C 
BRANCH  73  74
ATOM     74  O   UNL     1       3.217   3.568   2.722  1.00  0.00    -0.460 OA
BRANCH  74  75
ATOM     75  C   UNL     1       4.530   3.808   2.956  1.00  0.00     0.339 C 
ATOM     76  O   UNL     1       5.303   3.138   3.613  1.00  0.00    -0.246 OA
BRANCH  75  77
ATOM     77  C   UNL     1       4.959   4.868   2.020  1.00  0.00     0.078 A 
ATOM     78  C   UNL     1       6.112   4.602   1.269  1.00  0.00     0.019 A 
ATOM     79  C   UNL     1       4.245   6.042   1.786  1.00  0.00     0.057 A 
ATOM     80  C   UNL     1       6.505   5.463   0.240  1.00  0.00     0.027 A 
ATOM     81  C   UNL     1       4.641   6.894   0.747  1.00  0.00     0.047 A 
ATOM     82  Cl  UNL     1       2.891   6.531   2.741  1.00  0.00    -0.083 Cl
ATOM     83  C   UNL     1       5.746   6.591  -0.063  1.00  0.00     0.043 A 
BRANCH  83  84
ATOM     84  N   UNL     1       6.010   7.482  -1.119  1.00  0.00    -0.322 N 
ATOM     85  C   UNL     1       6.827   7.425  -2.223  1.00  0.00     0.257 C 
ATOM     86  H   UNL     1       5.503   8.324  -1.054  1.00  0.00     0.170 HD
ATOM     87  O   UNL     1       6.991   8.425  -2.920  1.00  0.00    -0.269 OA
BRANCH  85  88
ATOM     88  C   UNL     1       7.520   6.195  -2.628  1.00  0.00     0.059 A 
ATOM     89  C   UNL     1       8.924   6.216  -2.594  1.00  0.00     0.022 A 
ATOM     90  C   UNL     1       6.840   5.055  -3.077  1.00  0.00     0.060 A 
ATOM     91  C   UNL     1       9.649   5.074  -2.936  1.00  0.00     0.086 A 
ATOM     92  C   UNL     1       7.562   3.908  -3.419  1.00  0.00     0.107 A 
ATOM     93  Cl  UNL     1       5.122   4.993  -3.227  1.00  0.00    -0.083 Cl
ATOM     94  C   UNL     1       8.962   3.918  -3.330  1.00  0.00     0.270 A 
BRANCH  94  95
ATOM     95  N   UNL     1       9.713   2.694  -3.634  1.00  0.00     0.062 N 
ATOM     96  O   UNL     1      10.942   2.787  -3.745  1.00  0.00    -0.258 OA
ATOM     97  O   UNL     1       9.067   1.642  -3.737  1.00  0.00    -0.258 OA
ENDBRANCH  94  95
ENDBRANCH  85  88
ENDBRANCH  83  84
ENDBRANCH  75  77
ENDBRANCH  74  75
ENDBRANCH  73  74
ENDBRANCH   1  73
TORSDOF 17
