REMARK SMILES [NH3+][C@]1(C(=O)OCCOCCOC(=O)c2ccc(-c3c4nc(c(-c5c(F)c(F)c(F)c(F)c5F)c5ccc([nH]5)c(-c5c(F)c(F)c(F)c(F)c5F)c5nc(c(-c6c(F)c(F)c(F)c(F)c6F)c6ccc3[nH]6)C=C5)C=C4)cc2)CCC[C@@H](OC2CCC2)C1
REMARK SMILES IDX 8 1 7 2 6 3 5 4 3 5 4 6 2 7 77 8 86 9 78 10 80 11 79 12 1 13
REMARK SMILES IDX 81 17 82 18 83 19 85 20 84 21 9 22 10 23 11 24 12 25 13 26
REMARK SMILES IDX 14 27 15 28 76 29 16 30 75 31 17 32 18 33 19 34 69 35 20 36
REMARK SMILES IDX 74 37 68 38 70 39 21 40 73 41 67 42 66 43 22 45 54 46 34 47
REMARK SMILES IDX 53 48 35 49 38 50 52 51 71 52 36 53 37 54 51 56 72 57 39 58
REMARK SMILES IDX 23 59 24 60 32 61 25 62 26 63 30 64 33 65 27 66 28 67 31 68
REMARK SMILES IDX 29 69 55 70 56 71 64 72 57 73 58 74 62 75 65 76 59 77 60 78
REMARK SMILES IDX 63 79 61 80 40 81 41 82 49 83 42 84 43 85 47 86 50 87 44 88
REMARK SMILES IDX 45 89 48 90 46 91
REMARK H PARENT 1 14 1 15 1 16 70 44 38 55
REMARK Flexibility Score: inf
ROOT
ATOM      1  O   UNL     1      -0.103  -0.177  -4.575  1.00  0.00    -0.374 OA
ENDROOT
BRANCH   1   2
ATOM      2  C   UNL     1      -1.128   0.813  -4.401  1.00  0.00     0.202 C 
BRANCH   2   3
ATOM      3  C   UNL     1      -2.217   0.310  -3.416  1.00  0.00     0.261 C 
BRANCH   3   4
ATOM      4  O   UNL     1      -1.885   0.684  -2.046  1.00  0.00    -0.459 OA
BRANCH   4   5
ATOM      5  C   UNL     1      -2.299  -0.161  -1.043  1.00  0.00     0.368 C 
ATOM      6  O   UNL     1      -3.100  -1.073  -1.223  1.00  0.00    -0.245 OA
BRANCH   5   7
ATOM      7  C   UNL     1      -1.573   0.141   0.365  1.00  0.00     0.195 C 
ATOM      8  C   UNL     1      -1.208  -1.220   1.037  1.00  0.00     0.081 C 
ATOM      9  C   UNL     1      -0.333   1.104   0.240  1.00  0.00     0.113 C 
ATOM     10  C   UNL     1      -0.043  -1.260   2.041  1.00  0.00     0.010 C 
ATOM     11  C   UNL     1       1.020   0.646   0.848  1.00  0.00     0.125 C 
ATOM     12  C   UNL     1       0.729   0.041   2.213  1.00  0.00     0.032 C 
BRANCH   7  13
ATOM     13  N   UNL     1      -2.610   0.768   1.230  1.00  0.00    -0.343 N 
ATOM     14  H   UNL     1      -3.411   0.142   1.309  1.00  0.00     0.345 HD
ATOM     15  H   UNL     1      -2.908   1.652   0.818  1.00  0.00     0.345 HD
ATOM     16  H   UNL     1      -2.220   0.940   2.157  1.00  0.00     0.345 HD
ENDBRANCH   7  13
BRANCH  11  17
ATOM     17  O   UNL     1       1.940  -0.284   0.261  1.00  0.00    -0.375 OA
BRANCH  17  18
ATOM     18  C   UNL     1       1.952  -0.824  -1.068  1.00  0.00     0.118 C 
ATOM     19  C   UNL     1       1.830  -2.374  -1.176  1.00  0.00     0.032 C 
ATOM     20  C   UNL     1       0.696  -0.759  -1.885  1.00  0.00     0.032 C 
ATOM     21  C   UNL     1       0.863  -2.188  -2.358  1.00  0.00     0.005 C 
ENDBRANCH  17  18
ENDBRANCH  11  17
ENDBRANCH   5   7
ENDBRANCH   4   5
ENDBRANCH   3   4
ENDBRANCH   2   3
ENDBRANCH   1   2
BRANCH   1  22
ATOM     22  C   UNL     1       1.071   0.210  -5.309  1.00  0.00     0.202 C 
BRANCH  22  23
ATOM     23  C   UNL     1       2.083   1.093  -4.543  1.00  0.00     0.261 C 
BRANCH  23  24
ATOM     24  O   UNL     1       1.550   2.406  -4.338  1.00  0.00    -0.460 OA
BRANCH  24  25
ATOM     25  C   UNL     1       1.667   3.183  -5.436  1.00  0.00     0.338 C 
ATOM     26  O   UNL     1       2.398   3.009  -6.393  1.00  0.00    -0.246 OA
BRANCH  25  27
ATOM     27  C   UNL     1       0.517   4.092  -5.467  1.00  0.00     0.060 A 
ATOM     28  C   UNL     1      -0.340   3.947  -6.561  1.00  0.00     0.016 A 
ATOM     29  C   UNL     1       0.303   5.069  -4.493  1.00  0.00     0.016 A 
ATOM     30  C   UNL     1      -1.375   4.849  -6.739  1.00  0.00     0.010 A 
ATOM     31  C   UNL     1      -0.742   5.977  -4.674  1.00  0.00     0.010 A 
ATOM     32  C   UNL     1      -1.544   5.897  -5.826  1.00  0.00    -0.014 A 
BRANCH  32  33
ATOM     33  C   UNL     1      -2.446   7.000  -6.214  1.00  0.00     0.031 A 
ATOM     34  C   UNL     1      -1.849   8.218  -6.859  1.00  0.00     0.074 A 
ATOM     35  C   UNL     1      -3.776   6.850  -6.104  1.00  0.00     0.049 A 
ATOM     36  N   UNL     1      -2.445   9.263  -7.370  1.00  0.00    -0.248 NA
ATOM     37  C   UNL     1      -0.379   8.259  -6.952  1.00  0.00     0.031 C 
ATOM     38  C   UNL     1      -4.446   5.679  -5.540  1.00  0.00     0.029 A 
ATOM     39  N   UNL     1      -4.798   7.679  -6.480  1.00  0.00    -0.354 N 
ATOM     40  C   UNL     1      -1.428  10.079  -7.847  1.00  0.00     0.074 A 
ATOM     41  C   UNL     1      -0.175   9.429  -7.538  1.00  0.00     0.031 C 
ATOM     42  C   UNL     1      -5.774   5.864  -5.612  1.00  0.00     0.029 A 
ATOM     43  C   UNL     1      -6.042   7.174  -6.200  1.00  0.00     0.049 A 
ATOM     44  H   UNL     1      -4.655   8.553  -6.910  1.00  0.00     0.167 HD
ATOM     45  C   UNL     1      -1.538  11.261  -8.497  1.00  0.00     0.037 A 
ATOM     46  C   UNL     1      -7.257   7.721  -6.390  1.00  0.00     0.037 A 
ATOM     47  C   UNL     1      -2.794  11.893  -8.799  1.00  0.00     0.049 A 
ATOM     48  C   UNL     1      -7.347   9.072  -7.050  1.00  0.00     0.074 A 
ATOM     49  C   UNL     1      -3.025  13.082  -9.466  1.00  0.00     0.029 A 
ATOM     50  N   UNL     1      -4.035  11.384  -8.440  1.00  0.00    -0.354 N 
ATOM     51  N   UNL     1      -6.383   9.827  -7.522  1.00  0.00    -0.248 NA
ATOM     52  C   UNL     1      -8.690   9.645  -7.206  1.00  0.00     0.031 C 
ATOM     53  C   UNL     1      -4.404  13.319  -9.463  1.00  0.00     0.029 A 
ATOM     54  C   UNL     1      -5.035  12.254  -8.839  1.00  0.00     0.049 A 
ATOM     55  H   UNL     1      -4.181  10.531  -7.970  1.00  0.00     0.167 HD
ATOM     56  C   UNL     1      -7.001  10.956  -8.041  1.00  0.00     0.074 A 
ATOM     57  C   UNL     1      -8.426  10.775  -7.847  1.00  0.00     0.031 C 
ATOM     58  C   UNL     1      -6.444  12.049  -8.621  1.00  0.00     0.037 A 
BRANCH  45  59
ATOM     59  C   UNL     1      -0.270  11.957  -8.892  1.00  0.00     0.064 A 
ATOM     60  C   UNL     1       0.540  11.486  -9.937  1.00  0.00     0.173 A 
ATOM     61  C   UNL     1       0.127  13.130  -8.233  1.00  0.00     0.173 A 
ATOM     62  F   UNL     1       0.216  10.358 -10.586  1.00  0.00    -0.203 F 
ATOM     63  C   UNL     1       1.709  12.154 -10.293  1.00  0.00     0.198 A 
ATOM     64  C   UNL     1       1.282  13.809  -8.609  1.00  0.00     0.198 A 
ATOM     65  F   UNL     1      -0.611  13.621  -7.226  1.00  0.00    -0.203 F 
ATOM     66  F   UNL     1       2.490  11.663 -11.267  1.00  0.00    -0.200 F 
ATOM     67  C   UNL     1       2.075  13.318  -9.635  1.00  0.00     0.200 A 
ATOM     68  F   UNL     1       1.630  14.938  -7.976  1.00  0.00    -0.200 F 
ATOM     69  F   UNL     1       3.197  13.963  -9.983  1.00  0.00    -0.200 F 
ENDBRANCH  45  59
BRANCH  46  70
ATOM     70  C   UNL     1      -8.473   7.002  -5.930  1.00  0.00     0.064 A 
ATOM     71  C   UNL     1      -9.412   6.497  -6.838  1.00  0.00     0.173 A 
ATOM     72  C   UNL     1      -8.717   6.804  -4.562  1.00  0.00     0.173 A 
ATOM     73  F   UNL     1      -9.235   6.678  -8.155  1.00  0.00    -0.203 F 
ATOM     74  C   UNL     1     -10.555   5.833  -6.396  1.00  0.00     0.198 A 
ATOM     75  C   UNL     1      -9.845   6.116  -4.122  1.00  0.00     0.198 A 
ATOM     76  F   UNL     1      -7.849   7.268  -3.651  1.00  0.00    -0.203 F 
ATOM     77  F   UNL     1     -11.458   5.395  -7.284  1.00  0.00    -0.200 F 
ATOM     78  C   UNL     1     -10.767   5.637  -5.039  1.00  0.00     0.200 A 
ATOM     79  F   UNL     1     -10.037   5.918  -2.811  1.00  0.00    -0.200 F 
ATOM     80  F   UNL     1     -11.863   4.993  -4.615  1.00  0.00    -0.200 F 
ENDBRANCH  46  70
BRANCH  58  81
ATOM     81  C   UNL     1      -7.381  13.124  -9.086  1.00  0.00     0.064 A 
ATOM     82  C   UNL     1      -8.040  13.961  -8.174  1.00  0.00     0.173 A 
ATOM     83  C   UNL     1      -7.587  13.347 -10.455  1.00  0.00     0.173 A 
ATOM     84  F   UNL     1      -7.885  13.777  -6.854  1.00  0.00    -0.203 F 
ATOM     85  C   UNL     1      -8.894  14.967  -8.618  1.00  0.00     0.198 A 
ATOM     86  C   UNL     1      -8.418  14.373 -10.895  1.00  0.00     0.198 A 
ATOM     87  F   UNL     1      -6.971  12.578 -11.366  1.00  0.00    -0.203 F 
ATOM     88  F   UNL     1      -9.550  15.725  -7.729  1.00  0.00    -0.200 F 
ATOM     89  C   UNL     1      -9.076  15.177  -9.977  1.00  0.00     0.200 A 
ATOM     90  F   UNL     1      -8.581  14.584 -12.208  1.00  0.00    -0.200 F 
ATOM     91  F   UNL     1      -9.892  16.151 -10.401  1.00  0.00    -0.200 F 
ENDBRANCH  58  81
ENDBRANCH  32  33
ENDBRANCH  25  27
ENDBRANCH  24  25
ENDBRANCH  23  24
ENDBRANCH  22  23
ENDBRANCH   1  22
TORSDOF 17
