REMARK SMILES O=C(COCCNC(=O)c1cc(Cl)c2c(c1)OCCO2)OCCOCCOC(=O)c1ccc(-c2c3nc(c(-c4c(F)c(F)c(F)c(F)c4F)c4ccc([nH]4)c(-c4c(F)c(F)c(F)c(F)c4F)c4nc(c(-c5c(F)c(F)c(F)c(F)c5F)c5ccc2[nH]5)C=C4)C=C3)cc1
REMARK SMILES IDX 22 1 21 2 2 3 1 4 3 5 4 6 5 7 6 8 7 9 8 10 9 12 10 13 11 14
REMARK SMILES IDX 16 15 12 16 15 17 13 18 14 19 17 20 20 21 18 22 19 23 23 24
REMARK SMILES IDX 24 25 25 26 26 27 27 28 28 29 29 30 30 31 31 32 92 33 32 34
REMARK SMILES IDX 91 35 33 36 34 37 35 38 85 39 36 40 90 41 84 42 86 43 37 44
REMARK SMILES IDX 89 45 83 46 82 47 38 49 70 50 50 51 69 52 51 53 54 54 68 55
REMARK SMILES IDX 87 56 52 57 53 58 67 60 88 61 55 62 39 63 40 64 48 65 41 66
REMARK SMILES IDX 42 67 46 68 49 69 43 70 44 71 47 72 45 73 71 74 72 75 80 76
REMARK SMILES IDX 73 77 74 78 78 79 81 80 75 81 76 82 79 83 77 84 56 85 57 86
REMARK SMILES IDX 65 87 58 88 59 89 63 90 66 91 60 92 61 93 64 94 62 95
REMARK H PARENT 7 11 86 48 54 59
REMARK Flexibility Score: inf
ROOT
ATOM      1  C   UNL     1       4.844  -0.178  -0.838  1.00  0.00     0.261 C 
ENDROOT
BRANCH   1   2
ATOM      2  O   UNL     1       3.457  -0.487  -1.024  1.00  0.00    -0.462 OA
BRANCH   2   3
ATOM      3  C   UNL     1       2.688  -0.795   0.046  1.00  0.00     0.332 C 
ATOM      4  O   UNL     1       1.463  -0.767  -0.043  1.00  0.00    -0.250 OA
BRANCH   3   5
ATOM      5  C   UNL     1       3.402  -1.255   1.314  1.00  0.00     0.282 C 
BRANCH   5   6
ATOM      6  O   UNL     1       3.761  -2.623   1.301  1.00  0.00    -0.368 OA
BRANCH   6   7
ATOM      7  C   UNL     1       2.639  -3.500   1.217  1.00  0.00     0.182 C 
BRANCH   7   8
ATOM      8  C   UNL     1       1.854  -3.545   2.532  1.00  0.00     0.144 C 
BRANCH   8   9
ATOM      9  N   UNL     1       0.891  -2.450   2.713  1.00  0.00    -0.350 N 
ATOM     10  C   UNL     1      -0.419  -2.333   2.322  1.00  0.00     0.251 C 
ATOM     11  H   UNL     1       1.246  -1.669   3.196  1.00  0.00     0.163 HD
ATOM     12  O   UNL     1      -1.002  -1.257   2.388  1.00  0.00    -0.269 OA
BRANCH  10  13
ATOM     13  C   UNL     1      -1.137  -3.536   1.874  1.00  0.00     0.045 A 
ATOM     14  C   UNL     1      -1.049  -4.694   2.649  1.00  0.00     0.038 A 
ATOM     15  C   UNL     1      -1.896  -3.516   0.704  1.00  0.00     0.064 A 
ATOM     16  C   UNL     1      -1.574  -5.885   2.172  1.00  0.00     0.087 A 
ATOM     17  C   UNL     1      -2.481  -4.703   0.262  1.00  0.00     0.163 A 
ATOM     18  Cl  UNL     1      -1.280  -7.321   3.081  1.00  0.00    -0.080 Cl
ATOM     19  C   UNL     1      -2.300  -5.896   0.981  1.00  0.00     0.179 A 
ATOM     20  O   UNL     1      -3.222  -4.624  -0.889  1.00  0.00    -0.486 OA
ATOM     21  O   UNL     1      -2.809  -7.096   0.552  1.00  0.00    -0.485 OA
ATOM     22  C   UNL     1      -3.541  -5.913  -1.424  1.00  0.00     0.271 C 
ATOM     23  C   UNL     1      -3.914  -6.894  -0.327  1.00  0.00     0.271 C 
ENDBRANCH  10  13
ENDBRANCH   8   9
ENDBRANCH   7   8
ENDBRANCH   6   7
ENDBRANCH   5   6
ENDBRANCH   3   5
ENDBRANCH   2   3
ENDBRANCH   1   2
BRANCH   1  24
ATOM     24  C   UNL     1       5.000   1.251  -0.315  1.00  0.00     0.202 C 
BRANCH  24  25
ATOM     25  O   UNL     1       4.485   1.526   0.989  1.00  0.00    -0.374 OA
BRANCH  25  26
ATOM     26  C   UNL     1       3.200   2.164   1.051  1.00  0.00     0.202 C 
BRANCH  26  27
ATOM     27  C   UNL     1       3.168   3.678   0.798  1.00  0.00     0.261 C 
BRANCH  27  28
ATOM     28  O   UNL     1       3.471   3.987  -0.571  1.00  0.00    -0.460 OA
BRANCH  28  29
ATOM     29  C   UNL     1       4.758   4.325  -0.813  1.00  0.00     0.338 C 
ATOM     30  O   UNL     1       5.643   4.526   0.004  1.00  0.00    -0.246 OA
BRANCH  29  31
ATOM     31  C   UNL     1       5.016   4.147  -2.254  1.00  0.00     0.060 A 
ATOM     32  C   UNL     1       6.115   3.359  -2.630  1.00  0.00     0.016 A 
ATOM     33  C   UNL     1       4.192   4.731  -3.216  1.00  0.00     0.016 A 
ATOM     34  C   UNL     1       6.417   3.175  -3.972  1.00  0.00     0.010 A 
ATOM     35  C   UNL     1       4.526   4.594  -4.561  1.00  0.00     0.010 A 
ATOM     36  C   UNL     1       5.663   3.855  -4.932  1.00  0.00    -0.014 A 
BRANCH  36  37
ATOM     37  C   UNL     1       6.239   4.052  -6.274  1.00  0.00     0.031 A 
ATOM     38  C   UNL     1       7.105   5.264  -6.474  1.00  0.00     0.074 A 
ATOM     39  C   UNL     1       6.016   3.178  -7.267  1.00  0.00     0.049 A 
ATOM     40  N   UNL     1       7.649   5.726  -7.568  1.00  0.00    -0.248 NA
ATOM     41  C   UNL     1       7.400   6.065  -5.271  1.00  0.00     0.031 C 
ATOM     42  C   UNL     1       5.261   1.934  -7.147  1.00  0.00     0.029 A 
ATOM     43  N   UNL     1       6.405   3.217  -8.579  1.00  0.00    -0.354 N 
ATOM     44  C   UNL     1       8.352   6.859  -7.182  1.00  0.00     0.074 A 
ATOM     45  C   UNL     1       8.141   7.042  -5.766  1.00  0.00     0.031 C 
ATOM     46  C   UNL     1       5.228   1.331  -8.349  1.00  0.00     0.029 A 
ATOM     47  C   UNL     1       5.927   2.168  -9.323  1.00  0.00     0.049 A 
ATOM     48  H   UNL     1       6.974   3.929  -8.953  1.00  0.00     0.167 HD
ATOM     49  C   UNL     1       9.119   7.667  -7.947  1.00  0.00     0.037 A 
ATOM     50  C   UNL     1       6.029   1.940 -10.646  1.00  0.00     0.037 A 
ATOM     51  C   UNL     1       9.299   7.488  -9.360  1.00  0.00     0.049 A 
ATOM     52  C   UNL     1       6.776   2.935 -11.499  1.00  0.00     0.074 A 
ATOM     53  C   UNL     1      10.019   8.269 -10.244  1.00  0.00     0.029 A 
ATOM     54  N   UNL     1       8.747   6.448 -10.095  1.00  0.00    -0.354 N 
ATOM     55  N   UNL     1       7.429   4.015 -11.139  1.00  0.00    -0.248 NA
ATOM     56  C   UNL     1       6.798   2.679 -12.945  1.00  0.00     0.031 C 
ATOM     57  C   UNL     1       9.867   7.726 -11.523  1.00  0.00     0.029 A 
ATOM     58  C   UNL     1       9.100   6.575 -11.426  1.00  0.00     0.049 A 
ATOM     59  H   UNL     1       8.188   5.727  -9.724  1.00  0.00     0.167 HD
ATOM     60  C   UNL     1       7.967   4.545 -12.305  1.00  0.00     0.074 A 
ATOM     61  C   UNL     1       7.578   3.657 -13.381  1.00  0.00     0.031 C 
ATOM     62  C   UNL     1       8.713   5.665 -12.474  1.00  0.00     0.037 A 
BRANCH  49  63
ATOM     63  C   UNL     1       9.812   8.814  -7.276  1.00  0.00     0.064 A 
ATOM     64  C   UNL     1      10.903   8.605  -6.420  1.00  0.00     0.173 A 
ATOM     65  C   UNL     1       9.425  10.136  -7.538  1.00  0.00     0.173 A 
ATOM     66  F   UNL     1      11.295   7.358  -6.117  1.00  0.00    -0.203 F 
ATOM     67  C   UNL     1      11.583   9.679  -5.851  1.00  0.00     0.198 A 
ATOM     68  C   UNL     1      10.125  11.208  -6.990  1.00  0.00     0.198 A 
ATOM     69  F   UNL     1       8.382  10.389  -8.343  1.00  0.00    -0.203 F 
ATOM     70  F   UNL     1      12.606   9.455  -5.015  1.00  0.00    -0.200 F 
ATOM     71  C   UNL     1      11.202  10.979  -6.148  1.00  0.00     0.200 A 
ATOM     72  F   UNL     1       9.762  12.464  -7.286  1.00  0.00    -0.200 F 
ATOM     73  F   UNL     1      11.873  12.011  -5.620  1.00  0.00    -0.200 F 
ENDBRANCH  49  63
BRANCH  50  74
ATOM     74  C   UNL     1       5.420   0.725 -11.248  1.00  0.00     0.064 A 
ATOM     75  C   UNL     1       6.227  -0.272 -11.814  1.00  0.00     0.173 A 
ATOM     76  C   UNL     1       4.030   0.543 -11.296  1.00  0.00     0.173 A 
ATOM     77  F   UNL     1       7.561  -0.132 -11.815  1.00  0.00    -0.203 F 
ATOM     78  C   UNL     1       5.667  -1.394 -12.421  1.00  0.00     0.198 A 
ATOM     79  C   UNL     1       3.472  -0.595 -11.876  1.00  0.00     0.198 A 
ATOM     80  F   UNL     1       3.211   1.468 -10.774  1.00  0.00    -0.203 F 
ATOM     81  F   UNL     1       6.462  -2.306 -12.998  1.00  0.00    -0.200 F 
ATOM     82  C   UNL     1       4.291  -1.558 -12.447  1.00  0.00     0.200 A 
ATOM     83  F   UNL     1       2.142  -0.756 -11.889  1.00  0.00    -0.200 F 
ATOM     84  F   UNL     1       3.754  -2.639 -13.029  1.00  0.00    -0.200 F 
ENDBRANCH  50  74
BRANCH  62  85
ATOM     85  C   UNL     1       9.191   5.975 -13.863  1.00  0.00     0.064 A 
ATOM     86  C   UNL     1       8.310   6.402 -14.867  1.00  0.00     0.173 A 
ATOM     87  C   UNL     1      10.559   5.905 -14.174  1.00  0.00     0.173 A 
ATOM     88  F   UNL     1       6.993   6.477 -14.622  1.00  0.00    -0.203 F 
ATOM     89  C   UNL     1       8.777   6.720 -16.139  1.00  0.00     0.198 A 
ATOM     90  C   UNL     1      11.025   6.259 -15.436  1.00  0.00     0.198 A 
ATOM     91  F   UNL     1      11.445   5.516 -13.245  1.00  0.00    -0.203 F 
ATOM     92  F   UNL     1       7.911   7.076 -17.098  1.00  0.00    -0.200 F 
ATOM     93  C   UNL     1      10.134   6.657 -16.420  1.00  0.00     0.200 A 
ATOM     94  F   UNL     1      12.339   6.219 -15.698  1.00  0.00    -0.200 F 
ATOM     95  F   UNL     1      10.582   6.977 -17.641  1.00  0.00    -0.200 F 
ENDBRANCH  62  85
ENDBRANCH  36  37
ENDBRANCH  29  31
ENDBRANCH  28  29
ENDBRANCH  27  28
ENDBRANCH  26  27
ENDBRANCH  25  26
ENDBRANCH  24  25
ENDBRANCH   1  24
TORSDOF 19
