REMARK SMILES CC[C@@H](Oc1ccccc1/C=C1/SC(Nc2cccc(C)c2)=[NH+]C1=O)C(=O)OCCOCCOC(=O)c1ccc(-c2c3nc(c(-c4c(F)c(F)c(F)c(F)c4F)c4ccc([nH]4)c(-c4c(F)c(F)c(F)c(F)c4F)c4nc(c(-c5c(F)c(F)c(F)c(F)c5F)c5ccc2[nH]5)C=C4)C=C3)cc1
REMARK SMILES IDX 30 1 29 2 28 3 26 4 27 5 3 6 2 7 1 8 4 9 5 10 6 11 10 12
REMARK SMILES IDX 7 13 9 14 8 15 11 16 12 17 13 18 24 19 14 20 23 21 25 22
REMARK SMILES IDX 15 23 16 26 17 27 22 28 18 29 20 30 19 31 21 32 31 33 32 34
REMARK SMILES IDX 33 35 34 36 35 37 36 38 37 39 38 40 99 41 39 42 98 43 40 44
REMARK SMILES IDX 41 45 42 46 92 47 43 48 97 49 91 50 93 51 44 52 96 53 90 54
REMARK SMILES IDX 89 55 45 57 77 58 57 59 76 60 58 61 61 62 75 63 94 64 59 65
REMARK SMILES IDX 60 66 74 68 95 69 62 70 46 71 47 72 55 73 48 74 49 75 53 76
REMARK SMILES IDX 56 77 50 78 51 79 54 80 52 81 78 82 79 83 87 84 80 85 81 86
REMARK SMILES IDX 85 87 88 88 82 89 83 90 86 91 84 92 63 93 64 94 72 95 65 96
REMARK SMILES IDX 66 97 70 98 73 99 67 100 68 101 71 102 69 103
REMARK H PARENT 23 24 15 25 93 56 61 67
REMARK Flexibility Score: inf
ROOT
ATOM      1  C   UNL     1      -0.893  -5.575  -1.349  1.00  0.00     0.202 C 
ENDROOT
BRANCH   1   2
ATOM      2  C   UNL     1      -0.640  -5.291   0.140  1.00  0.00     0.261 C 
BRANCH   2   3
ATOM      3  O   UNL     1      -0.208  -3.930   0.360  1.00  0.00    -0.461 OA
BRANCH   3   4
ATOM      4  C   UNL     1       0.990  -3.754   0.993  1.00  0.00     0.347 C 
ATOM      5  O   UNL     1       1.709  -4.663   1.394  1.00  0.00    -0.248 OA
BRANCH   4   6
ATOM      6  C   UNL     1       1.394  -2.270   1.082  1.00  0.00     0.282 C 
BRANCH   6   7
ATOM      7  C   UNL     1       1.663  -1.764  -0.344  1.00  0.00     0.054 C 
ATOM      8  C   UNL     1       2.519  -0.509  -0.429  1.00  0.00     0.008 C 
ENDBRANCH   6   7
BRANCH   6   9
ATOM      9  O   UNL     1       0.329  -1.516   1.663  1.00  0.00    -0.478 OA
BRANCH   9  10
ATOM     10  C   UNL     1       0.709  -0.531   2.543  1.00  0.00     0.127 A 
ATOM     11  C   UNL     1       1.158  -0.882   3.815  1.00  0.00     0.047 A 
ATOM     12  C   UNL     1       0.480   0.826   2.216  1.00  0.00     0.018 A 
ATOM     13  C   UNL     1       1.429   0.118   4.750  1.00  0.00     0.004 A 
ATOM     14  C   UNL     1       0.775   1.817   3.155  1.00  0.00     0.012 A 
ATOM     15  C   UNL     1       1.244   1.462   4.420  1.00  0.00     0.001 A 
BRANCH  12  16
ATOM     16  C   UNL     1      -0.023   1.242   0.898  1.00  0.00     0.036 C 
ATOM     17  C   UNL     1      -1.129   0.729   0.354  1.00  0.00     0.110 C 
ATOM     18  S   UNL     1      -1.549   0.840  -1.316  1.00  0.00     0.006 SA
ATOM     19  C   UNL     1      -2.090  -0.179   1.049  1.00  0.00     0.346 C 
ATOM     20  C   UNL     1      -2.603  -0.534  -1.084  1.00  0.00     0.322 C 
ATOM     21  N   UNL     1      -2.735  -0.954   0.130  1.00  0.00    -0.199 N 
ATOM     22  O   UNL     1      -2.333  -0.169   2.237  1.00  0.00    -0.240 OA
ATOM     23  N   UNL     1      -3.287  -1.035  -2.162  1.00  0.00    -0.235 N 
ATOM     24  H   UNL     1      -3.252  -1.756   0.370  1.00  0.00     0.316 HD
ATOM     25  H   UNL     1      -3.005  -0.881  -3.093  1.00  0.00     0.313 HD
BRANCH  23  26
ATOM     26  C   UNL     1      -4.431  -1.789  -1.821  1.00  0.00     0.125 A 
ATOM     27  C   UNL     1      -4.261  -3.051  -1.232  1.00  0.00     0.052 A 
ATOM     28  C   UNL     1      -5.658  -1.130  -1.695  1.00  0.00     0.055 A 
ATOM     29  C   UNL     1      -5.278  -3.625  -0.485  1.00  0.00     0.005 A 
ATOM     30  C   UNL     1      -6.668  -1.680  -0.902  1.00  0.00    -0.047 A 
ATOM     31  C   UNL     1      -6.470  -2.929  -0.306  1.00  0.00     0.004 A 
ATOM     32  C   UNL     1      -7.924  -0.908  -0.640  1.00  0.00     0.044 C 
ENDBRANCH  23  26
ENDBRANCH  12  16
ENDBRANCH   9  10
ENDBRANCH   6   9
ENDBRANCH   4   6
ENDBRANCH   3   4
ENDBRANCH   2   3
ENDBRANCH   1   2
BRANCH   1  33
ATOM     33  O   UNL     1       0.288  -5.546  -2.155  1.00  0.00    -0.374 OA
BRANCH  33  34
ATOM     34  C   UNL     1       0.654  -4.242  -2.604  1.00  0.00     0.202 C 
BRANCH  34  35
ATOM     35  C   UNL     1       0.155  -3.890  -4.006  1.00  0.00     0.261 C 
BRANCH  35  36
ATOM     36  O   UNL     1      -1.282  -3.892  -4.057  1.00  0.00    -0.460 OA
BRANCH  36  37
ATOM     37  C   UNL     1      -1.840  -5.001  -4.604  1.00  0.00     0.338 C 
ATOM     38  O   UNL     1      -1.264  -5.927  -5.148  1.00  0.00    -0.246 OA
BRANCH  37  39
ATOM     39  C   UNL     1      -3.294  -4.997  -4.337  1.00  0.00     0.060 A 
ATOM     40  C   UNL     1      -3.911  -6.185  -3.925  1.00  0.00     0.016 A 
ATOM     41  C   UNL     1      -4.052  -3.839  -4.484  1.00  0.00     0.016 A 
ATOM     42  C   UNL     1      -5.290  -6.220  -3.664  1.00  0.00     0.010 A 
ATOM     43  C   UNL     1      -5.417  -3.871  -4.181  1.00  0.00     0.010 A 
ATOM     44  C   UNL     1      -6.066  -5.063  -3.789  1.00  0.00    -0.014 A 
BRANCH  44  45
ATOM     45  C   UNL     1      -7.557  -5.050  -3.628  1.00  0.00     0.031 A 
ATOM     46  C   UNL     1      -8.401  -4.566  -4.784  1.00  0.00     0.074 A 
ATOM     47  C   UNL     1      -8.183  -5.360  -2.472  1.00  0.00     0.049 A 
ATOM     48  N   UNL     1      -9.684  -4.303  -4.830  1.00  0.00    -0.248 NA
ATOM     49  C   UNL     1      -7.700  -4.337  -6.059  1.00  0.00     0.031 C 
ATOM     50  C   UNL     1      -7.559  -5.884  -1.260  1.00  0.00     0.029 A 
ATOM     51  N   UNL     1      -9.503  -5.189  -2.106  1.00  0.00    -0.354 N 
ATOM     52  C   UNL     1      -9.937  -3.919  -6.139  1.00  0.00     0.074 A 
ATOM     53  C   UNL     1      -8.659  -3.824  -6.809  1.00  0.00     0.031 C 
ATOM     54  C   UNL     1      -8.450  -5.853  -0.252  1.00  0.00     0.029 A 
ATOM     55  C   UNL     1      -9.720  -5.338  -0.755  1.00  0.00     0.049 A 
ATOM     56  H   UNL     1     -10.219  -4.981  -2.748  1.00  0.00     0.167 HD
ATOM     57  C   UNL     1     -11.126  -3.760  -6.768  1.00  0.00     0.037 A 
ATOM     58  C   UNL     1     -10.805  -5.067  -0.002  1.00  0.00     0.037 A 
ATOM     59  C   UNL     1     -12.406  -3.883  -6.131  1.00  0.00     0.049 A 
ATOM     60  C   UNL     1     -12.107  -4.710  -0.669  1.00  0.00     0.074 A 
ATOM     61  C   UNL     1     -13.665  -3.852  -6.706  1.00  0.00     0.029 A 
ATOM     62  N   UNL     1     -12.592  -4.047  -4.769  1.00  0.00    -0.354 N 
ATOM     63  N   UNL     1     -12.357  -4.500  -1.936  1.00  0.00    -0.248 NA
ATOM     64  C   UNL     1     -13.297  -4.636   0.194  1.00  0.00     0.031 C 
ATOM     65  C   UNL     1     -14.615  -3.949  -5.684  1.00  0.00     0.029 A 
ATOM     66  C   UNL     1     -13.946  -4.089  -4.479  1.00  0.00     0.049 A 
ATOM     67  H   UNL     1     -11.869  -4.123  -4.105  1.00  0.00     0.167 HD
ATOM     68  C   UNL     1     -13.737  -4.377  -2.036  1.00  0.00     0.074 A 
ATOM     69  C   UNL     1     -14.268  -4.483  -0.695  1.00  0.00     0.031 C 
ATOM     70  C   UNL     1     -14.490  -4.236  -3.154  1.00  0.00     0.037 A 
BRANCH  57  71
ATOM     71  C   UNL     1     -11.080  -3.514  -8.247  1.00  0.00     0.064 A 
ATOM     72  C   UNL     1     -10.623  -4.508  -9.129  1.00  0.00     0.173 A 
ATOM     73  C   UNL     1     -11.494  -2.292  -8.791  1.00  0.00     0.173 A 
ATOM     74  F   UNL     1     -10.208  -5.693  -8.656  1.00  0.00    -0.203 F 
ATOM     75  C   UNL     1     -10.533  -4.268 -10.496  1.00  0.00     0.198 A 
ATOM     76  C   UNL     1     -11.437  -2.068 -10.165  1.00  0.00     0.198 A 
ATOM     77  F   UNL     1     -11.947  -1.313  -7.994  1.00  0.00    -0.203 F 
ATOM     78  F   UNL     1     -10.024  -5.205 -11.306  1.00  0.00    -0.200 F 
ATOM     79  C   UNL     1     -10.945  -3.050 -11.013  1.00  0.00     0.200 A 
ATOM     80  F   UNL     1     -11.848  -0.896 -10.668  1.00  0.00    -0.200 F 
ATOM     81  F   UNL     1     -10.856  -2.818 -12.329  1.00  0.00    -0.200 F 
ENDBRANCH  57  71
BRANCH  58  82
ATOM     82  C   UNL     1     -10.741  -5.160   1.480  1.00  0.00     0.064 A 
ATOM     83  C   UNL     1     -11.305  -6.244   2.165  1.00  0.00     0.173 A 
ATOM     84  C   UNL     1     -10.195  -4.116   2.242  1.00  0.00     0.173 A 
ATOM     85  F   UNL     1     -11.871  -7.245   1.476  1.00  0.00    -0.203 F 
ATOM     86  C   UNL     1     -11.355  -6.267   3.557  1.00  0.00     0.198 A 
ATOM     87  C   UNL     1     -10.231  -4.148   3.635  1.00  0.00     0.198 A 
ATOM     88  F   UNL     1      -9.658  -3.050   1.632  1.00  0.00    -0.203 F 
ATOM     89  F   UNL     1     -11.957  -7.286   4.186  1.00  0.00    -0.200 F 
ATOM     90  C   UNL     1     -10.820  -5.219   4.292  1.00  0.00     0.200 A 
ATOM     91  F   UNL     1      -9.722  -3.130   4.342  1.00  0.00    -0.200 F 
ATOM     92  F   UNL     1     -10.893  -5.231   5.630  1.00  0.00    -0.200 F 
ENDBRANCH  58  82
BRANCH  70  93
ATOM     93  C   UNL     1     -15.982  -4.302  -3.011  1.00  0.00     0.064 A 
ATOM     94  C   UNL     1     -16.726  -3.272  -2.419  1.00  0.00     0.173 A 
ATOM     95  C   UNL     1     -16.684  -5.403  -3.530  1.00  0.00     0.173 A 
ATOM     96  F   UNL     1     -16.103  -2.208  -1.892  1.00  0.00    -0.203 F 
ATOM     97  C   UNL     1     -18.114  -3.350  -2.335  1.00  0.00     0.198 A 
ATOM     98  C   UNL     1     -18.074  -5.462  -3.474  1.00  0.00     0.198 A 
ATOM     99  F   UNL     1     -16.022  -6.416  -4.110  1.00  0.00    -0.203 F 
ATOM    100  F   UNL     1     -18.802  -2.374  -1.727  1.00  0.00    -0.200 F 
ATOM    101  C   UNL     1     -18.787  -4.438  -2.872  1.00  0.00     0.200 A 
ATOM    102  F   UNL     1     -18.721  -6.507  -4.008  1.00  0.00    -0.200 F 
ATOM    103  F   UNL     1     -20.124  -4.502  -2.804  1.00  0.00    -0.200 F 
ENDBRANCH  70  93
ENDBRANCH  44  45
ENDBRANCH  37  39
ENDBRANCH  36  37
ENDBRANCH  35  36
ENDBRANCH  34  35
ENDBRANCH  33  34
ENDBRANCH   1  33
TORSDOF 19
