REMARK SMILES C[C@@H]1CN(C(=O)Nc2ccc(O)c(C(=O)OCCOCCOC(=O)c3ccc(-c4c5nc(c(-c6c(F)c(F)c(F)c(F)c6F)c6ccc([nH]6)c(-c6c(F)c(F)c(F)c(F)c6F)c6nc(c(-c7c(F)c(F)c(F)c(F)c7F)c7ccc4[nH]7)C=C6)C=C5)cc3)c2)C[C@@H]1C
REMARK SMILES IDX 19 1 18 2 17 3 16 4 14 5 15 6 13 7 8 8 9 9 88 10 10 11 11 12
REMARK SMILES IDX 7 13 5 14 6 15 4 17 1 18 2 19 3 20 90 21 89 22 91 23 12 24
REMARK SMILES IDX 20 26 21 27 22 28 23 29 24 30 25 31 26 32 87 33 27 34 86 35
REMARK SMILES IDX 28 36 29 37 30 38 80 39 31 40 85 41 79 42 81 43 32 44 84 45
REMARK SMILES IDX 78 46 77 47 33 49 65 50 45 51 64 52 46 53 49 54 63 55 82 56
REMARK SMILES IDX 47 57 48 58 62 60 83 61 50 62 34 63 35 64 43 65 36 66 37 67
REMARK SMILES IDX 41 68 44 69 38 70 39 71 42 72 40 73 66 74 67 75 75 76 68 77
REMARK SMILES IDX 69 78 73 79 76 80 70 81 71 82 74 83 72 84 51 85 52 86 60 87
REMARK SMILES IDX 53 88 54 89 58 90 61 91 55 92 56 93 59 94 57 95
REMARK H PARENT 7 16 12 25 81 48 49 59
REMARK Flexibility Score: inf
ROOT
ATOM      1  O   UNL     1       4.623   7.656   3.341  1.00  0.00    -0.374 OA
ENDROOT
BRANCH   1   2
ATOM      2  C   UNL     1       5.143   6.591   4.143  1.00  0.00     0.202 C 
BRANCH   2   3
ATOM      3  C   UNL     1       4.229   5.374   4.295  1.00  0.00     0.261 C 
BRANCH   3   4
ATOM      4  O   UNL     1       4.185   4.668   3.047  1.00  0.00    -0.460 OA
BRANCH   4   5
ATOM      5  C   UNL     1       2.954   4.367   2.580  1.00  0.00     0.342 C 
ATOM      6  O   UNL     1       1.903   4.436   3.199  1.00  0.00    -0.246 OA
BRANCH   5   7
ATOM      7  C   UNL     1       3.010   4.166   1.114  1.00  0.00     0.103 A 
ATOM      8  C   UNL     1       1.861   4.456  -0.990  1.00  0.00     0.044 A 
ATOM      9  C   UNL     1       2.928   3.862  -1.664  1.00  0.00     0.030 A 
ATOM     10  C   UNL     1       1.933   4.685   0.381  1.00  0.00     0.045 A 
ATOM     11  C   UNL     1       4.021   3.375  -0.944  1.00  0.00     0.049 A 
ATOM     12  C   UNL     1       4.043   3.492   0.448  1.00  0.00     0.130 A 
BRANCH   8  13
ATOM     13  N   UNL     1       0.676   4.761  -1.654  1.00  0.00    -0.308 N 
ATOM     14  C   UNL     1      -0.271   3.931  -2.179  1.00  0.00     0.321 C 
ATOM     15  O   UNL     1      -1.210   4.468  -2.775  1.00  0.00    -0.248 OA
ATOM     16  H   UNL     1       0.494   5.723  -1.762  1.00  0.00     0.171 HD
BRANCH  14  17
ATOM     17  N   UNL     1      -0.249   2.579  -1.953  1.00  0.00    -0.324 N 
ATOM     18  C   UNL     1       0.624  -0.430   0.018  1.00  0.00     0.010 C 
ATOM     19  C   UNL     1       0.147   0.350  -1.197  1.00  0.00     0.010 C 
ATOM     20  C   UNL     1       0.707   1.769  -1.211  1.00  0.00     0.125 C 
ATOM     21  C   UNL     1      -1.365   0.573  -1.342  1.00  0.00     0.010 C 
ATOM     22  C   UNL     1      -1.408   1.768  -2.308  1.00  0.00     0.125 C 
ATOM     23  C   UNL     1      -2.087   0.895  -0.033  1.00  0.00     0.010 C 
ENDBRANCH  14  17
ENDBRANCH   8  13
BRANCH  12  24
ATOM     24  O   UNL     1       5.058   2.905   1.147  1.00  0.00    -0.507 OA
ATOM     25  H   UNL     1       5.743   2.458   0.691  1.00  0.00     0.293 HD
ENDBRANCH  12  24
ENDBRANCH   5   7
ENDBRANCH   4   5
ENDBRANCH   3   4
ENDBRANCH   2   3
ENDBRANCH   1   2
BRANCH   1  26
ATOM     26  C   UNL     1       4.628   7.472   1.925  1.00  0.00     0.202 C 
BRANCH  26  27
ATOM     27  C   UNL     1       5.953   7.758   1.209  1.00  0.00     0.261 C 
BRANCH  27  28
ATOM     28  O   UNL     1       7.003   6.865   1.619  1.00  0.00    -0.460 OA
BRANCH  28  29
ATOM     29  C   UNL     1       7.948   7.431   2.405  1.00  0.00     0.338 C 
ATOM     30  O   UNL     1       8.044   8.607   2.724  1.00  0.00    -0.246 OA
BRANCH  29  31
ATOM     31  C   UNL     1       8.810   6.389   2.991  1.00  0.00     0.060 A 
ATOM     32  C   UNL     1       8.973   6.396   4.382  1.00  0.00     0.016 A 
ATOM     33  C   UNL     1       9.508   5.475   2.199  1.00  0.00     0.016 A 
ATOM     34  C   UNL     1       9.870   5.516   4.984  1.00  0.00     0.010 A 
ATOM     35  C   UNL     1      10.414   4.597   2.805  1.00  0.00     0.010 A 
ATOM     36  C   UNL     1      10.623   4.636   4.196  1.00  0.00    -0.014 A 
BRANCH  36  37
ATOM     37  C   UNL     1      11.710   3.847   4.824  1.00  0.00     0.031 A 
ATOM     38  C   UNL     1      13.130   4.326   4.703  1.00  0.00     0.074 A 
ATOM     39  C   UNL     1      11.431   2.734   5.524  1.00  0.00     0.049 A 
ATOM     40  N   UNL     1      14.230   3.791   5.170  1.00  0.00    -0.248 NA
ATOM     41  C   UNL     1      13.340   5.574   3.953  1.00  0.00     0.031 C 
ATOM     42  C   UNL     1      10.094   2.183   5.733  1.00  0.00     0.029 A 
ATOM     43  N   UNL     1      12.262   1.865   6.186  1.00  0.00    -0.354 N 
ATOM     44  C   UNL     1      15.260   4.631   4.767  1.00  0.00     0.074 A 
ATOM     45  C   UNL     1      14.659   5.696   3.993  1.00  0.00     0.031 C 
ATOM     46  C   UNL     1      10.195   1.060   6.463  1.00  0.00     0.029 A 
ATOM     47  C   UNL     1      11.604   0.801   6.752  1.00  0.00     0.049 A 
ATOM     48  H   UNL     1      13.236   1.992   6.249  1.00  0.00     0.167 HD
ATOM     49  C   UNL     1      16.585   4.528   5.027  1.00  0.00     0.037 A 
ATOM     50  C   UNL     1      12.089  -0.270   7.411  1.00  0.00     0.037 A 
ATOM     51  C   UNL     1      17.180   3.474   5.807  1.00  0.00     0.049 A 
ATOM     52  C   UNL     1      13.572  -0.383   7.648  1.00  0.00     0.074 A 
ATOM     53  C   UNL     1      18.508   3.308   6.162  1.00  0.00     0.029 A 
ATOM     54  N   UNL     1      16.486   2.402   6.346  1.00  0.00    -0.354 N 
ATOM     55  N   UNL     1      14.533   0.439   7.302  1.00  0.00    -0.248 NA
ATOM     56  C   UNL     1      14.038  -1.573   8.376  1.00  0.00     0.031 C 
ATOM     57  C   UNL     1      18.625   2.108   6.871  1.00  0.00     0.029 A 
ATOM     58  C   UNL     1      17.362   1.553   7.004  1.00  0.00     0.049 A 
ATOM     59  H   UNL     1      15.514   2.264   6.273  1.00  0.00     0.167 HD
ATOM     60  C   UNL     1      15.709  -0.119   7.787  1.00  0.00     0.074 A 
ATOM     61  C   UNL     1      15.340  -1.342   8.469  1.00  0.00     0.031 C 
ATOM     62  C   UNL     1      16.980   0.339   7.678  1.00  0.00     0.037 A 
BRANCH  49  63
ATOM     63  C   UNL     1      17.492   5.572   4.446  1.00  0.00     0.064 A 
ATOM     64  C   UNL     1      17.523   6.883   4.943  1.00  0.00     0.173 A 
ATOM     65  C   UNL     1      18.377   5.242   3.409  1.00  0.00     0.173 A 
ATOM     66  F   UNL     1      16.688   7.253   5.926  1.00  0.00    -0.203 F 
ATOM     67  C   UNL     1      18.393   7.831   4.409  1.00  0.00     0.198 A 
ATOM     68  C   UNL     1      19.264   6.184   2.896  1.00  0.00     0.198 A 
ATOM     69  F   UNL     1      18.390   4.000   2.900  1.00  0.00    -0.203 F 
ATOM     70  F   UNL     1      18.380   9.088   4.873  1.00  0.00    -0.200 F 
ATOM     71  C   UNL     1      19.268   7.478   3.392  1.00  0.00     0.200 A 
ATOM     72  F   UNL     1      20.117   5.838   1.921  1.00  0.00    -0.200 F 
ATOM     73  F   UNL     1      20.112   8.388   2.887  1.00  0.00    -0.200 F 
ENDBRANCH  49  63
BRANCH  50  74
ATOM     74  C   UNL     1      11.162  -1.331   7.882  1.00  0.00     0.064 A 
ATOM     75  C   UNL     1      10.934  -1.543   9.249  1.00  0.00     0.173 A 
ATOM     76  C   UNL     1      10.505  -2.172   6.973  1.00  0.00     0.173 A 
ATOM     77  F   UNL     1      11.561  -0.782  10.158  1.00  0.00    -0.203 F 
ATOM     78  C   UNL     1      10.098  -2.568   9.688  1.00  0.00     0.198 A 
ATOM     79  C   UNL     1       9.647  -3.178   7.412  1.00  0.00     0.198 A 
ATOM     80  F   UNL     1      10.691  -2.013   5.654  1.00  0.00    -0.203 F 
ATOM     81  F   UNL     1       9.937  -2.781  11.001  1.00  0.00    -0.200 F 
ATOM     82  C   UNL     1       9.451  -3.381   8.769  1.00  0.00     0.200 A 
ATOM     83  F   UNL     1       9.016  -3.954   6.520  1.00  0.00    -0.200 F 
ATOM     84  F   UNL     1       8.648  -4.367   9.192  1.00  0.00    -0.200 F 
ENDBRANCH  50  74
BRANCH  62  85
ATOM     85  C   UNL     1      18.063  -0.473   8.329  1.00  0.00     0.064 A 
ATOM     86  C   UNL     1      18.470  -1.709   7.808  1.00  0.00     0.173 A 
ATOM     87  C   UNL     1      18.724   0.008   9.471  1.00  0.00     0.173 A 
ATOM     88  F   UNL     1      17.861  -2.220   6.727  1.00  0.00    -0.203 F 
ATOM     89  C   UNL     1      19.479  -2.448   8.421  1.00  0.00     0.198 A 
ATOM     90  C   UNL     1      19.752  -0.719  10.063  1.00  0.00     0.198 A 
ATOM     91  F   UNL     1      18.378   1.189  10.005  1.00  0.00    -0.203 F 
ATOM     92  F   UNL     1      19.817  -3.650   7.934  1.00  0.00    -0.200 F 
ATOM     93  C   UNL     1      20.123  -1.949   9.543  1.00  0.00     0.200 A 
ATOM     94  F   UNL     1      20.383  -0.229  11.140  1.00  0.00    -0.200 F 
ATOM     95  F   UNL     1      21.097  -2.659  10.129  1.00  0.00    -0.200 F 
ENDBRANCH  62  85
ENDBRANCH  36  37
ENDBRANCH  29  31
ENDBRANCH  28  29
ENDBRANCH  27  28
ENDBRANCH  26  27
ENDBRANCH   1  26
TORSDOF 17
