REMARK SMILES Cc1ccc(C(=O)N2C[C@@H](C(=O)OCCOCCOC(=O)c3ccc(-c4c5nc(c(-c6c(F)c(F)c(F)c(F)c6F)c6ccc([nH]6)c(-c6c(F)c(F)c(F)c(F)c6F)c6nc(c(-c7c(F)c(F)c(F)c(F)c7F)c7ccc4[nH]7)C=C6)C=C5)cc3)C[C@H](C(=O)N3CCOCC3)C2)cc1F
REMARK SMILES IDX 16 1 15 2 14 3 13 4 11 5 12 6 10 7 8 8 9 9 95 10 86 11 85 12
REMARK SMILES IDX 6 13 7 14 5 15 1 16 2 17 3 18 97 19 4 20 96 21 98 22 87 23
REMARK SMILES IDX 88 24 89 25 90 26 94 27 91 28 93 29 92 30 17 31 18 32 19 33
REMARK SMILES IDX 20 34 21 35 22 36 23 37 84 38 24 39 83 40 25 41 26 42 27 43
REMARK SMILES IDX 77 44 28 45 82 46 76 47 78 48 29 49 81 50 75 51 74 52 30 54
REMARK SMILES IDX 62 55 42 56 61 57 43 58 46 59 60 60 79 61 44 62 45 63 59 65
REMARK SMILES IDX 80 66 47 67 31 68 32 69 40 70 33 71 34 72 38 73 41 74 35 75
REMARK SMILES IDX 36 76 39 77 37 78 63 79 64 80 72 81 65 82 66 83 70 84 73 85
REMARK SMILES IDX 67 86 68 87 71 88 69 89 48 90 49 91 57 92 50 93 51 94 55 95
REMARK SMILES IDX 58 96 52 97 53 98 56 99 54 100
REMARK H PARENT 78 53 46 64
REMARK Flexibility Score: inf
ROOT
ATOM      1  O   UNL     1      -9.240  -3.956   2.962  1.00  0.00    -0.374 OA
ENDROOT
BRANCH   1   2
ATOM      2  C   UNL     1      -9.534  -2.873   3.826  1.00  0.00     0.202 C 
BRANCH   2   3
ATOM      3  C   UNL     1      -8.577  -1.669   3.929  1.00  0.00     0.261 C 
BRANCH   3   4
ATOM      4  O   UNL     1      -7.902  -1.297   2.718  1.00  0.00    -0.463 OA
BRANCH   4   5
ATOM      5  C   UNL     1      -6.761  -1.996   2.517  1.00  0.00     0.310 C 
ATOM      6  O   UNL     1      -6.318  -2.839   3.289  1.00  0.00    -0.252 OA
BRANCH   5   7
ATOM      7  C   UNL     1      -6.042  -1.647   1.245  1.00  0.00     0.119 C 
ATOM      8  N   UNL     1      -4.074  -0.564   0.448  1.00  0.00    -0.337 N 
ATOM      9  C   UNL     1      -5.053  -0.549   1.517  1.00  0.00     0.135 C 
ATOM     10  C   UNL     1      -4.563  -0.369  -0.921  1.00  0.00     0.133 C 
ATOM     11  C   UNL     1      -5.843  -1.189  -1.248  1.00  0.00     0.099 C 
ATOM     12  C   UNL     1      -6.802  -1.347  -0.050  1.00  0.00     0.032 C 
BRANCH   8  13
ATOM     13  C   UNL     1      -2.829  -1.103   0.734  1.00  0.00     0.254 C 
ATOM     14  O   UNL     1      -2.669  -2.028   1.524  1.00  0.00    -0.269 OA
BRANCH  13  15
ATOM     15  C   UNL     1      -1.643  -0.381   0.225  1.00  0.00     0.042 A 
ATOM     16  C   UNL     1       1.984   1.852  -0.260  1.00  0.00     0.047 C 
ATOM     17  C   UNL     1       0.705   1.078  -0.177  1.00  0.00    -0.015 A 
ATOM     18  C   UNL     1      -0.527   1.737  -0.134  1.00  0.00     0.007 A 
ATOM     19  C   UNL     1       0.736  -0.317  -0.066  1.00  0.00     0.126 A 
ATOM     20  C   UNL     1      -1.698   1.011   0.069  1.00  0.00     0.014 A 
ATOM     21  C   UNL     1      -0.424  -1.053   0.140  1.00  0.00     0.053 A 
ATOM     22  F   UNL     1       1.912  -0.960  -0.103  1.00  0.00    -0.207 F 
ENDBRANCH  13  15
ENDBRANCH   8  13
BRANCH  11  23
ATOM     23  C   UNL     1      -5.448  -2.426  -2.082  1.00  0.00     0.227 C 
ATOM     24  O   UNL     1      -5.365  -2.291  -3.309  1.00  0.00    -0.275 OA
ATOM     25  N   UNL     1      -4.939  -3.549  -1.472  1.00  0.00    -0.338 N 
ATOM     26  C   UNL     1      -5.659  -4.439  -0.556  1.00  0.00     0.148 C 
ATOM     27  C   UNL     1      -3.789  -4.218  -2.082  1.00  0.00     0.148 C 
ATOM     28  C   UNL     1      -4.702  -5.008   0.505  1.00  0.00     0.181 C 
ATOM     29  C   UNL     1      -2.874  -4.751  -0.975  1.00  0.00     0.181 C 
ATOM     30  O   UNL     1      -3.588  -5.667  -0.125  1.00  0.00    -0.378 OA
ENDBRANCH  11  23
ENDBRANCH   5   7
ENDBRANCH   4   5
ENDBRANCH   3   4
ENDBRANCH   2   3
ENDBRANCH   1   2
BRANCH   1  31
ATOM     31  C   UNL     1      -9.187  -3.796   1.551  1.00  0.00     0.202 C 
BRANCH  31  32
ATOM     32  C   UNL     1     -10.183  -2.906   0.817  1.00  0.00     0.261 C 
BRANCH  32  33
ATOM     33  O   UNL     1      -9.951  -1.508   1.015  1.00  0.00    -0.460 OA
BRANCH  33  34
ATOM     34  C   UNL     1     -10.880  -0.885   1.775  1.00  0.00     0.338 C 
ATOM     35  O   UNL     1     -11.761  -1.412   2.428  1.00  0.00    -0.246 OA
BRANCH  34  36
ATOM     36  C   UNL     1     -10.889   0.569   1.546  1.00  0.00     0.060 A 
ATOM     37  C   UNL     1     -11.959   1.206   2.192  1.00  0.00     0.016 A 
ATOM     38  C   UNL     1     -10.383   1.021   0.327  1.00  0.00     0.016 A 
ATOM     39  C   UNL     1     -12.782   2.005   1.434  1.00  0.00     0.010 A 
ATOM     40  C   UNL     1     -11.195   1.837  -0.421  1.00  0.00     0.010 A 
ATOM     41  C   UNL     1     -12.437   2.216   0.101  1.00  0.00    -0.014 A 
BRANCH  41  42
ATOM     42  C   UNL     1     -13.334   2.884  -0.808  1.00  0.00     0.031 A 
ATOM     43  C   UNL     1     -13.503   4.330  -0.626  1.00  0.00     0.074 A 
ATOM     44  C   UNL     1     -14.019   2.195  -1.745  1.00  0.00     0.049 A 
ATOM     45  N   UNL     1     -14.605   4.954  -0.850  1.00  0.00    -0.248 NA
ATOM     46  C   UNL     1     -12.454   5.176  -0.061  1.00  0.00     0.031 C 
ATOM     47  C   UNL     1     -14.705   2.767  -2.893  1.00  0.00     0.029 A 
ATOM     48  N   UNL     1     -14.333   0.827  -1.791  1.00  0.00    -0.354 N 
ATOM     49  C   UNL     1     -14.329   6.296  -0.755  1.00  0.00     0.074 A 
ATOM     50  C   UNL     1     -13.024   6.382  -0.141  1.00  0.00     0.031 C 
ATOM     51  C   UNL     1     -15.523   1.847  -3.424  1.00  0.00     0.029 A 
ATOM     52  C   UNL     1     -15.525   0.698  -2.540  1.00  0.00     0.049 A 
ATOM     53  H   UNL     1     -13.819   0.095  -1.378  1.00  0.00     0.167 HD
ATOM     54  C   UNL     1     -15.155   7.181  -1.376  1.00  0.00     0.037 A 
ATOM     55  C   UNL     1     -16.660   0.120  -2.042  1.00  0.00     0.037 A 
ATOM     56  C   UNL     1     -16.219   6.479  -2.082  1.00  0.00     0.049 A 
ATOM     57  C   UNL     1     -17.835   1.044  -1.974  1.00  0.00     0.074 A 
ATOM     58  C   UNL     1     -16.281   6.007  -3.384  1.00  0.00     0.029 A 
ATOM     59  N   UNL     1     -17.230   5.839  -1.378  1.00  0.00    -0.354 N 
ATOM     60  N   UNL     1     -17.716   2.339  -1.952  1.00  0.00    -0.248 NA
ATOM     61  C   UNL     1     -19.219   0.596  -1.888  1.00  0.00     0.031 C 
ATOM     62  C   UNL     1     -17.346   5.084  -3.466  1.00  0.00     0.029 A 
ATOM     63  C   UNL     1     -17.942   5.004  -2.219  1.00  0.00     0.049 A 
ATOM     64  H   UNL     1     -17.413   5.963  -0.419  1.00  0.00     0.167 HD
ATOM     65  C   UNL     1     -18.957   2.903  -1.840  1.00  0.00     0.074 A 
ATOM     66  C   UNL     1     -19.866   1.772  -1.829  1.00  0.00     0.031 C 
ATOM     67  C   UNL     1     -19.102   4.258  -1.753  1.00  0.00     0.037 A 
BRANCH  54  68
ATOM     68  C   UNL     1     -14.781   8.613  -1.648  1.00  0.00     0.064 A 
ATOM     69  C   UNL     1     -15.168   9.240  -2.852  1.00  0.00     0.173 A 
ATOM     70  C   UNL     1     -14.011   9.408  -0.780  1.00  0.00     0.173 A 
ATOM     71  F   UNL     1     -15.969   8.632  -3.736  1.00  0.00    -0.203 F 
ATOM     72  C   UNL     1     -14.735  10.518  -3.204  1.00  0.00     0.198 A 
ATOM     73  C   UNL     1     -13.541  10.672  -1.152  1.00  0.00     0.198 A 
ATOM     74  F   UNL     1     -13.718   8.993   0.461  1.00  0.00    -0.203 F 
ATOM     75  F   UNL     1     -15.125  11.052  -4.370  1.00  0.00    -0.200 F 
ATOM     76  C   UNL     1     -13.896  11.223  -2.368  1.00  0.00     0.200 A 
ATOM     77  F   UNL     1     -12.736  11.353  -0.324  1.00  0.00    -0.200 F 
ATOM     78  F   UNL     1     -13.447  12.433  -2.725  1.00  0.00    -0.200 F 
ENDBRANCH  54  68
BRANCH  55  79
ATOM     79  C   UNL     1     -16.399  -0.961  -1.067  1.00  0.00     0.064 A 
ATOM     80  C   UNL     1     -15.856  -2.137  -1.604  1.00  0.00     0.173 A 
ATOM     81  C   UNL     1     -16.102  -0.620   0.259  1.00  0.00     0.173 A 
ATOM     82  F   UNL     1     -16.182  -2.523  -2.847  1.00  0.00    -0.203 F 
ATOM     83  C   UNL     1     -14.840  -2.798  -0.935  1.00  0.00     0.198 A 
ATOM     84  C   UNL     1     -15.086  -1.289   0.928  1.00  0.00     0.198 A 
ATOM     85  F   UNL     1     -16.667   0.455   0.827  1.00  0.00    -0.203 F 
ATOM     86  F   UNL     1     -14.175  -3.792  -1.542  1.00  0.00    -0.200 F 
ATOM     87  C   UNL     1     -14.425  -2.341   0.305  1.00  0.00     0.200 A 
ATOM     88  F   UNL     1     -14.676  -0.847   2.125  1.00  0.00    -0.200 F 
ATOM     89  F   UNL     1     -13.357  -2.903   0.874  1.00  0.00    -0.200 F 
ENDBRANCH  55  79
BRANCH  67  90
ATOM     90  C   UNL     1     -20.351   5.012  -1.363  1.00  0.00     0.064 A 
ATOM     91  C   UNL     1     -21.432   4.449  -0.668  1.00  0.00     0.173 A 
ATOM     92  C   UNL     1     -20.442   6.410  -1.584  1.00  0.00     0.173 A 
ATOM     93  F   UNL     1     -21.419   3.176  -0.255  1.00  0.00    -0.203 F 
ATOM     94  C   UNL     1     -22.553   5.200  -0.306  1.00  0.00     0.198 A 
ATOM     95  C   UNL     1     -21.526   7.170  -1.153  1.00  0.00     0.198 A 
ATOM     96  F   UNL     1     -19.469   7.097  -2.200  1.00  0.00    -0.203 F 
ATOM     97  F   UNL     1     -23.585   4.595   0.299  1.00  0.00    -0.200 F 
ATOM     98  C   UNL     1     -22.596   6.561  -0.537  1.00  0.00     0.200 A 
ATOM     99  F   UNL     1     -21.514   8.499  -1.325  1.00  0.00    -0.200 F 
ATOM    100  F   UNL     1     -23.651   7.285  -0.144  1.00  0.00    -0.200 F 
ENDBRANCH  67  90
ENDBRANCH  41  42
ENDBRANCH  34  36
ENDBRANCH  33  34
ENDBRANCH  32  33
ENDBRANCH  31  32
ENDBRANCH   1  31
TORSDOF 17
