REMARK SMILES COc1ccc(CCN2C(=O)C[C@@H](C(=O)OCCOCCOC(=O)c3ccc(-c4c5nc(c(-c6c(F)c(F)c(F)c(F)c6F)c6ccc([nH]6)c(-c6c(F)c(F)c(F)c(F)c6F)c6nc(c(-c7c(F)c(F)c(F)c(F)c7F)c7ccc4[nH]7)C=C6)C=C5)cc3)S/C2=[NH+]\c2ccc(F)cc2)cc1OC
REMARK SMILES IDX 18 1 17 2 16 3 14 4 15 5 13 6 9 7 10 8 89 9 11 10 12 11
REMARK SMILES IDX 88 12 90 13 8 15 7 16 6 17 3 18 4 19 99 20 5 21 98 22 2 23
REMARK SMILES IDX 1 24 100 25 101 26 91 27 92 28 97 29 93 30 96 31 94 32 95 33
REMARK SMILES IDX 19 34 20 35 21 36 22 37 23 38 24 39 25 40 26 41 87 42 27 43
REMARK SMILES IDX 86 44 28 45 29 46 30 47 80 48 31 49 85 50 79 51 81 52 32 53
REMARK SMILES IDX 84 54 78 55 77 56 33 58 65 59 45 60 64 61 46 62 49 63 63 64
REMARK SMILES IDX 82 65 47 66 48 67 62 69 83 70 50 71 34 72 35 73 43 74 36 75
REMARK SMILES IDX 37 76 41 77 44 78 38 79 39 80 42 81 40 82 66 83 67 84 75 85
REMARK SMILES IDX 68 86 69 87 73 88 76 89 70 90 71 91 74 92 72 93 51 94 52 95
REMARK SMILES IDX 60 96 53 97 54 98 58 99 61 100 55 101 56 102 59 103 57 104
REMARK H PARENT 90 14 81 57 49 68
REMARK Flexibility Score: inf
ROOT
ATOM      1  C   UNL     1      -3.236   3.905 -11.027  1.00  0.00     0.202 C 
ENDROOT
BRANCH   1   2
ATOM      2  C   UNL     1      -2.862   5.334 -10.620  1.00  0.00     0.261 C 
BRANCH   2   3
ATOM      3  O   UNL     1      -2.015   5.311  -9.456  1.00  0.00    -0.462 OA
BRANCH   3   4
ATOM      4  C   UNL     1      -2.467   5.943  -8.340  1.00  0.00     0.320 C 
ATOM      5  O   UNL     1      -3.427   6.705  -8.316  1.00  0.00    -0.251 OA
BRANCH   4   6
ATOM      6  C   UNL     1      -1.638   5.642  -7.098  1.00  0.00     0.180 C 
ATOM      7  N   UNL     1       0.723   5.283  -5.394  1.00  0.00    -0.191 N 
ATOM      8  C   UNL     1       0.342   6.569  -5.767  1.00  0.00     0.311 C 
ATOM      9  C   UNL     1       0.016   4.117  -5.667  1.00  0.00     0.319 C 
ATOM     10  O   UNL     1       0.826   7.573  -5.234  1.00  0.00    -0.247 OA
ATOM     11  C   UNL     1      -0.652   6.759  -6.888  1.00  0.00     0.155 C 
ATOM     12  S   UNL     1      -0.763   4.071  -7.208  1.00  0.00    -0.022 SA
ATOM     13  N   UNL     1       0.010   3.152  -4.812  1.00  0.00    -0.235 N 
ATOM     14  H   UNL     1       0.577   3.245  -4.012  1.00  0.00     0.313 HD
BRANCH   7  15
ATOM     15  C   UNL     1       1.980   5.174  -4.641  1.00  0.00     0.251 C 
BRANCH  15  16
ATOM     16  C   UNL     1       1.905   5.407  -3.123  1.00  0.00     0.082 C 
BRANCH  16  17
ATOM     17  C   UNL     1       1.662   4.129  -2.359  1.00  0.00    -0.040 A 
ATOM     18  C   UNL     1       1.135   1.589  -1.272  1.00  0.00     0.160 A 
ATOM     19  C   UNL     1       0.129   2.562  -1.334  1.00  0.00     0.051 A 
ATOM     20  C   UNL     1       2.431   1.907  -1.700  1.00  0.00     0.160 A 
ATOM     21  C   UNL     1       0.396   3.831  -1.853  1.00  0.00     0.008 A 
ATOM     22  C   UNL     1       2.681   3.169  -2.249  1.00  0.00     0.054 A 
BRANCH  18  23
ATOM     23  O   UNL     1       0.857   0.296  -0.917  1.00  0.00    -0.493 OA
ATOM     24  C   UNL     1       0.009   0.149   0.214  1.00  0.00     0.278 C 
ENDBRANCH  18  23
BRANCH  20  25
ATOM     25  O   UNL     1       3.527   1.081  -1.690  1.00  0.00    -0.493 OA
ATOM     26  C   UNL     1       3.557   0.094  -0.664  1.00  0.00     0.278 C 
ENDBRANCH  20  25
ENDBRANCH  16  17
ENDBRANCH  15  16
ENDBRANCH   7  15
BRANCH  13  27
ATOM     27  C   UNL     1      -0.746   1.981  -4.942  1.00  0.00     0.125 A 
ATOM     28  C   UNL     1      -1.911   1.830  -4.175  1.00  0.00     0.055 A 
ATOM     29  C   UNL     1      -0.281   0.894  -5.686  1.00  0.00     0.055 A 
ATOM     30  C   UNL     1      -2.596   0.612  -4.143  1.00  0.00     0.043 A 
ATOM     31  C   UNL     1      -0.970  -0.323  -5.668  1.00  0.00     0.043 A 
ATOM     32  C   UNL     1      -2.115  -0.455  -4.889  1.00  0.00     0.123 A 
ATOM     33  F   UNL     1      -2.753  -1.632  -4.844  1.00  0.00    -0.207 F 
ENDBRANCH  13  27
ENDBRANCH   4   6
ENDBRANCH   3   4
ENDBRANCH   2   3
ENDBRANCH   1   2
BRANCH   1  34
ATOM     34  O   UNL     1      -4.195   3.250 -10.195  1.00  0.00    -0.374 OA
BRANCH  34  35
ATOM     35  C   UNL     1      -3.731   2.722  -8.953  1.00  0.00     0.202 C 
BRANCH  35  36
ATOM     36  C   UNL     1      -2.976   1.387  -9.014  1.00  0.00     0.261 C 
BRANCH  36  37
ATOM     37  O   UNL     1      -1.746   1.476  -9.756  1.00  0.00    -0.460 OA
BRANCH  37  38
ATOM     38  C   UNL     1      -1.749   0.812 -10.937  1.00  0.00     0.338 C 
ATOM     39  O   UNL     1      -2.632   0.104 -11.388  1.00  0.00    -0.246 OA
BRANCH  38  40
ATOM     40  C   UNL     1      -0.570   1.191 -11.739  1.00  0.00     0.060 A 
ATOM     41  C   UNL     1      -0.807   1.695 -13.024  1.00  0.00     0.016 A 
ATOM     42  C   UNL     1       0.734   0.964 -11.296  1.00  0.00     0.016 A 
ATOM     43  C   UNL     1       0.257   1.927 -13.891  1.00  0.00     0.010 A 
ATOM     44  C   UNL     1       1.803   1.190 -12.173  1.00  0.00     0.010 A 
ATOM     45  C   UNL     1       1.567   1.637 -13.486  1.00  0.00    -0.014 A 
BRANCH  45  46
ATOM     46  C   UNL     1       2.659   1.664 -14.491  1.00  0.00     0.031 A 
ATOM     47  C   UNL     1       3.112   0.372 -15.115  1.00  0.00     0.074 A 
ATOM     48  C   UNL     1       3.205   2.828 -14.885  1.00  0.00     0.049 A 
ATOM     49  N   UNL     1       4.048   0.162 -16.006  1.00  0.00    -0.248 NA
ATOM     50  C   UNL     1       2.412  -0.846 -14.678  1.00  0.00     0.031 C 
ATOM     51  C   UNL     1       2.822   4.148 -14.392  1.00  0.00     0.029 A 
ATOM     52  N   UNL     1       4.202   3.082 -15.794  1.00  0.00    -0.354 N 
ATOM     53  C   UNL     1       4.051  -1.208 -16.234  1.00  0.00     0.074 A 
ATOM     54  C   UNL     1       3.046  -1.784 -15.366  1.00  0.00     0.031 C 
ATOM     55  C   UNL     1       3.581   5.076 -14.999  1.00  0.00     0.029 A 
ATOM     56  C   UNL     1       4.522   4.413 -15.900  1.00  0.00     0.049 A 
ATOM     57  H   UNL     1       4.646   2.377 -16.319  1.00  0.00     0.167 HD
ATOM     58  C   UNL     1       4.814  -1.921 -17.097  1.00  0.00     0.037 A 
ATOM     59  C   UNL     1       5.478   5.022 -16.628  1.00  0.00     0.037 A 
ATOM     60  C   UNL     1       5.813  -1.350 -17.961  1.00  0.00     0.049 A 
ATOM     61  C   UNL     1       6.366   4.199 -17.525  1.00  0.00     0.074 A 
ATOM     62  C   UNL     1       6.630  -1.989 -18.878  1.00  0.00     0.029 A 
ATOM     63  N   UNL     1       6.137  -0.002 -18.010  1.00  0.00    -0.354 N 
ATOM     64  N   UNL     1       6.350   2.907 -17.747  1.00  0.00    -0.248 NA
ATOM     65  C   UNL     1       7.404   4.921 -18.275  1.00  0.00     0.031 C 
ATOM     66  C   UNL     1       7.482  -1.035 -19.446  1.00  0.00     0.029 A 
ATOM     67  C   UNL     1       7.159   0.207 -18.923  1.00  0.00     0.049 A 
ATOM     68  H   UNL     1       5.705   0.703 -17.475  1.00  0.00     0.167 HD
ATOM     69  C   UNL     1       7.352   2.666 -18.679  1.00  0.00     0.074 A 
ATOM     70  C   UNL     1       7.949   3.948 -18.991  1.00  0.00     0.031 C 
ATOM     71  C   UNL     1       7.740   1.489 -19.229  1.00  0.00     0.037 A 
BRANCH  58  72
ATOM     72  C   UNL     1       4.613  -3.408 -17.133  1.00  0.00     0.064 A 
ATOM     73  C   UNL     1       3.462  -3.982 -17.694  1.00  0.00     0.173 A 
ATOM     74  C   UNL     1       5.600  -4.270 -16.633  1.00  0.00     0.173 A 
ATOM     75  F   UNL     1       2.483  -3.201 -18.174  1.00  0.00    -0.203 F 
ATOM     76  C   UNL     1       3.296  -5.365 -17.729  1.00  0.00     0.198 A 
ATOM     77  C   UNL     1       5.443  -5.652 -16.695  1.00  0.00     0.198 A 
ATOM     78  F   UNL     1       6.721  -3.772 -16.091  1.00  0.00    -0.203 F 
ATOM     79  F   UNL     1       2.169  -5.891 -18.228  1.00  0.00    -0.200 F 
ATOM     80  C   UNL     1       4.289  -6.198 -17.236  1.00  0.00     0.200 A 
ATOM     81  F   UNL     1       6.410  -6.456 -16.229  1.00  0.00    -0.200 F 
ATOM     82  F   UNL     1       4.132  -7.528 -17.277  1.00  0.00    -0.200 F 
ENDBRANCH  58  72
BRANCH  59  83
ATOM     83  C   UNL     1       5.655   6.495 -16.532  1.00  0.00     0.064 A 
ATOM     84  C   UNL     1       5.351   7.333 -17.613  1.00  0.00     0.173 A 
ATOM     85  C   UNL     1       6.146   7.091 -15.361  1.00  0.00     0.173 A 
ATOM     86  F   UNL     1       4.905   6.808 -18.763  1.00  0.00    -0.203 F 
ATOM     87  C   UNL     1       5.545   8.711 -17.531  1.00  0.00     0.198 A 
ATOM     88  C   UNL     1       6.313   8.471 -15.271  1.00  0.00     0.198 A 
ATOM     89  F   UNL     1       6.454   6.332 -14.299  1.00  0.00    -0.203 F 
ATOM     90  F   UNL     1       5.288   9.486 -18.594  1.00  0.00    -0.200 F 
ATOM     91  C   UNL     1       6.019   9.279 -16.358  1.00  0.00     0.200 A 
ATOM     92  F   UNL     1       6.760   9.016 -14.132  1.00  0.00    -0.200 F 
ATOM     93  F   UNL     1       6.201  10.604 -16.279  1.00  0.00    -0.200 F 
ENDBRANCH  59  83
BRANCH  71  94
ATOM     94  C   UNL     1       8.841   1.531 -20.250  1.00  0.00     0.064 A 
ATOM     95  C   UNL     1      10.173   1.781 -19.889  1.00  0.00     0.173 A 
ATOM     96  C   UNL     1       8.564   1.275 -21.602  1.00  0.00     0.173 A 
ATOM     97  F   UNL     1      10.488   2.045 -18.612  1.00  0.00    -0.203 F 
ATOM     98  C   UNL     1      11.183   1.796 -20.848  1.00  0.00     0.198 A 
ATOM     99  C   UNL     1       9.581   1.262 -22.553  1.00  0.00     0.198 A 
ATOM    100  F   UNL     1       7.308   1.024 -21.999  1.00  0.00    -0.203 F 
ATOM    101  F   UNL     1      12.442   2.082 -20.487  1.00  0.00    -0.200 F 
ATOM    102  C   UNL     1      10.888   1.530 -22.176  1.00  0.00     0.200 A 
ATOM    103  F   UNL     1       9.295   0.991 -23.834  1.00  0.00    -0.200 F 
ATOM    104  F   UNL     1      11.863   1.538 -23.096  1.00  0.00    -0.200 F 
ENDBRANCH  71  94
ENDBRANCH  45  46
ENDBRANCH  38  40
ENDBRANCH  37  38
ENDBRANCH  36  37
ENDBRANCH  35  36
ENDBRANCH  34  35
ENDBRANCH   1  34
TORSDOF 20
