REMARK SMILES C[C@@H](C(=O)OCCOCCOC(=O)c1ccc(-c2c3nc(c(-c4c(F)c(F)c(F)c(F)c4F)c4ccc([nH]4)c(-c4c(F)c(F)c(F)c(F)c4F)c4nc(c(-c5c(F)c(F)c(F)c(F)c5F)c5ccc2[nH]5)C=C4)C=C3)cc1)c1ccc(-c2cccc(OC(=O)NC3CC3)c2)c(F)c1
REMARK SMILES IDX 6 1 5 2 3 3 4 4 2 5 1 6 77 7 78 8 96 9 79 10 94 11 80 12
REMARK SMILES IDX 95 13 81 14 82 15 93 16 83 17 85 18 84 19 86 20 87 21 88 22
REMARK SMILES IDX 89 23 90 25 91 26 92 27 7 28 8 29 9 30 10 31 11 32 12 33
REMARK SMILES IDX 13 34 14 35 15 36 76 37 16 38 75 39 17 40 18 41 19 42 69 43
REMARK SMILES IDX 20 44 74 45 68 46 70 47 21 48 73 49 67 50 66 51 22 53 54 54
REMARK SMILES IDX 34 55 53 56 35 57 38 58 52 59 71 60 36 61 37 62 51 64 72 65
REMARK SMILES IDX 39 66 23 67 24 68 32 69 25 70 26 71 30 72 33 73 27 74 28 75
REMARK SMILES IDX 31 76 29 77 55 78 56 79 64 80 57 81 58 82 62 83 65 84 59 85
REMARK SMILES IDX 60 86 63 87 61 88 40 89 41 90 49 91 42 92 43 93 47 94 50 95
REMARK SMILES IDX 44 96 45 97 48 98 46 99
REMARK H PARENT 89 24 70 52 38 63
REMARK Flexibility Score: inf
ROOT
ATOM      1  C   UNL     1       2.328   2.794  -3.031  1.00  0.00     0.261 C 
ENDROOT
BRANCH   1   2
ATOM      2  O   UNL     1       2.007   2.084  -1.826  1.00  0.00    -0.463 OA
BRANCH   2   3
ATOM      3  C   UNL     1       1.091   2.694  -1.024  1.00  0.00     0.313 C 
ATOM      4  O   UNL     1       0.716   3.852  -1.175  1.00  0.00    -0.252 OA
BRANCH   3   5
ATOM      5  C   UNL     1       0.536   1.766   0.070  1.00  0.00     0.126 C 
ATOM      6  C   UNL     1       1.323   0.456   0.220  1.00  0.00     0.025 C 
BRANCH   5   7
ATOM      7  C   UNL     1      -0.981   1.594  -0.067  1.00  0.00    -0.031 A 
ATOM      8  C   UNL     1      -1.797   2.738  -0.015  1.00  0.00     0.005 A 
ATOM      9  C   UNL     1      -1.617   0.354  -0.226  1.00  0.00     0.044 A 
ATOM     10  C   UNL     1      -3.187   2.654  -0.125  1.00  0.00     0.012 A 
ATOM     11  C   UNL     1      -3.011   0.275  -0.316  1.00  0.00     0.131 A 
ATOM     12  C   UNL     1      -3.822   1.415  -0.256  1.00  0.00     0.018 A 
ATOM     13  F   UNL     1      -3.566  -0.942  -0.437  1.00  0.00    -0.206 F 
BRANCH  12  14
ATOM     14  C   UNL     1      -5.285   1.340  -0.183  1.00  0.00    -0.012 A 
ATOM     15  C   UNL     1      -6.117   1.989  -1.108  1.00  0.00     0.009 A 
ATOM     16  C   UNL     1      -5.876   0.693   0.914  1.00  0.00     0.056 A 
ATOM     17  C   UNL     1      -7.504   2.000  -0.933  1.00  0.00     0.004 A 
ATOM     18  C   UNL     1      -7.253   0.718   1.095  1.00  0.00     0.133 A 
ATOM     19  C   UNL     1      -8.073   1.371   0.174  1.00  0.00     0.047 A 
BRANCH  18  20
ATOM     20  O   UNL     1      -7.917   0.136   2.203  1.00  0.00    -0.410 OA
BRANCH  20  21
ATOM     21  C   UNL     1      -7.335  -0.650   3.193  1.00  0.00     0.412 C 
ATOM     22  O   UNL     1      -6.141  -0.923   3.299  1.00  0.00    -0.224 OA
ATOM     23  N   UNL     1      -8.224  -1.153   4.103  1.00  0.00    -0.318 N 
ATOM     24  H   UNL     1      -7.834  -1.755   4.778  1.00  0.00     0.167 HD
BRANCH  23  25
ATOM     25  C   UNL     1      -9.627  -0.941   4.225  1.00  0.00     0.085 C 
ATOM     26  C   UNL     1     -10.587  -0.564   3.135  1.00  0.00     0.027 C 
ATOM     27  C   UNL     1     -10.559  -1.972   3.642  1.00  0.00     0.027 C 
ENDBRANCH  23  25
ENDBRANCH  20  21
ENDBRANCH  18  20
ENDBRANCH  12  14
ENDBRANCH   5   7
ENDBRANCH   3   5
ENDBRANCH   2   3
ENDBRANCH   1   2
BRANCH   1  28
ATOM     28  C   UNL     1       2.018   1.962  -4.279  1.00  0.00     0.202 C 
BRANCH  28  29
ATOM     29  O   UNL     1       0.704   1.433  -4.419  1.00  0.00    -0.374 OA
BRANCH  29  30
ATOM     30  C   UNL     1       0.305   0.370  -3.554  1.00  0.00     0.202 C 
BRANCH  30  31
ATOM     31  C   UNL     1       0.993  -0.995  -3.709  1.00  0.00     0.261 C 
BRANCH  31  32
ATOM     32  O   UNL     1       2.405  -0.958  -3.429  1.00  0.00    -0.460 OA
BRANCH  32  33
ATOM     33  C   UNL     1       3.199  -1.205  -4.501  1.00  0.00     0.338 C 
ATOM     34  O   UNL     1       2.848  -1.499  -5.631  1.00  0.00    -0.246 OA
BRANCH  33  35
ATOM     35  C   UNL     1       4.601  -0.876  -4.186  1.00  0.00     0.060 A 
ATOM     36  C   UNL     1       5.229   0.101  -4.970  1.00  0.00     0.016 A 
ATOM     37  C   UNL     1       5.320  -1.584  -3.223  1.00  0.00     0.016 A 
ATOM     38  C   UNL     1       6.593   0.343  -4.826  1.00  0.00     0.010 A 
ATOM     39  C   UNL     1       6.693  -1.346  -3.087  1.00  0.00     0.010 A 
ATOM     40  C   UNL     1       7.342  -0.408  -3.912  1.00  0.00    -0.014 A 
BRANCH  40  41
ATOM     41  C   UNL     1       8.822  -0.310  -3.928  1.00  0.00     0.031 A 
ATOM     42  C   UNL     1       9.622  -1.401  -4.586  1.00  0.00     0.074 A 
ATOM     43  C   UNL     1       9.445   0.757  -3.398  1.00  0.00     0.049 A 
ATOM     44  N   UNL     1      10.920  -1.542  -4.678  1.00  0.00    -0.248 NA
ATOM     45  C   UNL     1       8.853  -2.480  -5.226  1.00  0.00     0.031 C 
ATOM     46  C   UNL     1       8.779   1.898  -2.775  1.00  0.00     0.029 A 
ATOM     47  N   UNL     1      10.783   1.048  -3.293  1.00  0.00    -0.354 N 
ATOM     48  C   UNL     1      11.123  -2.725  -5.377  1.00  0.00     0.074 A 
ATOM     49  C   UNL     1       9.817  -3.282  -5.654  1.00  0.00     0.031 C 
ATOM     50  C   UNL     1       9.711   2.762  -2.341  1.00  0.00     0.029 A 
ATOM     51  C   UNL     1      11.038   2.216  -2.619  1.00  0.00     0.049 A 
ATOM     52  H   UNL     1      11.491   0.473  -3.665  1.00  0.00     0.167 HD
ATOM     53  C   UNL     1      12.294  -3.289  -5.761  1.00  0.00     0.037 A 
ATOM     54  C   UNL     1      12.210   2.766  -2.245  1.00  0.00     0.037 A 
ATOM     55  C   UNL     1      13.591  -2.731  -5.482  1.00  0.00     0.049 A 
ATOM     56  C   UNL     1      13.499   2.077  -2.615  1.00  0.00     0.074 A 
ATOM     57  C   UNL     1      14.836  -3.219  -5.839  1.00  0.00     0.029 A 
ATOM     58  N   UNL     1      13.812  -1.562  -4.768  1.00  0.00    -0.354 N 
ATOM     59  N   UNL     1      13.684   0.970  -3.292  1.00  0.00    -0.248 NA
ATOM     60  C   UNL     1      14.744   2.720  -2.171  1.00  0.00     0.031 C 
ATOM     61  C   UNL     1      15.810  -2.380  -5.288  1.00  0.00     0.029 A 
ATOM     62  C   UNL     1      15.173  -1.329  -4.648  1.00  0.00     0.049 A 
ATOM     63  H   UNL     1      13.105  -0.983  -4.400  1.00  0.00     0.167 HD
ATOM     64  C   UNL     1      15.060   0.801  -3.383  1.00  0.00     0.074 A 
ATOM     65  C   UNL     1      15.663   1.928  -2.704  1.00  0.00     0.031 C 
ATOM     66  C   UNL     1      15.761  -0.198  -3.976  1.00  0.00     0.037 A 
BRANCH  53  67
ATOM     67  C   UNL     1      12.227  -4.595  -6.502  1.00  0.00     0.064 A 
ATOM     68  C   UNL     1      11.729  -4.679  -7.812  1.00  0.00     0.173 A 
ATOM     69  C   UNL     1      12.702  -5.774  -5.907  1.00  0.00     0.173 A 
ATOM     70  F   UNL     1      11.252  -3.585  -8.425  1.00  0.00    -0.203 F 
ATOM     71  C   UNL     1      11.683  -5.898  -8.485  1.00  0.00     0.198 A 
ATOM     72  C   UNL     1      12.686  -6.984  -6.595  1.00  0.00     0.198 A 
ATOM     73  F   UNL     1      13.194  -5.751  -4.659  1.00  0.00    -0.203 F 
ATOM     74  F   UNL     1      11.156  -5.962  -9.716  1.00  0.00    -0.200 F 
ATOM     75  C   UNL     1      12.168  -7.047  -7.880  1.00  0.00     0.200 A 
ATOM     76  F   UNL     1      13.170  -8.090  -6.014  1.00  0.00    -0.200 F 
ATOM     77  F   UNL     1      12.132  -8.217  -8.532  1.00  0.00    -0.200 F 
ENDBRANCH  53  67
BRANCH  54  78
ATOM     78  C   UNL     1      12.220   4.028  -1.458  1.00  0.00     0.064 A 
ATOM     79  C   UNL     1      12.736   5.215  -1.995  1.00  0.00     0.173 A 
ATOM     80  C   UNL     1      11.731   4.066  -0.143  1.00  0.00     0.173 A 
ATOM     81  F   UNL     1      13.238   5.226  -3.239  1.00  0.00    -0.203 F 
ATOM     82  C   UNL     1      12.783   6.386  -1.240  1.00  0.00     0.198 A 
ATOM     83  C   UNL     1      11.748   5.244   0.599  1.00  0.00     0.198 A 
ATOM     84  F   UNL     1      11.227   2.957   0.419  1.00  0.00    -0.203 F 
ATOM     85  F   UNL     1      13.331   7.493  -1.758  1.00  0.00    -0.200 F 
ATOM     86  C   UNL     1      12.283   6.401   0.054  1.00  0.00     0.200 A 
ATOM     87  F   UNL     1      11.250   5.257   1.843  1.00  0.00    -0.200 F 
ATOM     88  F   UNL     1      12.326   7.527   0.778  1.00  0.00    -0.200 F 
ENDBRANCH  54  78
BRANCH  66  89
ATOM     89  C   UNL     1      17.261  -0.096  -3.959  1.00  0.00     0.064 A 
ATOM     90  C   UNL     1      18.003  -0.257  -2.779  1.00  0.00     0.173 A 
ATOM     91  C   UNL     1      17.969   0.126  -5.151  1.00  0.00     0.173 A 
ATOM     92  F   UNL     1      17.376  -0.458  -1.610  1.00  0.00    -0.203 F 
ATOM     93  C   UNL     1      19.393  -0.168  -2.788  1.00  0.00     0.198 A 
ATOM     94  C   UNL     1      19.360   0.177  -5.163  1.00  0.00     0.198 A 
ATOM     95  F   UNL     1      17.311   0.277  -6.311  1.00  0.00    -0.203 F 
ATOM     96  F   UNL     1      20.076  -0.269  -1.640  1.00  0.00    -0.200 F 
ATOM     97  C   UNL     1      20.070   0.040  -3.980  1.00  0.00     0.200 A 
ATOM     98  F   UNL     1      20.013   0.361  -6.319  1.00  0.00    -0.200 F 
ATOM     99  F   UNL     1      21.408   0.116  -3.988  1.00  0.00    -0.200 F 
ENDBRANCH  66  89
ENDBRANCH  40  41
ENDBRANCH  33  35
ENDBRANCH  32  33
ENDBRANCH  31  32
ENDBRANCH  30  31
ENDBRANCH  29  30
ENDBRANCH  28  29
ENDBRANCH   1  28
TORSDOF 19
