REMARK SMILES CSCC[C@H](C(=O)OCCOCCOC(=O)c1ccc(-c2c3nc(c(-c4c(F)c(F)c(F)c(F)c4F)c4ccc([nH]4)c(-c4c(F)c(F)c(F)c(F)c4F)c4nc(c(-c5c(F)c(F)c(F)c(F)c5F)c5ccc2[nH]5)C=C4)C=C3)cc1)N1C(=O)/C(=C/c2ccc3ncccc3c2)SC1=S
REMARK SMILES IDX 10 1 9 2 8 3 6 4 7 5 5 6 4 7 3 8 2 9 1 10 80 11 81 12 96 13
REMARK SMILES IDX 82 14 83 15 95 16 97 17 84 18 85 19 86 20 94 21 87 22 93 23
REMARK SMILES IDX 88 24 92 25 89 26 91 27 90 28 11 29 12 30 13 31 14 32 15 33
REMARK SMILES IDX 16 34 17 35 18 36 79 37 19 38 78 39 20 40 21 41 22 42 72 43
REMARK SMILES IDX 23 44 77 45 71 46 73 47 24 48 76 49 70 50 69 51 25 53 57 54
REMARK SMILES IDX 37 55 56 56 38 57 41 58 55 59 74 60 39 61 40 62 54 64 75 65
REMARK SMILES IDX 42 66 26 67 27 68 35 69 28 70 29 71 33 72 36 73 30 74 31 75
REMARK SMILES IDX 34 76 32 77 58 78 59 79 67 80 60 81 61 82 65 83 68 84 62 85
REMARK SMILES IDX 63 86 66 87 64 88 43 89 44 90 52 91 45 92 46 93 50 94 53 95
REMARK SMILES IDX 47 96 48 97 51 98 49 99
REMARK H PARENT 73 52 41 63
REMARK Flexibility Score: inf
ROOT
ATOM      1  C   UNL     1       0.322   0.467   5.623  1.00  0.00     0.202 C 
ENDROOT
BRANCH   1   2
ATOM      2  C   UNL     1      -0.653   0.130   4.492  1.00  0.00     0.261 C 
BRANCH   2   3
ATOM      3  O   UNL     1      -0.227  -1.014   3.723  1.00  0.00    -0.462 OA
BRANCH   3   4
ATOM      4  C   UNL     1      -0.032  -0.771   2.397  1.00  0.00     0.329 C 
ATOM      5  O   UNL     1      -0.152   0.331   1.869  1.00  0.00    -0.250 OA
BRANCH   4   6
ATOM      6  C   UNL     1       0.510  -1.987   1.619  1.00  0.00     0.202 C 
BRANCH   6   7
ATOM      7  C   UNL     1       2.010  -1.670   1.386  1.00  0.00     0.048 C 
BRANCH   7   8
ATOM      8  C   UNL     1       2.727  -2.323   0.205  1.00  0.00     0.072 C 
BRANCH   8   9
ATOM      9  S   UNL     1       2.099  -1.820  -1.427  1.00  0.00    -0.165 SA
ATOM     10  C   UNL     1       0.747  -3.003  -1.633  1.00  0.00     0.085 C 
ENDBRANCH   8   9
ENDBRANCH   7   8
ENDBRANCH   6   7
BRANCH   6  11
ATOM     11  N   UNL     1       0.154  -3.309   2.211  1.00  0.00    -0.278 N 
ATOM     12  C   UNL     1       1.082  -4.310   2.461  1.00  0.00     0.266 C 
ATOM     13  C   UNL     1      -1.174  -3.703   2.351  1.00  0.00     0.149 C 
ATOM     14  O   UNL     1       2.300  -4.216   2.473  1.00  0.00    -0.268 OA
ATOM     15  C   UNL     1       0.394  -5.620   2.650  1.00  0.00     0.081 C 
ATOM     16  S   UNL     1      -1.261  -5.337   2.984  1.00  0.00    -0.054 SA
ATOM     17  S   UNL     1      -2.571  -2.869   1.975  1.00  0.00    -0.052 S 
ATOM     18  C   UNL     1       1.004  -6.800   2.454  1.00  0.00     0.029 C 
BRANCH  18  19
ATOM     19  C   UNL     1       0.353  -8.121   2.497  1.00  0.00    -0.024 A 
ATOM     20  C   UNL     1       0.870  -9.123   3.318  1.00  0.00     0.010 A 
ATOM     21  C   UNL     1      -0.781  -8.408   1.727  1.00  0.00     0.018 A 
ATOM     22  C   UNL     1       0.214 -10.358   3.421  1.00  0.00     0.029 A 
ATOM     23  C   UNL     1      -1.455  -9.636   1.859  1.00  0.00     0.001 A 
ATOM     24  C   UNL     1      -0.958 -10.628   2.727  1.00  0.00     0.070 A 
ATOM     25  C   UNL     1      -2.643  -9.901   1.164  1.00  0.00     0.012 A 
ATOM     26  N   UNL     1      -1.585 -11.804   2.906  1.00  0.00    -0.256 NA
ATOM     27  C   UNL     1      -3.303 -11.107   1.361  1.00  0.00     0.021 A 
ATOM     28  C   UNL     1      -2.740 -12.017   2.235  1.00  0.00     0.112 A 
ENDBRANCH  18  19
ENDBRANCH   6  11
ENDBRANCH   4   6
ENDBRANCH   3   4
ENDBRANCH   2   3
ENDBRANCH   1   2
BRANCH   1  29
ATOM     29  O   UNL     1       1.605   0.971   5.260  1.00  0.00    -0.374 OA
BRANCH  29  30
ATOM     30  C   UNL     1       2.507   0.090   4.600  1.00  0.00     0.202 C 
BRANCH  30  31
ATOM     31  C   UNL     1       3.221  -0.966   5.452  1.00  0.00     0.261 C 
BRANCH  31  32
ATOM     32  O   UNL     1       2.315  -1.822   6.165  1.00  0.00    -0.460 OA
BRANCH  32  33
ATOM     33  C   UNL     1       2.253  -1.572   7.497  1.00  0.00     0.338 C 
ATOM     34  O   UNL     1       2.907  -0.762   8.132  1.00  0.00    -0.246 OA
BRANCH  33  35
ATOM     35  C   UNL     1       1.137  -2.318   8.102  1.00  0.00     0.060 A 
ATOM     36  C   UNL     1       0.207  -1.587   8.853  1.00  0.00     0.016 A 
ATOM     37  C   UNL     1       1.058  -3.710   8.028  1.00  0.00     0.016 A 
ATOM     38  C   UNL     1      -0.771  -2.250   9.586  1.00  0.00     0.010 A 
ATOM     39  C   UNL     1       0.081  -4.376   8.774  1.00  0.00     0.010 A 
ATOM     40  C   UNL     1      -0.807  -3.650   9.590  1.00  0.00    -0.014 A 
BRANCH  40  41
ATOM     41  C   UNL     1      -1.651  -4.347  10.587  1.00  0.00     0.031 A 
ATOM     42  C   UNL     1      -1.013  -4.837  11.857  1.00  0.00     0.074 A 
ATOM     43  C   UNL     1      -2.970  -4.505  10.383  1.00  0.00     0.049 A 
ATOM     44  N   UNL     1      -1.543  -5.495  12.856  1.00  0.00    -0.248 NA
ATOM     45  C   UNL     1       0.421  -4.545  12.022  1.00  0.00     0.031 C 
ATOM     46  C   UNL     1      -3.704  -4.031   9.212  1.00  0.00     0.029 A 
ATOM     47  N   UNL     1      -3.924  -5.113  11.158  1.00  0.00    -0.354 N 
ATOM     48  C   UNL     1      -0.510  -5.701  13.761  1.00  0.00     0.074 A 
ATOM     49  C   UNL     1       0.685  -5.127  13.182  1.00  0.00     0.031 C 
ATOM     50  C   UNL     1      -4.996  -4.377   9.340  1.00  0.00     0.029 A 
ATOM     51  C   UNL     1      -5.171  -5.122  10.586  1.00  0.00     0.049 A 
ATOM     52  H   UNL     1      -3.732  -5.506  12.040  1.00  0.00     0.167 HD
ATOM     53  C   UNL     1      -0.557  -6.309  14.971  1.00  0.00     0.037 A 
ATOM     54  C   UNL     1      -6.316  -5.686  11.014  1.00  0.00     0.037 A 
ATOM     55  C   UNL     1      -1.750  -6.875  15.542  1.00  0.00     0.049 A 
ATOM     56  C   UNL     1      -6.329  -6.415  12.334  1.00  0.00     0.074 A 
ATOM     57  C   UNL     1      -1.910  -7.499  16.767  1.00  0.00     0.029 A 
ATOM     58  N   UNL     1      -2.990  -6.892  14.920  1.00  0.00    -0.354 N 
ATOM     59  N   UNL     1      -5.354  -6.589  13.194  1.00  0.00    -0.248 NA
ATOM     60  C   UNL     1      -7.603  -7.021  12.743  1.00  0.00     0.031 C 
ATOM     61  C   UNL     1      -3.235  -7.936  16.865  1.00  0.00     0.029 A 
ATOM     62  C   UNL     1      -3.914  -7.537  15.724  1.00  0.00     0.049 A 
ATOM     63  H   UNL     1      -3.184  -6.502  14.036  1.00  0.00     0.167 HD
ATOM     64  C   UNL     1      -5.901  -7.298  14.255  1.00  0.00     0.074 A 
ATOM     65  C   UNL     1      -7.298  -7.512  13.936  1.00  0.00     0.031 C 
ATOM     66  C   UNL     1      -5.303  -7.733  15.392  1.00  0.00     0.037 A 
BRANCH  53  67
ATOM     67  C   UNL     1       0.726  -6.416  15.742  1.00  0.00     0.064 A 
ATOM     68  C   UNL     1       1.329  -5.295  16.332  1.00  0.00     0.173 A 
ATOM     69  C   UNL     1       1.348  -7.662  15.913  1.00  0.00     0.173 A 
ATOM     70  F   UNL     1       0.783  -4.079  16.186  1.00  0.00    -0.203 F 
ATOM     71  C   UNL     1       2.522  -5.414  17.042  1.00  0.00     0.198 A 
ATOM     72  C   UNL     1       2.525  -7.782  16.648  1.00  0.00     0.198 A 
ATOM     73  F   UNL     1       0.811  -8.766  15.372  1.00  0.00    -0.203 F 
ATOM     74  F   UNL     1       3.106  -4.323  17.556  1.00  0.00    -0.200 F 
ATOM     75  C   UNL     1       3.115  -6.657  17.205  1.00  0.00     0.200 A 
ATOM     76  F   UNL     1       3.090  -8.986  16.812  1.00  0.00    -0.200 F 
ATOM     77  F   UNL     1       4.260  -6.771  17.892  1.00  0.00    -0.200 F 
ENDBRANCH  53  67
BRANCH  54  78
ATOM     78  C   UNL     1      -7.544  -5.594  10.182  1.00  0.00     0.064 A 
ATOM     79  C   UNL     1      -8.643  -4.830  10.595  1.00  0.00     0.173 A 
ATOM     80  C   UNL     1      -7.645  -6.276   8.960  1.00  0.00     0.173 A 
ATOM     81  F   UNL     1      -8.604  -4.180  11.767  1.00  0.00    -0.203 F 
ATOM     82  C   UNL     1      -9.803  -4.763   9.825  1.00  0.00     0.198 A 
ATOM     83  C   UNL     1      -8.794  -6.186   8.178  1.00  0.00     0.198 A 
ATOM     84  F   UNL     1      -6.621  -7.023   8.521  1.00  0.00    -0.203 F 
ATOM     85  F   UNL     1     -10.856  -4.059  10.263  1.00  0.00    -0.200 F 
ATOM     86  C   UNL     1      -9.875  -5.436   8.614  1.00  0.00     0.200 A 
ATOM     87  F   UNL     1      -8.854  -6.829   7.004  1.00  0.00    -0.200 F 
ATOM     88  F   UNL     1     -10.988  -5.367   7.872  1.00  0.00    -0.200 F 
ENDBRANCH  54  78
BRANCH  66  89
ATOM     89  C   UNL     1      -6.162  -8.451  16.392  1.00  0.00     0.064 A 
ATOM     90  C   UNL     1      -6.626  -9.754  16.163  1.00  0.00     0.173 A 
ATOM     91  C   UNL     1      -6.487  -7.841  17.613  1.00  0.00     0.173 A 
ATOM     92  F   UNL     1      -6.354 -10.374  15.005  1.00  0.00    -0.203 F 
ATOM     93  C   UNL     1      -7.404 -10.412  17.112  1.00  0.00     0.198 A 
ATOM     94  C   UNL     1      -7.240  -8.513  18.572  1.00  0.00     0.198 A 
ATOM     95  F   UNL     1      -6.061  -6.598  17.884  1.00  0.00    -0.203 F 
ATOM     96  F   UNL     1      -7.875 -11.640  16.855  1.00  0.00    -0.200 F 
ATOM     97  C   UNL     1      -7.704  -9.795  18.318  1.00  0.00     0.200 A 
ATOM     98  F   UNL     1      -7.516  -7.920  19.741  1.00  0.00    -0.200 F 
ATOM     99  F   UNL     1      -8.446 -10.433  19.233  1.00  0.00    -0.200 F 
ENDBRANCH  66  89
ENDBRANCH  40  41
ENDBRANCH  33  35
ENDBRANCH  32  33
ENDBRANCH  31  32
ENDBRANCH  30  31
ENDBRANCH  29  30
ENDBRANCH   1  29
TORSDOF 19
