REMARK SMILES Cc1ccc(Cn2c(C)c(C[NH2+]Cc3ccco3)c(C(=O)OCCOCCOC(=O)c3ccc(-c4c5nc(c(-c6c(F)c(F)c(F)c(F)c6F)c6ccc([nH]6)c(-c6c(F)c(F)c(F)c(F)c6F)c6nc(c(-c7c(F)c(F)c(F)c(F)c7F)c7ccc4[nH]7)C=C6)C=C5)cc3)c2C)cc1
REMARK SMILES IDX 24 1 23 2 22 3 20 4 21 5 19 6 7 7 8 8 94 9 9 10 10 11 95 12
REMARK SMILES IDX 6 13 5 14 1 15 2 16 3 17 97 18 4 19 96 20 11 21 12 22 13 25
REMARK SMILES IDX 14 26 15 27 18 28 16 29 17 30 25 31 26 32 27 33 28 34 29 35
REMARK SMILES IDX 30 36 31 37 32 38 93 39 33 40 92 41 34 42 35 43 36 44 86 45
REMARK SMILES IDX 37 46 91 47 85 48 87 49 38 50 90 51 84 52 83 53 39 55 71 56
REMARK SMILES IDX 51 57 70 58 52 59 55 60 69 61 88 62 53 63 54 64 68 66 89 67
REMARK SMILES IDX 56 68 40 69 41 70 49 71 42 72 43 73 47 74 50 75 44 76 45 77
REMARK SMILES IDX 48 78 46 79 72 80 73 81 81 82 74 83 75 84 79 85 82 86 76 87
REMARK SMILES IDX 77 88 80 89 78 90 57 91 58 92 66 93 59 94 60 95 64 96 67 97
REMARK SMILES IDX 61 98 62 99 65 100 63 101
REMARK H PARENT 12 23 12 24 87 54 55 65
REMARK Flexibility Score: inf
ROOT
ATOM      1  C   UNL     1      -5.320  -5.659  -1.274  1.00  0.00     0.202 C 
ENDROOT
BRANCH   1   2
ATOM      2  C   UNL     1      -4.002  -5.270  -1.812  1.00  0.00     0.261 C 
BRANCH   2   3
ATOM      3  O   UNL     1      -3.945  -3.869  -2.132  1.00  0.00    -0.460 OA
BRANCH   3   4
ATOM      4  C   UNL     1      -4.698  -3.155  -3.006  1.00  0.00     0.340 C 
ATOM      5  O   UNL     1      -5.199  -3.558  -4.053  1.00  0.00    -0.246 OA
BRANCH   4   6
ATOM      6  C   UNL     1      -4.743  -1.780  -2.550  1.00  0.00     0.089 A 
ATOM      7  N   UNL     1      -4.224  -0.014  -1.284  1.00  0.00    -0.343 N 
ATOM      8  C   UNL     1      -5.064   0.438  -2.304  1.00  0.00     0.025 A 
ATOM      9  C   UNL     1      -4.296  -1.386  -1.292  1.00  0.00     0.030 A 
ATOM     10  C   UNL     1      -5.617   1.818  -2.395  1.00  0.00     0.065 C 
ATOM     11  C   UNL     1      -5.341  -0.639  -3.158  1.00  0.00     0.042 A 
ATOM     12  C   UNL     1      -3.932  -2.251  -0.135  1.00  0.00     0.065 C 
BRANCH   7  13
ATOM     13  C   UNL     1      -3.580   0.752  -0.197  1.00  0.00     0.157 C 
BRANCH  13  14
ATOM     14  C   UNL     1      -2.061   0.616  -0.094  1.00  0.00    -0.028 A 
ATOM     15  C   UNL     1       2.275   0.266   0.142  1.00  0.00     0.044 C 
ATOM     16  C   UNL     1       0.784   0.427   0.111  1.00  0.00    -0.051 A 
ATOM     17  C   UNL     1      -0.032  -0.576   0.620  1.00  0.00     0.004 A 
ATOM     18  C   UNL     1       0.175   1.543  -0.469  1.00  0.00     0.004 A 
ATOM     19  C   UNL     1      -1.426  -0.461   0.550  1.00  0.00     0.006 A 
ATOM     20  C   UNL     1      -1.225   1.631  -0.579  1.00  0.00     0.006 A 
ENDBRANCH  13  14
ENDBRANCH   7  13
BRANCH  11  21
ATOM     21  C   UNL     1      -6.174  -0.675  -4.430  1.00  0.00     0.300 C 
BRANCH  21  22
ATOM     22  N   UNL     1      -7.482  -1.257  -4.112  1.00  0.00    -0.336 N 
ATOM     23  H   UNL     1      -7.965  -0.633  -3.465  1.00  0.00     0.346 HD
ATOM     24  H   UNL     1      -7.312  -2.177  -3.706  1.00  0.00     0.346 HD
BRANCH  22  25
ATOM     25  C   UNL     1      -8.336  -1.455  -5.290  1.00  0.00     0.337 C 
BRANCH  25  26
ATOM     26  C   UNL     1      -8.208  -2.805  -5.923  1.00  0.00     0.157 A 
ATOM     27  C   UNL     1      -7.684  -3.257  -7.118  1.00  0.00     0.052 A 
ATOM     28  O   UNL     1      -8.793  -3.847  -5.257  1.00  0.00    -0.463 OA
ATOM     29  C   UNL     1      -7.965  -4.645  -7.186  1.00  0.00     0.042 A 
ATOM     30  C   UNL     1      -8.647  -4.951  -6.034  1.00  0.00     0.195 A 
ENDBRANCH  25  26
ENDBRANCH  22  25
ENDBRANCH  21  22
ENDBRANCH  11  21
ENDBRANCH   4   6
ENDBRANCH   3   4
ENDBRANCH   2   3
ENDBRANCH   1   2
BRANCH   1  31
ATOM     31  O   UNL     1      -6.165  -5.388  -2.364  1.00  0.00    -0.374 OA
BRANCH  31  32
ATOM     32  C   UNL     1      -7.534  -5.343  -2.074  1.00  0.00     0.202 C 
BRANCH  32  33
ATOM     33  C   UNL     1      -8.003  -6.735  -1.661  1.00  0.00     0.261 C 
BRANCH  33  34
ATOM     34  O   UNL     1      -7.713  -7.684  -2.724  1.00  0.00    -0.460 OA
BRANCH  34  35
ATOM     35  C   UNL     1      -6.555  -8.407  -2.612  1.00  0.00     0.338 C 
ATOM     36  O   UNL     1      -6.226  -9.051  -1.630  1.00  0.00    -0.246 OA
BRANCH  35  37
ATOM     37  C   UNL     1      -5.616  -8.078  -3.735  1.00  0.00     0.060 A 
ATOM     38  C   UNL     1      -4.246  -8.417  -3.665  1.00  0.00     0.016 A 
ATOM     39  C   UNL     1      -6.033  -7.120  -4.645  1.00  0.00     0.016 A 
ATOM     40  C   UNL     1      -3.289  -7.673  -4.382  1.00  0.00     0.010 A 
ATOM     41  C   UNL     1      -5.087  -6.299  -5.213  1.00  0.00     0.010 A 
ATOM     42  C   UNL     1      -3.713  -6.548  -5.082  1.00  0.00    -0.014 A 
BRANCH  42  43
ATOM     43  C   UNL     1      -2.864  -5.514  -5.683  1.00  0.00     0.031 A 
ATOM     44  C   UNL     1      -2.931  -5.394  -7.149  1.00  0.00     0.074 A 
ATOM     45  C   UNL     1      -2.240  -4.573  -4.930  1.00  0.00     0.049 A 
ATOM     46  N   UNL     1      -1.969  -4.945  -7.875  1.00  0.00    -0.248 NA
ATOM     47  C   UNL     1      -4.054  -5.879  -7.955  1.00  0.00     0.031 C 
ATOM     48  C   UNL     1      -1.817  -3.216  -5.276  1.00  0.00     0.029 A 
ATOM     49  N   UNL     1      -1.929  -4.638  -3.572  1.00  0.00    -0.354 N 
ATOM     50  C   UNL     1      -2.506  -4.701  -9.118  1.00  0.00     0.074 A 
ATOM     51  C   UNL     1      -3.692  -5.508  -9.181  1.00  0.00     0.031 C 
ATOM     52  C   UNL     1      -1.088  -2.692  -4.266  1.00  0.00     0.029 A 
ATOM     53  C   UNL     1      -0.935  -3.719  -3.242  1.00  0.00     0.049 A 
ATOM     54  H   UNL     1      -2.355  -5.252  -2.931  1.00  0.00     0.167 HD
ATOM     55  C   UNL     1      -2.034  -3.644  -9.838  1.00  0.00     0.037 A 
ATOM     56  C   UNL     1       0.187  -4.141  -2.608  1.00  0.00     0.037 A 
ATOM     57  C   UNL     1      -1.026  -2.913  -9.040  1.00  0.00     0.049 A 
ATOM     58  C   UNL     1       1.256  -4.035  -3.646  1.00  0.00     0.074 A 
ATOM     59  C   UNL     1      -1.047  -1.687  -8.391  1.00  0.00     0.029 A 
ATOM     60  N   UNL     1       0.067  -3.601  -8.498  1.00  0.00    -0.354 N 
ATOM     61  N   UNL     1       1.009  -4.186  -4.923  1.00  0.00    -0.248 NA
ATOM     62  C   UNL     1       2.583  -3.506  -3.363  1.00  0.00     0.031 C 
ATOM     63  C   UNL     1       0.040  -1.647  -7.469  1.00  0.00     0.029 A 
ATOM     64  C   UNL     1       0.718  -2.857  -7.531  1.00  0.00     0.049 A 
ATOM     65  H   UNL     1       0.339  -4.507  -8.773  1.00  0.00     0.167 HD
ATOM     66  C   UNL     1       2.021  -3.601  -5.618  1.00  0.00     0.074 A 
ATOM     67  C   UNL     1       3.013  -3.251  -4.610  1.00  0.00     0.031 C 
ATOM     68  C   UNL     1       1.974  -3.318  -6.949  1.00  0.00     0.037 A 
BRANCH  55  69
ATOM     69  C   UNL     1      -2.717  -3.087 -11.084  1.00  0.00     0.064 A 
ATOM     70  C   UNL     1      -2.450  -1.774 -11.527  1.00  0.00     0.173 A 
ATOM     71  C   UNL     1      -3.634  -3.786 -11.903  1.00  0.00     0.173 A 
ATOM     72  F   UNL     1      -1.527  -1.010 -10.931  1.00  0.00    -0.203 F 
ATOM     73  C   UNL     1      -3.099  -1.193 -12.624  1.00  0.00     0.198 A 
ATOM     74  C   UNL     1      -4.323  -3.190 -12.967  1.00  0.00     0.198 A 
ATOM     75  F   UNL     1      -3.845  -5.099 -11.772  1.00  0.00    -0.203 F 
ATOM     76  F   UNL     1      -2.782   0.056 -12.995  1.00  0.00    -0.200 F 
ATOM     77  C   UNL     1      -4.053  -1.891 -13.330  1.00  0.00     0.200 A 
ATOM     78  F   UNL     1      -5.230  -3.902 -13.653  1.00  0.00    -0.200 F 
ATOM     79  F   UNL     1      -4.676  -1.334 -14.377  1.00  0.00    -0.200 F 
ENDBRANCH  55  69
BRANCH  56  80
ATOM     80  C   UNL     1      -0.060  -5.194  -1.569  1.00  0.00     0.064 A 
ATOM     81  C   UNL     1      -0.549  -4.758  -0.315  1.00  0.00     0.173 A 
ATOM     82  C   UNL     1      -0.278  -6.545  -1.881  1.00  0.00     0.173 A 
ATOM     83  F   UNL     1      -0.414  -3.474   0.041  1.00  0.00    -0.203 F 
ATOM     84  C   UNL     1      -1.306  -5.585   0.524  1.00  0.00     0.198 A 
ATOM     85  C   UNL     1      -1.058  -7.368  -1.051  1.00  0.00     0.198 A 
ATOM     86  F   UNL     1       0.137  -7.041  -3.054  1.00  0.00    -0.203 F 
ATOM     87  F   UNL     1      -1.911  -5.066   1.605  1.00  0.00    -0.200 F 
ATOM     88  C   UNL     1      -1.593  -6.881   0.135  1.00  0.00     0.200 A 
ATOM     89  F   UNL     1      -1.405  -8.596  -1.464  1.00  0.00    -0.200 F 
ATOM     90  F   UNL     1      -2.495  -7.601   0.821  1.00  0.00    -0.200 F 
ENDBRANCH  56  80
BRANCH  68  91
ATOM     91  C   UNL     1       3.199  -3.404  -7.811  1.00  0.00     0.064 A 
ATOM     92  C   UNL     1       4.380  -4.046  -7.401  1.00  0.00     0.173 A 
ATOM     93  C   UNL     1       3.153  -3.015  -9.170  1.00  0.00     0.173 A 
ATOM     94  F   UNL     1       4.509  -4.591  -6.183  1.00  0.00    -0.203 F 
ATOM     95  C   UNL     1       5.464  -4.206  -8.256  1.00  0.00     0.198 A 
ATOM     96  C   UNL     1       4.205  -3.257 -10.042  1.00  0.00     0.198 A 
ATOM     97  F   UNL     1       2.077  -2.427  -9.711  1.00  0.00    -0.203 F 
ATOM     98  F   UNL     1       6.590  -4.763  -7.792  1.00  0.00    -0.200 F 
ATOM     99  C   UNL     1       5.371  -3.826  -9.579  1.00  0.00     0.200 A 
ATOM    100  F   UNL     1       4.069  -2.953 -11.340  1.00  0.00    -0.200 F 
ATOM    101  F   UNL     1       6.398  -4.029 -10.413  1.00  0.00    -0.200 F 
ENDBRANCH  68  91
ENDBRANCH  42  43
ENDBRANCH  35  37
ENDBRANCH  34  35
ENDBRANCH  33  34
ENDBRANCH  32  33
ENDBRANCH  31  32
ENDBRANCH   1  31
TORSDOF 20
