REMARK SMILES O=C(OCCOCCOC(=O)c1cnc2sc(N3CCCCCC3)nn2c1=O)c1ccc(-c2c3nc(c(-c4c(F)c(F)c(F)c(F)c4F)c4ccc([nH]4)c(-c4c(F)c(F)c(F)c(F)c4F)c4nc(c(-c5c(F)c(F)c(F)c(F)c5F)c5ccc2[nH]5)C=C4)C=C3)cc1
REMARK SMILES IDX 7 1 6 2 5 3 4 4 3 5 2 6 1 7 29 8 30 9 91 10 31 11 90 12
REMARK SMILES IDX 32 13 33 14 34 15 84 16 35 17 89 18 83 19 85 20 36 21 88 22
REMARK SMILES IDX 82 23 81 24 37 26 69 27 49 28 68 29 50 30 53 31 67 32 86 33
REMARK SMILES IDX 51 34 52 35 66 37 87 38 54 39 38 40 39 41 47 42 40 43 41 44
REMARK SMILES IDX 45 45 48 46 42 47 43 48 46 49 44 50 70 51 71 52 79 53 72 54
REMARK SMILES IDX 73 55 77 56 80 57 74 58 75 59 78 60 76 61 55 62 56 63 64 64
REMARK SMILES IDX 57 65 58 66 62 67 65 68 59 69 60 70 63 71 61 72 8 73 9 74
REMARK SMILES IDX 10 75 11 76 12 77 13 78 27 79 14 80 26 81 28 82 15 83 25 84
REMARK SMILES IDX 16 85 17 86 18 87 19 88 20 89 21 90 24 92 23 93 22 94
REMARK H PARENT 85 25 53 36
REMARK Flexibility Score: 90.00
ROOT
ATOM      1  C   UNL     1       2.663   0.117  -2.119  1.00  0.00     0.202 C 
ENDROOT
BRANCH   1   2
ATOM      2  O   UNL     1       3.993  -0.142  -1.643  1.00  0.00    -0.374 OA
BRANCH   2   3
ATOM      3  C   UNL     1       4.165  -1.362  -0.917  1.00  0.00     0.202 C 
BRANCH   3   4
ATOM      4  C   UNL     1       3.826  -1.273   0.572  1.00  0.00     0.261 C 
BRANCH   4   5
ATOM      5  O   UNL     1       2.448  -0.906   0.747  1.00  0.00    -0.460 OA
BRANCH   5   6
ATOM      6  C   UNL     1       1.932   0.281   1.137  1.00  0.00     0.338 C 
ATOM      7  O   UNL     1       0.717   0.365   1.308  1.00  0.00    -0.246 OA
BRANCH   6   8
ATOM      8  C   UNL     1       2.752   1.508   1.377  1.00  0.00     0.060 A 
ATOM      9  C   UNL     1       3.977   1.788   0.768  1.00  0.00     0.016 A 
ATOM     10  C   UNL     1       2.193   2.491   2.212  1.00  0.00     0.016 A 
ATOM     11  C   UNL     1       4.668   2.961   1.032  1.00  0.00     0.010 A 
ATOM     12  C   UNL     1       2.861   3.696   2.452  1.00  0.00     0.010 A 
ATOM     13  C   UNL     1       4.116   3.918   1.878  1.00  0.00    -0.014 A 
BRANCH  13  14
ATOM     14  C   UNL     1       4.942   5.085   2.228  1.00  0.00     0.031 A 
ATOM     15  C   UNL     1       5.634   5.091   3.555  1.00  0.00     0.074 A 
ATOM     16  C   UNL     1       5.172   6.036   1.307  1.00  0.00     0.049 A 
ATOM     17  N   UNL     1       6.417   5.995   4.080  1.00  0.00    -0.248 NA
ATOM     18  C   UNL     1       5.428   3.904   4.401  1.00  0.00     0.031 C 
ATOM     19  C   UNL     1       4.633   6.034  -0.054  1.00  0.00     0.029 A 
ATOM     20  N   UNL     1       5.947   7.162   1.359  1.00  0.00    -0.354 N 
ATOM     21  C   UNL     1       6.773   5.499   5.325  1.00  0.00     0.074 A 
ATOM     22  C   UNL     1       6.123   4.217   5.482  1.00  0.00     0.031 C 
ATOM     23  C   UNL     1       5.124   7.091  -0.721  1.00  0.00     0.029 A 
ATOM     24  C   UNL     1       5.958   7.874   0.185  1.00  0.00     0.049 A 
ATOM     25  H   UNL     1       6.449   7.435   2.161  1.00  0.00     0.167 HD
ATOM     26  C   UNL     1       7.567   6.077   6.256  1.00  0.00     0.037 A 
ATOM     27  C   UNL     1       6.563   9.040  -0.105  1.00  0.00     0.037 A 
ATOM     28  C   UNL     1       8.195   7.357   6.071  1.00  0.00     0.049 A 
ATOM     29  C   UNL     1       7.370   9.705   0.977  1.00  0.00     0.074 A 
ATOM     30  C   UNL     1       8.963   8.086   6.959  1.00  0.00     0.029 A 
ATOM     31  N   UNL     1       8.121   8.098   4.897  1.00  0.00    -0.354 N 
ATOM     32  N   UNL     1       7.648   9.272   2.185  1.00  0.00    -0.248 NA
ATOM     33  C   UNL     1       7.933  11.024   0.666  1.00  0.00     0.031 C 
ATOM     34  C   UNL     1       9.318   9.289   6.336  1.00  0.00     0.029 A 
ATOM     35  C   UNL     1       8.815   9.287   5.042  1.00  0.00     0.049 A 
ATOM     36  H   UNL     1       7.645   7.819   4.082  1.00  0.00     0.167 HD
ATOM     37  C   UNL     1       8.431  10.253   2.774  1.00  0.00     0.074 A 
ATOM     38  C   UNL     1       8.597  11.298   1.781  1.00  0.00     0.031 C 
ATOM     39  C   UNL     1       8.962  10.295   4.021  1.00  0.00     0.037 A 
BRANCH  26  40
ATOM     40  C   UNL     1       7.705   5.359   7.565  1.00  0.00     0.064 A 
ATOM     41  C   UNL     1       8.433   4.166   7.689  1.00  0.00     0.173 A 
ATOM     42  C   UNL     1       7.034   5.838   8.701  1.00  0.00     0.173 A 
ATOM     43  F   UNL     1       9.065   3.648   6.625  1.00  0.00    -0.203 F 
ATOM     44  C   UNL     1       8.449   3.458   8.889  1.00  0.00     0.198 A 
ATOM     45  C   UNL     1       7.075   5.142   9.906  1.00  0.00     0.198 A 
ATOM     46  F   UNL     1       6.317   6.970   8.635  1.00  0.00    -0.203 F 
ATOM     47  F   UNL     1       9.089   2.282   8.963  1.00  0.00    -0.200 F 
ATOM     48  C   UNL     1       7.771   3.947   9.996  1.00  0.00     0.200 A 
ATOM     49  F   UNL     1       6.419   5.617  10.974  1.00  0.00    -0.200 F 
ATOM     50  F   UNL     1       7.770   3.254  11.143  1.00  0.00    -0.200 F 
ENDBRANCH  26  40
BRANCH  27  51
ATOM     51  C   UNL     1       6.406   9.650  -1.452  1.00  0.00     0.064 A 
ATOM     52  C   UNL     1       7.497   9.780  -2.322  1.00  0.00     0.173 A 
ATOM     53  C   UNL     1       5.158  10.109  -1.903  1.00  0.00     0.173 A 
ATOM     54  F   UNL     1       8.716   9.379  -1.933  1.00  0.00    -0.203 F 
ATOM     55  C   UNL     1       7.347  10.351  -3.586  1.00  0.00     0.198 A 
ATOM     56  C   UNL     1       5.004  10.652  -3.176  1.00  0.00     0.198 A 
ATOM     57  F   UNL     1       4.081  10.014  -1.110  1.00  0.00    -0.203 F 
ATOM     58  F   UNL     1       8.414  10.496  -4.384  1.00  0.00    -0.200 F 
ATOM     59  C   UNL     1       6.099  10.779  -4.015  1.00  0.00     0.200 A 
ATOM     60  F   UNL     1       3.793  11.053  -3.590  1.00  0.00    -0.200 F 
ATOM     61  F   UNL     1       5.955  11.319  -5.233  1.00  0.00    -0.200 F 
ENDBRANCH  27  51
BRANCH  39  62
ATOM     62  C   UNL     1       9.798  11.491   4.359  1.00  0.00     0.064 A 
ATOM     63  C   UNL     1       9.220  12.743   4.611  1.00  0.00     0.173 A 
ATOM     64  C   UNL     1      11.190  11.367   4.479  1.00  0.00     0.173 A 
ATOM     65  F   UNL     1       7.894  12.911   4.493  1.00  0.00    -0.203 F 
ATOM     66  C   UNL     1      10.011  13.836   4.950  1.00  0.00     0.198 A 
ATOM     67  C   UNL     1      11.974  12.455   4.846  1.00  0.00     0.198 A 
ATOM     68  F   UNL     1      11.786  10.186   4.254  1.00  0.00    -0.203 F 
ATOM     69  F   UNL     1       9.445  15.035   5.146  1.00  0.00    -0.200 F 
ATOM     70  C   UNL     1      11.385  13.690   5.075  1.00  0.00     0.200 A 
ATOM     71  F   UNL     1      13.300  12.310   4.978  1.00  0.00    -0.200 F 
ATOM     72  F   UNL     1      12.144  14.742   5.410  1.00  0.00    -0.200 F 
ENDBRANCH  39  62
ENDBRANCH  13  14
ENDBRANCH   6   8
ENDBRANCH   5   6
ENDBRANCH   4   5
ENDBRANCH   3   4
ENDBRANCH   2   3
ENDBRANCH   1   2
BRANCH   1  73
ATOM     73  C   UNL     1       2.733   0.594  -3.572  1.00  0.00     0.261 C 
BRANCH  73  74
ATOM     74  O   UNL     1       3.297  -0.469  -4.352  1.00  0.00    -0.459 OA
BRANCH  74  75
ATOM     75  C   UNL     1       4.652  -0.476  -4.435  1.00  0.00     0.345 C 
ATOM     76  O   UNL     1       5.404   0.470  -4.250  1.00  0.00    -0.246 OA
BRANCH  75  77
ATOM     77  C   UNL     1       5.086  -1.875  -4.516  1.00  0.00     0.145 A 
ATOM     78  C   UNL     1       6.041  -2.288  -3.664  1.00  0.00     0.136 A 
ATOM     79  C   UNL     1       4.426  -2.871  -5.381  1.00  0.00     0.289 A 
ATOM     80  N   UNL     1       6.422  -3.597  -3.462  1.00  0.00    -0.226 NA
ATOM     81  N   UNL     1       4.874  -4.158  -5.158  1.00  0.00    -0.165 N 
ATOM     82  O   UNL     1       3.598  -2.543  -6.226  1.00  0.00    -0.266 OA
ATOM     83  C   UNL     1       5.816  -4.457  -4.210  1.00  0.00     0.217 A 
ATOM     84  N   UNL     1       4.481  -5.183  -5.966  1.00  0.00    -0.133 NA
ATOM     85  S   UNL     1       6.088  -6.167  -4.176  1.00  0.00    -0.057 S 
ATOM     86  C   UNL     1       5.071  -6.280  -5.603  1.00  0.00     0.208 A 
BRANCH  86  87
ATOM     87  N   UNL     1       5.029  -7.445  -6.327  1.00  0.00    -0.347 N 
BRANCH  87  88
ATOM     88  C   UNL     1       4.627  -8.713  -5.737  1.00  0.00     0.119 C 
BRANCH  88  89
ATOM     89  C   UNL     1       5.826  -9.632  -5.534  1.00  0.00     0.021 C 
BRANCH  89  90
ATOM     90  C   UNL     1       6.420 -10.193  -6.824  1.00  0.00     0.002 CG0
ATOM     91  G   UNL     1       6.808  -9.146  -7.869  1.00  0.00     0.000 G0
ENDBRANCH  89  90
ENDBRANCH  88  89
ENDBRANCH  87  88
BRANCH  87  92
ATOM     92  C   UNL     1       5.009  -7.312  -7.783  1.00  0.00     0.119 C 
BRANCH  92  93
ATOM     93  C   UNL     1       5.589  -8.505  -8.532  1.00  0.00     0.021 C 
BRANCH  93  94
ATOM     94  C   UNL     1       6.808  -9.146  -7.869  1.00  0.00     0.002 CG0
ATOM     95  G   UNL     1       6.420 -10.193  -6.824  1.00  0.00     0.000 G0
ENDBRANCH  93  94
ENDBRANCH  92  93
ENDBRANCH  87  92
ENDBRANCH  86  87
ENDBRANCH  75  77
ENDBRANCH  74  75
ENDBRANCH  73  74
ENDBRANCH   1  73
TORSDOF 15
