REMARK SMILES O=C(OCCOCCOC(=O)[C@@H]1[C@@H](C(=O)N2CC[NH+](C/C=C/c3ccccc3)CC2)[C@@H]2C=C[C@H]1C2)c1ccc(-c2c3nc(c(-c4c(F)c(F)c(F)c(F)c4F)c4ccc([nH]4)c(-c4c(F)c(F)c(F)c(F)c4F)c4nc(c(-c5c(F)c(F)c(F)c(F)c5F)c5ccc2[nH]5)C=C4)C=C3)cc1
REMARK SMILES IDX 7 1 6 2 5 3 4 4 3 5 2 6 1 7 36 8 37 9 98 10 38 11 97 12
REMARK SMILES IDX 39 13 40 14 41 15 91 16 42 17 96 18 90 19 92 20 43 21 95 22
REMARK SMILES IDX 89 23 88 24 44 26 76 27 56 28 75 29 57 30 60 31 74 32 93 33
REMARK SMILES IDX 58 34 59 35 73 37 94 38 61 39 45 40 46 41 54 42 47 43 48 44
REMARK SMILES IDX 52 45 55 46 49 47 50 48 53 49 51 50 77 51 78 52 86 53 79 54
REMARK SMILES IDX 80 55 84 56 87 57 81 58 82 59 85 60 83 61 62 62 63 63 71 64
REMARK SMILES IDX 64 65 65 66 69 67 72 68 66 69 67 70 70 71 68 72 8 73 9 74
REMARK SMILES IDX 10 75 11 76 12 77 13 78 34 79 31 80 33 81 35 82 32 83 14 84
REMARK SMILES IDX 15 85 16 86 17 87 30 88 18 89 29 90 19 91 20 93 21 94 22 95
REMARK SMILES IDX 23 96 24 97 28 98 25 99 27 100 26 101
REMARK H PARENT 92 25 60 36 19 92
REMARK Flexibility Score: inf
ROOT
ATOM      1  C   UNL     1       1.945   0.359   2.132  1.00  0.00     0.202 C 
ENDROOT
BRANCH   1   2
ATOM      2  O   UNL     1       3.105  -0.042   1.411  1.00  0.00    -0.374 OA
BRANCH   2   3
ATOM      3  C   UNL     1       3.710   0.996   0.640  1.00  0.00     0.202 C 
BRANCH   3   4
ATOM      4  C   UNL     1       3.568   0.827  -0.871  1.00  0.00     0.261 C 
BRANCH   4   5
ATOM      5  O   UNL     1       2.230   0.453  -1.207  1.00  0.00    -0.460 OA
BRANCH   5   6
ATOM      6  C   UNL     1       1.748  -0.818  -1.144  1.00  0.00     0.338 C 
ATOM      7  O   UNL     1       0.546  -1.015  -1.164  1.00  0.00    -0.246 OA
BRANCH   6   8
ATOM      8  C   UNL     1       2.668  -1.992  -1.210  1.00  0.00     0.060 A 
ATOM      9  C   UNL     1       3.838  -2.132  -0.460  1.00  0.00     0.016 A 
ATOM     10  C   UNL     1       2.274  -3.055  -2.035  1.00  0.00     0.016 A 
ATOM     11  C   UNL     1       4.635  -3.252  -0.560  1.00  0.00     0.010 A 
ATOM     12  C   UNL     1       3.039  -4.221  -2.096  1.00  0.00     0.010 A 
ATOM     13  C   UNL     1       4.221  -4.313  -1.352  1.00  0.00    -0.014 A 
BRANCH  13  14
ATOM     14  C   UNL     1       5.101  -5.485  -1.403  1.00  0.00     0.031 A 
ATOM     15  C   UNL     1       5.915  -5.703  -2.632  1.00  0.00     0.074 A 
ATOM     16  C   UNL     1       5.248  -6.231  -0.293  1.00  0.00     0.049 A 
ATOM     17  N   UNL     1       6.674  -6.713  -2.948  1.00  0.00    -0.248 NA
ATOM     18  C   UNL     1       5.879  -4.630  -3.641  1.00  0.00     0.031 C 
ATOM     19  C   UNL     1       4.593  -5.967   0.994  1.00  0.00     0.029 A 
ATOM     20  N   UNL     1       6.017  -7.334  -0.052  1.00  0.00    -0.354 N 
ATOM     21  C   UNL     1       7.164  -6.425  -4.213  1.00  0.00     0.074 A 
ATOM     22  C   UNL     1       6.638  -5.137  -4.601  1.00  0.00     0.031 C 
ATOM     23  C   UNL     1       5.008  -6.872   1.893  1.00  0.00     0.029 A 
ATOM     24  C   UNL     1       5.873  -7.830   1.221  1.00  0.00     0.049 A 
ATOM     25  H   UNL     1       6.615  -7.734  -0.724  1.00  0.00     0.167 HD
ATOM     26  C   UNL     1       7.966  -7.200  -4.975  1.00  0.00     0.037 A 
ATOM     27  C   UNL     1       6.348  -8.972   1.750  1.00  0.00     0.037 A 
ATOM     28  C   UNL     1       8.469  -8.471  -4.529  1.00  0.00     0.049 A 
ATOM     29  C   UNL     1       7.165  -9.855   0.848  1.00  0.00     0.074 A 
ATOM     30  C   UNL     1       9.230  -9.395  -5.216  1.00  0.00     0.029 A 
ATOM     31  N   UNL     1       8.255  -8.988  -3.255  1.00  0.00    -0.354 N 
ATOM     32  N   UNL     1       7.549  -9.641  -0.390  1.00  0.00    -0.248 NA
ATOM     33  C   UNL     1       7.591 -11.146   1.396  1.00  0.00     0.031 C 
ATOM     34  C   UNL     1       9.441 -10.491  -4.371  1.00  0.00     0.029 A 
ATOM     35  C   UNL     1       8.857 -10.226  -3.139  1.00  0.00     0.049 A 
ATOM     36  H   UNL     1       7.748  -8.538  -2.541  1.00  0.00     0.167 HD
ATOM     37  C   UNL     1       8.272 -10.761  -0.767  1.00  0.00     0.074 A 
ATOM     38  C   UNL     1       8.294 -11.642   0.387  1.00  0.00     0.031 C 
ATOM     39  C   UNL     1       8.857 -11.050  -1.955  1.00  0.00     0.037 A 
BRANCH  26  40
ATOM     40  C   UNL     1       8.252  -6.732  -6.369  1.00  0.00     0.064 A 
ATOM     41  C   UNL     1       9.097  -5.646  -6.636  1.00  0.00     0.173 A 
ATOM     42  C   UNL     1       7.638  -7.369  -7.459  1.00  0.00     0.173 A 
ATOM     43  F   UNL     1       9.680  -4.979  -5.628  1.00  0.00    -0.203 F 
ATOM     44  C   UNL     1       9.301  -5.201  -7.942  1.00  0.00     0.198 A 
ATOM     45  C   UNL     1       7.864  -6.939  -8.763  1.00  0.00     0.198 A 
ATOM     46  F   UNL     1       6.808  -8.403  -7.257  1.00  0.00    -0.203 F 
ATOM     47  F   UNL     1      10.069  -4.127  -8.170  1.00  0.00    -0.200 F 
ATOM     48  C   UNL     1       8.689  -5.851  -9.003  1.00  0.00     0.200 A 
ATOM     49  F   UNL     1       7.270  -7.568  -9.787  1.00  0.00    -0.200 F 
ATOM     50  F   UNL     1       8.882  -5.419 -10.257  1.00  0.00    -0.200 F 
ENDBRANCH  26  40
BRANCH  27  51
ATOM     51  C   UNL     1       5.995  -9.372   3.140  1.00  0.00     0.064 A 
ATOM     52  C   UNL     1       6.979  -9.531   4.125  1.00  0.00     0.173 A 
ATOM     53  C   UNL     1       4.664  -9.628   3.509  1.00  0.00     0.173 A 
ATOM     54  F   UNL     1       8.269  -9.320   3.824  1.00  0.00    -0.203 F 
ATOM     55  C   UNL     1       6.650  -9.953   5.413  1.00  0.00     0.198 A 
ATOM     56  C   UNL     1       4.332 -10.014   4.806  1.00  0.00     0.198 A 
ATOM     57  F   UNL     1       3.678  -9.496   2.610  1.00  0.00    -0.203 F 
ATOM     58  F   UNL     1       7.618 -10.153   6.318  1.00  0.00    -0.200 F 
ATOM     59  C   UNL     1       5.326 -10.189   5.754  1.00  0.00     0.200 A 
ATOM     60  F   UNL     1       3.049 -10.225   5.133  1.00  0.00    -0.200 F 
ATOM     61  F   UNL     1       5.012 -10.597   6.991  1.00  0.00    -0.200 F 
ENDBRANCH  27  51
BRANCH  39  62
ATOM     62  C   UNL     1       9.598 -12.348  -2.036  1.00  0.00     0.064 A 
ATOM     63  C   UNL     1       8.922 -13.575  -2.102  1.00  0.00     0.173 A 
ATOM     64  C   UNL     1      10.998 -12.355  -2.095  1.00  0.00     0.173 A 
ATOM     65  F   UNL     1       7.583 -13.613  -2.031  1.00  0.00    -0.203 F 
ATOM     66  C   UNL     1       9.628 -14.768  -2.203  1.00  0.00     0.198 A 
ATOM     67  C   UNL     1      11.698 -13.548  -2.228  1.00  0.00     0.198 A 
ATOM     68  F   UNL     1      11.684 -11.203  -2.041  1.00  0.00    -0.203 F 
ATOM     69  F   UNL     1       8.968 -15.934  -2.218  1.00  0.00    -0.200 F 
ATOM     70  C   UNL     1      11.014 -14.753  -2.275  1.00  0.00     0.200 A 
ATOM     71  F   UNL     1      13.036 -13.531  -2.312  1.00  0.00    -0.200 F 
ATOM     72  F   UNL     1      11.691 -15.904  -2.383  1.00  0.00    -0.200 F 
ENDBRANCH  39  62
ENDBRANCH  13  14
ENDBRANCH   6   8
ENDBRANCH   5   6
ENDBRANCH   4   5
ENDBRANCH   3   4
ENDBRANCH   2   3
ENDBRANCH   1   2
BRANCH   1  73
ATOM     73  C   UNL     1       2.301   0.902   3.517  1.00  0.00     0.261 C 
BRANCH  73  74
ATOM     74  O   UNL     1       3.384   1.857   3.443  1.00  0.00    -0.463 OA
BRANCH  74  75
ATOM     75  C   UNL     1       4.591   1.393   3.877  1.00  0.00     0.310 C 
ATOM     76  O   UNL     1       4.762   0.299   4.402  1.00  0.00    -0.252 OA
BRANCH  75  77
ATOM     77  C   UNL     1       5.685   2.437   3.740  1.00  0.00     0.119 C 
ATOM     78  C   UNL     1       5.876   3.116   2.332  1.00  0.00     0.100 C 
ATOM     79  C   UNL     1       7.081   1.801   3.977  1.00  0.00     0.027 C 
ATOM     80  C   UNL     1       7.375   2.873   2.036  1.00  0.00     0.025 C 
ATOM     81  C   UNL     1       7.352   0.751   2.918  1.00  0.00    -0.027 C 
ATOM     82  C   UNL     1       7.991   2.905   3.437  1.00  0.00     0.017 C 
ATOM     83  C   UNL     1       7.532   1.391   1.754  1.00  0.00    -0.027 C 
BRANCH  78  84
ATOM     84  C   UNL     1       5.455   4.575   2.339  1.00  0.00     0.227 C 
ATOM     85  O   UNL     1       5.361   5.217   3.382  1.00  0.00    -0.275 OA
ATOM     86  N   UNL     1       5.027   5.091   1.107  1.00  0.00    -0.331 N 
ATOM     87  C   UNL     1       6.025   5.374   0.064  1.00  0.00     0.181 C 
ATOM     88  C   UNL     1       3.894   6.011   1.203  1.00  0.00     0.181 C 
ATOM     89  C   UNL     1       5.501   6.091  -1.205  1.00  0.00     0.284 C 
ATOM     90  C   UNL     1       3.404   6.584  -0.133  1.00  0.00     0.284 C 
ATOM     91  N   UNL     1       4.452   7.100  -1.017  1.00  0.00    -0.329 N 
ATOM     92  H   UNL     1       4.023   7.251  -1.930  1.00  0.00     0.348 HD
BRANCH  91  93
ATOM     93  C   UNL     1       4.914   8.463  -0.734  1.00  0.00     0.291 C 
BRANCH  93  94
ATOM     94  C   UNL     1       5.707   8.652   0.522  1.00  0.00     0.034 C 
ATOM     95  C   UNL     1       7.006   8.984   0.576  1.00  0.00     0.009 C 
BRANCH  95  96
ATOM     96  C   UNL     1       7.773   8.942   1.829  1.00  0.00    -0.026 A 
ATOM     97  C   UNL     1       8.705   9.936   2.132  1.00  0.00     0.008 A 
ATOM     98  C   UNL     1       7.666   7.837   2.687  1.00  0.00     0.008 A 
ATOM     99  C   UNL     1       9.515   9.819   3.268  1.00  0.00     0.001 A 
ATOM    100  C   UNL     1       8.483   7.708   3.808  1.00  0.00     0.001 A 
ATOM    101  C   UNL     1       9.412   8.700   4.097  1.00  0.00     0.000 A 
ENDBRANCH  95  96
ENDBRANCH  93  94
ENDBRANCH  91  93
ENDBRANCH  78  84
ENDBRANCH  75  77
ENDBRANCH  74  75
ENDBRANCH  73  74
ENDBRANCH   1  73
TORSDOF 18
