REMARK SMILES C[C@H]1[C@H](C(=O)OCCOCCOC(=O)c2ccc(-c3c4nc(c(-c5c(F)c(F)c(F)c(F)c5F)c5ccc([nH]5)c(-c5c(F)c(F)c(F)c(F)c5F)c5nc(c(-c6c(F)c(F)c(F)c(F)c6F)c6ccc3[nH]6)C=C5)C=C4)cc2)CCN1C(=O)[C@H]1CC=CCC1
REMARK SMILES IDX 9 1 8 2 7 3 6 4 4 5 5 6 3 7 1 8 2 9 80 10 78 11 79 12 81 13
REMARK SMILES IDX 82 14 83 15 84 16 88 17 85 18 87 19 86 20 10 21 11 22 12 23
REMARK SMILES IDX 13 24 14 25 15 26 16 27 77 28 17 29 76 30 18 31 19 32 20 33
REMARK SMILES IDX 70 34 21 35 75 36 69 37 71 38 22 39 74 40 68 41 67 42 23 44
REMARK SMILES IDX 55 45 35 46 54 47 36 48 39 49 53 50 72 51 37 52 38 53 52 55
REMARK SMILES IDX 73 56 40 57 24 58 25 59 33 60 26 61 27 62 31 63 34 64 28 65
REMARK SMILES IDX 29 66 32 67 30 68 56 69 57 70 65 71 58 72 59 73 63 74 66 75
REMARK SMILES IDX 60 76 61 77 64 78 62 79 41 80 42 81 50 82 43 83 44 84 48 85
REMARK SMILES IDX 51 86 45 87 46 88 49 89 47 90
REMARK H PARENT 71 43 39 54
REMARK Flexibility Score: inf
ROOT
ATOM      1  O   UNL     1       1.104   4.374   2.538  1.00  0.00    -0.374 OA
ENDROOT
BRANCH   1   2
ATOM      2  C   UNL     1       0.128   3.785   3.393  1.00  0.00     0.202 C 
BRANCH   2   3
ATOM      3  C   UNL     1      -1.125   3.256   2.693  1.00  0.00     0.261 C 
BRANCH   3   4
ATOM      4  O   UNL     1      -0.857   2.122   1.844  1.00  0.00    -0.463 OA
BRANCH   4   5
ATOM      5  C   UNL     1      -0.960   2.360   0.509  1.00  0.00     0.311 C 
ATOM      6  O   UNL     1      -1.166   3.459   0.007  1.00  0.00    -0.252 OA
BRANCH   5   7
ATOM      7  C   UNL     1      -0.887   1.106  -0.324  1.00  0.00     0.123 C 
ATOM      8  C   UNL     1       1.339   0.326  -1.095  1.00  0.00     0.032 C 
ATOM      9  C   UNL     1       0.266   0.114  -0.023  1.00  0.00     0.096 C 
ATOM     10  N   UNL     1      -0.362  -1.221  -0.104  1.00  0.00    -0.339 N 
ATOM     11  C   UNL     1      -2.161   0.287  -0.190  1.00  0.00     0.039 C 
ATOM     12  C   UNL     1      -1.715  -1.089  -0.631  1.00  0.00     0.121 C 
BRANCH  10  13
ATOM     13  C   UNL     1       0.060  -2.486   0.237  1.00  0.00     0.226 C 
ATOM     14  O   UNL     1      -0.672  -3.452  -0.037  1.00  0.00    -0.275 OA
BRANCH  13  15
ATOM     15  C   UNL     1       1.365  -2.818   0.973  1.00  0.00     0.083 C 
ATOM     16  C   UNL     1       2.652  -2.693   0.156  1.00  0.00     0.040 C 
ATOM     17  C   UNL     1       1.445  -2.355   2.427  1.00  0.00     0.018 C 
ATOM     18  C   UNL     1       3.606  -1.635   0.617  1.00  0.00    -0.030 C 
ATOM     19  C   UNL     1       2.328  -1.145   2.702  1.00  0.00     0.028 C 
ATOM     20  C   UNL     1       3.449  -0.930   1.742  1.00  0.00    -0.031 C 
ENDBRANCH  13  15
ENDBRANCH  10  13
ENDBRANCH   5   7
ENDBRANCH   4   5
ENDBRANCH   3   4
ENDBRANCH   2   3
ENDBRANCH   1   2
BRANCH   1  21
ATOM     21  C   UNL     1       1.988   3.479   1.861  1.00  0.00     0.202 C 
BRANCH  21  22
ATOM     22  C   UNL     1       3.145   2.954   2.715  1.00  0.00     0.261 C 
BRANCH  22  23
ATOM     23  O   UNL     1       2.664   2.093   3.766  1.00  0.00    -0.460 OA
BRANCH  23  24
ATOM     24  C   UNL     1       3.035   2.460   5.016  1.00  0.00     0.338 C 
ATOM     25  O   UNL     1       3.836   3.322   5.328  1.00  0.00    -0.246 OA
BRANCH  24  26
ATOM     26  C   UNL     1       2.212   1.755   6.018  1.00  0.00     0.060 A 
ATOM     27  C   UNL     1       1.500   2.531   6.936  1.00  0.00     0.016 A 
ATOM     28  C   UNL     1       2.233   0.365   6.139  1.00  0.00     0.016 A 
ATOM     29  C   UNL     1       0.872   1.921   8.022  1.00  0.00     0.010 A 
ATOM     30  C   UNL     1       1.573  -0.252   7.207  1.00  0.00     0.010 A 
ATOM     31  C   UNL     1       0.946   0.530   8.192  1.00  0.00    -0.014 A 
BRANCH  31  32
ATOM     32  C   UNL     1       0.548  -0.062   9.496  1.00  0.00     0.031 A 
ATOM     33  C   UNL     1       1.623  -0.474  10.470  1.00  0.00     0.074 A 
ATOM     34  C   UNL     1      -0.746  -0.169   9.844  1.00  0.00     0.049 A 
ATOM     35  N   UNL     1       1.508  -0.929  11.694  1.00  0.00    -0.248 NA
ATOM     36  C   UNL     1       3.014  -0.368  10.002  1.00  0.00     0.031 C 
ATOM     37  C   UNL     1      -1.882   0.185   8.996  1.00  0.00     0.029 A 
ATOM     38  N   UNL     1      -1.320  -0.598  11.015  1.00  0.00    -0.354 N 
ATOM     39  C   UNL     1       2.805  -1.162  12.134  1.00  0.00     0.074 A 
ATOM     40  C   UNL     1       3.690  -0.850  11.033  1.00  0.00     0.031 C 
ATOM     41  C   UNL     1      -3.019  -0.024   9.681  1.00  0.00     0.029 A 
ATOM     42  C   UNL     1      -2.691  -0.535  11.011  1.00  0.00     0.049 A 
ATOM     43  H   UNL     1      -0.798  -0.921  11.785  1.00  0.00     0.167 HD
ATOM     44  C   UNL     1       3.229  -1.573  13.353  1.00  0.00     0.037 A 
ATOM     45  C   UNL     1      -3.579  -0.845  11.977  1.00  0.00     0.037 A 
ATOM     46  C   UNL     1       2.360  -1.862  14.461  1.00  0.00     0.049 A 
ATOM     47  C   UNL     1      -3.084  -1.305  13.324  1.00  0.00     0.074 A 
ATOM     48  C   UNL     1       2.696  -2.251  15.745  1.00  0.00     0.029 A 
ATOM     49  N   UNL     1       0.976  -1.790  14.413  1.00  0.00    -0.354 N 
ATOM     50  N   UNL     1      -1.854  -1.466  13.745  1.00  0.00    -0.248 NA
ATOM     51  C   UNL     1      -4.107  -1.609  14.335  1.00  0.00     0.031 C 
ATOM     52  C   UNL     1       1.514  -2.446  16.467  1.00  0.00     0.029 A 
ATOM     53  C   UNL     1       0.443  -2.140  15.643  1.00  0.00     0.049 A 
ATOM     54  H   UNL     1       0.450  -1.528  13.623  1.00  0.00     0.167 HD
ATOM     55  C   UNL     1      -1.952  -1.862  15.073  1.00  0.00     0.074 A 
ATOM     56  C   UNL     1      -3.364  -1.902  15.393  1.00  0.00     0.031 C 
ATOM     57  C   UNL     1      -0.963  -2.164  15.949  1.00  0.00     0.037 A 
BRANCH  44  58
ATOM     58  C   UNL     1       4.707  -1.733  13.550  1.00  0.00     0.064 A 
ATOM     59  C   UNL     1       5.559  -0.622  13.643  1.00  0.00     0.173 A 
ATOM     60  C   UNL     1       5.276  -3.010  13.669  1.00  0.00     0.173 A 
ATOM     61  F   UNL     1       5.065   0.619  13.519  1.00  0.00    -0.203 F 
ATOM     62  C   UNL     1       6.930  -0.784  13.822  1.00  0.00     0.198 A 
ATOM     63  C   UNL     1       6.644  -3.167  13.875  1.00  0.00     0.198 A 
ATOM     64  F   UNL     1       4.504  -4.104  13.590  1.00  0.00    -0.203 F 
ATOM     65  F   UNL     1       7.731   0.290  13.861  1.00  0.00    -0.200 F 
ATOM     66  C   UNL     1       7.471  -2.056  13.944  1.00  0.00     0.200 A 
ATOM     67  F   UNL     1       7.164  -4.396  14.001  1.00  0.00    -0.200 F 
ATOM     68  F   UNL     1       8.790  -2.210  14.119  1.00  0.00    -0.200 F 
ENDBRANCH  44  58
BRANCH  45  69
ATOM     69  C   UNL     1      -5.034  -0.698  11.719  1.00  0.00     0.064 A 
ATOM     70  C   UNL     1      -5.778   0.317  12.338  1.00  0.00     0.173 A 
ATOM     71  C   UNL     1      -5.712  -1.579  10.866  1.00  0.00     0.173 A 
ATOM     72  F   UNL     1      -5.176   1.168  13.182  1.00  0.00    -0.203 F 
ATOM     73  C   UNL     1      -7.150   0.432  12.127  1.00  0.00     0.198 A 
ATOM     74  C   UNL     1      -7.080  -1.447  10.637  1.00  0.00     0.198 A 
ATOM     75  F   UNL     1      -5.044  -2.566  10.251  1.00  0.00    -0.203 F 
ATOM     76  F   UNL     1      -7.846   1.383  12.765  1.00  0.00    -0.200 F 
ATOM     77  C   UNL     1      -7.799  -0.447  11.274  1.00  0.00     0.200 A 
ATOM     78  F   UNL     1      -7.702  -2.293   9.805  1.00  0.00    -0.200 F 
ATOM     79  F   UNL     1      -9.119  -0.335  11.071  1.00  0.00    -0.200 F 
ENDBRANCH  45  69
BRANCH  57  80
ATOM     80  C   UNL     1      -1.369  -2.532  17.346  1.00  0.00     0.064 A 
ATOM     81  C   UNL     1      -1.962  -3.769  17.637  1.00  0.00     0.173 A 
ATOM     82  C   UNL     1      -1.128  -1.650  18.410  1.00  0.00     0.173 A 
ATOM     83  F   UNL     1      -2.224  -4.640  16.651  1.00  0.00    -0.203 F 
ATOM     84  C   UNL     1      -2.325  -4.098  18.941  1.00  0.00     0.198 A 
ATOM     85  C   UNL     1      -1.468  -1.994  19.716  1.00  0.00     0.198 A 
ATOM     86  F   UNL     1      -0.555  -0.458  18.185  1.00  0.00    -0.203 F 
ATOM     87  F   UNL     1      -2.933  -5.266  19.190  1.00  0.00    -0.200 F 
ATOM     88  C   UNL     1      -2.073  -3.213  19.979  1.00  0.00     0.200 A 
ATOM     89  F   UNL     1      -1.214  -1.143  20.719  1.00  0.00    -0.200 F 
ATOM     90  F   UNL     1      -2.420  -3.534  21.233  1.00  0.00    -0.200 F 
ENDBRANCH  57  80
ENDBRANCH  31  32
ENDBRANCH  24  26
ENDBRANCH  23  24
ENDBRANCH  22  23
ENDBRANCH  21  22
ENDBRANCH   1  21
TORSDOF 16
