REMARK SMILES Cc1c(-c2nn(-c3ccccc3)cc2/C=N/O)nnn1-c1ccc(C(=O)OCCOCCOC(=O)c2ccc(-c3c4nc(c(-c5c(F)c(F)c(F)c(F)c5F)c5ccc([nH]5)c(-c5c(F)c(F)c(F)c(F)c5F)c5nc(c(-c6c(F)c(F)c(F)c(F)c6F)c6ccc3[nH]6)C=C5)C=C4)cc2)cc1
REMARK SMILES IDX 29 1 28 2 27 3 25 4 26 5 24 6 21 7 22 8 100 9 23 10 99 11
REMARK SMILES IDX 20 12 1 13 2 14 3 15 18 16 19 17 4 18 5 19 14 20 6 21 13 22
REMARK SMILES IDX 15 23 16 24 17 25 7 27 8 28 12 29 9 30 11 31 10 32 30 33
REMARK SMILES IDX 31 34 32 35 33 36 34 37 35 38 36 39 37 40 98 41 38 42 97 43
REMARK SMILES IDX 39 44 40 45 41 46 91 47 42 48 96 49 90 50 92 51 43 52 95 53
REMARK SMILES IDX 89 54 88 55 44 57 76 58 56 59 75 60 57 61 60 62 74 63 93 64
REMARK SMILES IDX 58 65 59 66 73 68 94 69 61 70 45 71 46 72 54 73 47 74 48 75
REMARK SMILES IDX 52 76 55 77 49 78 50 79 53 80 51 81 77 82 78 83 86 84 79 85
REMARK SMILES IDX 80 86 84 87 87 88 81 89 82 90 85 91 83 92 62 93 63 94 71 95
REMARK SMILES IDX 64 96 65 97 69 98 72 99 66 100 67 101 70 102 68 103
REMARK H PARENT 17 26 92 56 60 67
REMARK Flexibility Score: inf
ROOT
ATOM      1  C   UNL     1       2.958   7.535  -4.346  1.00  0.00     0.202 C 
ENDROOT
BRANCH   1   2
ATOM      2  C   UNL     1       3.008   6.014  -4.506  1.00  0.00     0.261 C 
BRANCH   2   3
ATOM      3  O   UNL     1       2.268   5.332  -3.478  1.00  0.00    -0.460 OA
BRANCH   3   4
ATOM      4  C   UNL     1       3.039   4.661  -2.587  1.00  0.00     0.338 C 
ATOM      5  O   UNL     1       4.253   4.557  -2.599  1.00  0.00    -0.246 OA
BRANCH   4   6
ATOM      6  C   UNL     1       2.222   4.148  -1.468  1.00  0.00     0.060 A 
ATOM      7  C   UNL     1       0.998   2.813   0.632  1.00  0.00     0.067 A 
ATOM      8  C   UNL     1       2.149   3.562   0.886  1.00  0.00     0.029 A 
ATOM      9  C   UNL     1       0.386   2.839  -0.631  1.00  0.00     0.029 A 
ATOM     10  C   UNL     1       2.778   4.202  -0.180  1.00  0.00     0.018 A 
ATOM     11  C   UNL     1       0.990   3.528  -1.684  1.00  0.00     0.018 A 
BRANCH   7  12
ATOM     12  N   UNL     1       0.551   1.906   1.616  1.00  0.00    -0.217 N 
ATOM     13  C   UNL     1       0.631  -0.226   0.233  1.00  0.00     0.069 C 
ATOM     14  C   UNL     1       0.325   0.551   1.457  1.00  0.00     0.071 A 
ATOM     15  C   UNL     1      -0.074   0.149   2.715  1.00  0.00     0.137 A 
ATOM     16  N   UNL     1       0.006   1.192   3.591  1.00  0.00    -0.128 NA
ATOM     17  N   UNL     1       0.466   2.246   2.923  1.00  0.00    -0.061 NA
BRANCH  15  18
ATOM     18  C   UNL     1      -0.447  -1.198   3.135  1.00  0.00     0.124 A 
ATOM     19  N   UNL     1       0.448  -2.192   3.212  1.00  0.00    -0.165 NA
ATOM     20  C   UNL     1      -1.768  -1.637   3.377  1.00  0.00     0.044 A 
ATOM     21  N   UNL     1      -0.299  -3.303   3.394  1.00  0.00    -0.240 N 
ATOM     22  C   UNL     1      -1.639  -3.008   3.492  1.00  0.00     0.125 A 
BRANCH  20  23
ATOM     23  C   UNL     1      -3.015  -0.921   3.471  1.00  0.00     0.166 C 
ATOM     24  N   UNL     1      -3.058   0.344   3.216  1.00  0.00    -0.097 NA
BRANCH  24  25
ATOM     25  O   UNL     1      -4.362   0.812   3.416  1.00  0.00    -0.411 OA
ATOM     26  H   UNL     1      -4.562   1.716   3.273  1.00  0.00     0.330 HD
ENDBRANCH  24  25
ENDBRANCH  20  23
BRANCH  21  27
ATOM     27  C   UNL     1       0.295  -4.586   3.434  1.00  0.00     0.065 A 
ATOM     28  C   UNL     1       1.578  -4.733   3.976  1.00  0.00     0.028 A 
ATOM     29  C   UNL     1      -0.391  -5.701   2.936  1.00  0.00     0.028 A 
ATOM     30  C   UNL     1       2.154  -6.002   4.057  1.00  0.00     0.002 A 
ATOM     31  C   UNL     1       0.215  -6.958   2.973  1.00  0.00     0.002 A 
ATOM     32  C   UNL     1       1.478  -7.111   3.547  1.00  0.00     0.000 A 
ENDBRANCH  21  27
ENDBRANCH  15  18
ENDBRANCH   7  12
ENDBRANCH   4   6
ENDBRANCH   3   4
ENDBRANCH   2   3
ENDBRANCH   1   2
BRANCH   1  33
ATOM     33  O   UNL     1       3.634   8.096  -3.221  1.00  0.00    -0.374 OA
BRANCH  33  34
ATOM     34  C   UNL     1       3.082   7.919  -1.923  1.00  0.00     0.202 C 
BRANCH  34  35
ATOM     35  C   UNL     1       1.846   8.728  -1.565  1.00  0.00     0.261 C 
BRANCH  35  36
ATOM     36  O   UNL     1       0.731   8.441  -2.399  1.00  0.00    -0.460 OA
BRANCH  36  37
ATOM     37  C   UNL     1       0.489   9.402  -3.322  1.00  0.00     0.338 C 
ATOM     38  O   UNL     1       1.276  10.216  -3.764  1.00  0.00    -0.246 OA
BRANCH  37  39
ATOM     39  C   UNL     1      -0.953   9.441  -3.586  1.00  0.00     0.060 A 
ATOM     40  C   UNL     1      -1.401  10.443  -4.448  1.00  0.00     0.016 A 
ATOM     41  C   UNL     1      -1.844   8.668  -2.823  1.00  0.00     0.016 A 
ATOM     42  C   UNL     1      -2.739  10.771  -4.439  1.00  0.00     0.010 A 
ATOM     43  C   UNL     1      -3.179   9.005  -2.805  1.00  0.00     0.010 A 
ATOM     44  C   UNL     1      -3.600  10.087  -3.572  1.00  0.00    -0.014 A 
BRANCH  44  45
ATOM     45  C   UNL     1      -5.000  10.454  -3.603  1.00  0.00     0.031 A 
ATOM     46  C   UNL     1      -5.688   9.989  -4.823  1.00  0.00     0.074 A 
ATOM     47  C   UNL     1      -5.621  11.081  -2.587  1.00  0.00     0.049 A 
ATOM     48  N   UNL     1      -6.202  10.715  -5.756  1.00  0.00    -0.248 NA
ATOM     49  C   UNL     1      -5.679   8.547  -5.115  1.00  0.00     0.031 C 
ATOM     50  C   UNL     1      -5.091  11.305  -1.241  1.00  0.00     0.029 A 
ATOM     51  N   UNL     1      -6.897  11.560  -2.512  1.00  0.00    -0.354 N 
ATOM     52  C   UNL     1      -6.773   9.817  -6.651  1.00  0.00     0.074 A 
ATOM     53  C   UNL     1      -6.264   8.517  -6.312  1.00  0.00     0.031 C 
ATOM     54  C   UNL     1      -6.100  11.684  -0.427  1.00  0.00     0.029 A 
ATOM     55  C   UNL     1      -7.308  11.854  -1.220  1.00  0.00     0.049 A 
ATOM     56  H   UNL     1      -7.472  11.686  -3.301  1.00  0.00     0.167 HD
ATOM     57  C   UNL     1      -7.855  10.191  -7.382  1.00  0.00     0.037 A 
ATOM     58  C   UNL     1      -8.561  12.172  -0.817  1.00  0.00     0.037 A 
ATOM     59  C   UNL     1      -7.992  11.625  -7.405  1.00  0.00     0.049 A 
ATOM     60  C   UNL     1      -9.321  12.659  -1.992  1.00  0.00     0.074 A 
ATOM     61  C   UNL     1      -7.425  12.679  -8.083  1.00  0.00     0.029 A 
ATOM     62  N   UNL     1      -8.640  12.141  -6.316  1.00  0.00    -0.354 N 
ATOM     63  N   UNL     1      -9.084  13.796  -2.583  1.00  0.00    -0.248 NA
ATOM     64  C   UNL     1     -10.180  11.738  -2.732  1.00  0.00     0.031 C 
ATOM     65  C   UNL     1      -7.672  13.846  -7.299  1.00  0.00     0.029 A 
ATOM     66  C   UNL     1      -8.391  13.477  -6.165  1.00  0.00     0.049 A 
ATOM     67  H   UNL     1      -9.216  11.615  -5.715  1.00  0.00     0.167 HD
ATOM     68  C   UNL     1      -9.390  13.558  -3.907  1.00  0.00     0.074 A 
ATOM     69  C   UNL     1     -10.230  12.370  -3.907  1.00  0.00     0.031 C 
ATOM     70  C   UNL     1      -8.653  14.125  -4.902  1.00  0.00     0.037 A 
BRANCH  57  71
ATOM     71  C   UNL     1      -9.057   9.303  -7.633  1.00  0.00     0.064 A 
ATOM     72  C   UNL     1     -10.107   9.807  -8.431  1.00  0.00     0.173 A 
ATOM     73  C   UNL     1      -9.374   8.155  -6.874  1.00  0.00     0.173 A 
ATOM     74  F   UNL     1      -9.925  10.897  -9.191  1.00  0.00    -0.203 F 
ATOM     75  C   UNL     1     -11.392   9.260  -8.395  1.00  0.00     0.198 A 
ATOM     76  C   UNL     1     -10.645   7.581  -6.881  1.00  0.00     0.198 A 
ATOM     77  F   UNL     1      -8.517   7.603  -6.009  1.00  0.00    -0.203 F 
ATOM     78  F   UNL     1     -12.386   9.852  -9.070  1.00  0.00    -0.200 F 
ATOM     79  C   UNL     1     -11.662   8.153  -7.613  1.00  0.00     0.200 A 
ATOM     80  F   UNL     1     -10.891   6.519  -6.101  1.00  0.00    -0.200 F 
ATOM     81  F   UNL     1     -12.906   7.665  -7.527  1.00  0.00    -0.200 F 
ENDBRANCH  57  71
BRANCH  58  82
ATOM     82  C   UNL     1      -9.206  11.945   0.494  1.00  0.00     0.064 A 
ATOM     83  C   UNL     1     -10.350  12.663   0.875  1.00  0.00     0.173 A 
ATOM     84  C   UNL     1      -8.868  10.834   1.289  1.00  0.00     0.173 A 
ATOM     85  F   UNL     1     -10.763  13.713   0.149  1.00  0.00    -0.203 F 
ATOM     86  C   UNL     1     -11.130  12.273   1.967  1.00  0.00     0.198 A 
ATOM     87  C   UNL     1      -9.640  10.452   2.386  1.00  0.00     0.198 A 
ATOM     88  F   UNL     1      -7.837  10.041   0.961  1.00  0.00    -0.203 F 
ATOM     89  F   UNL     1     -12.253  12.943   2.259  1.00  0.00    -0.200 F 
ATOM     90  C   UNL     1     -10.779  11.162   2.716  1.00  0.00     0.200 A 
ATOM     91  F   UNL     1      -9.308   9.355   3.083  1.00  0.00    -0.200 F 
ATOM     92  F   UNL     1     -11.560  10.751   3.724  1.00  0.00    -0.200 F 
ENDBRANCH  58  82
BRANCH  70  93
ATOM     93  C   UNL     1      -7.943  15.400  -4.582  1.00  0.00     0.064 A 
ATOM     94  C   UNL     1      -6.886  15.508  -3.664  1.00  0.00     0.173 A 
ATOM     95  C   UNL     1      -8.327  16.556  -5.274  1.00  0.00     0.173 A 
ATOM     96  F   UNL     1      -6.416  14.429  -3.024  1.00  0.00    -0.203 F 
ATOM     97  C   UNL     1      -6.276  16.736  -3.418  1.00  0.00     0.198 A 
ATOM     98  C   UNL     1      -7.691  17.772  -5.054  1.00  0.00     0.198 A 
ATOM     99  F   UNL     1      -9.308  16.498  -6.189  1.00  0.00    -0.203 F 
ATOM    100  F   UNL     1      -5.288  16.827  -2.515  1.00  0.00    -0.200 F 
ATOM    101  C   UNL     1      -6.675  17.865  -4.117  1.00  0.00     0.200 A 
ATOM    102  F   UNL     1      -8.054  18.851  -5.761  1.00  0.00    -0.200 F 
ATOM    103  F   UNL     1      -6.068  19.041  -3.901  1.00  0.00    -0.200 F 
ENDBRANCH  70  93
ENDBRANCH  44  45
ENDBRANCH  37  39
ENDBRANCH  36  37
ENDBRANCH  35  36
ENDBRANCH  34  35
ENDBRANCH  33  34
ENDBRANCH   1  33
TORSDOF 19
