REMARK SMILES O=C(OCCOCCOC(=O)C(Cl)(c1ccccc1)c1ccccc1)c1ccc(-c2c3nc(c(-c4c(F)c(F)c(F)c(F)c4F)c4ccc([nH]4)c(-c4c(F)c(F)c(F)c(F)c4F)c4nc(c(-c5c(F)c(F)c(F)c(F)c5F)c5ccc2[nH]5)C=C4)C=C3)cc1
REMARK SMILES IDX 5 1 4 2 3 3 2 4 1 5 26 6 27 7 88 8 28 9 87 10 29 11 30 12
REMARK SMILES IDX 31 13 81 14 32 15 86 16 80 17 82 18 33 19 85 20 79 21 78 22
REMARK SMILES IDX 34 24 66 25 46 26 65 27 47 28 50 29 64 30 83 31 48 32 49 33
REMARK SMILES IDX 63 35 84 36 51 37 35 38 36 39 44 40 37 41 38 42 42 43 45 44
REMARK SMILES IDX 39 45 40 46 43 47 41 48 67 49 68 50 76 51 69 52 70 53 74 54
REMARK SMILES IDX 77 55 71 56 72 57 75 58 73 59 52 60 53 61 61 62 54 63 55 64
REMARK SMILES IDX 59 65 62 66 56 67 57 68 60 69 58 70 6 71 7 72 8 73 9 74
REMARK SMILES IDX 10 75 11 76 12 77 13 78 14 79 15 80 19 81 16 82 18 83 17 84
REMARK SMILES IDX 20 85 21 86 25 87 22 88 24 89 23 90
REMARK H PARENT 82 23 50 34
REMARK Flexibility Score: inf
ROOT
ATOM      1  C   UNL     1       4.199   1.225  -0.769  1.00  0.00     0.202 C 
ENDROOT
BRANCH   1   2
ATOM      2  C   UNL     1       3.730  -0.021  -1.529  1.00  0.00     0.261 C 
BRANCH   2   3
ATOM      3  O   UNL     1       2.344  -0.315  -1.260  1.00  0.00    -0.460 OA
BRANCH   3   4
ATOM      4  C   UNL     1       1.855  -1.412  -0.626  1.00  0.00     0.338 C 
ATOM      5  O   UNL     1       0.657  -1.665  -0.668  1.00  0.00    -0.246 OA
BRANCH   4   6
ATOM      6  C   UNL     1       2.751  -2.325   0.134  1.00  0.00     0.060 A 
ATOM      7  C   UNL     1       3.868  -1.868   0.828  1.00  0.00     0.016 A 
ATOM      8  C   UNL     1       2.422  -3.684   0.218  1.00  0.00     0.016 A 
ATOM      9  C   UNL     1       4.729  -2.739   1.462  1.00  0.00     0.010 A 
ATOM     10  C   UNL     1       3.234  -4.562   0.948  1.00  0.00     0.010 A 
ATOM     11  C   UNL     1       4.406  -4.088   1.552  1.00  0.00    -0.014 A 
BRANCH  11  12
ATOM     12  C   UNL     1       5.370  -4.958   2.251  1.00  0.00     0.031 A 
ATOM     13  C   UNL     1       6.189  -5.918   1.448  1.00  0.00     0.074 A 
ATOM     14  C   UNL     1       5.619  -4.736   3.555  1.00  0.00     0.049 A 
ATOM     15  N   UNL     1       7.067  -6.793   1.854  1.00  0.00    -0.248 NA
ATOM     16  C   UNL     1       6.009  -5.875  -0.013  1.00  0.00     0.031 C 
ATOM     17  C   UNL     1       4.959  -3.714   4.376  1.00  0.00     0.029 A 
ATOM     18  N   UNL     1       6.528  -5.303   4.406  1.00  0.00    -0.354 N 
ATOM     19  C   UNL     1       7.517  -7.430   0.707  1.00  0.00     0.074 A 
ATOM     20  C   UNL     1       6.823  -6.839  -0.415  1.00  0.00     0.031 C 
ATOM     21  C   UNL     1       5.525  -3.691   5.592  1.00  0.00     0.029 A 
ATOM     22  C   UNL     1       6.512  -4.759   5.668  1.00  0.00     0.049 A 
ATOM     23  H   UNL     1       7.136  -6.031   4.140  1.00  0.00     0.167 HD
ATOM     24  C   UNL     1       8.424  -8.429   0.615  1.00  0.00     0.037 A 
ATOM     25  C   UNL     1       7.191  -5.121   6.771  1.00  0.00     0.037 A 
ATOM     26  C   UNL     1       9.098  -8.986   1.756  1.00  0.00     0.049 A 
ATOM     27  C   UNL     1       8.128  -6.292   6.654  1.00  0.00     0.074 A 
ATOM     28  C   UNL     1       9.948 -10.073   1.821  1.00  0.00     0.029 A 
ATOM     29  N   UNL     1       8.998  -8.473   3.044  1.00  0.00    -0.354 N 
ATOM     30  N   UNL     1       8.457  -6.983   5.588  1.00  0.00    -0.248 NA
ATOM     31  C   UNL     1       8.765  -6.754   7.892  1.00  0.00     0.031 C 
ATOM     32  C   UNL     1      10.341 -10.235   3.155  1.00  0.00     0.029 A 
ATOM     33  C   UNL     1       9.769  -9.223   3.914  1.00  0.00     0.049 A 
ATOM     34  H   UNL     1       8.459  -7.691   3.300  1.00  0.00     0.167 HD
ATOM     35  C   UNL     1       9.334  -7.963   6.024  1.00  0.00     0.074 A 
ATOM     36  C   UNL     1       9.518  -7.749   7.446  1.00  0.00     0.031 C 
ATOM     37  C   UNL     1       9.921  -8.965   5.323  1.00  0.00     0.037 A 
BRANCH  24  38
ATOM     38  C   UNL     1       8.662  -9.011  -0.745  1.00  0.00     0.064 A 
ATOM     39  C   UNL     1       9.391  -8.328  -1.728  1.00  0.00     0.173 A 
ATOM     40  C   UNL     1       8.116 -10.259  -1.081  1.00  0.00     0.173 A 
ATOM     41  F   UNL     1       9.903  -7.115  -1.468  1.00  0.00    -0.203 F 
ATOM     42  C   UNL     1       9.544  -8.862  -3.006  1.00  0.00     0.198 A 
ATOM     43  C   UNL     1       8.290 -10.801  -2.351  1.00  0.00     0.198 A 
ATOM     44  F   UNL     1       7.399 -10.948  -0.179  1.00  0.00    -0.203 F 
ATOM     45  F   UNL     1      10.197  -8.167  -3.948  1.00  0.00    -0.200 F 
ATOM     46  C   UNL     1       8.997 -10.098  -3.315  1.00  0.00     0.200 A 
ATOM     47  F   UNL     1       7.758 -11.995  -2.648  1.00  0.00    -0.200 F 
ATOM     48  F   UNL     1       9.136 -10.606  -4.548  1.00  0.00    -0.200 F 
ENDBRANCH  24  38
BRANCH  25  49
ATOM     49  C   UNL     1       6.949  -4.439   8.072  1.00  0.00     0.064 A 
ATOM     50  C   UNL     1       7.970  -3.749   8.739  1.00  0.00     0.173 A 
ATOM     51  C   UNL     1       5.691  -4.491   8.695  1.00  0.00     0.173 A 
ATOM     52  F   UNL     1       9.198  -3.687   8.204  1.00  0.00    -0.203 F 
ATOM     53  C   UNL     1       7.749  -3.159   9.984  1.00  0.00     0.198 A 
ATOM     54  C   UNL     1       5.461  -3.869   9.921  1.00  0.00     0.198 A 
ATOM     55  F   UNL     1       4.676  -5.142   8.109  1.00  0.00    -0.203 F 
ATOM     56  F   UNL     1       8.759  -2.556  10.626  1.00  0.00    -0.200 F 
ATOM     57  C   UNL     1       6.494  -3.214  10.571  1.00  0.00     0.200 A 
ATOM     58  F   UNL     1       4.241  -3.915  10.474  1.00  0.00    -0.200 F 
ATOM     59  F   UNL     1       6.283  -2.649  11.767  1.00  0.00    -0.200 F 
ENDBRANCH  25  49
BRANCH  37  60
ATOM     60  C   UNL     1      10.819  -9.879   6.096  1.00  0.00     0.064 A 
ATOM     61  C   UNL     1      10.299 -10.834   6.982  1.00  0.00     0.173 A 
ATOM     62  C   UNL     1      12.209  -9.813   5.930  1.00  0.00     0.173 A 
ATOM     63  F   UNL     1       8.976 -10.917   7.184  1.00  0.00    -0.203 F 
ATOM     64  C   UNL     1      11.145 -11.676   7.696  1.00  0.00     0.198 A 
ATOM     65  C   UNL     1      13.050 -10.676   6.625  1.00  0.00     0.198 A 
ATOM     66  F   UNL     1      12.749  -8.917   5.090  1.00  0.00    -0.203 F 
ATOM     67  F   UNL     1      10.633 -12.548   8.575  1.00  0.00    -0.200 F 
ATOM     68  C   UNL     1      12.518 -11.600   7.512  1.00  0.00     0.200 A 
ATOM     69  F   UNL     1      14.375 -10.610   6.440  1.00  0.00    -0.200 F 
ATOM     70  F   UNL     1      13.331 -12.414   8.199  1.00  0.00    -0.200 F 
ENDBRANCH  37  60
ENDBRANCH  11  12
ENDBRANCH   4   6
ENDBRANCH   3   4
ENDBRANCH   2   3
ENDBRANCH   1   2
BRANCH   1  71
ATOM     71  O   UNL     1       3.923   1.250   0.633  1.00  0.00    -0.374 OA
BRANCH  71  72
ATOM     72  C   UNL     1       2.561   1.539   0.981  1.00  0.00     0.202 C 
BRANCH  72  73
ATOM     73  C   UNL     1       2.536   2.461   2.197  1.00  0.00     0.261 C 
BRANCH  73  74
ATOM     74  O   UNL     1       3.213   3.672   1.835  1.00  0.00    -0.461 OA
BRANCH  74  75
ATOM     75  C   UNL     1       4.565   3.676   2.069  1.00  0.00     0.336 C 
ATOM     76  O   UNL     1       5.111   2.920   2.869  1.00  0.00    -0.249 OA
BRANCH  75  77
ATOM     77  C   UNL     1       5.272   4.821   1.275  1.00  0.00     0.191 C 
ATOM     78  Cl  UNL     1       4.644   4.675  -0.462  1.00  0.00    -0.096 Cl
BRANCH  77  79
ATOM     79  C   UNL     1       4.822   6.185   1.850  1.00  0.00    -0.011 A 
ATOM     80  C   UNL     1       4.711   7.339   1.049  1.00  0.00     0.006 A 
ATOM     81  C   UNL     1       4.478   6.305   3.213  1.00  0.00     0.006 A 
ATOM     82  C   UNL     1       4.223   8.538   1.572  1.00  0.00     0.000 A 
ATOM     83  C   UNL     1       3.973   7.500   3.729  1.00  0.00     0.000 A 
ATOM     84  C   UNL     1       3.839   8.613   2.907  1.00  0.00     0.000 A 
ENDBRANCH  77  79
BRANCH  77  85
ATOM     85  C   UNL     1       6.797   4.605   1.140  1.00  0.00    -0.011 A 
ATOM     86  C   UNL     1       7.324   3.307   0.945  1.00  0.00     0.006 A 
ATOM     87  C   UNL     1       7.706   5.676   1.098  1.00  0.00     0.006 A 
ATOM     88  C   UNL     1       8.691   3.091   0.752  1.00  0.00     0.000 A 
ATOM     89  C   UNL     1       9.073   5.460   0.893  1.00  0.00     0.000 A 
ATOM     90  C   UNL     1       9.566   4.169   0.726  1.00  0.00     0.000 A 
ENDBRANCH  77  85
ENDBRANCH  75  77
ENDBRANCH  74  75
ENDBRANCH  73  74
ENDBRANCH  72  73
ENDBRANCH  71  72
ENDBRANCH   1  71
TORSDOF 16
