REMARK SMILES CC(C)(O)C#Cc1ccc(C(=O)N[C@@H](CCC(N)=O)C(=O)OCCOCCOC(=O)c2ccc(-c3c4nc(c(-c5c(F)c(F)c(F)c(F)c5F)c5ccc([nH]5)c(-c5c(F)c(F)c(F)c(F)c5F)c5nc(c(-c6c(F)c(F)c(F)c(F)c6F)c6ccc3[nH]6)C=C5)C=C4)cc2)s1
REMARK SMILES IDX 23 1 22 2 20 3 21 4 14 5 13 6 11 7 12 8 10 10 7 11 8 12
REMARK SMILES IDX 94 13 9 14 6 15 5 16 2 17 1 18 3 19 4 20 15 22 16 23 17 24
REMARK SMILES IDX 18 25 19 26 24 29 25 30 26 31 27 32 28 33 29 34 30 35 31 36
REMARK SMILES IDX 32 37 93 38 33 39 92 40 34 41 35 42 36 43 86 44 37 45 91 46
REMARK SMILES IDX 85 47 87 48 38 49 90 50 84 51 83 52 39 54 71 55 51 56 70 57
REMARK SMILES IDX 52 58 55 59 69 60 88 61 53 62 54 63 68 65 89 66 56 67 40 68
REMARK SMILES IDX 41 69 49 70 42 71 43 72 47 73 50 74 44 75 45 76 48 77 46 78
REMARK SMILES IDX 72 79 73 80 81 81 74 82 75 83 79 84 82 85 76 86 77 87 80 88
REMARK SMILES IDX 78 89 57 90 58 91 66 92 59 93 60 94 64 95 67 96 61 97 62 98
REMARK SMILES IDX 65 99 63 100
REMARK H PARENT 13 9 4 21 18 27 18 28 87 53 55 64
REMARK Flexibility Score: inf
ROOT
ATOM      1  C   UNL     1       0.993  -3.576   7.340  1.00  0.00     0.261 C 
ENDROOT
BRANCH   1   2
ATOM      2  O   UNL     1       1.915  -2.470   7.415  1.00  0.00    -0.462 OA
BRANCH   2   3
ATOM      3  C   UNL     1       2.770  -2.366   6.361  1.00  0.00     0.328 C 
ATOM      4  O   UNL     1       2.785  -3.131   5.399  1.00  0.00    -0.250 OA
BRANCH   3   5
ATOM      5  C   UNL     1       3.810  -1.236   6.512  1.00  0.00     0.193 C 
BRANCH   5   6
ATOM      6  N   UNL     1       3.631  -0.303   7.631  1.00  0.00    -0.338 N 
ATOM      7  C   UNL     1       3.212   1.015   7.670  1.00  0.00     0.262 C 
ATOM      8  O   UNL     1       3.315   1.583   8.759  1.00  0.00    -0.268 OA
ATOM      9  H   UNL     1       3.848  -0.684   8.513  1.00  0.00     0.164 HD
BRANCH   7  10
ATOM     10  C   UNL     1       2.717   1.711   6.489  1.00  0.00     0.093 A 
ATOM     11  C   UNL     1       1.867   2.262   4.243  1.00  0.00     0.078 A 
ATOM     12  C   UNL     1       2.234   3.398   4.923  1.00  0.00     0.030 A 
ATOM     13  S   UNL     1       1.857   0.914   5.254  1.00  0.00    -0.121 S 
ATOM     14  C   UNL     1       2.711   3.078   6.240  1.00  0.00     0.027 A 
BRANCH  11  15
ATOM     15  C   UNL     1       1.473   2.114   2.893  1.00  0.00    -0.053 C 
ATOM     16  C   UNL     1       1.038   1.806   1.703  1.00  0.00    -0.063 C 
BRANCH  16  17
ATOM     17  C   UNL     1       0.531   1.446   0.316  1.00  0.00     0.120 C 
ATOM     18  C   UNL     1       1.003   0.043  -0.058  1.00  0.00     0.056 C 
ATOM     19  C   UNL     1       1.013   2.482  -0.696  1.00  0.00     0.056 C 
BRANCH  17  20
ATOM     20  O   UNL     1      -0.892   1.464   0.351  1.00  0.00    -0.378 OA
ATOM     21  H   UNL     1      -1.240   1.237  -0.525  1.00  0.00     0.212 HD
ENDBRANCH  17  20
ENDBRANCH  16  17
ENDBRANCH  11  15
ENDBRANCH   7  10
ENDBRANCH   5   6
BRANCH   5  22
ATOM     22  C   UNL     1       5.238  -1.807   6.438  1.00  0.00     0.047 C 
BRANCH  22  23
ATOM     23  C   UNL     1       5.773  -2.475   7.698  1.00  0.00     0.102 C 
BRANCH  23  24
ATOM     24  C   UNL     1       4.875  -3.555   8.249  1.00  0.00     0.217 C 
ATOM     25  N   UNL     1       4.718  -4.653   7.460  1.00  0.00    -0.370 N 
ATOM     26  O   UNL     1       4.297  -3.446   9.319  1.00  0.00    -0.275 OA
ATOM     27  H   UNL     1       5.197  -4.714   6.602  1.00  0.00     0.159 HD
ATOM     28  H   UNL     1       4.127  -5.385   7.747  1.00  0.00     0.159 HD
ENDBRANCH  23  24
ENDBRANCH  22  23
ENDBRANCH   5  22
ENDBRANCH   3   5
ENDBRANCH   2   3
ENDBRANCH   1   2
BRANCH   1  29
ATOM     29  C   UNL     1      -0.420  -3.241   7.825  1.00  0.00     0.202 C 
BRANCH  29  30
ATOM     30  O   UNL     1      -1.156  -2.240   7.125  1.00  0.00    -0.374 OA
BRANCH  30  31
ATOM     31  C   UNL     1      -0.581  -0.949   6.969  1.00  0.00     0.202 C 
BRANCH  31  32
ATOM     32  C   UNL     1      -0.482  -0.058   8.198  1.00  0.00     0.261 C 
BRANCH  32  33
ATOM     33  O   UNL     1       0.329  -0.635   9.220  1.00  0.00    -0.460 OA
BRANCH  33  34
ATOM     34  C   UNL     1      -0.370  -1.184  10.220  1.00  0.00     0.338 C 
ATOM     35  O   UNL     1      -1.582  -1.453  10.225  1.00  0.00    -0.246 OA
BRANCH  34  36
ATOM     36  C   UNL     1       0.453  -1.274  11.417  1.00  0.00     0.060 A 
ATOM     37  C   UNL     1      -0.210  -1.705  12.572  1.00  0.00     0.016 A 
ATOM     38  C   UNL     1       1.679  -0.586  11.469  1.00  0.00     0.016 A 
ATOM     39  C   UNL     1       0.203  -1.197  13.776  1.00  0.00     0.010 A 
ATOM     40  C   UNL     1       2.087  -0.081  12.679  1.00  0.00     0.010 A 
ATOM     41  C   UNL     1       1.282  -0.310  13.793  1.00  0.00    -0.014 A 
BRANCH  41  42
ATOM     42  C   UNL     1       1.563   0.349  15.049  1.00  0.00     0.031 A 
ATOM     43  C   UNL     1       2.148  -0.551  16.065  1.00  0.00     0.074 A 
ATOM     44  C   UNL     1       1.370   1.670  15.210  1.00  0.00     0.049 A 
ATOM     45  N   UNL     1       1.722  -0.798  17.258  1.00  0.00    -0.248 NA
ATOM     46  C   UNL     1       3.292  -1.378  15.643  1.00  0.00     0.031 C 
ATOM     47  C   UNL     1       1.053   2.668  14.183  1.00  0.00     0.029 A 
ATOM     48  N   UNL     1       1.540   2.421  16.329  1.00  0.00    -0.354 N 
ATOM     49  C   UNL     1       2.641  -1.691  17.799  1.00  0.00     0.074 A 
ATOM     50  C   UNL     1       3.493  -2.124  16.725  1.00  0.00     0.031 C 
ATOM     51  C   UNL     1       1.288   3.902  14.681  1.00  0.00     0.029 A 
ATOM     52  C   UNL     1       1.667   3.779  16.081  1.00  0.00     0.049 A 
ATOM     53  H   UNL     1       1.569   2.036  17.235  1.00  0.00     0.167 HD
ATOM     54  C   UNL     1       2.788  -1.822  19.142  1.00  0.00     0.037 A 
ATOM     55  C   UNL     1       2.158   4.705  16.941  1.00  0.00     0.037 A 
ATOM     56  C   UNL     1       1.607  -1.407  19.850  1.00  0.00     0.049 A 
ATOM     57  C   UNL     1       2.126   4.115  18.305  1.00  0.00     0.074 A 
ATOM     58  C   UNL     1       0.291  -1.828  19.854  1.00  0.00     0.029 A 
ATOM     59  N   UNL     1       1.607  -0.180  20.463  1.00  0.00    -0.354 N 
ATOM     60  N   UNL     1       1.036   3.884  18.982  1.00  0.00    -0.248 NA
ATOM     61  C   UNL     1       3.302   3.382  18.755  1.00  0.00     0.031 C 
ATOM     62  C   UNL     1      -0.480  -0.644  20.040  1.00  0.00     0.029 A 
ATOM     63  C   UNL     1       0.410   0.422  20.172  1.00  0.00     0.049 A 
ATOM     64  H   UNL     1       2.333   0.199  21.011  1.00  0.00     0.167 HD
ATOM     65  C   UNL     1       1.278   2.691  19.647  1.00  0.00     0.074 A 
ATOM     66  C   UNL     1       2.719   2.485  19.553  1.00  0.00     0.031 C 
ATOM     67  C   UNL     1       0.257   1.841  19.960  1.00  0.00     0.037 A 
BRANCH  54  68
ATOM     68  C   UNL     1       4.134  -1.970  19.799  1.00  0.00     0.064 A 
ATOM     69  C   UNL     1       4.199  -2.253  21.174  1.00  0.00     0.173 A 
ATOM     70  C   UNL     1       5.346  -1.550  19.202  1.00  0.00     0.173 A 
ATOM     71  F   UNL     1       3.102  -2.635  21.845  1.00  0.00    -0.203 F 
ATOM     72  C   UNL     1       5.370  -2.055  21.910  1.00  0.00     0.198 A 
ATOM     73  C   UNL     1       6.525  -1.410  19.927  1.00  0.00     0.198 A 
ATOM     74  F   UNL     1       5.415  -1.149  17.927  1.00  0.00    -0.203 F 
ATOM     75  F   UNL     1       5.352  -2.212  23.240  1.00  0.00    -0.200 F 
ATOM     76  C   UNL     1       6.529  -1.629  21.287  1.00  0.00     0.200 A 
ATOM     77  F   UNL     1       7.632  -0.978  19.307  1.00  0.00    -0.200 F 
ATOM     78  F   UNL     1       7.634  -1.378  22.001  1.00  0.00    -0.200 F 
ENDBRANCH  54  68
BRANCH  55  79
ATOM     79  C   UNL     1       2.939   5.923  16.621  1.00  0.00     0.064 A 
ATOM     80  C   UNL     1       3.115   6.938  17.575  1.00  0.00     0.173 A 
ATOM     81  C   UNL     1       3.742   6.006  15.466  1.00  0.00     0.173 A 
ATOM     82  F   UNL     1       2.428   6.909  18.726  1.00  0.00    -0.203 F 
ATOM     83  C   UNL     1       4.050   7.963  17.391  1.00  0.00     0.198 A 
ATOM     84  C   UNL     1       4.662   7.037  15.276  1.00  0.00     0.198 A 
ATOM     85  F   UNL     1       3.723   5.039  14.538  1.00  0.00    -0.203 F 
ATOM     86  F   UNL     1       4.235   8.878  18.352  1.00  0.00    -0.200 F 
ATOM     87  C   UNL     1       4.826   8.008  16.245  1.00  0.00     0.200 A 
ATOM     88  F   UNL     1       5.431   7.048  14.178  1.00  0.00    -0.200 F 
ATOM     89  F   UNL     1       5.758   8.958  16.093  1.00  0.00    -0.200 F 
ENDBRANCH  55  79
BRANCH  67  90
ATOM     90  C   UNL     1      -1.146   2.358  19.818  1.00  0.00     0.064 A 
ATOM     91  C   UNL     1      -1.710   2.757  18.593  1.00  0.00     0.173 A 
ATOM     92  C   UNL     1      -1.990   2.320  20.935  1.00  0.00     0.173 A 
ATOM     93  F   UNL     1      -0.997   2.717  17.460  1.00  0.00    -0.203 F 
ATOM     94  C   UNL     1      -3.043   3.151  18.507  1.00  0.00     0.198 A 
ATOM     95  C   UNL     1      -3.332   2.675  20.838  1.00  0.00     0.198 A 
ATOM     96  F   UNL     1      -1.521   1.889  22.117  1.00  0.00    -0.203 F 
ATOM     97  F   UNL     1      -3.553   3.546  17.331  1.00  0.00    -0.200 F 
ATOM     98  C   UNL     1      -3.855   3.103  19.628  1.00  0.00     0.200 A 
ATOM     99  F   UNL     1      -4.126   2.579  21.913  1.00  0.00    -0.200 F 
ATOM    100  F   UNL     1      -5.148   3.444  19.538  1.00  0.00    -0.200 F 
ENDBRANCH  67  90
ENDBRANCH  41  42
ENDBRANCH  34  36
ENDBRANCH  33  34
ENDBRANCH  32  33
ENDBRANCH  31  32
ENDBRANCH  30  31
ENDBRANCH  29  30
ENDBRANCH   1  29
TORSDOF 22
