REMARK SMILES CCCCC[NH2+][C@](C)(C(=O)OCCOCCOC(=O)c1ccc(-c2c3nc(c(-c4c(F)c(F)c(F)c(F)c4F)c4ccc([nH]4)c(-c4c(F)c(F)c(F)c(F)c4F)c4nc(c(-c5c(F)c(F)c(F)c(F)c5F)c5ccc2[nH]5)C=C4)C=C3)cc1)C(F)(F)F
REMARK SMILES IDX 12 1 11 2 9 3 10 4 7 5 8 6 6 7 5 10 4 11 3 12 2 13 1 14
REMARK SMILES IDX 83 15 84 16 85 17 86 18 13 19 14 20 15 21 16 22 17 23 18 24
REMARK SMILES IDX 19 25 20 26 21 27 82 28 22 29 81 30 23 31 24 32 25 33 75 34
REMARK SMILES IDX 26 35 80 36 74 37 76 38 27 39 79 40 73 41 72 42 28 44 60 45
REMARK SMILES IDX 40 46 59 47 41 48 44 49 58 50 77 51 42 52 43 53 57 55 78 56
REMARK SMILES IDX 45 57 29 58 30 59 38 60 31 61 32 62 36 63 39 64 33 65 34 66
REMARK SMILES IDX 37 67 35 68 61 69 62 70 70 71 63 72 64 73 68 74 71 75 65 76
REMARK SMILES IDX 66 77 69 78 67 79 46 80 47 81 55 82 48 83 49 84 53 85 56 86
REMARK SMILES IDX 50 87 51 88 54 89 52 90
REMARK H PARENT 6 8 6 9 76 43 44 54
REMARK Flexibility Score: inf
ROOT
ATOM      1  C   UNL     1      -4.522   6.190  -1.890  1.00  0.00     0.261 C 
ENDROOT
BRANCH   1   2
ATOM      2  O   UNL     1      -3.757   4.974  -1.821  1.00  0.00    -0.458 OA
BRANCH   2   3
ATOM      3  C   UNL     1      -4.348   3.853  -2.339  1.00  0.00     0.377 C 
ATOM      4  O   UNL     1      -5.484   3.838  -2.796  1.00  0.00    -0.244 OA
BRANCH   3   5
ATOM      5  C   UNL     1      -3.449   2.617  -2.175  1.00  0.00     0.287 C 
ATOM      6  C   UNL     1      -1.954   2.966  -1.993  1.00  0.00     0.103 C 
BRANCH   5   7
ATOM      7  N   UNL     1      -3.877   1.781  -0.992  1.00  0.00    -0.325 N 
ATOM      8  H   UNL     1      -4.642   1.175  -1.289  1.00  0.00     0.347 HD
ATOM      9  H   UNL     1      -3.055   1.259  -0.688  1.00  0.00     0.347 HD
BRANCH   7  10
ATOM     10  C   UNL     1      -4.329   2.562   0.158  1.00  0.00     0.261 C 
BRANCH  10  11
ATOM     11  C   UNL     1      -4.358   1.744   1.450  1.00  0.00     0.061 C 
BRANCH  11  12
ATOM     12  C   UNL     1      -2.982   1.389   2.026  1.00  0.00     0.006 C 
BRANCH  12  13
ATOM     13  C   UNL     1      -2.036   2.570   2.274  1.00  0.00    -0.003 C 
ATOM     14  C   UNL     1      -2.623   3.661   3.156  1.00  0.00     0.004 C 
ENDBRANCH  12  13
ENDBRANCH  11  12
ENDBRANCH  10  11
ENDBRANCH   7  10
ENDBRANCH   5   7
BRANCH   5  15
ATOM     15  C   UNL     1      -3.582   1.900  -3.543  1.00  0.00     0.455 C 
ATOM     16  F   UNL     1      -3.180   2.703  -4.561  1.00  0.00    -0.164 F 
ATOM     17  F   UNL     1      -2.776   0.805  -3.583  1.00  0.00    -0.164 F 
ATOM     18  F   UNL     1      -4.829   1.471  -3.822  1.00  0.00    -0.164 F 
ENDBRANCH   5  15
ENDBRANCH   3   5
ENDBRANCH   2   3
ENDBRANCH   1   2
BRANCH   1  19
ATOM     19  C   UNL     1      -3.776   7.271  -2.674  1.00  0.00     0.202 C 
BRANCH  19  20
ATOM     20  O   UNL     1      -3.609   7.030  -4.069  1.00  0.00    -0.374 OA
BRANCH  20  21
ATOM     21  C   UNL     1      -2.639   6.061  -4.464  1.00  0.00     0.202 C 
BRANCH  21  22
ATOM     22  C   UNL     1      -1.174   6.508  -4.408  1.00  0.00     0.261 C 
BRANCH  22  23
ATOM     23  O   UNL     1      -0.745   6.824  -3.069  1.00  0.00    -0.460 OA
BRANCH  23  24
ATOM     24  C   UNL     1      -0.433   8.127  -2.880  1.00  0.00     0.338 C 
ATOM     25  O   UNL     1      -0.396   9.010  -3.727  1.00  0.00    -0.246 OA
BRANCH  24  26
ATOM     26  C   UNL     1      -0.265   8.437  -1.449  1.00  0.00     0.060 A 
ATOM     27  C   UNL     1      -1.004   9.514  -0.944  1.00  0.00     0.016 A 
ATOM     28  C   UNL     1       0.703   7.809  -0.661  1.00  0.00     0.016 A 
ATOM     29  C   UNL     1      -0.716  10.027   0.317  1.00  0.00     0.010 A 
ATOM     30  C   UNL     1       0.995   8.329   0.607  1.00  0.00     0.010 A 
ATOM     31  C   UNL     1       0.327   9.477   1.074  1.00  0.00    -0.014 A 
BRANCH  31  32
ATOM     32  C   UNL     1       0.838  10.253   2.232  1.00  0.00     0.031 A 
ATOM     33  C   UNL     1       2.029  11.154   2.031  1.00  0.00     0.074 A 
ATOM     34  C   UNL     1       0.199  10.238   3.415  1.00  0.00     0.049 A 
ATOM     35  N   UNL     1       2.594  11.988   2.868  1.00  0.00    -0.248 NA
ATOM     36  C   UNL     1       2.668  11.112   0.706  1.00  0.00     0.031 C 
ATOM     37  C   UNL     1      -0.981   9.436   3.727  1.00  0.00     0.029 A 
ATOM     38  N   UNL     1       0.451  10.934   4.571  1.00  0.00    -0.354 N 
ATOM     39  C   UNL     1       3.647  12.568   2.171  1.00  0.00     0.074 A 
ATOM     40  C   UNL     1       3.667  11.968   0.856  1.00  0.00     0.031 C 
ATOM     41  C   UNL     1      -1.354   9.687   4.994  1.00  0.00     0.029 A 
ATOM     42  C   UNL     1      -0.433  10.658   5.583  1.00  0.00     0.049 A 
ATOM     43  H   UNL     1       1.196  11.571   4.665  1.00  0.00     0.167 HD
ATOM     44  C   UNL     1       4.510  13.527   2.584  1.00  0.00     0.037 A 
ATOM     45  C   UNL     1      -0.491  11.137   6.841  1.00  0.00     0.037 A 
ATOM     46  C   UNL     1       4.490  14.135   3.887  1.00  0.00     0.049 A 
ATOM     47  C   UNL     1       0.499  12.184   7.284  1.00  0.00     0.074 A 
ATOM     48  C   UNL     1       5.321  15.117   4.396  1.00  0.00     0.029 A 
ATOM     49  N   UNL     1       3.586  13.817   4.889  1.00  0.00    -0.354 N 
ATOM     50  N   UNL     1       1.470  12.746   6.607  1.00  0.00    -0.248 NA
ATOM     51  C   UNL     1       0.369  12.675   8.664  1.00  0.00     0.031 C 
ATOM     52  C   UNL     1       4.942  15.368   5.720  1.00  0.00     0.029 A 
ATOM     53  C   UNL     1       3.847  14.575   6.019  1.00  0.00     0.049 A 
ATOM     54  H   UNL     1       2.865  13.150   4.809  1.00  0.00     0.167 HD
ATOM     55  C   UNL     1       2.044  13.677   7.463  1.00  0.00     0.074 A 
ATOM     56  C   UNL     1       1.305  13.613   8.706  1.00  0.00     0.031 C 
ATOM     57  C   UNL     1       3.090  14.511   7.241  1.00  0.00     0.037 A 
BRANCH  44  58
ATOM     58  C   UNL     1       5.566  13.969   1.614  1.00  0.00     0.064 A 
ATOM     59  C   UNL     1       5.257  14.777   0.510  1.00  0.00     0.173 A 
ATOM     60  C   UNL     1       6.907  13.607   1.810  1.00  0.00     0.173 A 
ATOM     61  F   UNL     1       3.987  15.136   0.271  1.00  0.00    -0.203 F 
ATOM     62  C   UNL     1       6.251  15.191  -0.374  1.00  0.00     0.198 A 
ATOM     63  C   UNL     1       7.901  14.042   0.939  1.00  0.00     0.198 A 
ATOM     64  F   UNL     1       7.253  12.836   2.852  1.00  0.00    -0.203 F 
ATOM     65  F   UNL     1       5.929  15.931  -1.444  1.00  0.00    -0.200 F 
ATOM     66  C   UNL     1       7.572  14.829  -0.155  1.00  0.00     0.200 A 
ATOM     67  F   UNL     1       9.178  13.699   1.156  1.00  0.00    -0.200 F 
ATOM     68  F   UNL     1       8.528  15.233  -1.002  1.00  0.00    -0.200 F 
ENDBRANCH  44  58
BRANCH  45  69
ATOM     69  C   UNL     1      -1.534  10.642   7.777  1.00  0.00     0.064 A 
ATOM     70  C   UNL     1      -2.582  11.470   8.200  1.00  0.00     0.173 A 
ATOM     71  C   UNL     1      -1.483   9.338   8.289  1.00  0.00     0.173 A 
ATOM     72  F   UNL     1      -2.658  12.733   7.758  1.00  0.00    -0.203 F 
ATOM     73  C   UNL     1      -3.528  11.019   9.119  1.00  0.00     0.198 A 
ATOM     74  C   UNL     1      -2.444   8.879   9.187  1.00  0.00     0.198 A 
ATOM     75  F   UNL     1      -0.498   8.507   7.915  1.00  0.00    -0.203 F 
ATOM     76  F   UNL     1      -4.492  11.846   9.546  1.00  0.00    -0.200 F 
ATOM     77  C   UNL     1      -3.461   9.723   9.608  1.00  0.00     0.200 A 
ATOM     78  F   UNL     1      -2.381   7.623   9.649  1.00  0.00    -0.200 F 
ATOM     79  F   UNL     1      -4.370   9.290  10.492  1.00  0.00    -0.200 F 
ENDBRANCH  45  69
BRANCH  57  80
ATOM     80  C   UNL     1       3.466  15.454   8.347  1.00  0.00     0.064 A 
ATOM     81  C   UNL     1       4.100  15.006   9.515  1.00  0.00     0.173 A 
ATOM     82  C   UNL     1       3.211  16.828   8.223  1.00  0.00     0.173 A 
ATOM     83  F   UNL     1       4.353  13.700   9.686  1.00  0.00    -0.203 F 
ATOM     84  C   UNL     1       4.436  15.895  10.532  1.00  0.00     0.198 A 
ATOM     85  C   UNL     1       3.573  17.718   9.230  1.00  0.00     0.198 A 
ATOM     86  F   UNL     1       2.615  17.309   7.121  1.00  0.00    -0.203 F 
ATOM     87  F   UNL     1       4.995  15.438  11.661  1.00  0.00    -0.200 F 
ATOM     88  C   UNL     1       4.177  17.250  10.387  1.00  0.00     0.200 A 
ATOM     89  F   UNL     1       3.333  19.029   9.083  1.00  0.00    -0.200 F 
ATOM     90  F   UNL     1       4.502  18.105  11.367  1.00  0.00    -0.200 F 
ENDBRANCH  57  80
ENDBRANCH  31  32
ENDBRANCH  24  26
ENDBRANCH  23  24
ENDBRANCH  22  23
ENDBRANCH  21  22
ENDBRANCH  20  21
ENDBRANCH  19  20
ENDBRANCH   1  19
TORSDOF 20
