REMARK SMILES CC(C)(Cn1ccc2ccc([N+](=O)[O-])cc21)C(=O)OCCOCCOC(=O)c1ccc(-c2c3nc(c(-c4c(F)c(F)c(F)c(F)c4F)c4ccc([nH]4)c(-c4c(F)c(F)c(F)c(F)c4F)c4nc(c(-c5c(F)c(F)c(F)c(F)c5F)c5ccc2[nH]5)C=C4)C=C3)cc1
REMARK SMILES IDX 21 1 20 2 19 3 17 4 18 5 2 6 1 7 3 8 4 9 5 10 6 11 16 12
REMARK SMILES IDX 7 13 8 14 15 15 9 16 11 17 10 18 12 19 13 20 14 21 22 22
REMARK SMILES IDX 23 23 24 24 25 25 26 26 27 27 28 28 29 29 90 30 30 31 89 32
REMARK SMILES IDX 31 33 32 34 33 35 83 36 34 37 88 38 82 39 84 40 35 41 87 42
REMARK SMILES IDX 81 43 80 44 36 46 68 47 48 48 67 49 49 50 52 51 66 52 85 53
REMARK SMILES IDX 50 54 51 55 65 57 86 58 53 59 37 60 38 61 46 62 39 63 40 64
REMARK SMILES IDX 44 65 47 66 41 67 42 68 45 69 43 70 69 71 70 72 78 73 71 74
REMARK SMILES IDX 72 75 76 76 79 77 73 78 74 79 77 80 75 81 54 82 55 83 63 84
REMARK SMILES IDX 56 85 57 86 61 87 64 88 58 89 59 90 62 91 60 92
REMARK H PARENT 84 45 52 56
REMARK Flexibility Score: inf
ROOT
ATOM      1  C   UNL     1       1.962  -3.715   2.992  1.00  0.00     0.202 C 
ENDROOT
BRANCH   1   2
ATOM      2  C   UNL     1       1.863  -2.242   3.411  1.00  0.00     0.261 C 
BRANCH   2   3
ATOM      3  O   UNL     1       0.808  -1.484   2.783  1.00  0.00    -0.463 OA
BRANCH   3   4
ATOM      4  C   UNL     1       1.256  -0.758   1.727  1.00  0.00     0.313 C 
ATOM      5  O   UNL     1       2.410  -0.834   1.307  1.00  0.00    -0.252 OA
BRANCH   4   6
ATOM      6  C   UNL     1       0.278   0.277   1.164  1.00  0.00     0.080 C 
ATOM      7  C   UNL     1       0.607   0.378  -0.336  1.00  0.00     0.025 C 
ATOM      8  C   UNL     1       0.681   1.594   1.868  1.00  0.00     0.025 C 
BRANCH   6   9
ATOM      9  C   UNL     1      -1.250   0.114   1.387  1.00  0.00     0.140 C 
BRANCH   9  10
ATOM     10  N   UNL     1      -1.975  -0.944   0.698  1.00  0.00    -0.346 N 
ATOM     11  C   UNL     1      -2.421  -2.063   1.352  1.00  0.00     0.087 A 
ATOM     12  C   UNL     1      -2.574  -0.918  -0.555  1.00  0.00     0.055 A 
ATOM     13  C   UNL     1      -2.960  -2.919   0.424  1.00  0.00     0.028 A 
ATOM     14  C   UNL     1      -3.018  -2.226  -0.805  1.00  0.00     0.000 A 
ATOM     15  C   UNL     1      -2.820   0.112  -1.481  1.00  0.00     0.112 A 
ATOM     16  C   UNL     1      -3.517  -2.578  -2.073  1.00  0.00     0.017 A 
ATOM     17  C   UNL     1      -3.490  -0.241  -2.674  1.00  0.00     0.271 A 
ATOM     18  C   UNL     1      -3.762  -1.572  -3.006  1.00  0.00     0.086 A 
BRANCH  17  19
ATOM     19  N   UNL     1      -4.006   0.820  -3.553  1.00  0.00     0.062 N 
ATOM     20  O   UNL     1      -3.868   1.994  -3.181  1.00  0.00    -0.258 OA
ATOM     21  O   UNL     1      -4.582   0.478  -4.597  1.00  0.00    -0.258 OA
ENDBRANCH  17  19
ENDBRANCH   9  10
ENDBRANCH   6   9
ENDBRANCH   4   6
ENDBRANCH   3   4
ENDBRANCH   2   3
ENDBRANCH   1   2
BRANCH   1  22
ATOM     22  O   UNL     1       2.027  -4.046   1.618  1.00  0.00    -0.374 OA
BRANCH  22  23
ATOM     23  C   UNL     1       0.816  -4.001   0.872  1.00  0.00     0.202 C 
BRANCH  23  24
ATOM     24  C   UNL     1      -0.371  -4.788   1.444  1.00  0.00     0.261 C 
BRANCH  24  25
ATOM     25  O   UNL     1      -0.853  -4.140   2.634  1.00  0.00    -0.460 OA
BRANCH  25  26
ATOM     26  C   UNL     1      -1.652  -4.889   3.432  1.00  0.00     0.338 C 
ATOM     27  O   UNL     1      -2.424  -5.769   3.091  1.00  0.00    -0.246 OA
BRANCH  26  28
ATOM     28  C   UNL     1      -1.028  -4.755   4.762  1.00  0.00     0.060 A 
ATOM     29  C   UNL     1      -0.887  -3.511   5.388  1.00  0.00     0.016 A 
ATOM     30  C   UNL     1      -0.239  -5.850   5.139  1.00  0.00     0.016 A 
ATOM     31  C   UNL     1       0.131  -3.345   6.327  1.00  0.00     0.010 A 
ATOM     32  C   UNL     1       0.811  -5.659   6.026  1.00  0.00     0.010 A 
ATOM     33  C   UNL     1       1.031  -4.394   6.581  1.00  0.00    -0.014 A 
BRANCH  33  34
ATOM     34  C   UNL     1       2.115  -4.198   7.551  1.00  0.00     0.031 A 
ATOM     35  C   UNL     1       1.670  -4.199   8.968  1.00  0.00     0.074 A 
ATOM     36  C   UNL     1       3.437  -4.209   7.269  1.00  0.00     0.049 A 
ATOM     37  N   UNL     1       1.905  -3.312   9.880  1.00  0.00    -0.248 NA
ATOM     38  C   UNL     1       0.795  -5.300   9.400  1.00  0.00     0.031 C 
ATOM     39  C   UNL     1       4.076  -4.451   5.985  1.00  0.00     0.029 A 
ATOM     40  N   UNL     1       4.511  -4.098   8.110  1.00  0.00    -0.354 N 
ATOM     41  C   UNL     1       1.323  -3.806  11.040  1.00  0.00     0.074 A 
ATOM     42  C   UNL     1       0.558  -4.968  10.666  1.00  0.00     0.031 C 
ATOM     43  C   UNL     1       5.397  -4.669   6.145  1.00  0.00     0.029 A 
ATOM     44  C   UNL     1       5.722  -4.485   7.542  1.00  0.00     0.049 A 
ATOM     45  H   UNL     1       4.434  -3.773   9.036  1.00  0.00     0.167 HD
ATOM     46  C   UNL     1       1.643  -3.341  12.276  1.00  0.00     0.037 A 
ATOM     47  C   UNL     1       6.907  -4.692   8.165  1.00  0.00     0.037 A 
ATOM     48  C   UNL     1       2.252  -2.043  12.236  1.00  0.00     0.049 A 
ATOM     49  C   UNL     1       6.859  -3.965   9.452  1.00  0.00     0.074 A 
ATOM     50  C   UNL     1       1.831  -0.795  11.819  1.00  0.00     0.029 A 
ATOM     51  N   UNL     1       3.613  -1.942  12.363  1.00  0.00    -0.354 N 
ATOM     52  N   UNL     1       6.853  -2.666   9.553  1.00  0.00    -0.248 NA
ATOM     53  C   UNL     1       6.385  -4.691  10.618  1.00  0.00     0.031 C 
ATOM     54  C   UNL     1       2.986  -0.178  11.254  1.00  0.00     0.029 A 
ATOM     55  C   UNL     1       4.044  -1.076  11.388  1.00  0.00     0.049 A 
ATOM     56  H   UNL     1       4.175  -2.404  13.027  1.00  0.00     0.167 HD
ATOM     57  C   UNL     1       5.985  -2.405  10.601  1.00  0.00     0.074 A 
ATOM     58  C   UNL     1       5.807  -3.686  11.278  1.00  0.00     0.031 C 
ATOM     59  C   UNL     1       5.277  -1.240  10.654  1.00  0.00     0.037 A 
BRANCH  46  60
ATOM     60  C   UNL     1       1.606  -4.209  13.497  1.00  0.00     0.064 A 
ATOM     61  C   UNL     1       1.556  -3.641  14.780  1.00  0.00     0.173 A 
ATOM     62  C   UNL     1       1.839  -5.602  13.447  1.00  0.00     0.173 A 
ATOM     63  F   UNL     1       1.403  -2.317  14.932  1.00  0.00    -0.203 F 
ATOM     64  C   UNL     1       1.724  -4.416  15.930  1.00  0.00     0.198 A 
ATOM     65  C   UNL     1       1.947  -6.381  14.595  1.00  0.00     0.198 A 
ATOM     66  F   UNL     1       2.063  -6.234  12.286  1.00  0.00    -0.203 F 
ATOM     67  F   UNL     1       1.754  -3.825  17.132  1.00  0.00    -0.200 F 
ATOM     68  C   UNL     1       1.907  -5.786  15.838  1.00  0.00     0.200 A 
ATOM     69  F   UNL     1       2.149  -7.702  14.481  1.00  0.00    -0.200 F 
ATOM     70  F   UNL     1       2.092  -6.525  16.939  1.00  0.00    -0.200 F 
ENDBRANCH  46  60
BRANCH  47  71
ATOM     71  C   UNL     1       7.945  -5.707   7.855  1.00  0.00     0.064 A 
ATOM     72  C   UNL     1       9.236  -5.616   8.398  1.00  0.00     0.173 A 
ATOM     73  C   UNL     1       7.610  -6.934   7.247  1.00  0.00     0.173 A 
ATOM     74  F   UNL     1       9.625  -4.497   9.028  1.00  0.00    -0.203 F 
ATOM     75  C   UNL     1      10.125  -6.697   8.369  1.00  0.00     0.198 A 
ATOM     76  C   UNL     1       8.500  -8.009   7.209  1.00  0.00     0.198 A 
ATOM     77  F   UNL     1       6.379  -7.151   6.763  1.00  0.00    -0.203 F 
ATOM     78  F   UNL     1      11.323  -6.595   8.960  1.00  0.00    -0.200 F 
ATOM     79  C   UNL     1       9.751  -7.897   7.785  1.00  0.00     0.200 A 
ATOM     80  F   UNL     1       8.113  -9.174   6.670  1.00  0.00    -0.200 F 
ATOM     81  F   UNL     1      10.574  -8.954   7.817  1.00  0.00    -0.200 F 
ENDBRANCH  47  71
BRANCH  59  82
ATOM     82  C   UNL     1       5.651  -0.150   9.685  1.00  0.00     0.064 A 
ATOM     83  C   UNL     1       5.537  -0.271   8.288  1.00  0.00     0.173 A 
ATOM     84  C   UNL     1       6.006   1.107  10.191  1.00  0.00     0.173 A 
ATOM     85  F   UNL     1       5.099  -1.405   7.727  1.00  0.00    -0.203 F 
ATOM     86  C   UNL     1       5.813   0.802   7.441  1.00  0.00     0.198 A 
ATOM     87  C   UNL     1       6.246   2.188   9.344  1.00  0.00     0.198 A 
ATOM     88  F   UNL     1       6.073   1.303  11.517  1.00  0.00    -0.203 F 
ATOM     89  F   UNL     1       5.702   0.655   6.112  1.00  0.00    -0.200 F 
ATOM     90  C   UNL     1       6.161   2.033   7.970  1.00  0.00     0.200 A 
ATOM     91  F   UNL     1       6.530   3.391   9.863  1.00  0.00    -0.200 F 
ATOM     92  F   UNL     1       6.382   3.077   7.159  1.00  0.00    -0.200 F 
ENDBRANCH  59  82
ENDBRANCH  33  34
ENDBRANCH  26  28
ENDBRANCH  25  26
ENDBRANCH  24  25
ENDBRANCH  23  24
ENDBRANCH  22  23
ENDBRANCH   1  22
TORSDOF 17
