REMARK SMILES C[C@@H]1C[N@@H+](CC(C)(C)C(=O)OCCOCCOC(=O)c2ccc(-c3c4nc(c(-c5c(F)c(F)c(F)c(F)c5F)c5ccc([nH]5)c(-c5c(F)c(F)c(F)c(F)c5F)c5nc(c(-c6c(F)c(F)c(F)c(F)c6F)c6ccc3[nH]6)C=C5)C=C4)cc2)CC[C@@H]1[NH3+]
REMARK SMILES IDX 13 1 12 2 11 3 9 4 10 5 6 6 7 7 8 8 5 9 4 10 1 11 2 12 3 13
REMARK SMILES IDX 85 14 84 15 83 16 86 18 14 22 15 23 16 24 17 25 18 26 19 27
REMARK SMILES IDX 20 28 21 29 82 30 22 31 81 32 23 33 24 34 25 35 75 36 26 37
REMARK SMILES IDX 80 38 74 39 76 40 27 41 79 42 73 43 72 44 28 46 60 47 40 48
REMARK SMILES IDX 59 49 41 50 44 51 58 52 77 53 42 54 43 55 57 57 78 58 45 59
REMARK SMILES IDX 29 60 30 61 38 62 31 63 32 64 36 65 39 66 33 67 34 68 37 69
REMARK SMILES IDX 35 70 61 71 62 72 70 73 63 74 64 75 68 76 71 77 65 78 66 79
REMARK SMILES IDX 69 80 67 81 46 82 47 83 55 84 48 85 49 86 53 87 56 88 50 89
REMARK SMILES IDX 51 90 54 91 52 92
REMARK H PARENT 4 17 86 19 86 20 86 21 76 45 44 56
REMARK Flexibility Score: inf
ROOT
ATOM      1  C   UNL     1      -4.360   0.265   1.201  1.00  0.00     0.202 C 
ENDROOT
BRANCH   1   2
ATOM      2  C   UNL     1      -4.626  -1.230   1.445  1.00  0.00     0.261 C 
BRANCH   2   3
ATOM      3  O   UNL     1      -3.825  -1.783   2.496  1.00  0.00    -0.463 OA
BRANCH   3   4
ATOM      4  C   UNL     1      -2.710  -2.410   2.035  1.00  0.00     0.317 C 
ATOM      5  O   UNL     1      -2.557  -2.627   0.838  1.00  0.00    -0.251 OA
BRANCH   4   6
ATOM      6  C   UNL     1      -1.771  -2.953   3.134  1.00  0.00     0.111 C 
ATOM      7  C   UNL     1      -1.809  -4.470   2.900  1.00  0.00     0.029 C 
ATOM      8  C   UNL     1      -2.356  -2.703   4.554  1.00  0.00     0.029 C 
BRANCH   6   9
ATOM      9  C   UNL     1      -0.286  -2.378   3.168  1.00  0.00     0.280 C 
BRANCH   9  10
ATOM     10  N   UNL     1       0.688  -2.308   2.044  1.00  0.00    -0.333 N 
ATOM     11  C   UNL     1       2.118  -0.377  -0.237  1.00  0.00     0.020 C 
ATOM     12  C   UNL     1       0.980  -1.386  -0.345  1.00  0.00     0.099 C 
ATOM     13  C   UNL     1       0.157  -1.520   0.935  1.00  0.00     0.271 C 
ATOM     14  C   UNL     1       1.364  -2.809  -0.781  1.00  0.00     0.194 C 
ATOM     15  C   UNL     1       2.092  -3.542   0.354  1.00  0.00     0.126 C 
ATOM     16  C   UNL     1       1.215  -3.608   1.619  1.00  0.00     0.268 C 
ATOM     17  H   UNL     1       1.504  -1.818   2.409  1.00  0.00     0.348 HD
BRANCH  14  18
ATOM     18  N   UNL     1       2.099  -2.805  -2.046  1.00  0.00    -0.355 N 
ATOM     19  H   UNL     1       2.971  -2.288  -1.931  1.00  0.00     0.344 HD
ATOM     20  H   UNL     1       1.532  -2.359  -2.768  1.00  0.00     0.344 HD
ATOM     21  H   UNL     1       2.307  -3.765  -2.322  1.00  0.00     0.344 HD
ENDBRANCH  14  18
ENDBRANCH   9  10
ENDBRANCH   6   9
ENDBRANCH   4   6
ENDBRANCH   3   4
ENDBRANCH   2   3
ENDBRANCH   1   2
BRANCH   1  22
ATOM     22  O   UNL     1      -3.137   0.842   1.635  1.00  0.00    -0.374 OA
BRANCH  22  23
ATOM     23  C   UNL     1      -2.781   0.815   3.014  1.00  0.00     0.202 C 
BRANCH  23  24
ATOM     24  C   UNL     1      -3.791   1.213   4.101  1.00  0.00     0.261 C 
BRANCH  24  25
ATOM     25  O   UNL     1      -5.004   0.445   4.069  1.00  0.00    -0.460 OA
BRANCH  25  26
ATOM     26  C   UNL     1      -6.124   1.169   3.821  1.00  0.00     0.338 C 
ATOM     27  O   UNL     1      -6.219   2.374   3.699  1.00  0.00    -0.246 OA
BRANCH  26  28
ATOM     28  C   UNL     1      -7.226   0.255   3.477  1.00  0.00     0.060 A 
ATOM     29  C   UNL     1      -7.814   0.398   2.212  1.00  0.00     0.016 A 
ATOM     30  C   UNL     1      -7.709  -0.681   4.391  1.00  0.00     0.016 A 
ATOM     31  C   UNL     1      -8.915  -0.374   1.865  1.00  0.00     0.010 A 
ATOM     32  C   UNL     1      -8.836  -1.433   4.054  1.00  0.00     0.010 A 
ATOM     33  C   UNL     1      -9.461  -1.252   2.807  1.00  0.00    -0.014 A 
BRANCH  33  34
ATOM     34  C   UNL     1     -10.808  -1.807   2.561  1.00  0.00     0.031 A 
ATOM     35  C   UNL     1     -11.987  -1.107   3.172  1.00  0.00     0.074 A 
ATOM     36  C   UNL     1     -10.979  -2.876   1.767  1.00  0.00     0.049 A 
ATOM     37  N   UNL     1     -13.258  -1.411   3.121  1.00  0.00    -0.248 NA
ATOM     38  C   UNL     1     -11.687   0.105   3.951  1.00  0.00     0.031 C 
ATOM     39  C   UNL     1      -9.911  -3.585   1.067  1.00  0.00     0.029 A 
ATOM     40  N   UNL     1     -12.121  -3.546   1.417  1.00  0.00    -0.354 N 
ATOM     41  C   UNL     1     -13.906  -0.434   3.865  1.00  0.00     0.074 A 
ATOM     42  C   UNL     1     -12.887   0.448   4.391  1.00  0.00     0.031 C 
ATOM     43  C   UNL     1     -10.452  -4.596   0.365  1.00  0.00     0.029 A 
ATOM     44  C   UNL     1     -11.894  -4.624   0.601  1.00  0.00     0.049 A 
ATOM     45  H   UNL     1     -13.019  -3.279   1.723  1.00  0.00     0.167 HD
ATOM     46  C   UNL     1     -15.234  -0.284   4.082  1.00  0.00     0.037 A 
ATOM     47  C   UNL     1     -12.759  -5.535   0.117  1.00  0.00     0.037 A 
ATOM     48  C   UNL     1     -16.235  -1.178   3.563  1.00  0.00     0.049 A 
ATOM     49  C   UNL     1     -14.220  -5.413   0.465  1.00  0.00     0.074 A 
ATOM     50  C   UNL     1     -17.608  -1.123   3.717  1.00  0.00     0.029 A 
ATOM     51  N   UNL     1     -15.963  -2.305   2.798  1.00  0.00    -0.354 N 
ATOM     52  N   UNL     1     -14.834  -4.485   1.159  1.00  0.00    -0.248 NA
ATOM     53  C   UNL     1     -15.107  -6.469  -0.041  1.00  0.00     0.031 C 
ATOM     54  C   UNL     1     -18.161  -2.252   3.100  1.00  0.00     0.029 A 
ATOM     55  C   UNL     1     -17.140  -2.974   2.502  1.00  0.00     0.049 A 
ATOM     56  H   UNL     1     -15.065  -2.587   2.508  1.00  0.00     0.167 HD
ATOM     57  C   UNL     1     -16.181  -4.823   1.145  1.00  0.00     0.074 A 
ATOM     58  C   UNL     1     -16.294  -6.039   0.365  1.00  0.00     0.031 C 
ATOM     59  C   UNL     1     -17.231  -4.183   1.720  1.00  0.00     0.037 A 
BRANCH  46  60
ATOM     60  C   UNL     1     -15.660   0.862   4.957  1.00  0.00     0.064 A 
ATOM     61  C   UNL     1     -15.506   2.200   4.559  1.00  0.00     0.173 A 
ATOM     62  C   UNL     1     -16.207   0.618   6.226  1.00  0.00     0.173 A 
ATOM     63  F   UNL     1     -14.972   2.491   3.363  1.00  0.00    -0.203 F 
ATOM     64  C   UNL     1     -15.837   3.247   5.416  1.00  0.00     0.198 A 
ATOM     65  C   UNL     1     -16.573   1.667   7.065  1.00  0.00     0.198 A 
ATOM     66  F   UNL     1     -16.380  -0.640   6.658  1.00  0.00    -0.203 F 
ATOM     67  F   UNL     1     -15.609   4.514   5.043  1.00  0.00    -0.200 F 
ATOM     68  C   UNL     1     -16.374   2.979   6.666  1.00  0.00     0.200 A 
ATOM     69  F   UNL     1     -17.104   1.406   8.268  1.00  0.00    -0.200 F 
ATOM     70  F   UNL     1     -16.686   3.987   7.493  1.00  0.00    -0.200 F 
ENDBRANCH  46  60
BRANCH  47  71
ATOM     71  C   UNL     1     -12.266  -6.630  -0.756  1.00  0.00     0.064 A 
ATOM     72  C   UNL     1     -12.614  -6.676  -2.113  1.00  0.00     0.173 A 
ATOM     73  C   UNL     1     -11.435  -7.646  -0.260  1.00  0.00     0.173 A 
ATOM     74  F   UNL     1     -13.425  -5.740  -2.628  1.00  0.00    -0.203 F 
ATOM     75  C   UNL     1     -12.156  -7.701  -2.939  1.00  0.00     0.198 A 
ATOM     76  C   UNL     1     -10.956  -8.654  -1.093  1.00  0.00     0.198 A 
ATOM     77  F   UNL     1     -11.075  -7.649   1.032  1.00  0.00    -0.203 F 
ATOM     78  F   UNL     1     -12.534  -7.741  -4.224  1.00  0.00    -0.200 F 
ATOM     79  C   UNL     1     -11.322  -8.685  -2.430  1.00  0.00     0.200 A 
ATOM     80  F   UNL     1     -10.139  -9.595  -0.601  1.00  0.00    -0.200 F 
ATOM     81  F   UNL     1     -10.874  -9.664  -3.227  1.00  0.00    -0.200 F 
ENDBRANCH  47  71
BRANCH  59  82
ATOM     82  C   UNL     1     -18.599  -4.761   1.490  1.00  0.00     0.064 A 
ATOM     83  C   UNL     1     -19.000  -5.972   2.075  1.00  0.00     0.173 A 
ATOM     84  C   UNL     1     -19.535  -4.072   0.703  1.00  0.00     0.173 A 
ATOM     85  F   UNL     1     -18.140  -6.678   2.824  1.00  0.00    -0.203 F 
ATOM     86  C   UNL     1     -20.276  -6.485   1.854  1.00  0.00     0.198 A 
ATOM     87  C   UNL     1     -20.822  -4.569   0.515  1.00  0.00     0.198 A 
ATOM     88  F   UNL     1     -19.207  -2.905   0.127  1.00  0.00    -0.203 F 
ATOM     89  F   UNL     1     -20.619  -7.670   2.377  1.00  0.00    -0.200 F 
ATOM     90  C   UNL     1     -21.188  -5.780   1.083  1.00  0.00     0.200 A 
ATOM     91  F   UNL     1     -21.706  -3.877  -0.216  1.00  0.00    -0.200 F 
ATOM     92  F   UNL     1     -22.418  -6.271   0.879  1.00  0.00    -0.200 F 
ENDBRANCH  59  82
ENDBRANCH  33  34
ENDBRANCH  26  28
ENDBRANCH  25  26
ENDBRANCH  24  25
ENDBRANCH  23  24
ENDBRANCH  22  23
ENDBRANCH   1  22
TORSDOF 17
