REMARK SMILES COc1ccc([C@H]2[C@H](C(=O)OCCOCCOC(=O)c3ccc(-c4c5nc(c(-c6c(F)c(F)c(F)c(F)c6F)c6ccc([nH]6)c(-c6c(F)c(F)c(F)c(F)c6F)c6nc(c(-c7c(F)c(F)c(F)c(F)c7F)c7ccc4[nH]7)C=C6)C=C5)cc3)CCN2c2ccc(F)cc2)cc1
REMARK SMILES IDX 14 1 13 2 12 3 11 4 9 5 10 6 8 7 7 8 85 9 83 10 84 11 6 12
REMARK SMILES IDX 3 13 4 14 94 15 5 16 93 17 2 18 1 19 86 20 87 21 92 22 88 23
REMARK SMILES IDX 91 24 89 25 90 26 15 27 16 28 17 29 18 30 19 31 20 32 21 33
REMARK SMILES IDX 82 34 22 35 81 36 23 37 24 38 25 39 75 40 26 41 80 42 74 43
REMARK SMILES IDX 76 44 27 45 79 46 73 47 72 48 28 50 60 51 40 52 59 53 41 54
REMARK SMILES IDX 44 55 58 56 77 57 42 58 43 59 57 61 78 62 45 63 29 64 30 65
REMARK SMILES IDX 38 66 31 67 32 68 36 69 39 70 33 71 34 72 37 73 35 74 61 75
REMARK SMILES IDX 62 76 70 77 63 78 64 79 68 80 71 81 65 82 66 83 69 84 67 85
REMARK SMILES IDX 46 86 47 87 55 88 48 89 49 90 53 91 56 92 50 93 51 94 54 95
REMARK SMILES IDX 52 96
REMARK H PARENT 76 49 44 60
REMARK Flexibility Score: inf
ROOT
ATOM      1  O   UNL     1       4.521   3.451   1.810  1.00  0.00    -0.374 OA
ENDROOT
BRANCH   1   2
ATOM      2  C   UNL     1       5.401   2.537   2.463  1.00  0.00     0.202 C 
BRANCH   2   3
ATOM      3  C   UNL     1       5.905   2.953   3.844  1.00  0.00     0.261 C 
BRANCH   3   4
ATOM      4  O   UNL     1       4.834   2.971   4.806  1.00  0.00    -0.463 OA
BRANCH   4   5
ATOM      5  C   UNL     1       4.472   4.194   5.262  1.00  0.00     0.311 C 
ATOM      6  O   UNL     1       5.024   5.243   4.945  1.00  0.00    -0.252 OA
BRANCH   5   7
ATOM      7  C   UNL     1       3.340   4.173   6.262  1.00  0.00     0.128 C 
ATOM      8  C   UNL     1       2.296   3.050   6.104  1.00  0.00     0.127 C 
ATOM      9  N   UNL     1       2.841   1.978   6.954  1.00  0.00    -0.364 N 
ATOM     10  C   UNL     1       3.881   3.980   7.673  1.00  0.00     0.039 C 
ATOM     11  C   UNL     1       3.841   2.470   7.895  1.00  0.00     0.118 C 
BRANCH   8  12
ATOM     12  C   UNL     1       0.923   3.532   6.606  1.00  0.00    -0.024 A 
ATOM     13  C   UNL     1      -1.503   4.585   7.632  1.00  0.00     0.118 A 
ATOM     14  C   UNL     1      -0.926   5.123   6.481  1.00  0.00     0.047 A 
ATOM     15  C   UNL     1      -0.906   3.484   8.233  1.00  0.00     0.047 A 
ATOM     16  C   UNL     1       0.270   4.601   5.968  1.00  0.00     0.010 A 
ATOM     17  C   UNL     1       0.290   2.970   7.726  1.00  0.00     0.010 A 
BRANCH  13  18
ATOM     18  O   UNL     1      -2.652   5.188   8.064  1.00  0.00    -0.497 OA
ATOM     19  C   UNL     1      -2.949   5.023   9.449  1.00  0.00     0.278 C 
ENDBRANCH  13  18
ENDBRANCH   8  12
BRANCH   9  20
ATOM     20  C   UNL     1       2.558   0.638   6.834  1.00  0.00     0.037 A 
ATOM     21  C   UNL     1       2.358  -0.159   7.978  1.00  0.00     0.029 A 
ATOM     22  C   UNL     1       2.429   0.011   5.590  1.00  0.00     0.029 A 
ATOM     23  C   UNL     1       2.022  -1.513   7.889  1.00  0.00     0.041 A 
ATOM     24  C   UNL     1       2.105  -1.347   5.497  1.00  0.00     0.041 A 
ATOM     25  C   UNL     1       1.907  -2.098   6.643  1.00  0.00     0.123 A 
ATOM     26  F   UNL     1       1.597  -3.397   6.537  1.00  0.00    -0.207 F 
ENDBRANCH   9  20
ENDBRANCH   5   7
ENDBRANCH   4   5
ENDBRANCH   3   4
ENDBRANCH   2   3
ENDBRANCH   1   2
BRANCH   1  27
ATOM     27  C   UNL     1       3.147   3.403   2.190  1.00  0.00     0.202 C 
BRANCH  27  28
ATOM     28  C   UNL     1       2.301   2.281   1.571  1.00  0.00     0.261 C 
BRANCH  28  29
ATOM     29  O   UNL     1       2.761   0.966   1.932  1.00  0.00    -0.460 OA
BRANCH  29  30
ATOM     30  C   UNL     1       3.468   0.318   0.973  1.00  0.00     0.338 C 
ATOM     31  O   UNL     1       3.691   0.696  -0.167  1.00  0.00    -0.246 OA
BRANCH  30  32
ATOM     32  C   UNL     1       4.115  -0.871   1.562  1.00  0.00     0.060 A 
ATOM     33  C   UNL     1       5.499  -1.020   1.427  1.00  0.00     0.016 A 
ATOM     34  C   UNL     1       3.371  -1.844   2.225  1.00  0.00     0.016 A 
ATOM     35  C   UNL     1       6.137  -2.156   1.933  1.00  0.00     0.010 A 
ATOM     36  C   UNL     1       4.018  -2.962   2.768  1.00  0.00     0.010 A 
ATOM     37  C   UNL     1       5.401  -3.153   2.591  1.00  0.00    -0.014 A 
BRANCH  37  38
ATOM     38  C   UNL     1       6.042  -4.451   2.956  1.00  0.00     0.031 A 
ATOM     39  C   UNL     1       5.602  -5.715   2.255  1.00  0.00     0.074 A 
ATOM     40  C   UNL     1       7.020  -4.521   3.882  1.00  0.00     0.049 A 
ATOM     41  N   UNL     1       6.003  -6.950   2.431  1.00  0.00    -0.248 NA
ATOM     42  C   UNL     1       4.556  -5.571   1.229  1.00  0.00     0.031 C 
ATOM     43  C   UNL     1       7.542  -3.393   4.652  1.00  0.00     0.029 A 
ATOM     44  N   UNL     1       7.749  -5.596   4.335  1.00  0.00    -0.354 N 
ATOM     45  C   UNL     1       5.239  -7.724   1.564  1.00  0.00     0.074 A 
ATOM     46  C   UNL     1       4.318  -6.830   0.899  1.00  0.00     0.031 C 
ATOM     47  C   UNL     1       8.515  -3.831   5.469  1.00  0.00     0.029 A 
ATOM     48  C   UNL     1       8.664  -5.277   5.310  1.00  0.00     0.049 A 
ATOM     49  H   UNL     1       7.627  -6.511   3.992  1.00  0.00     0.167 HD
ATOM     50  C   UNL     1       5.312  -9.054   1.319  1.00  0.00     0.037 A 
ATOM     51  C   UNL     1       9.515  -6.060   6.005  1.00  0.00     0.037 A 
ATOM     52  C   UNL     1       6.257  -9.945   1.936  1.00  0.00     0.049 A 
ATOM     53  C   UNL     1       9.567  -7.543   5.722  1.00  0.00     0.074 A 
ATOM     54  C   UNL     1       6.450 -11.295   1.696  1.00  0.00     0.029 A 
ATOM     55  N   UNL     1       7.167  -9.579   2.915  1.00  0.00    -0.354 N 
ATOM     56  N   UNL     1       8.885  -8.247   4.852  1.00  0.00    -0.248 NA
ATOM     57  C   UNL     1      10.516  -8.338   6.517  1.00  0.00     0.031 C 
ATOM     58  C   UNL     1       7.434 -11.759   2.572  1.00  0.00     0.029 A 
ATOM     59  C   UNL     1       7.903 -10.685   3.310  1.00  0.00     0.049 A 
ATOM     60  H   UNL     1       7.274  -8.669   3.276  1.00  0.00     0.167 HD
ATOM     61  C   UNL     1       9.344  -9.554   4.973  1.00  0.00     0.074 A 
ATOM     62  C   UNL     1      10.377  -9.543   5.984  1.00  0.00     0.031 C 
ATOM     63  C   UNL     1       8.943 -10.664   4.306  1.00  0.00     0.037 A 
BRANCH  50  64
ATOM     64  C   UNL     1       4.340  -9.639   0.334  1.00  0.00     0.064 A 
ATOM     65  C   UNL     1       4.425  -9.368  -1.040  1.00  0.00     0.173 A 
ATOM     66  C   UNL     1       3.347 -10.532   0.767  1.00  0.00     0.173 A 
ATOM     67  F   UNL     1       5.348  -8.513  -1.504  1.00  0.00    -0.203 F 
ATOM     68  C   UNL     1       3.536  -9.948  -1.940  1.00  0.00     0.198 A 
ATOM     69  C   UNL     1       2.483 -11.137  -0.141  1.00  0.00     0.198 A 
ATOM     70  F   UNL     1       3.228 -10.832   2.069  1.00  0.00    -0.203 F 
ATOM     71  F   UNL     1       3.606  -9.638  -3.242  1.00  0.00    -0.200 F 
ATOM     72  C   UNL     1       2.573 -10.840  -1.492  1.00  0.00     0.200 A 
ATOM     73  F   UNL     1       1.565 -12.012   0.292  1.00  0.00    -0.200 F 
ATOM     74  F   UNL     1       1.730 -11.411  -2.363  1.00  0.00    -0.200 F 
ENDBRANCH  50  64
BRANCH  51  75
ATOM     75  C   UNL     1      10.397  -5.471   7.053  1.00  0.00     0.064 A 
ATOM     76  C   UNL     1      11.792  -5.465   6.910  1.00  0.00     0.173 A 
ATOM     77  C   UNL     1       9.865  -4.956   8.244  1.00  0.00     0.173 A 
ATOM     78  F   UNL     1      12.354  -5.972   5.802  1.00  0.00    -0.203 F 
ATOM     79  C   UNL     1      12.621  -5.000   7.930  1.00  0.00     0.198 A 
ATOM     80  C   UNL     1      10.693  -4.458   9.249  1.00  0.00     0.198 A 
ATOM     81  F   UNL     1       8.538  -4.939   8.436  1.00  0.00    -0.203 F 
ATOM     82  F   UNL     1      13.952  -5.072   7.794  1.00  0.00    -0.200 F 
ATOM     83  C   UNL     1      12.071  -4.493   9.097  1.00  0.00     0.200 A 
ATOM     84  F   UNL     1      10.156  -3.957  10.369  1.00  0.00    -0.200 F 
ATOM     85  F   UNL     1      12.867  -4.051  10.079  1.00  0.00    -0.200 F 
ENDBRANCH  51  75
BRANCH  63  86
ATOM     86  C   UNL     1       9.649 -11.957   4.608  1.00  0.00     0.064 A 
ATOM     87  C   UNL     1       9.489 -12.620   5.834  1.00  0.00     0.173 A 
ATOM     88  C   UNL     1      10.461 -12.565   3.637  1.00  0.00     0.173 A 
ATOM     89  F   UNL     1       8.733 -12.078   6.802  1.00  0.00    -0.203 F 
ATOM     90  C   UNL     1      10.140 -13.825   6.088  1.00  0.00     0.198 A 
ATOM     91  C   UNL     1      11.081 -13.787   3.881  1.00  0.00     0.198 A 
ATOM     92  F   UNL     1      10.640 -11.980   2.443  1.00  0.00    -0.203 F 
ATOM     93  F   UNL     1      10.015 -14.412   7.286  1.00  0.00    -0.200 F 
ATOM     94  C   UNL     1      10.928 -14.412   5.109  1.00  0.00     0.200 A 
ATOM     95  F   UNL     1      11.826 -14.361   2.926  1.00  0.00    -0.200 F 
ATOM     96  F   UNL     1      11.545 -15.576   5.351  1.00  0.00    -0.200 F 
ENDBRANCH  63  86
ENDBRANCH  37  38
ENDBRANCH  30  32
ENDBRANCH  29  30
ENDBRANCH  28  29
ENDBRANCH  27  28
ENDBRANCH   1  27
TORSDOF 17
