REMARK SMILES COc1cc(Cl)c2c(c1)C=C(C(=O)OCCOCCOC(=O)c1ccc(-c3c4nc(c(-c5c(F)c(F)c(F)c(F)c5F)c5ccc([nH]5)c(-c5c(F)c(F)c(F)c(F)c5F)c5nc(c(-c6c(F)c(F)c(F)c(F)c6F)c6ccc3[nH]6)C=C5)C=C4)cc1)[C@@H](C(F)(F)F)O2
REMARK SMILES IDX 18 1 17 2 16 3 15 4 14 5 12 6 13 7 11 8 3 9 4 10 9 11 5 12
REMARK SMILES IDX 8 13 6 14 7 15 10 16 91 17 86 18 2 19 1 20 87 21 88 22 89 23
REMARK SMILES IDX 90 24 19 25 20 26 21 27 22 28 23 29 24 30 85 31 25 32 84 33
REMARK SMILES IDX 26 34 27 35 28 36 78 37 29 38 83 39 77 40 79 41 30 42 82 43
REMARK SMILES IDX 76 44 75 45 31 47 63 48 43 49 62 50 44 51 47 52 61 53 80 54
REMARK SMILES IDX 45 55 46 56 60 58 81 59 48 60 32 61 33 62 41 63 34 64 35 65
REMARK SMILES IDX 39 66 42 67 36 68 37 69 40 70 38 71 64 72 65 73 73 74 66 75
REMARK SMILES IDX 67 76 71 77 74 78 68 79 69 80 72 81 70 82 49 83 50 84 58 85
REMARK SMILES IDX 51 86 52 87 56 88 59 89 53 90 54 91 57 92 55 93
REMARK H PARENT 79 46 47 57
REMARK Flexibility Score: inf
ROOT
ATOM      1  C   UNL     1      -2.487  -6.208   5.845  1.00  0.00     0.202 C 
ENDROOT
BRANCH   1   2
ATOM      2  O   UNL     1      -3.603  -7.056   5.569  1.00  0.00    -0.374 OA
BRANCH   2   3
ATOM      3  C   UNL     1      -3.337  -8.427   5.287  1.00  0.00     0.202 C 
BRANCH   3   4
ATOM      4  C   UNL     1      -2.893  -8.746   3.857  1.00  0.00     0.261 C 
BRANCH   4   5
ATOM      5  O   UNL     1      -1.710  -8.015   3.498  1.00  0.00    -0.460 OA
BRANCH   5   6
ATOM      6  C   UNL     1      -1.893  -7.099   2.518  1.00  0.00     0.338 C 
ATOM      7  O   UNL     1      -2.898  -6.938   1.844  1.00  0.00    -0.246 OA
BRANCH   6   8
ATOM      8  C   UNL     1      -0.718  -6.212   2.434  1.00  0.00     0.087 C 
ATOM      9  C   UNL     1       0.914  -1.790   1.502  1.00  0.00     0.121 A 
ATOM     10  C   UNL     1       2.225  -2.259   1.488  1.00  0.00     0.070 A 
ATOM     11  C   UNL     1      -0.133  -2.651   1.819  1.00  0.00     0.058 A 
ATOM     12  C   UNL     1       2.479  -3.603   1.779  1.00  0.00     0.087 A 
ATOM     13  C   UNL     1       0.118  -4.004   2.072  1.00  0.00     0.022 A 
ATOM     14  Cl  UNL     1       4.120  -4.147   1.748  1.00  0.00    -0.080 Cl
ATOM     15  C   UNL     1       1.429  -4.486   2.072  1.00  0.00     0.146 A 
ATOM     16  C   UNL     1      -0.993  -4.912   2.277  1.00  0.00     0.027 C 
ATOM     17  O   UNL     1       1.737  -5.788   2.361  1.00  0.00    -0.474 OA
ATOM     18  C   UNL     1       0.674  -6.772   2.494  1.00  0.00     0.316 C 
BRANCH   9  19
ATOM     19  O   UNL     1       0.578  -0.484   1.274  1.00  0.00    -0.497 OA
ATOM     20  C   UNL     1       1.107   0.023   0.051  1.00  0.00     0.278 C 
ENDBRANCH   9  19
BRANCH  18  21
ATOM     21  C   UNL     1       0.912  -7.882   1.458  1.00  0.00     0.430 C 
ATOM     22  F   UNL     1       2.183  -8.346   1.518  1.00  0.00    -0.167 F 
ATOM     23  F   UNL     1       0.104  -8.948   1.669  1.00  0.00    -0.167 F 
ATOM     24  F   UNL     1       0.694  -7.452   0.195  1.00  0.00    -0.167 F 
ENDBRANCH  18  21
ENDBRANCH   6   8
ENDBRANCH   5   6
ENDBRANCH   4   5
ENDBRANCH   3   4
ENDBRANCH   2   3
ENDBRANCH   1   2
BRANCH   1  25
ATOM     25  C   UNL     1      -1.794  -6.405   7.199  1.00  0.00     0.261 C 
BRANCH  25  26
ATOM     26  O   UNL     1      -1.022  -7.623   7.230  1.00  0.00    -0.460 OA
BRANCH  26  27
ATOM     27  C   UNL     1      -1.415  -8.527   8.157  1.00  0.00     0.338 C 
ATOM     28  O   UNL     1      -2.300  -8.407   8.991  1.00  0.00    -0.246 OA
BRANCH  27  29
ATOM     29  C   UNL     1      -0.725  -9.806   7.927  1.00  0.00     0.060 A 
ATOM     30  C   UNL     1      -1.500 -10.920   7.581  1.00  0.00     0.016 A 
ATOM     31  C   UNL     1       0.645  -9.934   8.161  1.00  0.00     0.016 A 
ATOM     32  C   UNL     1      -0.912 -12.180   7.503  1.00  0.00     0.010 A 
ATOM     33  C   UNL     1       1.231 -11.202   8.100  1.00  0.00     0.010 A 
ATOM     34  C   UNL     1       0.448 -12.332   7.804  1.00  0.00    -0.014 A 
BRANCH  34  35
ATOM     35  C   UNL     1       1.010 -13.693   7.961  1.00  0.00     0.031 A 
ATOM     36  C   UNL     1       1.041 -14.313   9.329  1.00  0.00     0.074 A 
ATOM     37  C   UNL     1       1.458 -14.377   6.894  1.00  0.00     0.049 A 
ATOM     38  N   UNL     1       1.495 -15.483   9.700  1.00  0.00    -0.248 NA
ATOM     39  C   UNL     1       0.478 -13.509  10.427  1.00  0.00     0.031 C 
ATOM     40  C   UNL     1       1.432 -13.897   5.515  1.00  0.00     0.029 A 
ATOM     41  N   UNL     1       2.022 -15.624   6.810  1.00  0.00    -0.354 N 
ATOM     42  C   UNL     1       1.262 -15.560  11.067  1.00  0.00     0.074 A 
ATOM     43  C   UNL     1       0.658 -14.309  11.469  1.00  0.00     0.031 C 
ATOM     44  C   UNL     1       1.966 -14.838   4.718  1.00  0.00     0.029 A 
ATOM     45  C   UNL     1       2.394 -15.973   5.535  1.00  0.00     0.049 A 
ATOM     46  H   UNL     1       2.149 -16.213   7.588  1.00  0.00     0.167 HD
ATOM     47  C   UNL     1       1.518 -16.590  11.906  1.00  0.00     0.037 A 
ATOM     48  C   UNL     1       3.020 -17.078   5.086  1.00  0.00     0.037 A 
ATOM     49  C   UNL     1       2.133 -17.828  11.507  1.00  0.00     0.049 A 
ATOM     50  C   UNL     1       3.386 -18.168   6.059  1.00  0.00     0.074 A 
ATOM     51  C   UNL     1       2.435 -18.931  12.286  1.00  0.00     0.029 A 
ATOM     52  N   UNL     1       2.547 -18.121  10.217  1.00  0.00    -0.354 N 
ATOM     53  N   UNL     1       3.148 -18.242   7.346  1.00  0.00    -0.248 NA
ATOM     54  C   UNL     1       4.110 -19.328   5.518  1.00  0.00     0.031 C 
ATOM     55  C   UNL     1       3.074 -19.874  11.476  1.00  0.00     0.029 A 
ATOM     56  C   UNL     1       3.126 -19.379  10.182  1.00  0.00     0.049 A 
ATOM     57  H   UNL     1       2.446 -17.524   9.441  1.00  0.00     0.167 HD
ATOM     58  C   UNL     1       3.664 -19.462   7.762  1.00  0.00     0.074 A 
ATOM     59  C   UNL     1       4.225 -20.100   6.590  1.00  0.00     0.031 C 
ATOM     60  C   UNL     1       3.671 -20.004   9.005  1.00  0.00     0.037 A 
BRANCH  47  61
ATOM     61  C   UNL     1       1.142 -16.423  13.348  1.00  0.00     0.064 A 
ATOM     62  C   UNL     1      -0.197 -16.473  13.764  1.00  0.00     0.173 A 
ATOM     63  C   UNL     1       2.132 -16.276  14.331  1.00  0.00     0.173 A 
ATOM     64  F   UNL     1      -1.180 -16.600  12.860  1.00  0.00    -0.203 F 
ATOM     65  C   UNL     1      -0.531 -16.370  15.111  1.00  0.00     0.198 A 
ATOM     66  C   UNL     1       1.795 -16.197  15.679  1.00  0.00     0.198 A 
ATOM     67  F   UNL     1       3.427 -16.225  13.984  1.00  0.00    -0.203 F 
ATOM     68  F   UNL     1      -1.819 -16.392  15.484  1.00  0.00    -0.200 F 
ATOM     69  C   UNL     1       0.465 -16.242  16.068  1.00  0.00     0.200 A 
ATOM     70  F   UNL     1       2.759 -16.084  16.604  1.00  0.00    -0.200 F 
ATOM     71  F   UNL     1       0.141 -16.158  17.366  1.00  0.00    -0.200 F 
ENDBRANCH  47  61
BRANCH  48  72
ATOM     72  C   UNL     1       3.336 -17.209   3.641  1.00  0.00     0.064 A 
ATOM     73  C   UNL     1       2.660 -18.137   2.838  1.00  0.00     0.173 A 
ATOM     74  C   UNL     1       4.313 -16.407   3.033  1.00  0.00     0.173 A 
ATOM     75  F   UNL     1       1.736 -18.943   3.381  1.00  0.00    -0.203 F 
ATOM     76  C   UNL     1       2.953 -18.262   1.482  1.00  0.00     0.198 A 
ATOM     77  C   UNL     1       4.589 -16.517   1.672  1.00  0.00     0.198 A 
ATOM     78  F   UNL     1       4.991 -15.507   3.760  1.00  0.00    -0.203 F 
ATOM     79  F   UNL     1       2.316 -19.180   0.743  1.00  0.00    -0.200 F 
ATOM     80  C   UNL     1       3.912 -17.447   0.898  1.00  0.00     0.200 A 
ATOM     81  F   UNL     1       5.510 -15.721   1.111  1.00  0.00    -0.200 F 
ATOM     82  F   UNL     1       4.188 -17.564  -0.408  1.00  0.00    -0.200 F 
ENDBRANCH  48  72
BRANCH  60  83
ATOM     83  C   UNL     1       4.278 -21.366   9.169  1.00  0.00     0.064 A 
ATOM     84  C   UNL     1       5.667 -21.557   9.146  1.00  0.00     0.173 A 
ATOM     85  C   UNL     1       3.465 -22.477   9.441  1.00  0.00     0.173 A 
ATOM     86  F   UNL     1       6.485 -20.528   8.879  1.00  0.00    -0.203 F 
ATOM     87  C   UNL     1       6.219 -22.813   9.380  1.00  0.00     0.198 A 
ATOM     88  C   UNL     1       4.021 -23.726   9.700  1.00  0.00     0.198 A 
ATOM     89  F   UNL     1       2.130 -22.344   9.483  1.00  0.00    -0.203 F 
ATOM     90  F   UNL     1       7.548 -22.979   9.327  1.00  0.00    -0.200 F 
ATOM     91  C   UNL     1       5.397 -23.894   9.668  1.00  0.00     0.200 A 
ATOM     92  F   UNL     1       3.227 -24.765   9.993  1.00  0.00    -0.200 F 
ATOM     93  F   UNL     1       5.932 -25.098   9.912  1.00  0.00    -0.200 F 
ENDBRANCH  60  83
ENDBRANCH  34  35
ENDBRANCH  27  29
ENDBRANCH  26  27
ENDBRANCH  25  26
ENDBRANCH   1  25
TORSDOF 16
