REMARK SMILES CC(=O)c1ccc(N2/C(=[NH+]/C(=O)CCC(=O)OCCOCCOC(=O)c3ccc(-c4c5nc(c(-c6c(F)c(F)c(F)c(F)c6F)c6ccc([nH]6)c(-c6c(F)c(F)c(F)c(F)c6F)c6nc(c(-c7c(F)c(F)c(F)c(F)c7F)c7ccc4[nH]7)C=C6)C=C5)cc3)S[C@H]3CS(=O)(=O)C[C@@H]32)cc1
REMARK SMILES IDX 19 1 18 2 17 3 15 4 16 5 14 6 13 7 11 8 8 9 9 10 96 11 10 12
REMARK SMILES IDX 89 13 90 14 95 15 91 17 92 18 12 19 93 20 94 21 7 22 4 23
REMARK SMILES IDX 5 24 98 25 6 26 97 27 2 28 1 29 3 30 20 31 21 32 22 33 23 34
REMARK SMILES IDX 24 35 25 36 26 37 27 38 88 39 28 40 87 41 29 42 30 43 31 44
REMARK SMILES IDX 81 45 32 46 86 47 80 48 82 49 33 50 85 51 79 52 78 53 34 55
REMARK SMILES IDX 66 56 46 57 65 58 47 59 50 60 64 61 83 62 48 63 49 64 63 66
REMARK SMILES IDX 84 67 51 68 35 69 36 70 44 71 37 72 38 73 42 74 45 75 39 76
REMARK SMILES IDX 40 77 43 78 41 79 67 80 68 81 76 82 69 83 70 84 74 85 77 86
REMARK SMILES IDX 71 87 72 88 75 89 73 90 52 91 53 92 61 93 54 94 55 95 59 96
REMARK SMILES IDX 62 97 56 98 57 99 60 100 58 101
REMARK H PARENT 10 16 82 54 50 65
REMARK Flexibility Score: inf
ROOT
ATOM      1  C   UNL     1       3.556  -1.935   4.655  1.00  0.00     0.202 C 
ENDROOT
BRANCH   1   2
ATOM      2  C   UNL     1       4.994  -1.857   4.099  1.00  0.00     0.261 C 
BRANCH   2   3
ATOM      3  O   UNL     1       5.751  -3.046   4.393  1.00  0.00    -0.463 OA
BRANCH   3   4
ATOM      4  C   UNL     1       6.732  -2.991   5.321  1.00  0.00     0.306 C 
ATOM      5  O   UNL     1       7.205  -1.966   5.786  1.00  0.00    -0.252 OA
BRANCH   4   6
ATOM      6  C   UNL     1       7.154  -4.383   5.743  1.00  0.00     0.135 C 
BRANCH   6   7
ATOM      7  C   UNL     1       6.159  -5.088   6.654  1.00  0.00     0.139 C 
BRANCH   7   8
ATOM      8  C   UNL     1       4.906  -5.666   6.021  1.00  0.00     0.308 C 
ATOM      9  N   UNL     1       3.679  -5.764   2.627  1.00  0.00    -0.217 N 
ATOM     10  C   UNL     1       4.439  -5.880   3.804  1.00  0.00     0.319 C 
ATOM     11  C   UNL     1       2.966  -7.046   2.584  1.00  0.00     0.212 C 
ATOM     12  N   UNL     1       4.452  -5.123   4.844  1.00  0.00    -0.204 N 
ATOM     13  S   UNL     1       5.192  -7.527   3.841  1.00  0.00    -0.029 SA
ATOM     14  C   UNL     1       4.068  -8.106   2.577  1.00  0.00     0.120 C 
ATOM     15  C   UNL     1       2.082  -7.427   1.458  1.00  0.00     0.188 C 
ATOM     16  H   UNL     1       4.149  -4.188   4.798  1.00  0.00     0.316 HD
ATOM     17  C   UNL     1       3.322  -9.405   2.749  1.00  0.00     0.156 C 
ATOM     18  S   UNL     1       2.110  -9.208   1.455  1.00  0.00     0.155 S 
ATOM     19  O   UNL     1       4.261  -6.520   6.633  1.00  0.00    -0.247 OA
ATOM     20  O   UNL     1       2.732  -9.596   0.215  1.00  0.00    -0.229 OA
ATOM     21  O   UNL     1       0.840  -9.726   1.927  1.00  0.00    -0.229 OA
BRANCH   9  22
ATOM     22  C   UNL     1       3.142  -4.588   2.066  1.00  0.00     0.128 A 
ATOM     23  C   UNL     1       2.034  -2.113   1.043  1.00  0.00     0.018 A 
ATOM     24  C   UNL     1       1.229  -3.079   1.627  1.00  0.00     0.016 A 
ATOM     25  C   UNL     1       3.378  -2.426   0.856  1.00  0.00     0.016 A 
ATOM     26  C   UNL     1       1.785  -4.288   2.095  1.00  0.00     0.052 A 
ATOM     27  C   UNL     1       3.919  -3.645   1.376  1.00  0.00     0.052 A 
BRANCH  23  28
ATOM     28  C   UNL     1       1.418  -0.774   0.799  1.00  0.00     0.159 C 
ATOM     29  C   UNL     1       1.657  -0.043  -0.492  1.00  0.00     0.093 C 
ATOM     30  O   UNL     1       0.667  -0.316   1.660  1.00  0.00    -0.295 OA
ENDBRANCH  23  28
ENDBRANCH   9  22
ENDBRANCH   7   8
ENDBRANCH   6   7
ENDBRANCH   4   6
ENDBRANCH   3   4
ENDBRANCH   2   3
ENDBRANCH   1   2
BRANCH   1  31
ATOM     31  O   UNL     1       3.433  -1.444   5.994  1.00  0.00    -0.374 OA
BRANCH  31  32
ATOM     32  C   UNL     1       3.797  -2.382   7.001  1.00  0.00     0.202 C 
BRANCH  32  33
ATOM     33  C   UNL     1       2.619  -3.176   7.580  1.00  0.00     0.261 C 
BRANCH  33  34
ATOM     34  O   UNL     1       2.028  -4.077   6.610  1.00  0.00    -0.460 OA
BRANCH  34  35
ATOM     35  C   UNL     1       0.672  -4.053   6.542  1.00  0.00     0.338 C 
ATOM     36  O   UNL     1      -0.079  -3.374   7.223  1.00  0.00    -0.246 OA
BRANCH  35  37
ATOM     37  C   UNL     1       0.152  -4.870   5.413  1.00  0.00     0.060 A 
ATOM     38  C   UNL     1      -0.547  -4.197   4.403  1.00  0.00     0.016 A 
ATOM     39  C   UNL     1       0.207  -6.265   5.373  1.00  0.00     0.016 A 
ATOM     40  C   UNL     1      -1.120  -4.891   3.313  1.00  0.00     0.010 A 
ATOM     41  C   UNL     1      -0.370  -6.960   4.278  1.00  0.00     0.010 A 
ATOM     42  C   UNL     1      -0.993  -6.279   3.196  1.00  0.00    -0.014 A 
BRANCH  42  43
ATOM     43  C   UNL     1      -1.704  -7.057   2.115  1.00  0.00     0.031 A 
ATOM     44  C   UNL     1      -3.052  -7.568   2.503  1.00  0.00     0.074 A 
ATOM     45  C   UNL     1      -1.335  -7.284   0.824  1.00  0.00     0.049 A 
ATOM     46  N   UNL     1      -3.800  -8.467   1.930  1.00  0.00    -0.248 NA
ATOM     47  C   UNL     1      -3.672  -6.893   3.655  1.00  0.00     0.031 C 
ATOM     48  C   UNL     1      -0.337  -6.578   0.024  1.00  0.00     0.029 A 
ATOM     49  N   UNL     1      -1.684  -8.337  -0.013  1.00  0.00    -0.354 N 
ATOM     50  C   UNL     1      -5.005  -8.410   2.602  1.00  0.00     0.074 A 
ATOM     51  C   UNL     1      -4.857  -7.470   3.690  1.00  0.00     0.031 C 
ATOM     52  C   UNL     1       0.045  -7.351  -1.017  1.00  0.00     0.029 A 
ATOM     53  C   UNL     1      -0.749  -8.570  -1.017  1.00  0.00     0.049 A 
ATOM     54  H   UNL     1      -2.508  -8.865   0.093  1.00  0.00     0.167 HD
ATOM     55  C   UNL     1      -6.157  -9.040   2.291  1.00  0.00     0.037 A 
ATOM     56  C   UNL     1      -0.550  -9.668  -1.787  1.00  0.00     0.037 A 
ATOM     57  C   UNL     1      -6.278  -9.995   1.231  1.00  0.00     0.049 A 
ATOM     58  C   UNL     1      -1.662 -10.674  -1.844  1.00  0.00     0.074 A 
ATOM     59  C   UNL     1      -7.378 -10.747   0.868  1.00  0.00     0.029 A 
ATOM     60  N   UNL     1      -5.243 -10.349   0.375  1.00  0.00    -0.354 N 
ATOM     61  N   UNL     1      -2.785 -10.683  -1.175  1.00  0.00    -0.248 NA
ATOM     62  C   UNL     1      -1.551 -11.735  -2.858  1.00  0.00     0.031 C 
ATOM     63  C   UNL     1      -6.989 -11.606  -0.164  1.00  0.00     0.029 A 
ATOM     64  C   UNL     1      -5.670 -11.338  -0.492  1.00  0.00     0.049 A 
ATOM     65  H   UNL     1      -4.341  -9.955   0.384  1.00  0.00     0.167 HD
ATOM     66  C   UNL     1      -3.565 -11.659  -1.767  1.00  0.00     0.074 A 
ATOM     67  C   UNL     1      -2.757 -12.282  -2.795  1.00  0.00     0.031 C 
ATOM     68  C   UNL     1      -4.864 -11.943  -1.523  1.00  0.00     0.037 A 
BRANCH  55  69
ATOM     69  C   UNL     1      -7.320  -8.728   3.174  1.00  0.00     0.064 A 
ATOM     70  C   UNL     1      -7.921  -7.458   3.176  1.00  0.00     0.173 A 
ATOM     71  C   UNL     1      -7.743  -9.664   4.125  1.00  0.00     0.173 A 
ATOM     72  F   UNL     1      -7.512  -6.514   2.314  1.00  0.00    -0.203 F 
ATOM     73  C   UNL     1      -8.863  -7.119   4.142  1.00  0.00     0.198 A 
ATOM     74  C   UNL     1      -8.711  -9.333   5.065  1.00  0.00     0.198 A 
ATOM     75  F   UNL     1      -7.183 -10.882   4.171  1.00  0.00    -0.203 F 
ATOM     76  F   UNL     1      -9.345  -5.870   4.197  1.00  0.00    -0.200 F 
ATOM     77  C   UNL     1      -9.256  -8.057   5.085  1.00  0.00     0.200 A 
ATOM     78  F   UNL     1      -9.088 -10.237   5.979  1.00  0.00    -0.200 F 
ATOM     79  F   UNL     1     -10.140  -7.721   6.035  1.00  0.00    -0.200 F 
ENDBRANCH  55  69
BRANCH  56  80
ATOM     80  C   UNL     1       0.671  -9.921  -2.614  1.00  0.00     0.064 A 
ATOM     81  C   UNL     1       0.798  -9.473  -3.933  1.00  0.00     0.173 A 
ATOM     82  C   UNL     1       1.667 -10.800  -2.148  1.00  0.00     0.173 A 
ATOM     83  F   UNL     1      -0.191  -8.764  -4.494  1.00  0.00    -0.203 F 
ATOM     84  C   UNL     1       1.900  -9.833  -4.720  1.00  0.00     0.198 A 
ATOM     85  C   UNL     1       2.803 -11.102  -2.905  1.00  0.00     0.198 A 
ATOM     86  F   UNL     1       1.489 -11.449  -0.987  1.00  0.00    -0.203 F 
ATOM     87  F   UNL     1       1.953  -9.456  -6.006  1.00  0.00    -0.200 F 
ATOM     88  C   UNL     1       2.917 -10.617  -4.195  1.00  0.00     0.200 A 
ATOM     89  F   UNL     1       3.757 -11.902  -2.406  1.00  0.00    -0.200 F 
ATOM     90  F   UNL     1       3.975 -10.948  -4.950  1.00  0.00    -0.200 F 
ENDBRANCH  56  80
BRANCH  68  91
ATOM     91  C   UNL     1      -5.547 -12.899  -2.447  1.00  0.00     0.064 A 
ATOM     92  C   UNL     1      -5.298 -14.275  -2.416  1.00  0.00     0.173 A 
ATOM     93  C   UNL     1      -6.543 -12.421  -3.314  1.00  0.00     0.173 A 
ATOM     94  F   UNL     1      -4.334 -14.771  -1.626  1.00  0.00    -0.203 F 
ATOM     95  C   UNL     1      -6.032 -15.145  -3.216  1.00  0.00     0.198 A 
ATOM     96  C   UNL     1      -7.298 -13.296  -4.084  1.00  0.00     0.198 A 
ATOM     97  F   UNL     1      -6.807 -11.107  -3.384  1.00  0.00    -0.203 F 
ATOM     98  F   UNL     1      -5.764 -16.457  -3.194  1.00  0.00    -0.200 F 
ATOM     99  C   UNL     1      -7.042 -14.657  -4.034  1.00  0.00     0.200 A 
ATOM    100  F   UNL     1      -8.284 -12.823  -4.859  1.00  0.00    -0.200 F 
ATOM    101  F   UNL     1      -7.772 -15.502  -4.774  1.00  0.00    -0.200 F 
ENDBRANCH  68  91
ENDBRANCH  42  43
ENDBRANCH  35  37
ENDBRANCH  34  35
ENDBRANCH  33  34
ENDBRANCH  32  33
ENDBRANCH  31  32
ENDBRANCH   1  31
TORSDOF 18
