REMARK SMILES COc1ccc(N2/C(=[NH+]/C(=O)CCCC(=O)OCCOCCOC(=O)c3ccc(-c4c5nc(c(-c6c(F)c(F)c(F)c(F)c6F)c6ccc([nH]6)c(-c6c(F)c(F)c(F)c(F)c6F)c6nc(c(-c7c(F)c(F)c(F)c(F)c7F)c7ccc4[nH]7)C=C6)C=C5)cc3)S[C@@H]3CS(=O)(=O)C[C@H]32)cc1Cl
REMARK SMILES IDX 18 1 17 2 15 3 16 4 14 5 13 6 12 7 10 8 7 9 8 10 96 11 9 12
REMARK SMILES IDX 89 13 90 14 95 15 91 17 92 18 11 19 93 20 94 21 6 22 3 23
REMARK SMILES IDX 4 24 98 25 5 26 97 27 99 28 2 29 1 30 19 31 20 32 21 33
REMARK SMILES IDX 22 34 23 35 24 36 25 37 26 38 27 39 88 40 28 41 87 42 29 43
REMARK SMILES IDX 30 44 31 45 81 46 32 47 86 48 80 49 82 50 33 51 85 52 79 53
REMARK SMILES IDX 78 54 34 56 66 57 46 58 65 59 47 60 50 61 64 62 83 63 48 64
REMARK SMILES IDX 49 65 63 67 84 68 51 69 35 70 36 71 44 72 37 73 38 74 42 75
REMARK SMILES IDX 45 76 39 77 40 78 43 79 41 80 67 81 68 82 76 83 69 84 70 85
REMARK SMILES IDX 74 86 77 87 71 88 72 89 75 90 73 91 52 92 53 93 61 94 54 95
REMARK SMILES IDX 55 96 59 97 62 98 56 99 57 100 60 101 58 102
REMARK H PARENT 9 16 82 55 50 66
REMARK Flexibility Score: inf
ROOT
ATOM      1  C   UNL     1       3.467   5.318   1.561  1.00  0.00     0.261 C 
ENDROOT
BRANCH   1   2
ATOM      2  O   UNL     1       4.219   4.861   2.695  1.00  0.00    -0.463 OA
BRANCH   2   3
ATOM      3  C   UNL     1       4.843   3.668   2.558  1.00  0.00     0.305 C 
ATOM      4  O   UNL     1       4.743   2.940   1.579  1.00  0.00    -0.252 OA
BRANCH   3   5
ATOM      5  C   UNL     1       5.707   3.310   3.751  1.00  0.00     0.123 C 
BRANCH   5   6
ATOM      6  C   UNL     1       6.498   4.409   4.464  1.00  0.00     0.024 C 
BRANCH   6   7
ATOM      7  C   UNL     1       5.766   5.638   5.000  1.00  0.00     0.128 C 
BRANCH   7   8
ATOM      8  C   UNL     1       4.611   5.403   5.958  1.00  0.00     0.307 C 
ATOM      9  N   UNL     1       1.974   2.880   6.069  1.00  0.00    -0.217 N 
ATOM     10  C   UNL     1       3.009   3.769   6.378  1.00  0.00     0.319 C 
ATOM     11  C   UNL     1       1.456   2.157   7.231  1.00  0.00     0.212 C 
ATOM     12  N   UNL     1       3.690   4.476   5.540  1.00  0.00    -0.204 N 
ATOM     13  S   UNL     1       3.232   3.785   8.160  1.00  0.00    -0.029 SA
ATOM     14  C   UNL     1       1.550   3.181   8.367  1.00  0.00     0.120 C 
ATOM     15  C   UNL     1       0.012   1.715   7.265  1.00  0.00     0.188 C 
ATOM     16  H   UNL     1       3.546   4.346   4.575  1.00  0.00     0.316 HD
ATOM     17  C   UNL     1       1.122   2.471   9.623  1.00  0.00     0.156 C 
ATOM     18  S   UNL     1      -0.263   1.486   9.029  1.00  0.00     0.155 S 
ATOM     19  O   UNL     1       4.468   6.159   6.917  1.00  0.00    -0.247 OA
ATOM     20  O   UNL     1      -1.498   2.155   9.384  1.00  0.00    -0.229 OA
ATOM     21  O   UNL     1      -0.005   0.102   9.353  1.00  0.00    -0.229 OA
BRANCH   9  22
ATOM     22  C   UNL     1       1.673   2.404   4.789  1.00  0.00     0.130 A 
ATOM     23  C   UNL     1       1.032   1.456   2.178  1.00  0.00     0.137 A 
ATOM     24  C   UNL     1       0.166   2.303   2.885  1.00  0.00     0.052 A 
ATOM     25  C   UNL     1       2.221   1.064   2.803  1.00  0.00     0.087 A 
ATOM     26  C   UNL     1       0.476   2.764   4.169  1.00  0.00     0.056 A 
ATOM     27  C   UNL     1       2.526   1.537   4.097  1.00  0.00     0.076 A 
ATOM     28  Cl  UNL     1       3.409   0.026   2.097  1.00  0.00    -0.080 Cl
BRANCH  23  29
ATOM     29  O   UNL     1       0.559   1.188   0.925  1.00  0.00    -0.495 OA
ATOM     30  C   UNL     1       0.983   0.017   0.247  1.00  0.00     0.278 C 
ENDBRANCH  23  29
ENDBRANCH   9  22
ENDBRANCH   7   8
ENDBRANCH   6   7
ENDBRANCH   5   6
ENDBRANCH   3   5
ENDBRANCH   2   3
ENDBRANCH   1   2
BRANCH   1  31
ATOM     31  C   UNL     1       4.236   6.387   0.779  1.00  0.00     0.202 C 
BRANCH  31  32
ATOM     32  O   UNL     1       5.431   5.981   0.116  1.00  0.00    -0.374 OA
BRANCH  32  33
ATOM     33  C   UNL     1       6.609   5.819   0.903  1.00  0.00     0.202 C 
BRANCH  33  34
ATOM     34  C   UNL     1       7.373   7.086   1.300  1.00  0.00     0.261 C 
BRANCH  34  35
ATOM     35  O   UNL     1       6.604   7.941   2.163  1.00  0.00    -0.460 OA
BRANCH  35  36
ATOM     36  C   UNL     1       6.109   9.045   1.554  1.00  0.00     0.338 C 
ATOM     37  O   UNL     1       6.306   9.406   0.406  1.00  0.00    -0.246 OA
BRANCH  36  38
ATOM     38  C   UNL     1       5.116   9.706   2.421  1.00  0.00     0.060 A 
ATOM     39  C   UNL     1       3.869  10.001   1.857  1.00  0.00     0.016 A 
ATOM     40  C   UNL     1       5.420  10.108   3.723  1.00  0.00     0.016 A 
ATOM     41  C   UNL     1       2.942  10.758   2.568  1.00  0.00     0.010 A 
ATOM     42  C   UNL     1       4.489  10.872   4.435  1.00  0.00     0.010 A 
ATOM     43  C   UNL     1       3.264  11.236   3.844  1.00  0.00    -0.014 A 
BRANCH  43  44
ATOM     44  C   UNL     1       2.379  12.233   4.497  1.00  0.00     0.031 A 
ATOM     45  C   UNL     1       2.788  13.681   4.504  1.00  0.00     0.074 A 
ATOM     46  C   UNL     1       1.210  11.860   5.046  1.00  0.00     0.049 A 
ATOM     47  N   UNL     1       2.194  14.711   5.052  1.00  0.00    -0.248 NA
ATOM     48  C   UNL     1       4.037  14.012   3.801  1.00  0.00     0.031 C 
ATOM     49  C   UNL     1       0.685  10.497   5.062  1.00  0.00     0.029 A 
ATOM     50  N   UNL     1       0.258  12.598   5.704  1.00  0.00    -0.354 N 
ATOM     51  C   UNL     1       3.002  15.806   4.771  1.00  0.00     0.074 A 
ATOM     52  C   UNL     1       4.143  15.312   4.032  1.00  0.00     0.031 C 
ATOM     53  C   UNL     1      -0.494  10.493   5.708  1.00  0.00     0.029 A 
ATOM     54  C   UNL     1      -0.784  11.844   6.185  1.00  0.00     0.049 A 
ATOM     55  H   UNL     1       0.316  13.573   5.820  1.00  0.00     0.167 HD
ATOM     56  C   UNL     1       2.803  17.107   5.093  1.00  0.00     0.037 A 
ATOM     57  C   UNL     1      -1.836  12.200   6.948  1.00  0.00     0.037 A 
ATOM     58  C   UNL     1       1.662  17.593   5.826  1.00  0.00     0.049 A 
ATOM     59  C   UNL     1      -1.994  13.642   7.361  1.00  0.00     0.074 A 
ATOM     60  C   UNL     1       1.358  18.895   6.183  1.00  0.00     0.029 A 
ATOM     61  N   UNL     1       0.643  16.794   6.323  1.00  0.00    -0.354 N 
ATOM     62  N   UNL     1      -1.242  14.675   7.070  1.00  0.00    -0.248 NA
ATOM     63  C   UNL     1      -3.152  13.967   8.206  1.00  0.00     0.031 C 
ATOM     64  C   UNL     1       0.191  18.876   6.952  1.00  0.00     0.029 A 
ATOM     65  C   UNL     1      -0.275  17.572   7.010  1.00  0.00     0.049 A 
ATOM     66  H   UNL     1       0.581  15.819   6.205  1.00  0.00     0.167 HD
ATOM     67  C   UNL     1      -1.854  15.775   7.659  1.00  0.00     0.074 A 
ATOM     68  C   UNL     1      -3.045  15.283   8.320  1.00  0.00     0.031 C 
ATOM     69  C   UNL     1      -1.468  17.074   7.648  1.00  0.00     0.037 A 
BRANCH  56  70
ATOM     70  C   UNL     1       3.855  18.097   4.683  1.00  0.00     0.064 A 
ATOM     71  C   UNL     1       4.067  18.442   3.339  1.00  0.00     0.173 A 
ATOM     72  C   UNL     1       4.635  18.744   5.654  1.00  0.00     0.173 A 
ATOM     73  F   UNL     1       3.356  17.848   2.369  1.00  0.00    -0.203 F 
ATOM     74  C   UNL     1       5.038  19.375   2.982  1.00  0.00     0.198 A 
ATOM     75  C   UNL     1       5.581  19.701   5.297  1.00  0.00     0.198 A 
ATOM     76  F   UNL     1       4.471  18.458   6.955  1.00  0.00    -0.203 F 
ATOM     77  F   UNL     1       5.256  19.652   1.689  1.00  0.00    -0.200 F 
ATOM     78  C   UNL     1       5.787  20.010   3.961  1.00  0.00     0.200 A 
ATOM     79  F   UNL     1       6.292  20.326   6.246  1.00  0.00    -0.200 F 
ATOM     80  F   UNL     1       6.713  20.916   3.617  1.00  0.00    -0.200 F 
ENDBRANCH  56  70
BRANCH  57  81
ATOM     81  C   UNL     1      -2.818  11.173   7.385  1.00  0.00     0.064 A 
ATOM     82  C   UNL     1      -4.143  11.195   6.926  1.00  0.00     0.173 A 
ATOM     83  C   UNL     1      -2.457  10.156   8.283  1.00  0.00     0.173 A 
ATOM     84  F   UNL     1      -4.543  12.160   6.085  1.00  0.00    -0.203 F 
ATOM     85  C   UNL     1      -5.073  10.256   7.366  1.00  0.00     0.198 A 
ATOM     86  C   UNL     1      -3.379   9.197   8.694  1.00  0.00     0.198 A 
ATOM     87  F   UNL     1      -1.203  10.087   8.752  1.00  0.00    -0.203 F 
ATOM     88  F   UNL     1      -6.345  10.332   6.952  1.00  0.00    -0.200 F 
ATOM     89  C   UNL     1      -4.689   9.253   8.244  1.00  0.00     0.200 A 
ATOM     90  F   UNL     1      -2.998   8.220   9.528  1.00  0.00    -0.200 F 
ATOM     91  F   UNL     1      -5.583   8.346   8.661  1.00  0.00    -0.200 F 
ENDBRANCH  57  81
BRANCH  69  92
ATOM     92  C   UNL     1      -2.366  18.076   8.317  1.00  0.00     0.064 A 
ATOM     93  C   UNL     1      -2.505  18.138   9.711  1.00  0.00     0.173 A 
ATOM     94  C   UNL     1      -3.054  19.029   7.548  1.00  0.00     0.173 A 
ATOM     95  F   UNL     1      -1.881  17.243  10.492  1.00  0.00    -0.203 F 
ATOM     96  C   UNL     1      -3.314  19.101  10.308  1.00  0.00     0.198 A 
ATOM     97  C   UNL     1      -3.834  20.012   8.150  1.00  0.00     0.198 A 
ATOM     98  F   UNL     1      -2.950  19.021   6.210  1.00  0.00    -0.203 F 
ATOM     99  F   UNL     1      -3.468  19.113  11.640  1.00  0.00    -0.200 F 
ATOM    100  C   UNL     1      -3.970  20.043   9.529  1.00  0.00     0.200 A 
ATOM    101  F   UNL     1      -4.450  20.932   7.395  1.00  0.00    -0.200 F 
ATOM    102  F   UNL     1      -4.736  20.978  10.107  1.00  0.00    -0.200 F 
ENDBRANCH  69  92
ENDBRANCH  43  44
ENDBRANCH  36  38
ENDBRANCH  35  36
ENDBRANCH  34  35
ENDBRANCH  33  34
ENDBRANCH  32  33
ENDBRANCH  31  32
ENDBRANCH   1  31
TORSDOF 19
