REMARK SMILES Cc1ccc(Cl)c(NC(=O)C[N@@H+]2CCC[C@H]2C(=O)OCCOCCOC(=O)c2ccc(-c3c4nc(c(-c5c(F)c(F)c(F)c(F)c5F)c5ccc([nH]5)c(-c5c(F)c(F)c(F)c(F)c5F)c5nc(c(-c6c(F)c(F)c(F)c(F)c6F)c6ccc3[nH]6)C=C5)C=C4)cc2)c1Cl
REMARK SMILES IDX 21 1 20 2 19 3 17 4 18 5 16 6 12 7 13 8 14 10 15 11 11 12
REMARK SMILES IDX 9 13 8 14 10 16 7 17 1 18 2 19 3 20 91 21 4 22 92 23 5 24
REMARK SMILES IDX 6 25 22 26 23 27 24 28 25 29 26 30 27 31 28 32 29 33 90 34
REMARK SMILES IDX 30 35 89 36 31 37 32 38 33 39 83 40 34 41 88 42 82 43 84 44
REMARK SMILES IDX 35 45 87 46 81 47 80 48 36 50 68 51 48 52 67 53 49 54 52 55
REMARK SMILES IDX 66 56 85 57 50 58 51 59 65 61 86 62 53 63 37 64 38 65 46 66
REMARK SMILES IDX 39 67 40 68 44 69 47 70 41 71 42 72 45 73 43 74 69 75 70 76
REMARK SMILES IDX 78 77 71 78 72 79 76 80 79 81 73 82 74 83 77 84 75 85 54 86
REMARK SMILES IDX 55 87 63 88 56 89 57 90 61 91 64 92 58 93 59 94 62 95 60 96
REMARK H PARENT 12 9 8 15 84 49 52 60
REMARK Flexibility Score: inf
ROOT
ATOM      1  C   UNL     1      -0.685   1.292  -4.824  1.00  0.00     0.202 C 
ENDROOT
BRANCH   1   2
ATOM      2  C   UNL     1      -0.028  -0.092  -4.798  1.00  0.00     0.261 C 
BRANCH   2   3
ATOM      3  O   UNL     1       0.377  -0.470  -3.473  1.00  0.00    -0.459 OA
BRANCH   3   4
ATOM      4  C   UNL     1       1.697  -0.798  -3.333  1.00  0.00     0.365 C 
ATOM      5  O   UNL     1       2.503  -0.874  -4.253  1.00  0.00    -0.245 OA
BRANCH   4   6
ATOM      6  C   UNL     1       2.055  -0.953  -1.840  1.00  0.00     0.295 C 
ATOM      7  N   UNL     1       2.446  -2.354  -1.560  1.00  0.00    -0.315 N 
ATOM      8  C   UNL     1       3.896  -2.380  -1.859  1.00  0.00     0.263 C 
ATOM      9  H   UNL     1       1.881  -2.999  -2.112  1.00  0.00     0.349 HD
ATOM     10  C   UNL     1       4.435  -1.052  -1.351  1.00  0.00     0.068 C 
ATOM     11  C   UNL     1       3.277  -0.079  -1.522  1.00  0.00     0.083 C 
BRANCH   7  12
ATOM     12  C   UNL     1       2.238  -2.759  -0.149  1.00  0.00     0.364 C 
BRANCH  12  13
ATOM     13  C   UNL     1       0.781  -2.951   0.244  1.00  0.00     0.279 C 
ATOM     14  N   UNL     1      -0.021  -2.046   0.861  1.00  0.00    -0.319 N 
ATOM     15  H   UNL     1      -0.888  -2.456   1.083  1.00  0.00     0.170 HD
ATOM     16  O   UNL     1       0.220  -4.023  -0.039  1.00  0.00    -0.268 OA
BRANCH  14  17
ATOM     17  C   UNL     1       0.002  -0.691   1.283  1.00  0.00     0.079 A 
ATOM     18  C   UNL     1       2.158   2.456   1.750  1.00  0.00     0.046 C 
ATOM     19  C   UNL     1       0.972   1.525   1.700  1.00  0.00    -0.030 A 
ATOM     20  C   UNL     1      -0.304   2.101   1.654  1.00  0.00     0.006 A 
ATOM     21  C   UNL     1       1.104   0.116   1.609  1.00  0.00     0.069 A 
ATOM     22  C   UNL     1      -1.428   1.297   1.534  1.00  0.00     0.023 A 
ATOM     23  Cl  UNL     1       2.550  -0.568   2.274  1.00  0.00    -0.082 Cl
ATOM     24  C   UNL     1      -1.273  -0.076   1.343  1.00  0.00     0.066 A 
ATOM     25  Cl  UNL     1      -2.721  -1.019   1.170  1.00  0.00    -0.082 Cl
ENDBRANCH  14  17
ENDBRANCH  12  13
ENDBRANCH   7  12
ENDBRANCH   4   6
ENDBRANCH   3   4
ENDBRANCH   2   3
ENDBRANCH   1   2
BRANCH   1  26
ATOM     26  O   UNL     1       0.119   2.392  -4.398  1.00  0.00    -0.374 OA
BRANCH  26  27
ATOM     27  C   UNL     1       0.436   2.486  -3.011  1.00  0.00     0.202 C 
BRANCH  27  28
ATOM     28  C   UNL     1      -0.722   2.825  -2.068  1.00  0.00     0.261 C 
BRANCH  28  29
ATOM     29  O   UNL     1      -1.779   1.853  -2.121  1.00  0.00    -0.460 OA
BRANCH  29  30
ATOM     30  C   UNL     1      -3.025   2.386  -2.084  1.00  0.00     0.338 C 
ATOM     31  O   UNL     1      -3.332   3.542  -1.858  1.00  0.00    -0.246 OA
BRANCH  30  32
ATOM     32  C   UNL     1      -4.026   1.356  -2.401  1.00  0.00     0.060 A 
ATOM     33  C   UNL     1      -4.470   1.205  -3.718  1.00  0.00     0.016 A 
ATOM     34  C   UNL     1      -4.636   0.651  -1.364  1.00  0.00     0.016 A 
ATOM     35  C   UNL     1      -5.547   0.358  -3.992  1.00  0.00     0.010 A 
ATOM     36  C   UNL     1      -5.691  -0.222  -1.644  1.00  0.00     0.010 A 
ATOM     37  C   UNL     1      -6.181  -0.344  -2.954  1.00  0.00    -0.014 A 
BRANCH  37  38
ATOM     38  C   UNL     1      -7.421  -1.115  -3.229  1.00  0.00     0.031 A 
ATOM     39  C   UNL     1      -8.756  -0.567  -2.800  1.00  0.00     0.074 A 
ATOM     40  C   UNL     1      -7.359  -2.292  -3.877  1.00  0.00     0.049 A 
ATOM     41  N   UNL     1      -9.956  -1.059  -2.988  1.00  0.00    -0.248 NA
ATOM     42  C   UNL     1      -8.737   0.698  -2.050  1.00  0.00     0.031 C 
ATOM     43  C   UNL     1      -6.129  -2.946  -4.320  1.00  0.00     0.029 A 
ATOM     44  N   UNL     1      -8.357  -3.147  -4.274  1.00  0.00    -0.354 N 
ATOM     45  C   UNL     1     -10.830  -0.166  -2.381  1.00  0.00     0.074 A 
ATOM     46  C   UNL     1     -10.022   0.872  -1.779  1.00  0.00     0.031 C 
ATOM     47  C   UNL     1      -6.445  -4.098  -4.934  1.00  0.00     0.029 A 
ATOM     48  C   UNL     1      -7.897  -4.269  -4.917  1.00  0.00     0.049 A 
ATOM     49  H   UNL     1      -9.313  -2.972  -4.113  1.00  0.00     0.167 HD
ATOM     50  C   UNL     1     -12.185  -0.196  -2.345  1.00  0.00     0.037 A 
ATOM     51  C   UNL     1      -8.569  -5.315  -5.434  1.00  0.00     0.037 A 
ATOM     52  C   UNL     1     -12.993  -1.225  -2.947  1.00  0.00     0.049 A 
ATOM     53  C   UNL     1     -10.074  -5.326  -5.386  1.00  0.00     0.074 A 
ATOM     54  C   UNL     1     -14.373  -1.324  -2.996  1.00  0.00     0.029 A 
ATOM     55  N   UNL     1     -12.489  -2.340  -3.601  1.00  0.00    -0.354 N 
ATOM     56  N   UNL     1     -10.893  -4.443  -4.868  1.00  0.00    -0.248 NA
ATOM     57  C   UNL     1     -10.748  -6.473  -6.011  1.00  0.00     0.031 C 
ATOM     58  C   UNL     1     -14.704  -2.519  -3.646  1.00  0.00     0.029 A 
ATOM     59  C   UNL     1     -13.531  -3.142  -4.041  1.00  0.00     0.049 A 
ATOM     60  H   UNL     1     -11.533  -2.533  -3.733  1.00  0.00     0.167 HD
ATOM     61  C   UNL     1     -12.174  -4.917  -5.118  1.00  0.00     0.074 A 
ATOM     62  C   UNL     1     -12.025  -6.155  -5.854  1.00  0.00     0.031 C 
ATOM     63  C   UNL     1     -13.367  -4.375  -4.768  1.00  0.00     0.037 A 
BRANCH  50  64
ATOM     64  C   UNL     1     -12.878   0.922  -1.621  1.00  0.00     0.064 A 
ATOM     65  C   UNL     1     -12.909   2.225  -2.141  1.00  0.00     0.173 A 
ATOM     66  C   UNL     1     -13.530   0.686  -0.401  1.00  0.00     0.173 A 
ATOM     67  F   UNL     1     -12.291   2.505  -3.298  1.00  0.00    -0.203 F 
ATOM     68  C   UNL     1     -13.538   3.258  -1.450  1.00  0.00     0.198 A 
ATOM     69  C   UNL     1     -14.181   1.716   0.274  1.00  0.00     0.198 A 
ATOM     70  F   UNL     1     -13.535  -0.542   0.137  1.00  0.00    -0.203 F 
ATOM     71  F   UNL     1     -13.509   4.505  -1.940  1.00  0.00    -0.200 F 
ATOM     72  C   UNL     1     -14.177   3.002  -0.246  1.00  0.00     0.200 A 
ATOM     73  F   UNL     1     -14.808   1.465   1.432  1.00  0.00    -0.200 F 
ATOM     74  F   UNL     1     -14.781   3.997   0.419  1.00  0.00    -0.200 F 
ENDBRANCH  50  64
BRANCH  51  75
ATOM     75  C   UNL     1      -7.819  -6.429  -6.065  1.00  0.00     0.064 A 
ATOM     76  C   UNL     1      -7.833  -6.617  -7.454  1.00  0.00     0.173 A 
ATOM     77  C   UNL     1      -7.066  -7.324  -5.292  1.00  0.00     0.173 A 
ATOM     78  F   UNL     1      -8.558  -5.800  -8.232  1.00  0.00    -0.203 F 
ATOM     79  C   UNL     1      -7.132  -7.666  -8.044  1.00  0.00     0.198 A 
ATOM     80  C   UNL     1      -6.345  -8.358  -5.885  1.00  0.00     0.198 A 
ATOM     81  F   UNL     1      -7.022  -7.186  -3.958  1.00  0.00    -0.203 F 
ATOM     82  F   UNL     1      -7.193  -7.847  -9.371  1.00  0.00    -0.200 F 
ATOM     83  C   UNL     1      -6.383  -8.532  -7.261  1.00  0.00     0.200 A 
ATOM     84  F   UNL     1      -5.616  -9.187  -5.126  1.00  0.00    -0.200 F 
ATOM     85  F   UNL     1      -5.705  -9.537  -7.830  1.00  0.00    -0.200 F 
ENDBRANCH  51  75
BRANCH  63  86
ATOM     86  C   UNL     1     -14.605  -5.112  -5.190  1.00  0.00     0.064 A 
ATOM     87  C   UNL     1     -14.988  -6.315  -4.577  1.00  0.00     0.173 A 
ATOM     88  C   UNL     1     -15.430  -4.598  -6.201  1.00  0.00     0.173 A 
ATOM     89  F   UNL     1     -14.224  -6.855  -3.615  1.00  0.00    -0.203 F 
ATOM     90  C   UNL     1     -16.137  -6.990  -4.981  1.00  0.00     0.198 A 
ATOM     91  C   UNL     1     -16.593  -5.262  -6.583  1.00  0.00     0.198 A 
ATOM     92  F   UNL     1     -15.112  -3.448  -6.814  1.00  0.00    -0.203 F 
ATOM     93  F   UNL     1     -16.457  -8.161  -4.415  1.00  0.00    -0.200 F 
ATOM     94  C   UNL     1     -16.941  -6.460  -5.979  1.00  0.00     0.200 A 
ATOM     95  F   UNL     1     -17.375  -4.744  -7.541  1.00  0.00    -0.200 F 
ATOM     96  F   UNL     1     -18.047  -7.111  -6.365  1.00  0.00    -0.200 F 
ENDBRANCH  63  86
ENDBRANCH  37  38
ENDBRANCH  30  32
ENDBRANCH  29  30
ENDBRANCH  28  29
ENDBRANCH  27  28
ENDBRANCH  26  27
ENDBRANCH   1  26
TORSDOF 17
