REMARK SMILES Nc1nnc(S[C@H](F)C(=O)OCCOCCOC(=O)c2ccc(-c3c4nc(c(-c5c(F)c(F)c(F)c(F)c5F)c5ccc([nH]5)c(-c5c(F)c(F)c(F)c(F)c5F)c5nc(c(-c6c(F)c(F)c(F)c(F)c6F)c6ccc3[nH]6)C=C5)C=C4)cc2)s1
REMARK SMILES IDX 13 1 12 2 11 3 9 4 10 5 7 6 8 7 6 8 5 9 2 10 3 11 83 12 4 13
REMARK SMILES IDX 1 14 14 17 15 18 16 19 17 20 18 21 19 22 20 23 21 24 82 25
REMARK SMILES IDX 22 26 81 27 23 28 24 29 25 30 75 31 26 32 80 33 74 34 76 35
REMARK SMILES IDX 27 36 79 37 73 38 72 39 28 41 60 42 40 43 59 44 41 45 44 46
REMARK SMILES IDX 58 47 77 48 42 49 43 50 57 52 78 53 45 54 29 55 30 56 38 57
REMARK SMILES IDX 31 58 32 59 36 60 39 61 33 62 34 63 37 64 35 65 61 66 62 67
REMARK SMILES IDX 70 68 63 69 64 70 68 71 71 72 65 73 66 74 69 75 67 76 46 77
REMARK SMILES IDX 47 78 55 79 48 80 49 81 53 82 56 83 50 84 51 85 54 86 52 87
REMARK H PARENT 1 15 1 16 76 40 44 51
REMARK Flexibility Score: inf
ROOT
ATOM      1  C   UNL     1       3.528   2.320   3.677  1.00  0.00     0.202 C 
ENDROOT
BRANCH   1   2
ATOM      2  C   UNL     1       3.862   3.131   2.428  1.00  0.00     0.261 C 
BRANCH   2   3
ATOM      3  O   UNL     1       3.666   2.346   1.240  1.00  0.00    -0.460 OA
BRANCH   3   4
ATOM      4  C   UNL     1       4.789   2.068   0.515  1.00  0.00     0.351 C 
ATOM      5  O   UNL     1       5.939   2.333   0.852  1.00  0.00    -0.248 OA
BRANCH   4   6
ATOM      6  C   UNL     1       4.446   1.361  -0.776  1.00  0.00     0.340 C 
ATOM      7  F   UNL     1       3.520   0.369  -0.574  1.00  0.00    -0.222 F 
BRANCH   6   8
ATOM      8  S   UNL     1       3.862   2.401  -2.136  1.00  0.00    -0.044 SA
BRANCH   8   9
ATOM      9  C   UNL     1       4.209   4.047  -1.686  1.00  0.00     0.179 A 
ATOM     10  C   UNL     1       4.557   6.395  -1.531  1.00  0.00     0.203 A 
ATOM     11  N   UNL     1       4.450   5.827  -0.352  1.00  0.00    -0.120 NA
ATOM     12  S   UNL     1       4.428   5.294  -2.844  1.00  0.00    -0.069 S 
ATOM     13  N   UNL     1       4.221   4.475  -0.447  1.00  0.00    -0.130 NA
BRANCH  10  14
ATOM     14  N   UNL     1       4.740   7.708  -1.719  1.00  0.00    -0.374 N 
ATOM     15  H   UNL     1       4.811   8.311  -0.944  1.00  0.00     0.159 HD
ATOM     16  H   UNL     1       4.805   8.070  -2.632  1.00  0.00     0.159 HD
ENDBRANCH  10  14
ENDBRANCH   8   9
ENDBRANCH   6   8
ENDBRANCH   4   6
ENDBRANCH   3   4
ENDBRANCH   2   3
ENDBRANCH   1   2
BRANCH   1  17
ATOM     17  O   UNL     1       4.455   1.279   3.985  1.00  0.00    -0.374 OA
BRANCH  17  18
ATOM     18  C   UNL     1       4.319   0.058   3.258  1.00  0.00     0.202 C 
BRANCH  18  19
ATOM     19  C   UNL     1       3.262  -0.907   3.804  1.00  0.00     0.261 C 
BRANCH  19  20
ATOM     20  O   UNL     1       1.928  -0.411   3.584  1.00  0.00    -0.460 OA
BRANCH  20  21
ATOM     21  C   UNL     1       1.281   0.002   4.696  1.00  0.00     0.338 C 
ATOM     22  O   UNL     1       1.669  -0.078   5.855  1.00  0.00    -0.246 OA
BRANCH  21  23
ATOM     23  C   UNL     1       0.054   0.731   4.330  1.00  0.00     0.060 A 
ATOM     24  C   UNL     1      -0.177   1.962   4.957  1.00  0.00     0.016 A 
ATOM     25  C   UNL     1      -0.894   0.191   3.458  1.00  0.00     0.016 A 
ATOM     26  C   UNL     1      -1.385   2.628   4.766  1.00  0.00     0.010 A 
ATOM     27  C   UNL     1      -2.110   0.857   3.271  1.00  0.00     0.010 A 
ATOM     28  C   UNL     1      -2.375   2.056   3.957  1.00  0.00    -0.014 A 
BRANCH  28  29
ATOM     29  C   UNL     1      -3.741   2.630   3.964  1.00  0.00     0.031 A 
ATOM     30  C   UNL     1      -4.788   2.005   4.842  1.00  0.00     0.074 A 
ATOM     31  C   UNL     1      -4.039   3.707   3.218  1.00  0.00     0.049 A 
ATOM     32  N   UNL     1      -6.048   2.328   4.995  1.00  0.00    -0.248 NA
ATOM     33  C   UNL     1      -4.357   0.857   5.653  1.00  0.00     0.031 C 
ATOM     34  C   UNL     1      -3.104   4.411   2.346  1.00  0.00     0.029 A 
ATOM     35  N   UNL     1      -5.223   4.385   3.069  1.00  0.00    -0.354 N 
ATOM     36  C   UNL     1      -6.559   1.420   5.913  1.00  0.00     0.074 A 
ATOM     37  C   UNL     1      -5.484   0.514   6.257  1.00  0.00     0.031 C 
ATOM     38  C   UNL     1      -3.756   5.414   1.733  1.00  0.00     0.029 A 
ATOM     39  C   UNL     1      -5.156   5.404   2.154  1.00  0.00     0.049 A 
ATOM     40  H   UNL     1      -6.040   4.161   3.570  1.00  0.00     0.167 HD
ATOM     41  C   UNL     1      -7.809   1.355   6.429  1.00  0.00     0.037 A 
ATOM     42  C   UNL     1      -6.123   6.221   1.694  1.00  0.00     0.037 A 
ATOM     43  C   UNL     1      -8.877   2.256   6.084  1.00  0.00     0.049 A 
ATOM     44  C   UNL     1      -7.518   6.104   2.245  1.00  0.00     0.074 A 
ATOM     45  C   UNL     1     -10.168   2.298   6.579  1.00  0.00     0.029 A 
ATOM     46  N   UNL     1      -8.777   3.269   5.141  1.00  0.00    -0.354 N 
ATOM     47  N   UNL     1      -7.985   5.273   3.145  1.00  0.00    -0.248 NA
ATOM     48  C   UNL     1      -8.520   7.044   1.722  1.00  0.00     0.031 C 
ATOM     49  C   UNL     1     -10.864   3.304   5.899  1.00  0.00     0.029 A 
ATOM     50  C   UNL     1      -9.993   3.922   5.016  1.00  0.00     0.049 A 
ATOM     51  H   UNL     1      -7.962   3.491   4.635  1.00  0.00     0.167 HD
ATOM     52  C   UNL     1      -9.325   5.598   3.310  1.00  0.00     0.074 A 
ATOM     53  C   UNL     1      -9.594   6.713   2.425  1.00  0.00     0.031 C 
ATOM     54  C   UNL     1     -10.248   5.025   4.123  1.00  0.00     0.037 A 
BRANCH  41  55
ATOM     55  C   UNL     1      -8.091   0.245   7.400  1.00  0.00     0.064 A 
ATOM     56  C   UNL     1      -7.542   0.236   8.692  1.00  0.00     0.173 A 
ATOM     57  C   UNL     1      -8.918  -0.826   7.031  1.00  0.00     0.173 A 
ATOM     58  F   UNL     1      -6.733   1.229   9.088  1.00  0.00    -0.203 F 
ATOM     59  C   UNL     1      -7.780  -0.824   9.563  1.00  0.00     0.198 A 
ATOM     60  C   UNL     1      -9.178  -1.869   7.916  1.00  0.00     0.198 A 
ATOM     61  F   UNL     1      -9.472  -0.864   5.810  1.00  0.00    -0.203 F 
ATOM     62  F   UNL     1      -7.197  -0.841  10.770  1.00  0.00    -0.200 F 
ATOM     63  C   UNL     1      -8.600  -1.873   9.176  1.00  0.00     0.200 A 
ATOM     64  F   UNL     1      -9.979  -2.878   7.544  1.00  0.00    -0.200 F 
ATOM     65  F   UNL     1      -8.825  -2.895  10.014  1.00  0.00    -0.200 F 
ENDBRANCH  41  55
BRANCH  42  66
ATOM     66  C   UNL     1      -5.792   7.215   0.642  1.00  0.00     0.064 A 
ATOM     67  C   UNL     1      -5.721   8.583   0.932  1.00  0.00     0.173 A 
ATOM     68  C   UNL     1      -5.508   6.808  -0.670  1.00  0.00     0.173 A 
ATOM     69  F   UNL     1      -6.008   9.022   2.166  1.00  0.00    -0.203 F 
ATOM     70  C   UNL     1      -5.380   9.509  -0.052  1.00  0.00     0.198 A 
ATOM     71  C   UNL     1      -5.144   7.731  -1.647  1.00  0.00     0.198 A 
ATOM     72  F   UNL     1      -5.564   5.508  -0.996  1.00  0.00    -0.203 F 
ATOM     73  F   UNL     1      -5.344  10.815   0.243  1.00  0.00    -0.200 F 
ATOM     74  C   UNL     1      -5.083   9.081  -1.338  1.00  0.00     0.200 A 
ATOM     75  F   UNL     1      -4.846   7.312  -2.885  1.00  0.00    -0.200 F 
ATOM     76  F   UNL     1      -4.740   9.970  -2.280  1.00  0.00    -0.200 F 
ENDBRANCH  42  66
BRANCH  54  77
ATOM     77  C   UNL     1     -11.634   5.602   4.106  1.00  0.00     0.064 A 
ATOM     78  C   UNL     1     -12.502   5.395   3.024  1.00  0.00     0.173 A 
ATOM     79  C   UNL     1     -12.114   6.332   5.204  1.00  0.00     0.173 A 
ATOM     80  F   UNL     1     -12.085   4.716   1.944  1.00  0.00    -0.203 F 
ATOM     81  C   UNL     1     -13.794   5.914   3.034  1.00  0.00     0.198 A 
ATOM     82  C   UNL     1     -13.415   6.826   5.222  1.00  0.00     0.198 A 
ATOM     83  F   UNL     1     -11.326   6.553   6.266  1.00  0.00    -0.203 F 
ATOM     84  F   UNL     1     -14.593   5.739   1.972  1.00  0.00    -0.200 F 
ATOM     85  C   UNL     1     -14.252   6.622   4.135  1.00  0.00     0.200 A 
ATOM     86  F   UNL     1     -13.860   7.500   6.292  1.00  0.00    -0.200 F 
ATOM     87  F   UNL     1     -15.498   7.115   4.146  1.00  0.00    -0.200 F 
ENDBRANCH  54  77
ENDBRANCH  28  29
ENDBRANCH  21  23
ENDBRANCH  20  21
ENDBRANCH  19  20
ENDBRANCH  18  19
ENDBRANCH  17  18
ENDBRANCH   1  17
TORSDOF 17
