REMARK SMILES O=C(Cn1nc(-c2ccc(Br)cc2)ccc1=O)N[C@H](C(=O)OCCOCCOC(=O)c1ccc(-c2c3nc(c(-c4c(F)c(F)c(F)c(F)c4F)c4ccc([nH]4)c(-c4c(F)c(F)c(F)c(F)c4F)c4nc(c(-c5c(F)c(F)c(F)c(F)c5F)c5ccc2[nH]5)C=C4)C=C3)cc1)c1ccccc1
REMARK SMILES IDX 24 1 23 2 22 3 20 4 21 5 19 6 18 7 1 8 2 9 3 11 4 12 5 13
REMARK SMILES IDX 16 14 6 15 15 16 17 17 14 18 7 19 8 20 13 21 9 22 12 23
REMARK SMILES IDX 10 24 11 25 94 26 95 27 99 28 96 29 98 30 97 31 25 32 26 33
REMARK SMILES IDX 27 34 28 35 29 36 30 37 31 38 32 39 93 40 33 41 92 42 34 43
REMARK SMILES IDX 35 44 36 45 86 46 37 47 91 48 85 49 87 50 38 51 90 52 84 53
REMARK SMILES IDX 83 54 39 56 71 57 51 58 70 59 52 60 55 61 69 62 88 63 53 64
REMARK SMILES IDX 54 65 68 67 89 68 56 69 40 70 41 71 49 72 42 73 43 74 47 75
REMARK SMILES IDX 50 76 44 77 45 78 48 79 46 80 72 81 73 82 81 83 74 84 75 85
REMARK SMILES IDX 79 86 82 87 76 88 77 89 80 90 78 91 57 92 58 93 66 94 59 95
REMARK SMILES IDX 60 96 64 97 67 98 61 99 62 100 65 101 63 102
REMARK H PARENT 18 10 87 55 55 66
REMARK Flexibility Score: inf
ROOT
ATOM      1  C   UNL     1       3.740  -1.412   1.105  1.00  0.00     0.202 C 
ENDROOT
BRANCH   1   2
ATOM      2  C   UNL     1       4.617  -0.159   0.988  1.00  0.00     0.261 C 
BRANCH   2   3
ATOM      3  O   UNL     1       3.926   0.957   0.422  1.00  0.00    -0.461 OA
BRANCH   3   4
ATOM      4  C   UNL     1       4.134   1.090  -0.929  1.00  0.00     0.333 C 
ATOM      5  O   UNL     1       4.819   0.317  -1.590  1.00  0.00    -0.249 OA
BRANCH   4   6
ATOM      6  C   UNL     1       3.178   2.167  -1.508  1.00  0.00     0.223 C 
BRANCH   6   7
ATOM      7  N   UNL     1       3.233   3.444  -0.803  1.00  0.00    -0.337 N 
ATOM      8  O   UNL     1       5.513   3.467  -0.581  1.00  0.00    -0.273 OA
ATOM      9  C   UNL     1       4.426   3.999  -0.381  1.00  0.00     0.242 C 
ATOM     10  H   UNL     1       2.393   3.925  -0.623  1.00  0.00     0.164 HD
BRANCH   9  11
ATOM     11  C   UNL     1       4.284   5.356   0.305  1.00  0.00     0.248 C 
BRANCH  11  12
ATOM     12  N   UNL     1       4.309   6.344  -0.757  1.00  0.00    -0.220 N 
ATOM     13  N   UNL     1       3.152   6.452  -1.495  1.00  0.00    -0.169 NA
ATOM     14  C   UNL     1       5.506   6.964  -1.082  1.00  0.00     0.267 A 
ATOM     15  C   UNL     1       3.213   7.115  -2.606  1.00  0.00     0.091 A 
ATOM     16  C   UNL     1       5.508   7.728  -2.348  1.00  0.00     0.075 A 
ATOM     17  O   UNL     1       6.535   6.910  -0.415  1.00  0.00    -0.268 OA
ATOM     18  C   UNL     1       4.417   7.800  -3.112  1.00  0.00     0.036 A 
BRANCH  15  19
ATOM     19  C   UNL     1       2.002   7.140  -3.457  1.00  0.00     0.002 A 
ATOM     20  C   UNL     1       0.764   7.397  -2.859  1.00  0.00     0.011 A 
ATOM     21  C   UNL     1       2.071   6.748  -4.798  1.00  0.00     0.011 A 
ATOM     22  C   UNL     1      -0.408   7.262  -3.604  1.00  0.00     0.016 A 
ATOM     23  C   UNL     1       0.896   6.588  -5.534  1.00  0.00     0.016 A 
ATOM     24  C   UNL     1      -0.337   6.845  -4.934  1.00  0.00     0.018 A 
ATOM     25  Br  UNL     1      -1.929   6.596  -5.922  1.00  0.00    -0.051 Br
ENDBRANCH  15  19
ENDBRANCH  11  12
ENDBRANCH   9  11
ENDBRANCH   6   7
BRANCH   6  26
ATOM     26  C   UNL     1       3.140   2.189  -3.031  1.00  0.00    -0.014 A 
ATOM     27  C   UNL     1       3.271   3.351  -3.792  1.00  0.00     0.006 A 
ATOM     28  C   UNL     1       2.934   0.972  -3.721  1.00  0.00     0.006 A 
ATOM     29  C   UNL     1       3.240   3.290  -5.191  1.00  0.00     0.000 A 
ATOM     30  C   UNL     1       2.921   0.909  -5.112  1.00  0.00     0.000 A 
ATOM     31  C   UNL     1       3.076   2.073  -5.850  1.00  0.00     0.000 A 
ENDBRANCH   6  26
ENDBRANCH   4   6
ENDBRANCH   3   4
ENDBRANCH   2   3
ENDBRANCH   1   2
BRANCH   1  32
ATOM     32  O   UNL     1       3.115  -1.937  -0.061  1.00  0.00    -0.374 OA
BRANCH  32  33
ATOM     33  C   UNL     1       1.943  -1.297  -0.561  1.00  0.00     0.202 C 
BRANCH  33  34
ATOM     34  C   UNL     1       0.629  -1.455   0.210  1.00  0.00     0.261 C 
BRANCH  34  35
ATOM     35  O   UNL     1       0.673  -0.822   1.499  1.00  0.00    -0.460 OA
BRANCH  35  36
ATOM     36  C   UNL     1       0.740  -1.675   2.548  1.00  0.00     0.338 C 
ATOM     37  O   UNL     1       0.710  -2.896   2.519  1.00  0.00    -0.246 OA
BRANCH  36  38
ATOM     38  C   UNL     1       1.075  -0.911   3.761  1.00  0.00     0.060 A 
ATOM     39  C   UNL     1       0.282   0.156   4.182  1.00  0.00     0.016 A 
ATOM     40  C   UNL     1       2.198  -1.305   4.502  1.00  0.00     0.016 A 
ATOM     41  C   UNL     1       0.600   0.810   5.373  1.00  0.00     0.010 A 
ATOM     42  C   UNL     1       2.517  -0.649   5.687  1.00  0.00     0.010 A 
ATOM     43  C   UNL     1       1.704   0.397   6.144  1.00  0.00    -0.014 A 
BRANCH  43  44
ATOM     44  C   UNL     1       1.913   0.962   7.497  1.00  0.00     0.031 A 
ATOM     45  C   UNL     1       3.019   1.929   7.781  1.00  0.00     0.074 A 
ATOM     46  C   UNL     1       1.083   0.566   8.480  1.00  0.00     0.049 A 
ATOM     47  N   UNL     1       3.282   2.568   8.892  1.00  0.00    -0.248 NA
ATOM     48  C   UNL     1       3.954   2.212   6.684  1.00  0.00     0.031 C 
ATOM     49  C   UNL     1       0.003  -0.410   8.320  1.00  0.00     0.029 A 
ATOM     50  N   UNL     1       1.007   0.936   9.798  1.00  0.00    -0.354 N 
ATOM     51  C   UNL     1       4.397   3.349   8.625  1.00  0.00     0.074 A 
ATOM     52  C   UNL     1       4.795   3.061   7.262  1.00  0.00     0.031 C 
ATOM     53  C   UNL     1      -0.653  -0.531   9.483  1.00  0.00     0.029 A 
ATOM     54  C   UNL     1      -0.021   0.331  10.478  1.00  0.00     0.049 A 
ATOM     55  H   UNL     1       1.629   1.574  10.216  1.00  0.00     0.167 HD
ATOM     56  C   UNL     1       5.012   4.239   9.440  1.00  0.00     0.037 A 
ATOM     57  C   UNL     1      -0.414   0.460  11.758  1.00  0.00     0.037 A 
ATOM     58  C   UNL     1       4.615   4.500  10.802  1.00  0.00     0.049 A 
ATOM     59  C   UNL     1       0.318   1.420  12.654  1.00  0.00     0.074 A 
ATOM     60  C   UNL     1       5.154   5.410  11.695  1.00  0.00     0.029 A 
ATOM     61  N   UNL     1       3.594   3.841  11.472  1.00  0.00    -0.354 N 
ATOM     62  N   UNL     1       1.316   2.219  12.367  1.00  0.00    -0.248 NA
ATOM     63  C   UNL     1      -0.134   1.500  14.050  1.00  0.00     0.031 C 
ATOM     64  C   UNL     1       4.500   5.261  12.921  1.00  0.00     0.029 A 
ATOM     65  C   UNL     1       3.510   4.302  12.778  1.00  0.00     0.049 A 
ATOM     66  H   UNL     1       3.015   3.149  11.079  1.00  0.00     0.167 HD
ATOM     67  C   UNL     1       1.600   2.911  13.536  1.00  0.00     0.074 A 
ATOM     68  C   UNL     1       0.653   2.453  14.531  1.00  0.00     0.031 C 
ATOM     69  C   UNL     1       2.563   3.838  13.762  1.00  0.00     0.037 A 
BRANCH  56  70
ATOM     70  C   UNL     1       6.173   5.014   8.886  1.00  0.00     0.064 A 
ATOM     71  C   UNL     1       5.986   6.010   7.916  1.00  0.00     0.173 A 
ATOM     72  C   UNL     1       7.468   4.827   9.392  1.00  0.00     0.173 A 
ATOM     73  F   UNL     1       4.768   6.227   7.396  1.00  0.00    -0.203 F 
ATOM     74  C   UNL     1       7.055   6.779   7.463  1.00  0.00     0.198 A 
ATOM     75  C   UNL     1       8.529   5.617   8.958  1.00  0.00     0.198 A 
ATOM     76  F   UNL     1       7.700   3.896  10.330  1.00  0.00    -0.203 F 
ATOM     77  F   UNL     1       6.856   7.707   6.516  1.00  0.00    -0.200 F 
ATOM     78  C   UNL     1       8.323   6.590   7.992  1.00  0.00     0.200 A 
ATOM     79  F   UNL     1       9.749   5.447   9.485  1.00  0.00    -0.200 F 
ATOM     80  F   UNL     1       9.345   7.348   7.572  1.00  0.00    -0.200 F 
ENDBRANCH  56  70
BRANCH  57  81
ATOM     81  C   UNL     1      -1.586  -0.312  12.246  1.00  0.00     0.064 A 
ATOM     82  C   UNL     1      -2.787   0.333  12.570  1.00  0.00     0.173 A 
ATOM     83  C   UNL     1      -1.542  -1.709  12.366  1.00  0.00     0.173 A 
ATOM     84  F   UNL     1      -2.874   1.668  12.486  1.00  0.00    -0.203 F 
ATOM     85  C   UNL     1      -3.897  -0.389  13.005  1.00  0.00     0.198 A 
ATOM     86  C   UNL     1      -2.661  -2.433  12.772  1.00  0.00     0.198 A 
ATOM     87  F   UNL     1      -0.417  -2.374  12.062  1.00  0.00    -0.203 F 
ATOM     88  F   UNL     1      -5.022   0.255  13.341  1.00  0.00    -0.200 F 
ATOM     89  C   UNL     1      -3.835  -1.772  13.096  1.00  0.00     0.200 A 
ATOM     90  F   UNL     1      -2.603  -3.770  12.840  1.00  0.00    -0.200 F 
ATOM     91  F   UNL     1      -4.908  -2.466  13.500  1.00  0.00    -0.200 F 
ENDBRANCH  57  81
BRANCH  69  92
ATOM     92  C   UNL     1       2.643   4.436  15.138  1.00  0.00     0.064 A 
ATOM     93  C   UNL     1       3.103   3.692  16.235  1.00  0.00     0.173 A 
ATOM     94  C   UNL     1       2.330   5.788  15.347  1.00  0.00     0.173 A 
ATOM     95  F   UNL     1       3.400   2.392  16.092  1.00  0.00    -0.203 F 
ATOM     96  C   UNL     1       3.233   4.276  17.492  1.00  0.00     0.198 A 
ATOM     97  C   UNL     1       2.494   6.377  16.598  1.00  0.00     0.198 A 
ATOM     98  F   UNL     1       1.893   6.547  14.331  1.00  0.00    -0.203 F 
ATOM     99  F   UNL     1       3.638   3.536  18.533  1.00  0.00    -0.200 F 
ATOM    100  C   UNL     1       2.940   5.620  17.670  1.00  0.00     0.200 A 
ATOM    101  F   UNL     1       2.228   7.680  16.764  1.00  0.00    -0.200 F 
ATOM    102  F   UNL     1       3.087   6.185  18.877  1.00  0.00    -0.200 F 
ENDBRANCH  69  92
ENDBRANCH  43  44
ENDBRANCH  36  38
ENDBRANCH  35  36
ENDBRANCH  34  35
ENDBRANCH  33  34
ENDBRANCH  32  33
ENDBRANCH   1  32
TORSDOF 19
