REMARK SMILES O=C(OCCOCCOC(=O)C1(n2ccnc2)CCN(C(=O)C2(c3ccccc3)CC2)CC1)c1ccc(-c2c3nc(c(-c4c(F)c(F)c(F)c(F)c4F)c4ccc([nH]4)c(-c4c(F)c(F)c(F)c(F)c4F)c4nc(c(-c5c(F)c(F)c(F)c(F)c5F)c5ccc2[nH]5)C=C4)C=C3)cc1
REMARK SMILES IDX 6 1 5 2 4 3 3 4 2 5 1 6 34 7 35 8 96 9 36 10 95 11 37 12
REMARK SMILES IDX 38 13 39 14 89 15 40 16 94 17 88 18 90 19 41 20 93 21 87 22
REMARK SMILES IDX 86 23 42 25 74 26 54 27 73 28 55 29 58 30 72 31 91 32 56 33
REMARK SMILES IDX 57 34 71 36 92 37 59 38 43 39 44 40 52 41 45 42 46 43 50 44
REMARK SMILES IDX 53 45 47 46 48 47 51 48 49 49 75 50 76 51 84 52 77 53 78 54
REMARK SMILES IDX 82 55 85 56 79 57 80 58 83 59 81 60 60 61 61 62 69 63 62 64
REMARK SMILES IDX 63 65 67 66 70 67 64 68 65 69 68 70 66 71 7 72 8 73 9 74
REMARK SMILES IDX 10 75 11 76 12 77 18 78 33 79 19 80 32 81 20 82 21 83 22 84
REMARK SMILES IDX 13 85 14 86 17 87 15 88 16 89 23 90 30 91 31 92 24 93 25 94
REMARK SMILES IDX 29 95 26 96 28 97 27 98
REMARK H PARENT 90 24 58 35
REMARK Flexibility Score: inf
ROOT
ATOM      1  O   UNL     1       4.090  -0.821   1.288  1.00  0.00    -0.374 OA
ENDROOT
BRANCH   1   2
ATOM      2  C   UNL     1       4.773   0.004   0.351  1.00  0.00     0.202 C 
BRANCH   2   3
ATOM      3  C   UNL     1       4.070   0.471  -0.935  1.00  0.00     0.261 C 
BRANCH   3   4
ATOM      4  O   UNL     1       2.716   0.870  -0.735  1.00  0.00    -0.460 OA
BRANCH   4   5
ATOM      5  C   UNL     1       1.615   0.090  -0.818  1.00  0.00     0.338 C 
ATOM      6  O   UNL     1       0.520   0.611  -0.609  1.00  0.00    -0.246 OA
BRANCH   5   7
ATOM      7  C   UNL     1       1.655  -1.384  -1.090  1.00  0.00     0.060 A 
ATOM      8  C   UNL     1       2.796  -2.171  -1.260  1.00  0.00     0.016 A 
ATOM      9  C   UNL     1       0.406  -2.019  -1.183  1.00  0.00     0.016 A 
ATOM     10  C   UNL     1       2.711  -3.448  -1.774  1.00  0.00     0.010 A 
ATOM     11  C   UNL     1       0.310  -3.338  -1.603  1.00  0.00     0.010 A 
ATOM     12  C   UNL     1       1.463  -4.002  -2.011  1.00  0.00    -0.014 A 
BRANCH  12  13
ATOM     13  C   UNL     1       1.450  -5.267  -2.728  1.00  0.00     0.031 A 
ATOM     14  C   UNL     1       2.252  -6.381  -2.142  1.00  0.00     0.074 A 
ATOM     15  C   UNL     1       0.738  -5.410  -3.861  1.00  0.00     0.049 A 
ATOM     16  N   UNL     1       3.161  -7.113  -2.707  1.00  0.00    -0.248 NA
ATOM     17  C   UNL     1       2.062  -6.660  -0.710  1.00  0.00     0.031 C 
ATOM     18  C   UNL     1      -0.254  -4.493  -4.432  1.00  0.00     0.029 A 
ATOM     19  N   UNL     1       0.676  -6.488  -4.686  1.00  0.00    -0.354 N 
ATOM     20  C   UNL     1       3.557  -8.043  -1.747  1.00  0.00     0.074 A 
ATOM     21  C   UNL     1       2.920  -7.660  -0.513  1.00  0.00     0.031 C 
ATOM     22  C   UNL     1      -0.996  -5.161  -5.340  1.00  0.00     0.029 A 
ATOM     23  C   UNL     1      -0.435  -6.489  -5.507  1.00  0.00     0.049 A 
ATOM     24  H   UNL     1       1.357  -7.199  -4.697  1.00  0.00     0.167 HD
ATOM     25  C   UNL     1       4.251  -9.171  -2.060  1.00  0.00     0.037 A 
ATOM     26  C   UNL     1      -0.923  -7.550  -6.186  1.00  0.00     0.037 A 
ATOM     27  C   UNL     1       4.961  -9.046  -3.301  1.00  0.00     0.049 A 
ATOM     28  C   UNL     1       0.168  -8.547  -6.318  1.00  0.00     0.074 A 
ATOM     29  C   UNL     1       5.988  -8.241  -3.753  1.00  0.00     0.029 A 
ATOM     30  N   UNL     1       4.455  -9.655  -4.420  1.00  0.00    -0.354 N 
ATOM     31  N   UNL     1       1.233  -8.375  -7.051  1.00  0.00    -0.248 NA
ATOM     32  C   UNL     1       0.272  -9.583  -5.301  1.00  0.00     0.031 C 
ATOM     33  C   UNL     1       5.720  -8.038  -5.138  1.00  0.00     0.029 A 
ATOM     34  C   UNL     1       4.557  -8.745  -5.440  1.00  0.00     0.049 A 
ATOM     35  H   UNL     1       4.090 -10.568  -4.480  1.00  0.00     0.167 HD
ATOM     36  C   UNL     1       2.256  -8.985  -6.340  1.00  0.00     0.074 A 
ATOM     37  C   UNL     1       1.589  -9.797  -5.330  1.00  0.00     0.031 C 
ATOM     38  C   UNL     1       3.549  -8.563  -6.456  1.00  0.00     0.037 A 
BRANCH  25  39
ATOM     39  C   UNL     1       4.043 -10.498  -1.376  1.00  0.00     0.064 A 
ATOM     40  C   UNL     1       4.927 -11.565  -1.627  1.00  0.00     0.173 A 
ATOM     41  C   UNL     1       2.842 -10.842  -0.718  1.00  0.00     0.173 A 
ATOM     42  F   UNL     1       6.085 -11.357  -2.271  1.00  0.00    -0.203 F 
ATOM     43  C   UNL     1       4.600 -12.885  -1.303  1.00  0.00     0.198 A 
ATOM     44  C   UNL     1       2.543 -12.152  -0.349  1.00  0.00     0.198 A 
ATOM     45  F   UNL     1       1.868  -9.947  -0.508  1.00  0.00    -0.203 F 
ATOM     46  F   UNL     1       5.418 -13.882  -1.668  1.00  0.00    -0.200 F 
ATOM     47  C   UNL     1       3.406 -13.178  -0.669  1.00  0.00     0.200 A 
ATOM     48  F   UNL     1       1.372 -12.417   0.248  1.00  0.00    -0.200 F 
ATOM     49  F   UNL     1       3.064 -14.447  -0.412  1.00  0.00    -0.200 F 
ENDBRANCH  25  39
BRANCH  26  50
ATOM     50  C   UNL     1      -2.352  -7.865  -6.393  1.00  0.00     0.064 A 
ATOM     51  C   UNL     1      -2.760  -8.752  -7.397  1.00  0.00     0.173 A 
ATOM     52  C   UNL     1      -3.334  -7.479  -5.456  1.00  0.00     0.173 A 
ATOM     53  F   UNL     1      -1.872  -9.210  -8.291  1.00  0.00    -0.203 F 
ATOM     54  C   UNL     1      -4.074  -9.227  -7.460  1.00  0.00     0.198 A 
ATOM     55  C   UNL     1      -4.646  -7.939  -5.529  1.00  0.00     0.198 A 
ATOM     56  F   UNL     1      -3.019  -6.716  -4.398  1.00  0.00    -0.203 F 
ATOM     57  F   UNL     1      -4.417 -10.116  -8.402  1.00  0.00    -0.200 F 
ATOM     58  C   UNL     1      -5.014  -8.822  -6.525  1.00  0.00     0.200 A 
ATOM     59  F   UNL     1      -5.535  -7.567  -4.596  1.00  0.00    -0.200 F 
ATOM     60  F   UNL     1      -6.261  -9.313  -6.559  1.00  0.00    -0.200 F 
ENDBRANCH  26  50
BRANCH  38  61
ATOM     61  C   UNL     1       3.876  -7.596  -7.555  1.00  0.00     0.064 A 
ATOM     62  C   UNL     1       3.380  -6.282  -7.594  1.00  0.00     0.173 A 
ATOM     63  C   UNL     1       4.853  -7.947  -8.495  1.00  0.00     0.173 A 
ATOM     64  F   UNL     1       2.527  -5.841  -6.660  1.00  0.00    -0.203 F 
ATOM     65  C   UNL     1       3.813  -5.375  -8.558  1.00  0.00     0.198 A 
ATOM     66  C   UNL     1       5.309  -7.029  -9.437  1.00  0.00     0.198 A 
ATOM     67  F   UNL     1       5.411  -9.168  -8.461  1.00  0.00    -0.203 F 
ATOM     68  F   UNL     1       3.323  -4.126  -8.575  1.00  0.00    -0.200 F 
ATOM     69  C   UNL     1       4.783  -5.747  -9.474  1.00  0.00     0.200 A 
ATOM     70  F   UNL     1       6.287  -7.374 -10.286  1.00  0.00    -0.200 F 
ATOM     71  F   UNL     1       5.236  -4.860 -10.371  1.00  0.00    -0.200 F 
ENDBRANCH  38  61
ENDBRANCH  12  13
ENDBRANCH   5   7
ENDBRANCH   4   5
ENDBRANCH   3   4
ENDBRANCH   2   3
ENDBRANCH   1   2
BRANCH   1  72
ATOM     72  C   UNL     1       2.947  -0.358   2.004  1.00  0.00     0.202 C 
BRANCH  72  73
ATOM     73  C   UNL     1       2.931   0.982   2.745  1.00  0.00     0.261 C 
BRANCH  73  74
ATOM     74  O   UNL     1       3.358   2.118   1.980  1.00  0.00    -0.461 OA
BRANCH  74  75
ATOM     75  C   UNL     1       4.605   2.563   2.296  1.00  0.00     0.332 C 
ATOM     76  O   UNL     1       5.369   1.956   3.043  1.00  0.00    -0.249 OA
BRANCH  75  77
ATOM     77  C   UNL     1       4.979   3.881   1.605  1.00  0.00     0.146 C 
ATOM     78  C   UNL     1       6.122   4.504   2.463  1.00  0.00     0.062 C 
ATOM     79  C   UNL     1       3.765   4.851   1.577  1.00  0.00     0.062 C 
ATOM     80  C   UNL     1       5.616   4.916   3.838  1.00  0.00     0.122 C 
ATOM     81  C   UNL     1       3.353   5.308   2.965  1.00  0.00     0.122 C 
ATOM     82  N   UNL     1       4.512   5.827   3.655  1.00  0.00    -0.342 N 
ATOM     83  C   UNL     1       4.330   6.814   4.597  1.00  0.00     0.233 C 
ATOM     84  O   UNL     1       4.067   6.591   5.770  1.00  0.00    -0.274 OA
BRANCH  77  85
ATOM     85  N   UNL     1       5.493   3.620   0.244  1.00  0.00    -0.320 N 
ATOM     86  C   UNL     1       6.656   2.954  -0.071  1.00  0.00     0.108 A 
ATOM     87  C   UNL     1       4.956   4.042  -0.945  1.00  0.00     0.200 A 
ATOM     88  C   UNL     1       6.765   3.023  -1.439  1.00  0.00     0.130 A 
ATOM     89  N   UNL     1       5.699   3.692  -1.970  1.00  0.00    -0.245 NA
ENDBRANCH  77  85
BRANCH  83  90
ATOM     90  C   UNL     1       4.609   8.208   4.089  1.00  0.00     0.074 C 
ATOM     91  C   UNL     1       4.227   8.633   2.670  1.00  0.00     0.023 C 
ATOM     92  C   UNL     1       3.385   9.074   3.823  1.00  0.00     0.023 C 
BRANCH  90  93
ATOM     93  C   UNL     1       5.868   8.828   4.688  1.00  0.00    -0.032 A 
ATOM     94  C   UNL     1       7.087   8.866   3.986  1.00  0.00     0.005 A 
ATOM     95  C   UNL     1       5.878   9.261   6.025  1.00  0.00     0.005 A 
ATOM     96  C   UNL     1       8.268   9.285   4.605  1.00  0.00     0.000 A 
ATOM     97  C   UNL     1       7.056   9.669   6.650  1.00  0.00     0.000 A 
ATOM     98  C   UNL     1       8.253   9.672   5.942  1.00  0.00     0.000 A 
ENDBRANCH  90  93
ENDBRANCH  83  90
ENDBRANCH  75  77
ENDBRANCH  74  75
ENDBRANCH  73  74
ENDBRANCH  72  73
ENDBRANCH   1  72
TORSDOF 17
