REMARK SMILES CCC(CC)(C(=O)OCCOCCOC(=O)c1ccc(-c2c3nc(c(-c4c(F)c(F)c(F)c(F)c4F)c4ccc([nH]4)c(-c4c(F)c(F)c(F)c(F)c4F)c4nc(c(-c5c(F)c(F)c(F)c(F)c5F)c5ccc2[nH]5)C=C4)C=C3)cc1)n1nnnc1C[C@@H](C)C(C)(C)C
REMARK SMILES IDX 10 1 9 2 8 3 6 4 7 5 3 6 2 7 1 8 4 9 5 10 80 11 81 12 84 13
REMARK SMILES IDX 82 14 83 15 85 16 86 17 87 18 88 19 89 20 90 21 91 22 11 23
REMARK SMILES IDX 12 24 13 25 14 26 15 27 16 28 17 29 18 30 79 31 19 32 78 33
REMARK SMILES IDX 20 34 21 35 22 36 72 37 23 38 77 39 71 40 73 41 24 42 76 43
REMARK SMILES IDX 70 44 69 45 25 47 57 48 37 49 56 50 38 51 41 52 55 53 74 54
REMARK SMILES IDX 39 55 40 56 54 58 75 59 42 60 26 61 27 62 35 63 28 64 29 65
REMARK SMILES IDX 33 66 36 67 30 68 31 69 34 70 32 71 58 72 59 73 67 74 60 75
REMARK SMILES IDX 61 76 65 77 68 78 62 79 63 80 66 81 64 82 43 83 44 84 52 85
REMARK SMILES IDX 45 86 46 87 50 88 53 89 47 90 48 91 51 92 49 93
REMARK H PARENT 73 46 41 57
REMARK Flexibility Score: inf
ROOT
ATOM      1  C   UNL     1      -0.537  -4.346  -4.356  1.00  0.00     0.202 C 
ENDROOT
BRANCH   1   2
ATOM      2  C   UNL     1      -1.173  -4.226  -2.962  1.00  0.00     0.261 C 
BRANCH   2   3
ATOM      3  O   UNL     1      -0.658  -3.152  -2.162  1.00  0.00    -0.461 OA
BRANCH   3   4
ATOM      4  C   UNL     1       0.395  -3.529  -1.390  1.00  0.00     0.334 C 
ATOM      5  O   UNL     1       0.776  -4.689  -1.363  1.00  0.00    -0.249 OA
BRANCH   4   6
ATOM      6  C   UNL     1       1.002  -2.448  -0.500  1.00  0.00     0.163 C 
BRANCH   6   7
ATOM      7  C   UNL     1       0.431  -1.030  -0.907  1.00  0.00     0.039 C 
ATOM      8  C   UNL     1       0.649   0.123   0.077  1.00  0.00     0.007 C 
ENDBRANCH   6   7
BRANCH   6   9
ATOM      9  C   UNL     1       0.591  -2.811   0.956  1.00  0.00     0.039 C 
ATOM     10  C   UNL     1      -0.919  -2.817   1.206  1.00  0.00     0.007 C 
ENDBRANCH   6   9
BRANCH   6  11
ATOM     11  N   UNL     1       2.482  -2.502  -0.628  1.00  0.00    -0.212 N 
ATOM     12  N   UNL     1       3.138  -1.333  -0.834  1.00  0.00    -0.044 NA
ATOM     13  C   UNL     1       3.442  -3.507  -0.527  1.00  0.00     0.152 A 
ATOM     14  N   UNL     1       4.425  -1.595  -0.738  1.00  0.00    -0.024 NA
ATOM     15  N   UNL     1       4.627  -2.919  -0.528  1.00  0.00    -0.114 NA
BRANCH  13  16
ATOM     16  C   UNL     1       3.303  -5.007  -0.435  1.00  0.00     0.083 C 
BRANCH  16  17
ATOM     17  C   UNL     1       3.579  -5.724  -1.805  1.00  0.00    -0.001 C 
ATOM     18  C   UNL     1       5.089  -5.628  -2.127  1.00  0.00     0.008 C 
BRANCH  17  19
ATOM     19  C   UNL     1       3.061  -7.223  -1.898  1.00  0.00    -0.035 C 
ATOM     20  C   UNL     1       1.521  -7.306  -1.912  1.00  0.00     0.011 C 
ATOM     21  C   UNL     1       3.519  -7.888  -3.219  1.00  0.00     0.011 C 
ATOM     22  C   UNL     1       3.558  -8.077  -0.720  1.00  0.00     0.011 C 
ENDBRANCH  17  19
ENDBRANCH  16  17
ENDBRANCH  13  16
ENDBRANCH   6  11
ENDBRANCH   4   6
ENDBRANCH   3   4
ENDBRANCH   2   3
ENDBRANCH   1   2
BRANCH   1  23
ATOM     23  O   UNL     1       0.817  -3.962  -4.544  1.00  0.00    -0.374 OA
BRANCH  23  24
ATOM     24  C   UNL     1       1.203  -2.599  -4.389  1.00  0.00     0.202 C 
BRANCH  24  25
ATOM     25  C   UNL     1       0.417  -1.481  -5.087  1.00  0.00     0.261 C 
BRANCH  25  26
ATOM     26  O   UNL     1      -0.978  -1.452  -4.736  1.00  0.00    -0.460 OA
BRANCH  26  27
ATOM     27  C   UNL     1      -1.820  -1.621  -5.782  1.00  0.00     0.338 C 
ATOM     28  O   UNL     1      -1.522  -1.756  -6.964  1.00  0.00    -0.246 OA
BRANCH  27  29
ATOM     29  C   UNL     1      -3.195  -1.831  -5.309  1.00  0.00     0.060 A 
ATOM     30  C   UNL     1      -3.816  -3.045  -5.633  1.00  0.00     0.016 A 
ATOM     31  C   UNL     1      -3.907  -0.809  -4.680  1.00  0.00     0.016 A 
ATOM     32  C   UNL     1      -5.170  -3.225  -5.373  1.00  0.00     0.010 A 
ATOM     33  C   UNL     1      -5.271  -0.988  -4.432  1.00  0.00     0.010 A 
ATOM     34  C   UNL     1      -5.915  -2.179  -4.814  1.00  0.00    -0.014 A 
BRANCH  34  35
ATOM     35  C   UNL     1      -7.393  -2.279  -4.789  1.00  0.00     0.031 A 
ATOM     36  C   UNL     1      -8.189  -1.559  -5.841  1.00  0.00     0.074 A 
ATOM     37  C   UNL     1      -8.012  -3.037  -3.868  1.00  0.00     0.049 A 
ATOM     38  N   UNL     1      -9.487  -1.469  -5.987  1.00  0.00    -0.248 NA
ATOM     39  C   UNL     1      -7.418  -0.842  -6.869  1.00  0.00     0.031 C 
ATOM     40  C   UNL     1      -7.341  -3.821  -2.833  1.00  0.00     0.029 A 
ATOM     41  N   UNL     1      -9.348  -3.264  -3.653  1.00  0.00    -0.354 N 
ATOM     42  C   UNL     1      -9.686  -0.682  -7.114  1.00  0.00     0.074 A 
ATOM     43  C   UNL     1      -8.379  -0.291  -7.595  1.00  0.00     0.031 C 
ATOM     44  C   UNL     1      -8.271  -4.433  -2.081  1.00  0.00     0.029 A 
ATOM     45  C   UNL     1      -9.600  -4.053  -2.559  1.00  0.00     0.049 A 
ATOM     46  H   UNL     1     -10.057  -2.896  -4.229  1.00  0.00     0.167 HD
ATOM     47  C   UNL     1     -10.855  -0.328  -7.699  1.00  0.00     0.037 A 
ATOM     48  C   UNL     1     -10.771  -4.402  -1.992  1.00  0.00     0.037 A 
ATOM     49  C   UNL     1     -12.152  -0.721  -7.213  1.00  0.00     0.049 A 
ATOM     50  C   UNL     1     -12.059  -3.927  -2.615  1.00  0.00     0.074 A 
ATOM     51  C   UNL     1     -13.397  -0.423  -7.738  1.00  0.00     0.029 A 
ATOM     52  N   UNL     1     -12.369  -1.493  -6.081  1.00  0.00    -0.354 N 
ATOM     53  N   UNL     1     -12.241  -3.196  -3.689  1.00  0.00    -0.248 NA
ATOM     54  C   UNL     1     -13.305  -4.332  -1.950  1.00  0.00     0.031 C 
ATOM     55  C   UNL     1     -14.369  -0.965  -6.891  1.00  0.00     0.029 A 
ATOM     56  C   UNL     1     -13.730  -1.658  -5.875  1.00  0.00     0.049 A 
ATOM     57  H   UNL     1     -11.662  -1.869  -5.509  1.00  0.00     0.167 HD
ATOM     58  C   UNL     1     -13.617  -3.079  -3.844  1.00  0.00     0.074 A 
ATOM     59  C   UNL     1     -14.222  -3.828  -2.763  1.00  0.00     0.031 C 
ATOM     60  C   UNL     1     -14.316  -2.414  -4.797  1.00  0.00     0.037 A 
BRANCH  47  61
ATOM     61  C   UNL     1     -10.786   0.553  -8.914  1.00  0.00     0.064 A 
ATOM     62  C   UNL     1     -10.294   0.085 -10.142  1.00  0.00     0.173 A 
ATOM     63  C   UNL     1     -11.251   1.876  -8.858  1.00  0.00     0.173 A 
ATOM     64  F   UNL     1      -9.823  -1.167 -10.248  1.00  0.00    -0.203 F 
ATOM     65  C   UNL     1     -10.245   0.915 -11.259  1.00  0.00     0.198 A 
ATOM     66  C   UNL     1     -11.232   2.693  -9.985  1.00  0.00     0.198 A 
ATOM     67  F   UNL     1     -11.736   2.374  -7.710  1.00  0.00    -0.203 F 
ATOM     68  F   UNL     1      -9.724   0.461 -12.408  1.00  0.00    -0.200 F 
ATOM     69  C   UNL     1     -10.721   2.216 -11.182  1.00  0.00     0.200 A 
ATOM     70  F   UNL     1     -11.706   3.945  -9.911  1.00  0.00    -0.200 F 
ATOM     71  F   UNL     1     -10.682   3.011 -12.260  1.00  0.00    -0.200 F 
ENDBRANCH  47  61
BRANCH  48  72
ATOM     72  C   UNL     1     -10.780  -5.226  -0.755  1.00  0.00     0.064 A 
ATOM     73  C   UNL     1     -11.289  -6.531  -0.755  1.00  0.00     0.173 A 
ATOM     74  C   UNL     1     -10.293  -4.716   0.459  1.00  0.00     0.173 A 
ATOM     75  F   UNL     1     -11.786  -7.056  -1.884  1.00  0.00    -0.203 F 
ATOM     76  C   UNL     1     -11.331  -7.287   0.415  1.00  0.00     0.198 A 
ATOM     77  C   UNL     1     -10.306  -5.484   1.620  1.00  0.00     0.198 A 
ATOM     78  F   UNL     1      -9.794  -3.472   0.513  1.00  0.00    -0.203 F 
ATOM     79  F   UNL     1     -11.870  -8.514   0.398  1.00  0.00    -0.200 F 
ATOM     80  C   UNL     1     -10.834  -6.765   1.600  1.00  0.00     0.200 A 
ATOM     81  F   UNL     1      -9.809  -4.981   2.759  1.00  0.00    -0.200 F 
ATOM     82  F   UNL     1     -10.871  -7.494   2.724  1.00  0.00    -0.200 F 
ENDBRANCH  48  72
BRANCH  60  83
ATOM     83  C   UNL     1     -15.816  -2.499  -4.739  1.00  0.00     0.064 A 
ATOM     84  C   UNL     1     -16.556  -1.859  -3.735  1.00  0.00     0.173 A 
ATOM     85  C   UNL     1     -16.523  -3.199  -5.729  1.00  0.00     0.173 A 
ATOM     86  F   UNL     1     -15.928  -1.188  -2.757  1.00  0.00    -0.203 F 
ATOM     87  C   UNL     1     -17.946  -1.942  -3.706  1.00  0.00     0.198 A 
ATOM     88  C   UNL     1     -17.914  -3.250  -5.718  1.00  0.00     0.198 A 
ATOM     89  F   UNL     1     -15.865  -3.823  -6.718  1.00  0.00    -0.203 F 
ATOM     90  F   UNL     1     -18.629  -1.368  -2.706  1.00  0.00    -0.200 F 
ATOM     91  C   UNL     1     -18.624  -2.630  -4.702  1.00  0.00     0.200 A 
ATOM     92  F   UNL     1     -18.567  -3.901  -6.691  1.00  0.00    -0.200 F 
ATOM     93  F   UNL     1     -19.962  -2.701  -4.677  1.00  0.00    -0.200 F 
ENDBRANCH  60  83
ENDBRANCH  34  35
ENDBRANCH  27  29
ENDBRANCH  26  27
ENDBRANCH  25  26
ENDBRANCH  24  25
ENDBRANCH  23  24
ENDBRANCH   1  23
TORSDOF 20
