REMARK SMILES O=C(OCCOCCOC(=O)c1csc(-c2cnc3ccccc3c2)c1)c1ccc(-c2c3nc(c(-c4c(F)c(F)c(F)c(F)c4F)c4ccc([nH]4)c(-c4c(F)c(F)c(F)c(F)c4F)c4nc(c(-c5c(F)c(F)c(F)c(F)c5F)c5ccc2[nH]5)C=C4)C=C3)cc1
REMARK SMILES IDX 5 1 4 2 3 3 2 4 1 5 27 6 28 7 89 8 29 9 88 10 30 11 31 12
REMARK SMILES IDX 32 13 82 14 33 15 87 16 81 17 83 18 34 19 86 20 80 21 79 22
REMARK SMILES IDX 35 24 67 25 47 26 66 27 48 28 51 29 65 30 84 31 49 32 50 33
REMARK SMILES IDX 64 35 85 36 52 37 36 38 37 39 45 40 38 41 39 42 43 43 46 44
REMARK SMILES IDX 40 45 41 46 44 47 42 48 68 49 69 50 77 51 70 52 71 53 75 54
REMARK SMILES IDX 78 55 72 56 73 57 76 58 74 59 53 60 54 61 62 62 55 63 56 64
REMARK SMILES IDX 60 65 63 66 57 67 58 68 61 69 59 70 6 71 7 72 8 73 9 74
REMARK SMILES IDX 10 75 11 76 12 77 13 78 26 79 14 80 15 81 16 82 17 83 25 84
REMARK SMILES IDX 18 85 24 86 19 87 23 88 20 89 22 90 21 91
REMARK H PARENT 83 23 51 34
REMARK Flexibility Score: inf
ROOT
ATOM      1  C   UNL     1       4.152   0.030  -1.931  1.00  0.00     0.202 C 
ENDROOT
BRANCH   1   2
ATOM      2  C   UNL     1       3.845  -1.152  -1.007  1.00  0.00     0.261 C 
BRANCH   2   3
ATOM      3  O   UNL     1       2.478  -1.089  -0.562  1.00  0.00    -0.460 OA
BRANCH   3   4
ATOM      4  C   UNL     1       1.991  -0.740   0.650  1.00  0.00     0.338 C 
ATOM      5  O   UNL     1       0.777  -0.809   0.836  1.00  0.00    -0.246 OA
BRANCH   4   6
ATOM      6  C   UNL     1       2.840  -0.280   1.792  1.00  0.00     0.060 A 
ATOM      7  C   UNL     1       4.069   0.371   1.670  1.00  0.00     0.016 A 
ATOM      8  C   UNL     1       2.304  -0.436   3.083  1.00  0.00     0.016 A 
ATOM      9  C   UNL     1       4.786   0.779   2.789  1.00  0.00     0.010 A 
ATOM     10  C   UNL     1       2.994   0.020   4.212  1.00  0.00     0.010 A 
ATOM     11  C   UNL     1       4.253   0.609   4.066  1.00  0.00    -0.014 A 
BRANCH  11  12
ATOM     12  C   UNL     1       5.072   1.004   5.229  1.00  0.00     0.031 A 
ATOM     13  C   UNL     1       5.758  -0.061   6.028  1.00  0.00     0.074 A 
ATOM     14  C   UNL     1       5.284   2.309   5.477  1.00  0.00     0.049 A 
ATOM     15  N   UNL     1       6.552   0.059   7.059  1.00  0.00    -0.248 NA
ATOM     16  C   UNL     1       5.532  -1.450   5.597  1.00  0.00     0.031 C 
ATOM     17  C   UNL     1       4.723   3.414   4.697  1.00  0.00     0.029 A 
ATOM     18  N   UNL     1       6.055   2.926   6.426  1.00  0.00    -0.354 N 
ATOM     19  C   UNL     1       6.910  -1.235   7.407  1.00  0.00     0.074 A 
ATOM     20  C   UNL     1       6.238  -2.128   6.489  1.00  0.00     0.031 C 
ATOM     21  C   UNL     1       5.200   4.574   5.176  1.00  0.00     0.029 A 
ATOM     22  C   UNL     1       6.056   4.296   6.325  1.00  0.00     0.049 A 
ATOM     23  H   UNL     1       6.559   2.435   7.114  1.00  0.00     0.167 HD
ATOM     24  C   UNL     1       7.726  -1.637   8.409  1.00  0.00     0.037 A 
ATOM     25  C   UNL     1       6.675   5.216   7.088  1.00  0.00     0.037 A 
ATOM     26  C   UNL     1       8.379  -0.735   9.318  1.00  0.00     0.049 A 
ATOM     27  C   UNL     1       7.517   4.740   8.240  1.00  0.00     0.074 A 
ATOM     28  C   UNL     1       9.175  -1.027  10.409  1.00  0.00     0.029 A 
ATOM     29  N   UNL     1       8.303   0.649   9.232  1.00  0.00    -0.354 N 
ATOM     30  N   UNL     1       7.815   3.512   8.595  1.00  0.00    -0.248 NA
ATOM     31  C   UNL     1       8.098   5.774   9.106  1.00  0.00     0.031 C 
ATOM     32  C   UNL     1       9.555   0.182  11.005  1.00  0.00     0.029 A 
ATOM     33  C   UNL     1       9.027   1.227  10.261  1.00  0.00     0.049 A 
ATOM     34  H   UNL     1       7.808   1.146   8.542  1.00  0.00     0.167 HD
ATOM     35  C   UNL     1       8.623   3.623   9.716  1.00  0.00     0.074 A 
ATOM     36  C   UNL     1       8.789   5.041   9.969  1.00  0.00     0.031 C 
ATOM     37  C   UNL     1       9.172   2.644  10.476  1.00  0.00     0.037 A 
BRANCH  24  38
ATOM     38  C   UNL     1       7.897  -3.115   8.591  1.00  0.00     0.064 A 
ATOM     39  C   UNL     1       8.665  -3.885   7.704  1.00  0.00     0.173 A 
ATOM     40  C   UNL     1       7.250  -3.776   9.645  1.00  0.00     0.173 A 
ATOM     41  F   UNL     1       9.280  -3.303   6.663  1.00  0.00    -0.203 F 
ATOM     42  C   UNL     1       8.752  -5.268   7.849  1.00  0.00     0.198 A 
ATOM     43  C   UNL     1       7.358  -5.155   9.800  1.00  0.00     0.198 A 
ATOM     44  F   UNL     1       6.498  -3.086  10.516  1.00  0.00    -0.203 F 
ATOM     45  F   UNL     1       9.443  -5.991   6.957  1.00  0.00    -0.200 F 
ATOM     46  C   UNL     1       8.101  -5.901   8.897  1.00  0.00     0.200 A 
ATOM     47  F   UNL     1       6.728  -5.766  10.813  1.00  0.00    -0.200 F 
ATOM     48  F   UNL     1       8.174  -7.233   9.027  1.00  0.00    -0.200 F 
ENDBRANCH  24  38
BRANCH  25  49
ATOM     49  C   UNL     1       6.507   6.665   6.798  1.00  0.00     0.064 A 
ATOM     50  C   UNL     1       7.585   7.447   6.361  1.00  0.00     0.173 A 
ATOM     51  C   UNL     1       5.265   7.300   6.955  1.00  0.00     0.173 A 
ATOM     52  F   UNL     1       8.798   6.894   6.217  1.00  0.00    -0.203 F 
ATOM     53  C   UNL     1       7.430   8.808   6.103  1.00  0.00     0.198 A 
ATOM     54  C   UNL     1       5.105   8.654   6.670  1.00  0.00     0.198 A 
ATOM     55  F   UNL     1       4.201   6.600   7.375  1.00  0.00    -0.203 F 
ATOM     56  F   UNL     1       8.487   9.541   5.725  1.00  0.00    -0.200 F 
ATOM     57  C   UNL     1       6.189   9.409   6.251  1.00  0.00     0.200 A 
ATOM     58  F   UNL     1       3.901   9.227   6.804  1.00  0.00    -0.200 F 
ATOM     59  F   UNL     1       6.040  10.716   5.998  1.00  0.00    -0.200 F 
ENDBRANCH  25  49
BRANCH  37  60
ATOM     60  C   UNL     1      10.013   3.082  11.636  1.00  0.00     0.064 A 
ATOM     61  C   UNL     1       9.433   3.590  12.807  1.00  0.00     0.173 A 
ATOM     62  C   UNL     1      11.409   2.954  11.589  1.00  0.00     0.173 A 
ATOM     63  F   UNL     1       8.103   3.745  12.888  1.00  0.00    -0.203 F 
ATOM     64  C   UNL     1      10.224   3.973  13.885  1.00  0.00     0.198 A 
ATOM     65  C   UNL     1      12.194   3.316  12.678  1.00  0.00     0.198 A 
ATOM     66  F   UNL     1      12.007   2.469  10.491  1.00  0.00    -0.203 F 
ATOM     67  F   UNL     1       9.653   4.493  14.980  1.00  0.00    -0.200 F 
ATOM     68  C   UNL     1      11.602   3.830  13.823  1.00  0.00     0.200 A 
ATOM     69  F   UNL     1      13.525   3.169  12.621  1.00  0.00    -0.200 F 
ATOM     70  F   UNL     1      12.362   4.195  14.864  1.00  0.00    -0.200 F 
ENDBRANCH  37  60
ENDBRANCH  11  12
ENDBRANCH   4   6
ENDBRANCH   3   4
ENDBRANCH   2   3
ENDBRANCH   1   2
BRANCH   1  71
ATOM     71  O   UNL     1       3.968   1.309  -1.318  1.00  0.00    -0.374 OA
BRANCH  71  72
ATOM     72  C   UNL     1       2.639   1.843  -1.399  1.00  0.00     0.202 C 
BRANCH  72  73
ATOM     73  C   UNL     1       2.692   3.279  -1.935  1.00  0.00     0.261 C 
BRANCH  73  74
ATOM     74  O   UNL     1       3.172   3.241  -3.287  1.00  0.00    -0.460 OA
BRANCH  74  75
ATOM     75  C   UNL     1       4.533   3.216  -3.393  1.00  0.00     0.339 C 
ATOM     76  O   UNL     1       5.309   3.728  -2.596  1.00  0.00    -0.246 OA
BRANCH  75  77
ATOM     77  C   UNL     1       4.968   2.346  -4.479  1.00  0.00     0.071 A 
ATOM     78  C   UNL     1       4.176   1.965  -5.547  1.00  0.00     0.081 A 
ATOM     79  C   UNL     1       6.246   1.694  -4.536  1.00  0.00     0.036 A 
ATOM     80  S   UNL     1       4.935   0.810  -6.552  1.00  0.00    -0.143 S 
ATOM     81  C   UNL     1       6.339   0.797  -5.579  1.00  0.00     0.037 A 
BRANCH  81  82
ATOM     82  C   UNL     1       7.440  -0.089  -5.920  1.00  0.00     0.011 A 
ATOM     83  C   UNL     1       7.426  -1.436  -5.584  1.00  0.00     0.121 A 
ATOM     84  C   UNL     1       8.558   0.393  -6.594  1.00  0.00     0.021 A 
ATOM     85  N   UNL     1       8.421  -2.307  -5.879  1.00  0.00    -0.256 NA
ATOM     86  C   UNL     1       9.599  -0.479  -6.931  1.00  0.00     0.001 A 
ATOM     87  C   UNL     1       9.487  -1.835  -6.552  1.00  0.00     0.070 A 
ATOM     88  C   UNL     1      10.726  -0.028  -7.637  1.00  0.00     0.010 A 
ATOM     89  C   UNL     1      10.518  -2.697  -6.899  1.00  0.00     0.029 A 
ATOM     90  C   UNL     1      11.743  -0.916  -7.977  1.00  0.00     0.001 A 
ATOM     91  C   UNL     1      11.639  -2.253  -7.608  1.00  0.00     0.002 A 
ENDBRANCH  81  82
ENDBRANCH  75  77
ENDBRANCH  74  75
ENDBRANCH  73  74
ENDBRANCH  72  73
ENDBRANCH  71  72
ENDBRANCH   1  71
TORSDOF 15
