REMARK SMILES C[C@@H](CCO)Sc1cc(C(=O)OCCOCCOC(=O)c2ccc(-c3c4nc(c(-c5c(F)c(F)c(F)c(F)c5F)c5ccc([nH]5)c(-c5c(F)c(F)c(F)c(F)c5F)c5nc(c(-c6c(F)c(F)c(F)c(F)c6F)c6ccc3[nH]6)C=C5)C=C4)cc2)c2ccccc2n1
REMARK SMILES IDX 13 1 12 2 10 3 11 4 9 5 7 6 8 7 90 8 89 9 84 10 88 11 85 12
REMARK SMILES IDX 87 13 86 14 6 15 2 16 1 17 3 18 4 19 5 20 14 22 15 23 16 24
REMARK SMILES IDX 17 25 18 26 19 27 20 28 21 29 22 30 83 31 23 32 82 33 24 34
REMARK SMILES IDX 25 35 26 36 76 37 27 38 81 39 75 40 77 41 28 42 80 43 74 44
REMARK SMILES IDX 73 45 29 47 61 48 41 49 60 50 42 51 45 52 59 53 78 54 43 55
REMARK SMILES IDX 44 56 58 58 79 59 46 60 30 61 31 62 39 63 32 64 33 65 37 66
REMARK SMILES IDX 40 67 34 68 35 69 38 70 36 71 62 72 63 73 71 74 64 75 65 76
REMARK SMILES IDX 69 77 72 78 66 79 67 80 70 81 68 82 47 83 48 84 56 85 49 86
REMARK SMILES IDX 50 87 54 88 57 89 51 90 52 91 55 92 53 93
REMARK H PARENT 5 21 77 46 45 57
REMARK Flexibility Score: inf
ROOT
ATOM      1  C   UNL     1       0.188   6.285  -0.129  1.00  0.00     0.261 C 
ENDROOT
BRANCH   1   2
ATOM      2  O   UNL     1      -0.893   5.426   0.273  1.00  0.00    -0.460 OA
BRANCH   2   3
ATOM      3  C   UNL     1      -1.123   4.363  -0.530  1.00  0.00     0.338 C 
ATOM      4  O   UNL     1      -0.615   4.155  -1.621  1.00  0.00    -0.246 OA
BRANCH   3   5
ATOM      5  C   UNL     1      -1.922   3.341   0.183  1.00  0.00     0.072 A 
ATOM      6  C   UNL     1      -2.079   1.019   0.720  1.00  0.00     0.098 A 
ATOM      7  C   UNL     1      -1.434   2.034   0.057  1.00  0.00     0.052 A 
ATOM      8  N   UNL     1      -3.209   1.246   1.422  1.00  0.00    -0.241 NA
ATOM      9  C   UNL     1      -3.726   2.486   1.486  1.00  0.00     0.072 A 
ATOM     10  C   UNL     1      -3.103   3.610   0.911  1.00  0.00     0.015 A 
ATOM     11  C   UNL     1      -4.946   2.648   2.131  1.00  0.00     0.029 A 
ATOM     12  C   UNL     1      -3.717   4.881   1.071  1.00  0.00     0.011 A 
ATOM     13  C   UNL     1      -5.557   3.897   2.260  1.00  0.00     0.002 A 
ATOM     14  C   UNL     1      -4.930   5.021   1.745  1.00  0.00     0.001 A 
BRANCH   6  15
ATOM     15  S   UNL     1      -1.597  -0.685   0.670  1.00  0.00    -0.103 SA
BRANCH  15  16
ATOM     16  C   UNL     1       0.213  -0.780   1.024  1.00  0.00     0.052 C 
ATOM     17  C   UNL     1       1.101  -0.212  -0.082  1.00  0.00     0.020 C 
BRANCH  16  18
ATOM     18  C   UNL     1       0.670  -0.409   2.447  1.00  0.00     0.043 C 
BRANCH  18  19
ATOM     19  C   UNL     1       0.610   1.063   2.829  1.00  0.00     0.157 C 
BRANCH  19  20
ATOM     20  O   UNL     1      -0.599   1.412   3.484  1.00  0.00    -0.396 OA
ATOM     21  H   UNL     1      -1.348   1.250   2.889  1.00  0.00     0.210 HD
ENDBRANCH  19  20
ENDBRANCH  18  19
ENDBRANCH  16  18
ENDBRANCH  15  16
ENDBRANCH   6  15
ENDBRANCH   3   5
ENDBRANCH   2   3
ENDBRANCH   1   2
BRANCH   1  22
ATOM     22  C   UNL     1       1.036   6.651   1.089  1.00  0.00     0.202 C 
BRANCH  22  23
ATOM     23  O   UNL     1       1.808   5.582   1.638  1.00  0.00    -0.374 OA
BRANCH  23  24
ATOM     24  C   UNL     1       1.114   4.615   2.427  1.00  0.00     0.202 C 
BRANCH  24  25
ATOM     25  C   UNL     1       0.845   4.994   3.888  1.00  0.00     0.261 C 
BRANCH  25  26
ATOM     26  O   UNL     1      -0.002   6.149   4.004  1.00  0.00    -0.460 OA
BRANCH  26  27
ATOM     27  C   UNL     1       0.632   7.281   4.386  1.00  0.00     0.338 C 
ATOM     28  O   UNL     1       1.806   7.409   4.706  1.00  0.00    -0.246 OA
BRANCH  27  29
ATOM     29  C   UNL     1      -0.263   8.435   4.199  1.00  0.00     0.060 A 
ATOM     30  C   UNL     1       0.226   9.519   3.459  1.00  0.00     0.016 A 
ATOM     31  C   UNL     1      -1.534   8.481   4.775  1.00  0.00     0.016 A 
ATOM     32  C   UNL     1      -0.540  10.674   3.328  1.00  0.00     0.010 A 
ATOM     33  C   UNL     1      -2.298   9.646   4.651  1.00  0.00     0.010 A 
ATOM     34  C   UNL     1      -1.791  10.757   3.953  1.00  0.00    -0.014 A 
BRANCH  34  35
ATOM     35  C   UNL     1      -2.503  12.055   3.990  1.00  0.00     0.031 A 
ATOM     36  C   UNL     1      -2.390  12.913   5.218  1.00  0.00     0.074 A 
ATOM     37  C   UNL     1      -3.219  12.474   2.933  1.00  0.00     0.049 A 
ATOM     38  N   UNL     1      -2.943  14.070   5.478  1.00  0.00    -0.248 NA
ATOM     39  C   UNL     1      -1.541  12.394   6.302  1.00  0.00     0.031 C 
ATOM     40  C   UNL     1      -3.372  11.744   1.676  1.00  0.00     0.029 A 
ATOM     41  N   UNL     1      -3.956  13.617   2.753  1.00  0.00    -0.354 N 
ATOM     42  C   UNL     1      -2.512  14.416   6.751  1.00  0.00     0.074 A 
ATOM     43  C   UNL     1      -1.677  13.333   7.226  1.00  0.00     0.031 C 
ATOM     44  C   UNL     1      -4.165  12.454   0.856  1.00  0.00     0.029 A 
ATOM     45  C   UNL     1      -4.596  13.671   1.540  1.00  0.00     0.049 A 
ATOM     46  H   UNL     1      -4.019  14.330   3.429  1.00  0.00     0.167 HD
ATOM     47  C   UNL     1      -2.781  15.541   7.456  1.00  0.00     0.037 A 
ATOM     48  C   UNL     1      -5.448  14.592   1.050  1.00  0.00     0.037 A 
ATOM     49  C   UNL     1      -3.611  16.615   6.981  1.00  0.00     0.049 A 
ATOM     50  C   UNL     1      -5.784  15.804   1.880  1.00  0.00     0.074 A 
ATOM     51  C   UNL     1      -3.926  17.807   7.609  1.00  0.00     0.029 A 
ATOM     52  N   UNL     1      -4.268  16.622   5.758  1.00  0.00    -0.354 N 
ATOM     53  N   UNL     1      -5.347  16.139   3.070  1.00  0.00    -0.248 NA
ATOM     54  C   UNL     1      -6.728  16.767   1.296  1.00  0.00     0.031 C 
ATOM     55  C   UNL     1      -4.813  18.513   6.789  1.00  0.00     0.029 A 
ATOM     56  C   UNL     1      -5.009  17.785   5.626  1.00  0.00     0.049 A 
ATOM     57  H   UNL     1      -4.215  15.906   5.085  1.00  0.00     0.167 HD
ATOM     58  C   UNL     1      -5.939  17.360   3.365  1.00  0.00     0.074 A 
ATOM     59  C   UNL     1      -6.758  17.713   2.224  1.00  0.00     0.031 C 
ATOM     60  C   UNL     1      -5.814  18.123   4.480  1.00  0.00     0.037 A 
BRANCH  47  61
ATOM     61  C   UNL     1      -2.189  15.652   8.831  1.00  0.00     0.064 A 
ATOM     62  C   UNL     1      -0.817  15.865   9.028  1.00  0.00     0.173 A 
ATOM     63  C   UNL     1      -3.011  15.570   9.965  1.00  0.00     0.173 A 
ATOM     64  F   UNL     1       0.014  15.935   7.977  1.00  0.00    -0.203 F 
ATOM     65  C   UNL     1      -0.285  15.965  10.311  1.00  0.00     0.198 A 
ATOM     66  C   UNL     1      -2.480  15.700  11.245  1.00  0.00     0.198 A 
ATOM     67  F   UNL     1      -4.330  15.371   9.831  1.00  0.00    -0.203 F 
ATOM     68  F   UNL     1       1.036  16.122  10.477  1.00  0.00    -0.200 F 
ATOM     69  C   UNL     1      -1.117  15.889  11.418  1.00  0.00     0.200 A 
ATOM     70  F   UNL     1      -3.287  15.636  12.313  1.00  0.00    -0.200 F 
ATOM     71  F   UNL     1      -0.605  15.991  12.652  1.00  0.00    -0.200 F 
ENDBRANCH  47  61
BRANCH  48  72
ATOM     72  C   UNL     1      -6.050  14.401  -0.295  1.00  0.00     0.064 A 
ATOM     73  C   UNL     1      -5.698  15.229  -1.369  1.00  0.00     0.173 A 
ATOM     74  C   UNL     1      -6.993  13.390  -0.530  1.00  0.00     0.173 A 
ATOM     75  F   UNL     1      -4.819  16.225  -1.187  1.00  0.00    -0.203 F 
ATOM     76  C   UNL     1      -6.279  15.063  -2.625  1.00  0.00     0.198 A 
ATOM     77  C   UNL     1      -7.553  13.208  -1.792  1.00  0.00     0.198 A 
ATOM     78  F   UNL     1      -7.364  12.572   0.466  1.00  0.00    -0.203 F 
ATOM     79  F   UNL     1      -5.957  15.895  -3.625  1.00  0.00    -0.200 F 
ATOM     80  C   UNL     1      -7.201  14.049  -2.837  1.00  0.00     0.200 A 
ATOM     81  F   UNL     1      -8.435  12.220  -1.996  1.00  0.00    -0.200 F 
ATOM     82  F   UNL     1      -7.755  13.887  -4.046  1.00  0.00    -0.200 F 
ENDBRANCH  48  72
BRANCH  60  83
ATOM     83  C   UNL     1      -6.553  19.430   4.508  1.00  0.00     0.064 A 
ATOM     84  C   UNL     1      -7.946  19.485   4.656  1.00  0.00     0.173 A 
ATOM     85  C   UNL     1      -5.851  20.642   4.431  1.00  0.00     0.173 A 
ATOM     86  F   UNL     1      -8.664  18.354   4.719  1.00  0.00    -0.203 F 
ATOM     87  C   UNL     1      -8.612  20.707   4.702  1.00  0.00     0.198 A 
ATOM     88  C   UNL     1      -6.517  21.862   4.507  1.00  0.00     0.198 A 
ATOM     89  F   UNL     1      -4.516  20.644   4.297  1.00  0.00    -0.203 F 
ATOM     90  F   UNL     1      -9.949  20.736   4.799  1.00  0.00    -0.200 F 
ATOM     91  C   UNL     1      -7.897  21.894   4.635  1.00  0.00     0.200 A 
ATOM     92  F   UNL     1      -5.823  23.008   4.456  1.00  0.00    -0.200 F 
ATOM     93  F   UNL     1      -8.540  23.069   4.688  1.00  0.00    -0.200 F 
ENDBRANCH  60  83
ENDBRANCH  34  35
ENDBRANCH  27  29
ENDBRANCH  26  27
ENDBRANCH  25  26
ENDBRANCH  24  25
ENDBRANCH  23  24
ENDBRANCH  22  23
ENDBRANCH   1  22
TORSDOF 19
