REMARK SMILES O=C(OCCOCCOC(=O)[C@@H]1C[C@@H]1C(=O)Nc1cc(F)ccc1F)c1ccc(-c2c3nc(c(-c4c(F)c(F)c(F)c(F)c4F)c4ccc([nH]4)c(-c4c(F)c(F)c(F)c(F)c4F)c4nc(c(-c5c(F)c(F)c(F)c(F)c5F)c5ccc2[nH]5)C=C4)C=C3)cc1
REMARK SMILES IDX 6 1 5 2 4 3 3 4 2 5 1 6 26 7 27 8 88 9 28 10 87 11 29 12
REMARK SMILES IDX 30 13 31 14 81 15 32 16 86 17 80 18 82 19 33 20 85 21 79 22
REMARK SMILES IDX 78 23 34 25 66 26 46 27 65 28 47 29 50 30 64 31 83 32 48 33
REMARK SMILES IDX 49 34 63 36 84 37 51 38 35 39 36 40 44 41 37 42 38 43 42 44
REMARK SMILES IDX 45 45 39 46 40 47 43 48 41 49 67 50 68 51 76 52 69 53 70 54
REMARK SMILES IDX 74 55 77 56 71 57 72 58 75 59 73 60 52 61 53 62 61 63 54 64
REMARK SMILES IDX 55 65 59 66 62 67 56 68 57 69 60 70 58 71 7 72 8 73 9 74
REMARK SMILES IDX 10 75 11 76 12 77 13 78 14 79 15 80 16 81 17 82 18 84 19 85
REMARK SMILES IDX 24 86 20 87 23 88 25 89 21 90 22 91
REMARK H PARENT 82 24 50 35 17 83
REMARK Flexibility Score: inf
ROOT
ATOM      1  O   UNL     1       4.137  -1.370  -0.447  1.00  0.00    -0.374 OA
ENDROOT
BRANCH   1   2
ATOM      2  C   UNL     1       4.321  -1.226   0.959  1.00  0.00     0.202 C 
BRANCH   2   3
ATOM      3  C   UNL     1       4.120   0.196   1.478  1.00  0.00     0.261 C 
BRANCH   3   4
ATOM      4  O   UNL     1       2.739   0.565   1.363  1.00  0.00    -0.460 OA
BRANCH   4   5
ATOM      5  C   UNL     1       2.124   1.199   0.344  1.00  0.00     0.338 C 
ATOM      6  O   UNL     1       0.895   1.258   0.345  1.00  0.00    -0.246 OA
BRANCH   5   7
ATOM      7  C   UNL     1       2.844   1.869  -0.780  1.00  0.00     0.060 A 
ATOM      8  C   UNL     1       4.052   1.447  -1.345  1.00  0.00     0.016 A 
ATOM      9  C   UNL     1       2.173   2.943  -1.388  1.00  0.00     0.016 A 
ATOM     10  C   UNL     1       4.580   2.051  -2.475  1.00  0.00     0.010 A 
ATOM     11  C   UNL     1       2.697   3.565  -2.520  1.00  0.00     0.010 A 
ATOM     12  C   UNL     1       3.904   3.113  -3.061  1.00  0.00    -0.014 A 
BRANCH  12  13
ATOM     13  C   UNL     1       4.558   3.827  -4.161  1.00  0.00     0.031 A 
ATOM     14  C   UNL     1       5.312   5.070  -3.822  1.00  0.00     0.074 A 
ATOM     15  C   UNL     1       4.545   3.303  -5.397  1.00  0.00     0.049 A 
ATOM     16  N   UNL     1       5.841   5.958  -4.615  1.00  0.00    -0.248 NA
ATOM     17  C   UNL     1       5.509   5.345  -2.386  1.00  0.00     0.031 C 
ATOM     18  C   UNL     1       3.965   2.008  -5.761  1.00  0.00     0.029 A 
ATOM     19  N   UNL     1       5.047   3.787  -6.573  1.00  0.00    -0.354 N 
ATOM     20  C   UNL     1       6.412   6.906  -3.778  1.00  0.00     0.074 A 
ATOM     21  C   UNL     1       6.172   6.490  -2.416  1.00  0.00     0.031 C 
ATOM     22  C   UNL     1       4.139   1.805  -7.078  1.00  0.00     0.029 A 
ATOM     23  C   UNL     1       4.777   2.984  -7.654  1.00  0.00     0.049 A 
ATOM     24  H   UNL     1       5.553   4.629  -6.639  1.00  0.00     0.167 HD
ATOM     25  C   UNL     1       7.070   8.029  -4.139  1.00  0.00     0.037 A 
ATOM     26  C   UNL     1       4.986   3.219  -8.962  1.00  0.00     0.037 A 
ATOM     27  C   UNL     1       7.272   8.405  -5.510  1.00  0.00     0.049 A 
ATOM     28  C   UNL     1       5.609   4.540  -9.337  1.00  0.00     0.074 A 
ATOM     29  C   UNL     1       7.825   9.562  -6.021  1.00  0.00     0.029 A 
ATOM     30  N   UNL     1       6.929   7.604  -6.594  1.00  0.00    -0.354 N 
ATOM     31  N   UNL     1       6.051   5.500  -8.556  1.00  0.00    -0.248 NA
ATOM     32  C   UNL     1       5.744   4.824 -10.770  1.00  0.00     0.031 C 
ATOM     33  C   UNL     1       7.787   9.475  -7.417  1.00  0.00     0.029 A 
ATOM     34  C   UNL     1       7.257   8.243  -7.774  1.00  0.00     0.049 A 
ATOM     35  H   UNL     1       6.513   6.714  -6.529  1.00  0.00     0.167 HD
ATOM     36  C   UNL     1       6.536   6.489  -9.399  1.00  0.00     0.074 A 
ATOM     37  C   UNL     1       6.358   5.998 -10.752  1.00  0.00     0.031 C 
ATOM     38  C   UNL     1       7.071   7.698  -9.095  1.00  0.00     0.037 A 
BRANCH  25  39
ATOM     39  C   UNL     1       7.554   8.933  -3.049  1.00  0.00     0.064 A 
ATOM     40  C   UNL     1       6.910  10.154  -2.803  1.00  0.00     0.173 A 
ATOM     41  C   UNL     1       8.664   8.604  -2.257  1.00  0.00     0.173 A 
ATOM     42  F   UNL     1       5.832  10.506  -3.520  1.00  0.00    -0.203 F 
ATOM     43  C   UNL     1       7.373  11.023  -1.819  1.00  0.00     0.198 A 
ATOM     44  C   UNL     1       9.111   9.466  -1.259  1.00  0.00     0.198 A 
ATOM     45  F   UNL     1       9.292   7.431  -2.429  1.00  0.00    -0.203 F 
ATOM     46  F   UNL     1       6.754  12.194  -1.616  1.00  0.00    -0.200 F 
ATOM     47  C   UNL     1       8.472  10.679  -1.047  1.00  0.00     0.200 A 
ATOM     48  F   UNL     1      10.154   9.117  -0.492  1.00  0.00    -0.200 F 
ATOM     49  F   UNL     1       8.911  11.512  -0.093  1.00  0.00    -0.200 F 
ENDBRANCH  25  39
BRANCH  26  50
ATOM     50  C   UNL     1       4.560   2.237  -9.997  1.00  0.00     0.064 A 
ATOM     51  C   UNL     1       3.208   1.912 -10.188  1.00  0.00     0.173 A 
ATOM     52  C   UNL     1       5.495   1.632 -10.849  1.00  0.00     0.173 A 
ATOM     53  F   UNL     1       2.266   2.463  -9.408  1.00  0.00    -0.203 F 
ATOM     54  C   UNL     1       2.809   1.019 -11.181  1.00  0.00     0.198 A 
ATOM     55  C   UNL     1       5.092   0.765 -11.866  1.00  0.00     0.198 A 
ATOM     56  F   UNL     1       6.798   1.923 -10.729  1.00  0.00    -0.203 F 
ATOM     57  F   UNL     1       1.512   0.714 -11.325  1.00  0.00    -0.200 F 
ATOM     58  C   UNL     1       3.751   0.456 -12.028  1.00  0.00     0.200 A 
ATOM     59  F   UNL     1       6.003   0.252 -12.704  1.00  0.00    -0.200 F 
ATOM     60  F   UNL     1       3.364  -0.372 -13.008  1.00  0.00    -0.200 F 
ENDBRANCH  26  50
BRANCH  38  61
ATOM     61  C   UNL     1       7.529   8.540 -10.247  1.00  0.00     0.064 A 
ATOM     62  C   UNL     1       8.898   8.759 -10.458  1.00  0.00     0.173 A 
ATOM     63  C   UNL     1       6.616   9.164 -11.108  1.00  0.00     0.173 A 
ATOM     64  F   UNL     1       9.808   8.193  -9.651  1.00  0.00    -0.203 F 
ATOM     65  C   UNL     1       9.336   9.579 -11.492  1.00  0.00     0.198 A 
ATOM     66  C   UNL     1       7.060   9.954 -12.162  1.00  0.00     0.198 A 
ATOM     67  F   UNL     1       5.298   8.972 -10.949  1.00  0.00    -0.203 F 
ATOM     68  F   UNL     1      10.647   9.800 -11.659  1.00  0.00    -0.200 F 
ATOM     69  C   UNL     1       8.418  10.167 -12.348  1.00  0.00     0.200 A 
ATOM     70  F   UNL     1       6.173  10.498 -13.008  1.00  0.00    -0.200 F 
ATOM     71  F   UNL     1       8.843  10.937 -13.360  1.00  0.00    -0.200 F 
ENDBRANCH  38  61
ENDBRANCH  12  13
ENDBRANCH   5   7
ENDBRANCH   4   5
ENDBRANCH   3   4
ENDBRANCH   2   3
ENDBRANCH   1   2
BRANCH   1  72
ATOM     72  C   UNL     1       2.839  -1.768  -0.903  1.00  0.00     0.202 C 
BRANCH  72  73
ATOM     73  C   UNL     1       3.016  -2.858  -1.965  1.00  0.00     0.261 C 
BRANCH  73  74
ATOM     74  O   UNL     1       3.622  -3.988  -1.325  1.00  0.00    -0.463 OA
BRANCH  74  75
ATOM     75  C   UNL     1       4.975  -3.946  -1.221  1.00  0.00     0.309 C 
ATOM     76  O   UNL     1       5.752  -3.372  -1.969  1.00  0.00    -0.252 OA
BRANCH  75  77
ATOM     77  C   UNL     1       5.397  -4.479   0.093  1.00  0.00     0.112 C 
ATOM     78  C   UNL     1       6.368  -5.608   0.227  1.00  0.00     0.030 C 
ATOM     79  C   UNL     1       4.906  -5.822   0.588  1.00  0.00     0.094 C 
BRANCH  79  80
ATOM     80  C   UNL     1       4.065  -6.691  -0.269  1.00  0.00     0.228 C 
ATOM     81  O   UNL     1       4.606  -7.454  -1.065  1.00  0.00    -0.274 OA
ATOM     82  N   UNL     1       2.698  -6.687  -0.173  1.00  0.00    -0.323 N 
ATOM     83  H   UNL     1       2.279  -7.395  -0.714  1.00  0.00     0.170 HD
BRANCH  82  84
ATOM     84  C   UNL     1       1.752  -5.905   0.520  1.00  0.00     0.080 A 
ATOM     85  C   UNL     1       2.025  -4.776   1.285  1.00  0.00     0.068 A 
ATOM     86  C   UNL     1       0.407  -6.291   0.376  1.00  0.00     0.146 A 
ATOM     87  C   UNL     1       0.977  -4.058   1.868  1.00  0.00     0.125 A 
ATOM     88  C   UNL     1      -0.637  -5.585   0.973  1.00  0.00     0.044 A 
ATOM     89  F   UNL     1       0.110  -7.370  -0.365  1.00  0.00    -0.205 F 
ATOM     90  F   UNL     1       1.260  -2.948   2.563  1.00  0.00    -0.207 F 
ATOM     91  C   UNL     1      -0.349  -4.452   1.724  1.00  0.00     0.042 A 
ENDBRANCH  82  84
ENDBRANCH  79  80
ENDBRANCH  75  77
ENDBRANCH  74  75
ENDBRANCH  73  74
ENDBRANCH  72  73
ENDBRANCH   1  72
TORSDOF 16
