REMARK SMILES CCC[C@@]1(C(=O)OCCOCCOC(=O)c2ccc(-c3c4nc(c(-c5c(F)c(F)c(F)c(F)c5F)c5ccc([nH]5)c(-c5c(F)c(F)c(F)c(F)c5F)c5nc(c(-c6c(F)c(F)c(F)c(F)c6F)c6ccc3[nH]6)C=C5)C=C4)cc2)CCN(C(=O)[C@@H]2CC[NH2+][C@@H]2C)C1
REMARK SMILES IDX 10 1 9 2 8 3 7 4 5 5 6 6 4 7 79 8 90 9 80 10 81 11 3 12 2 13
REMARK SMILES IDX 1 14 82 15 83 16 84 17 85 18 88 19 86 20 87 21 89 22 11 25
REMARK SMILES IDX 12 26 13 27 14 28 15 29 16 30 17 31 78 32 18 33 77 34 19 35
REMARK SMILES IDX 20 36 21 37 71 38 22 39 76 40 70 41 72 42 23 43 75 44 69 45
REMARK SMILES IDX 68 46 24 48 56 49 36 50 55 51 37 52 40 53 54 54 73 55 38 56
REMARK SMILES IDX 39 57 53 59 74 60 41 61 25 62 26 63 34 64 27 65 28 66 32 67
REMARK SMILES IDX 35 68 29 69 30 70 33 71 31 72 57 73 58 74 66 75 59 76 60 77
REMARK SMILES IDX 64 78 67 79 61 80 62 81 65 82 63 83 42 84 43 85 51 86 44 87
REMARK SMILES IDX 45 88 49 89 52 90 46 91 47 92 50 93 48 94
REMARK H PARENT 87 23 87 24 72 47 40 58
REMARK Flexibility Score: inf
ROOT
ATOM      1  O   UNL     1       1.779   4.000  -2.479  1.00  0.00    -0.374 OA
ENDROOT
BRANCH   1   2
ATOM      2  C   UNL     1       2.949   3.291  -2.094  1.00  0.00     0.202 C 
BRANCH   2   3
ATOM      3  C   UNL     1       2.801   1.899  -1.467  1.00  0.00     0.261 C 
BRANCH   3   4
ATOM      4  O   UNL     1       2.135   0.925  -2.295  1.00  0.00    -0.463 OA
BRANCH   4   5
ATOM      5  C   UNL     1       0.874   0.617  -1.882  1.00  0.00     0.314 C 
ATOM      6  O   UNL     1       0.289   1.221  -0.989  1.00  0.00    -0.252 OA
BRANCH   5   7
ATOM      7  C   UNL     1       0.218  -0.519  -2.682  1.00  0.00     0.087 C 
ATOM      8  C   UNL     1      -0.956  -1.030  -1.823  1.00  0.00     0.042 C 
ATOM      9  C   UNL     1       1.127  -1.766  -2.749  1.00  0.00     0.138 C 
ATOM     10  C   UNL     1      -0.257  -1.919  -0.817  1.00  0.00     0.120 C 
ATOM     11  N   UNL     1       0.673  -2.639  -1.664  1.00  0.00    -0.341 N 
BRANCH   7  12
ATOM     12  C   UNL     1      -0.216   0.006  -4.068  1.00  0.00     0.020 C 
BRANCH  12  13
ATOM     13  C   UNL     1      -1.165  -0.880  -4.892  1.00  0.00    -0.002 C 
ATOM     14  C   UNL     1      -2.637  -0.528  -4.699  1.00  0.00     0.004 C 
ENDBRANCH  12  13
ENDBRANCH   7  12
BRANCH  11  15
ATOM     15  C   UNL     1       1.035  -3.963  -1.623  1.00  0.00     0.231 C 
ATOM     16  O   UNL     1       1.788  -4.423  -2.491  1.00  0.00    -0.274 OA
BRANCH  15  17
ATOM     17  C   UNL     1       0.544  -4.904  -0.516  1.00  0.00     0.142 C 
ATOM     18  C   UNL     1      -0.973  -5.044  -0.382  1.00  0.00     0.081 C 
ATOM     19  C   UNL     1       1.037  -4.617   0.900  1.00  0.00     0.192 C 
ATOM     20  C   UNL     1      -1.298  -4.626   1.052  1.00  0.00     0.261 C 
ATOM     21  N   UNL     1      -0.096  -3.962   1.561  1.00  0.00    -0.343 N 
ATOM     22  C   UNL     1       2.322  -3.813   1.021  1.00  0.00     0.076 C 
ATOM     23  H   UNL     1      -0.030  -4.076   2.572  1.00  0.00     0.346 HD
ATOM     24  H   UNL     1      -0.113  -2.961   1.369  1.00  0.00     0.346 HD
ENDBRANCH  15  17
ENDBRANCH  11  15
ENDBRANCH   5   7
ENDBRANCH   4   5
ENDBRANCH   3   4
ENDBRANCH   2   3
ENDBRANCH   1   2
BRANCH   1  25
ATOM     25  C   UNL     1       1.015   3.505  -3.574  1.00  0.00     0.202 C 
BRANCH  25  26
ATOM     26  C   UNL     1       1.661   3.502  -4.964  1.00  0.00     0.261 C 
BRANCH  26  27
ATOM     27  O   UNL     1       2.780   2.600  -5.053  1.00  0.00    -0.460 OA
BRANCH  27  28
ATOM     28  C   UNL     1       3.964   3.193  -5.324  1.00  0.00     0.338 C 
ATOM     29  O   UNL     1       4.168   4.381  -5.554  1.00  0.00    -0.246 OA
BRANCH  28  30
ATOM     30  C   UNL     1       5.070   2.244  -5.138  1.00  0.00     0.060 A 
ATOM     31  C   UNL     1       6.072   2.578  -4.215  1.00  0.00     0.016 A 
ATOM     32  C   UNL     1       5.195   1.116  -5.949  1.00  0.00     0.016 A 
ATOM     33  C   UNL     1       7.236   1.818  -4.141  1.00  0.00     0.010 A 
ATOM     34  C   UNL     1       6.371   0.363  -5.886  1.00  0.00     0.010 A 
ATOM     35  C   UNL     1       7.412   0.740  -5.017  1.00  0.00    -0.014 A 
BRANCH  35  36
ATOM     36  C   UNL     1       8.757   0.142  -5.179  1.00  0.00     0.031 A 
ATOM     37  C   UNL     1       9.618   0.620  -6.315  1.00  0.00     0.074 A 
ATOM     38  C   UNL     1       9.207  -0.797  -4.331  1.00  0.00     0.049 A 
ATOM     39  N   UNL     1      10.775   0.173  -6.729  1.00  0.00    -0.248 NA
ATOM     40  C   UNL     1       9.098   1.757  -7.093  1.00  0.00     0.031 C 
ATOM     41  C   UNL     1       8.489  -1.292  -3.160  1.00  0.00     0.029 A 
ATOM     42  N   UNL     1      10.378  -1.513  -4.340  1.00  0.00    -0.354 N 
ATOM     43  C   UNL     1      11.111   0.959  -7.824  1.00  0.00     0.074 A 
ATOM     44  C   UNL     1      10.031   1.901  -8.021  1.00  0.00     0.031 C 
ATOM     45  C   UNL     1       9.224  -2.253  -2.574  1.00  0.00     0.029 A 
ATOM     46  C   UNL     1      10.444  -2.464  -3.353  1.00  0.00     0.049 A 
ATOM     47  H   UNL     1      11.100  -1.360  -4.992  1.00  0.00     0.167 HD
ATOM     48  C   UNL     1      12.223   0.899  -8.594  1.00  0.00     0.037 A 
ATOM     49  C   UNL     1      11.369  -3.417  -3.131  1.00  0.00     0.037 A 
ATOM     50  C   UNL     1      13.295  -0.037  -8.389  1.00  0.00     0.049 A 
ATOM     51  C   UNL     1      12.564  -3.512  -4.045  1.00  0.00     0.074 A 
ATOM     52  C   UNL     1      14.467  -0.181  -9.110  1.00  0.00     0.029 A 
ATOM     53  N   UNL     1      13.320  -0.995  -7.386  1.00  0.00    -0.354 N 
ATOM     54  N   UNL     1      12.878  -2.768  -5.078  1.00  0.00    -0.248 NA
ATOM     55  C   UNL     1      13.534  -4.580  -3.761  1.00  0.00     0.031 C 
ATOM     56  C   UNL     1      15.181  -1.254  -8.569  1.00  0.00     0.029 A 
ATOM     57  C   UNL     1      14.480  -1.745  -7.479  1.00  0.00     0.049 A 
ATOM     58  H   UNL     1      12.617  -1.122  -6.708  1.00  0.00     0.167 HD
ATOM     59  C   UNL     1      14.094  -3.252  -5.545  1.00  0.00     0.074 A 
ATOM     60  C   UNL     1      14.463  -4.354  -4.681  1.00  0.00     0.031 C 
ATOM     61  C   UNL     1      14.839  -2.821  -6.591  1.00  0.00     0.037 A 
BRANCH  48  62
ATOM     62  C   UNL     1      12.317   1.850  -9.751  1.00  0.00     0.064 A 
ATOM     63  C   UNL     1      12.543   3.222  -9.563  1.00  0.00     0.173 A 
ATOM     64  C   UNL     1      12.204   1.377 -11.066  1.00  0.00     0.173 A 
ATOM     65  F   UNL     1      12.641   3.727  -8.324  1.00  0.00    -0.203 F 
ATOM     66  C   UNL     1      12.629   4.088 -10.650  1.00  0.00     0.198 A 
ATOM     67  C   UNL     1      12.319   2.241 -12.152  1.00  0.00     0.198 A 
ATOM     68  F   UNL     1      11.989   0.073 -11.300  1.00  0.00    -0.203 F 
ATOM     69  F   UNL     1      12.800   5.401 -10.447  1.00  0.00    -0.200 F 
ATOM     70  C   UNL     1      12.524   3.596 -11.943  1.00  0.00     0.200 A 
ATOM     71  F   UNL     1      12.228   1.762 -13.400  1.00  0.00    -0.200 F 
ATOM     72  F   UNL     1      12.614   4.430 -12.988  1.00  0.00    -0.200 F 
ENDBRANCH  48  62
BRANCH  49  73
ATOM     73  C   UNL     1      11.194  -4.374  -2.007  1.00  0.00     0.064 A 
ATOM     74  C   UNL     1      12.043  -4.344  -0.893  1.00  0.00     0.173 A 
ATOM     75  C   UNL     1      10.182  -5.346  -2.032  1.00  0.00     0.173 A 
ATOM     76  F   UNL     1      13.041  -3.450  -0.836  1.00  0.00    -0.203 F 
ATOM     77  C   UNL     1      11.897  -5.260   0.147  1.00  0.00     0.198 A 
ATOM     78  C   UNL     1      10.020  -6.243  -0.979  1.00  0.00     0.198 A 
ATOM     79  F   UNL     1       9.346  -5.419  -3.078  1.00  0.00    -0.203 F 
ATOM     80  F   UNL     1      12.750  -5.238   1.180  1.00  0.00    -0.200 F 
ATOM     81  C   UNL     1      10.882  -6.204   0.107  1.00  0.00     0.200 A 
ATOM     82  F   UNL     1       9.033  -7.148  -1.017  1.00  0.00    -0.200 F 
ATOM     83  F   UNL     1      10.741  -7.082   1.109  1.00  0.00    -0.200 F 
ENDBRANCH  49  73
BRANCH  61  84
ATOM     84  C   UNL     1      16.158  -3.496  -6.829  1.00  0.00     0.064 A 
ATOM     85  C   UNL     1      16.241  -4.785  -7.373  1.00  0.00     0.173 A 
ATOM     86  C   UNL     1      17.356  -2.812  -6.567  1.00  0.00     0.173 A 
ATOM     87  F   UNL     1      15.125  -5.484  -7.628  1.00  0.00    -0.203 F 
ATOM     88  C   UNL     1      17.477  -5.373  -7.631  1.00  0.00     0.198 A 
ATOM     89  C   UNL     1      18.588  -3.392  -6.852  1.00  0.00     0.198 A 
ATOM     90  F   UNL     1      17.329  -1.573  -6.055  1.00  0.00    -0.203 F 
ATOM     91  F   UNL     1      17.536  -6.620  -8.117  1.00  0.00    -0.200 F 
ATOM     92  C   UNL     1      18.648  -4.673  -7.379  1.00  0.00     0.200 A 
ATOM     93  F   UNL     1      19.718  -2.708  -6.622  1.00  0.00    -0.200 F 
ATOM     94  F   UNL     1      19.836  -5.235  -7.641  1.00  0.00    -0.200 F 
ENDBRANCH  61  84
ENDBRANCH  35  36
ENDBRANCH  28  30
ENDBRANCH  27  28
ENDBRANCH  26  27
ENDBRANCH  25  26
ENDBRANCH   1  25
TORSDOF 18
