REMARK SMILES O=C(OCCOCCOC(=O)c1ccc(N2C(=O)C[C@H](c3c[nH]c4ccccc34)C2=O)cc1O)c1ccc(-c2c3nc(c(-c4c(F)c(F)c(F)c(F)c4F)c4ccc([nH]4)c(-c4c(F)c(F)c(F)c(F)c4F)c4nc(c(-c5c(F)c(F)c(F)c(F)c5F)c5ccc2[nH]5)C=C4)C=C3)cc1
REMARK SMILES IDX 6 1 5 2 4 3 3 4 2 5 1 6 35 7 36 8 97 9 37 10 96 11 38 12
REMARK SMILES IDX 39 13 40 14 90 15 41 16 95 17 89 18 91 19 42 20 94 21 88 22
REMARK SMILES IDX 87 23 43 25 75 26 55 27 74 28 56 29 59 30 73 31 92 32 57 33
REMARK SMILES IDX 58 34 72 36 93 37 60 38 44 39 45 40 53 41 46 42 47 43 51 44
REMARK SMILES IDX 54 45 48 46 49 47 52 48 50 49 76 50 77 51 85 52 78 53 79 54
REMARK SMILES IDX 83 55 86 56 80 57 81 58 84 59 82 60 61 61 62 62 70 63 63 64
REMARK SMILES IDX 64 65 68 66 71 67 65 68 66 69 69 70 67 71 7 72 8 73 9 74
REMARK SMILES IDX 10 75 11 76 12 77 13 78 33 79 14 80 32 81 15 82 34 83 16 85
REMARK SMILES IDX 17 86 30 87 18 88 19 89 20 90 31 91 21 92 22 93 29 94 23 95
REMARK SMILES IDX 24 96 28 97 25 99 27 100 26 101
REMARK H PARENT 91 24 59 35 34 84 23 98
REMARK Flexibility Score: inf
ROOT
ATOM      1  O   UNL     1       4.030   0.118   1.721  1.00  0.00    -0.374 OA
ENDROOT
BRANCH   1   2
ATOM      2  C   UNL     1       4.233   1.356   1.041  1.00  0.00     0.202 C 
BRANCH   2   3
ATOM      3  C   UNL     1       3.953   1.299  -0.463  1.00  0.00     0.261 C 
BRANCH   3   4
ATOM      4  O   UNL     1       2.593   0.906  -0.705  1.00  0.00    -0.460 OA
BRANCH   4   5
ATOM      5  C   UNL     1       2.128  -0.280  -1.159  1.00  0.00     0.338 C 
ATOM      6  O   UNL     1       0.927  -0.383  -1.408  1.00  0.00    -0.246 OA
BRANCH   5   7
ATOM      7  C   UNL     1       2.983  -1.490  -1.365  1.00  0.00     0.060 A 
ATOM      8  C   UNL     1       4.174  -1.757  -0.687  1.00  0.00     0.016 A 
ATOM      9  C   UNL     1       2.486  -2.481  -2.230  1.00  0.00     0.016 A 
ATOM     10  C   UNL     1       4.874  -2.939  -0.879  1.00  0.00     0.010 A 
ATOM     11  C   UNL     1       3.163  -3.693  -2.402  1.00  0.00     0.010 A 
ATOM     12  C   UNL     1       4.365  -3.919  -1.725  1.00  0.00    -0.014 A 
BRANCH  12  13
ATOM     13  C   UNL     1       5.157  -5.145  -1.911  1.00  0.00     0.031 A 
ATOM     14  C   UNL     1       5.968  -5.292  -3.158  1.00  0.00     0.074 A 
ATOM     15  C   UNL     1       5.232  -6.036  -0.905  1.00  0.00     0.049 A 
ATOM     16  N   UNL     1       6.716  -6.289  -3.545  1.00  0.00    -0.248 NA
ATOM     17  C   UNL     1       5.949  -4.151  -4.090  1.00  0.00     0.031 C 
ATOM     18  C   UNL     1       4.562  -5.899   0.390  1.00  0.00     0.029 A 
ATOM     19  N   UNL     1       5.926  -7.211  -0.799  1.00  0.00    -0.354 N 
ATOM     20  C   UNL     1       7.235  -5.909  -4.774  1.00  0.00     0.074 A 
ATOM     21  C   UNL     1       6.725  -4.589  -5.070  1.00  0.00     0.031 C 
ATOM     22  C   UNL     1       4.894  -6.942   1.168  1.00  0.00     0.029 A 
ATOM     23  C   UNL     1       5.741  -7.849   0.404  1.00  0.00     0.049 A 
ATOM     24  H   UNL     1       6.502  -7.564  -1.515  1.00  0.00     0.167 HD
ATOM     25  C   UNL     1       8.057  -6.618  -5.580  1.00  0.00     0.037 A 
ATOM     26  C   UNL     1       6.183  -9.052   0.814  1.00  0.00     0.037 A 
ATOM     27  C   UNL     1       8.548  -7.928  -5.252  1.00  0.00     0.049 A 
ATOM     28  C   UNL     1       7.025  -9.853  -0.143  1.00  0.00     0.074 A 
ATOM     29  C   UNL     1       9.338  -8.773  -6.008  1.00  0.00     0.029 A 
ATOM     30  N   UNL     1       8.287  -8.582  -4.054  1.00  0.00    -0.354 N 
ATOM     31  N   UNL     1       7.468  -9.520  -1.333  1.00  0.00    -0.248 NA
ATOM     32  C   UNL     1       7.414 -11.202   0.285  1.00  0.00     0.031 C 
ATOM     33  C   UNL     1       9.520  -9.956  -5.284  1.00  0.00     0.029 A 
ATOM     34  C   UNL     1       8.884  -9.830  -4.058  1.00  0.00     0.049 A 
ATOM     35  H   UNL     1       7.757  -8.212  -3.312  1.00  0.00     0.167 HD
ATOM     36  C   UNL     1       8.194 -10.608  -1.791  1.00  0.00     0.074 A 
ATOM     37  C   UNL     1       8.157 -11.603  -0.737  1.00  0.00     0.031 C 
ATOM     38  C   UNL     1       8.827 -10.782  -2.978  1.00  0.00     0.037 A 
BRANCH  25  39
ATOM     39  C   UNL     1       8.403  -6.017  -6.908  1.00  0.00     0.064 A 
ATOM     40  C   UNL     1       9.298  -4.945  -7.031  1.00  0.00     0.173 A 
ATOM     41  C   UNL     1       7.817  -6.522  -8.079  1.00  0.00     0.173 A 
ATOM     42  F   UNL     1       9.863  -4.408  -5.939  1.00  0.00    -0.203 F 
ATOM     43  C   UNL     1       9.580  -4.388  -8.277  1.00  0.00     0.198 A 
ATOM     44  C   UNL     1       8.118  -5.977  -9.324  1.00  0.00     0.198 A 
ATOM     45  F   UNL     1       6.946  -7.540  -8.014  1.00  0.00    -0.203 F 
ATOM     46  F   UNL     1      10.403  -3.334  -8.367  1.00  0.00    -0.200 F 
ATOM     47  C   UNL     1       8.994  -4.907  -9.422  1.00  0.00     0.200 A 
ATOM     48  F   UNL     1       7.551  -6.482 -10.429  1.00  0.00    -0.200 F 
ATOM     49  F   UNL     1       9.264  -4.368 -10.619  1.00  0.00    -0.200 F 
ENDBRANCH  25  39
BRANCH  26  50
ATOM     50  C   UNL     1       5.789  -9.594   2.143  1.00  0.00     0.064 A 
ATOM     51  C   UNL     1       6.743  -9.867   3.134  1.00  0.00     0.173 A 
ATOM     52  C   UNL     1       4.448  -9.886   2.440  1.00  0.00     0.173 A 
ATOM     53  F   UNL     1       8.042  -9.631   2.897  1.00  0.00    -0.203 F 
ATOM     54  C   UNL     1       6.375 -10.433   4.355  1.00  0.00     0.198 A 
ATOM     55  C   UNL     1       4.077 -10.419   3.672  1.00  0.00     0.198 A 
ATOM     56  F   UNL     1       3.491  -9.652   1.529  1.00  0.00    -0.203 F 
ATOM     57  F   UNL     1       7.315 -10.740   5.259  1.00  0.00    -0.200 F 
ATOM     58  C   UNL     1       5.042 -10.704   4.625  1.00  0.00     0.200 A 
ATOM     59  F   UNL     1       2.785 -10.668   3.931  1.00  0.00    -0.200 F 
ATOM     60  F   UNL     1       4.689 -11.253   5.795  1.00  0.00    -0.200 F 
ENDBRANCH  26  50
BRANCH  38  61
ATOM     61  C   UNL     1       9.541 -12.084  -3.176  1.00  0.00     0.064 A 
ATOM     62  C   UNL     1       8.838 -13.274  -3.413  1.00  0.00     0.173 A 
ATOM     63  C   UNL     1      10.942 -12.129  -3.178  1.00  0.00     0.173 A 
ATOM     64  F   UNL     1       7.497 -13.279  -3.404  1.00  0.00    -0.203 F 
ATOM     65  C   UNL     1       9.516 -14.470  -3.624  1.00  0.00     0.198 A 
ATOM     66  C   UNL     1      11.616 -13.321  -3.419  1.00  0.00     0.198 A 
ATOM     67  F   UNL     1      11.655 -11.013  -2.963  1.00  0.00    -0.203 F 
ATOM     68  F   UNL     1       8.827 -15.604  -3.806  1.00  0.00    -0.200 F 
ATOM     69  C   UNL     1      10.903 -14.491  -3.635  1.00  0.00     0.200 A 
ATOM     70  F   UNL     1      12.956 -13.338  -3.443  1.00  0.00    -0.200 F 
ATOM     71  F   UNL     1      11.554 -15.642  -3.849  1.00  0.00    -0.200 F 
ENDBRANCH  38  61
ENDBRANCH  12  13
ENDBRANCH   5   7
ENDBRANCH   4   5
ENDBRANCH   3   4
ENDBRANCH   2   3
ENDBRANCH   1   2
BRANCH   1  72
ATOM     72  C   UNL     1       2.689  -0.138   2.161  1.00  0.00     0.202 C 
BRANCH  72  73
ATOM     73  C   UNL     1       2.727  -0.673   3.593  1.00  0.00     0.261 C 
BRANCH  73  74
ATOM     74  O   UNL     1       3.235   0.374   4.428  1.00  0.00    -0.460 OA
BRANCH  74  75
ATOM     75  C   UNL     1       4.583   0.403   4.561  1.00  0.00     0.341 C 
ATOM     76  O   UNL     1       5.373  -0.502   4.338  1.00  0.00    -0.246 OA
BRANCH  75  77
ATOM     77  C   UNL     1       4.988   1.808   4.755  1.00  0.00     0.101 A 
ATOM     78  C   UNL     1       6.003   2.309   3.925  1.00  0.00     0.022 A 
ATOM     79  C   UNL     1       4.373   2.647   5.681  1.00  0.00     0.132 A 
ATOM     80  C   UNL     1       6.388   3.649   4.008  1.00  0.00     0.028 A 
ATOM     81  C   UNL     1       4.808   3.963   5.816  1.00  0.00     0.074 A 
ATOM     82  C   UNL     1       5.823   4.470   4.989  1.00  0.00     0.055 A 
BRANCH  79  83
ATOM     83  O   UNL     1       3.368   2.188   6.484  1.00  0.00    -0.507 OA
ATOM     84  H   UNL     1       3.069   1.304   6.401  1.00  0.00     0.293 HD
ENDBRANCH  79  83
BRANCH  82  85
ATOM     85  N   UNL     1       6.342   5.757   5.238  1.00  0.00    -0.250 N 
ATOM     86  C   UNL     1       6.691   6.164   6.503  1.00  0.00     0.234 C 
ATOM     87  C   UNL     1       6.671   6.688   4.281  1.00  0.00     0.241 C 
ATOM     88  O   UNL     1       6.533   5.571   7.561  1.00  0.00    -0.274 OA
ATOM     89  C   UNL     1       7.483   7.423   6.388  1.00  0.00     0.119 C 
ATOM     90  C   UNL     1       7.150   7.939   4.993  1.00  0.00     0.121 C 
ATOM     91  O   UNL     1       6.559   6.578   3.066  1.00  0.00    -0.273 OA
BRANCH  90  92
ATOM     92  C   UNL     1       6.149   9.063   5.054  1.00  0.00    -0.010 A 
ATOM     93  C   UNL     1       4.857   9.114   4.568  1.00  0.00     0.088 A 
ATOM     94  C   UNL     1       6.389  10.326   5.701  1.00  0.00     0.003 A 
ATOM     95  N   UNL     1       4.315  10.331   4.899  1.00  0.00    -0.361 N 
ATOM     96  C   UNL     1       5.222  11.081   5.609  1.00  0.00     0.046 A 
ATOM     97  C   UNL     1       7.495  10.878   6.384  1.00  0.00     0.010 A 
ATOM     98  H   UNL     1       3.405  10.624   4.663  1.00  0.00     0.166 HD
ATOM     99  C   UNL     1       5.102  12.358   6.172  1.00  0.00     0.026 A 
ATOM    100  C   UNL     1       7.389  12.147   6.961  1.00  0.00     0.001 A 
ATOM    101  C   UNL     1       6.208  12.874   6.856  1.00  0.00     0.002 A 
ENDBRANCH  90  92
ENDBRANCH  82  85
ENDBRANCH  75  77
ENDBRANCH  74  75
ENDBRANCH  73  74
ENDBRANCH  72  73
ENDBRANCH   1  72
TORSDOF 17
