REMARK SMILES C[NH2+][C@@]1(C(=O)OCCOCCOC(=O)c2ccc(-c3c4nc(c(-c5c(F)c(F)c(F)c(F)c5F)c5ccc([nH]5)c(-c5c(F)c(F)c(F)c(F)c5F)c5nc(c(-c6c(F)c(F)c(F)c(F)c6F)c6ccc3[nH]6)C=C5)C=C4)cc2)CC[C@H](SC2CCOCC2)C1
REMARK SMILES IDX 9 1 8 2 7 3 6 4 4 5 5 6 3 7 78 8 88 9 79 10 80 11 2 12 1 13
REMARK SMILES IDX 81 16 82 17 83 18 87 19 84 20 86 21 85 22 10 23 11 24 12 25
REMARK SMILES IDX 13 26 14 27 15 28 16 29 77 30 17 31 76 32 18 33 19 34 20 35
REMARK SMILES IDX 70 36 21 37 75 38 69 39 71 40 22 41 74 42 68 43 67 44 23 46
REMARK SMILES IDX 55 47 35 48 54 49 36 50 39 51 53 52 72 53 37 54 38 55 52 57
REMARK SMILES IDX 73 58 40 59 24 60 25 61 33 62 26 63 27 64 31 65 34 66 28 67
REMARK SMILES IDX 29 68 32 69 30 70 56 71 57 72 65 73 58 74 59 75 63 76 66 77
REMARK SMILES IDX 60 78 61 79 64 80 62 81 41 82 42 83 50 84 43 85 44 86 48 87
REMARK SMILES IDX 51 88 45 89 46 90 49 91 47 92
REMARK H PARENT 2 14 2 15 71 45 39 56
REMARK Flexibility Score: inf
ROOT
ATOM      1  O   UNL     1      -0.938  -2.609   3.562  1.00  0.00    -0.374 OA
ENDROOT
BRANCH   1   2
ATOM      2  C   UNL     1      -2.208  -1.957   3.594  1.00  0.00     0.202 C 
BRANCH   2   3
ATOM      3  C   UNL     1      -2.349  -0.716   2.713  1.00  0.00     0.261 C 
BRANCH   3   4
ATOM      4  O   UNL     1      -2.136  -1.060   1.339  1.00  0.00    -0.459 OA
BRANCH   4   5
ATOM      5  C   UNL     1      -1.420  -0.171   0.609  1.00  0.00     0.368 C 
ATOM      6  O   UNL     1      -1.134   0.959   0.997  1.00  0.00    -0.245 OA
BRANCH   5   7
ATOM      7  C   UNL     1      -1.004  -0.734  -0.788  1.00  0.00     0.195 C 
ATOM      8  C   UNL     1      -1.533   0.233  -1.855  1.00  0.00     0.082 C 
ATOM      9  C   UNL     1      -1.714  -2.040  -1.215  1.00  0.00     0.095 C 
ATOM     10  C   UNL     1      -3.025  -0.106  -1.899  1.00  0.00     0.022 C 
ATOM     11  C   UNL     1      -3.096  -1.631  -1.767  1.00  0.00     0.054 C 
BRANCH   7  12
ATOM     12  N   UNL     1       0.461  -0.984  -0.856  1.00  0.00    -0.335 N 
ATOM     13  C   UNL     1       1.300   0.113  -0.387  1.00  0.00     0.331 C 
ATOM     14  H   UNL     1       0.667  -1.805  -0.288  1.00  0.00     0.347 HD
ATOM     15  H   UNL     1       0.682  -1.107  -1.845  1.00  0.00     0.347 HD
ENDBRANCH   7  12
BRANCH  11  16
ATOM     16  S   UNL     1      -4.396  -2.291  -0.656  1.00  0.00    -0.155 SA
BRANCH  16  17
ATOM     17  C   UNL     1      -5.977  -1.829  -1.452  1.00  0.00     0.051 C 
ATOM     18  C   UNL     1      -6.107  -2.243  -2.916  1.00  0.00     0.043 C 
ATOM     19  C   UNL     1      -6.323  -0.356  -1.254  1.00  0.00     0.043 C 
ATOM     20  C   UNL     1      -7.482  -1.833  -3.433  1.00  0.00     0.161 C 
ATOM     21  C   UNL     1      -7.686  -0.065  -1.864  1.00  0.00     0.161 C 
ATOM     22  O   UNL     1      -7.697  -0.434  -3.242  1.00  0.00    -0.381 OA
ENDBRANCH  16  17
ENDBRANCH  11  16
ENDBRANCH   5   7
ENDBRANCH   4   5
ENDBRANCH   3   4
ENDBRANCH   2   3
ENDBRANCH   1   2
BRANCH   1  23
ATOM     23  C   UNL     1      -0.601  -3.341   2.380  1.00  0.00     0.202 C 
BRANCH  23  24
ATOM     24  C   UNL     1      -1.334  -4.674   2.170  1.00  0.00     0.261 C 
BRANCH  24  25
ATOM     25  O   UNL     1      -2.753  -4.515   1.988  1.00  0.00    -0.460 OA
BRANCH  25  26
ATOM     26  C   UNL     1      -3.521  -5.097   2.940  1.00  0.00     0.338 C 
ATOM     27  O   UNL     1      -3.144  -5.801   3.871  1.00  0.00    -0.246 OA
BRANCH  26  28
ATOM     28  C   UNL     1      -4.920  -4.650   2.832  1.00  0.00     0.060 A 
ATOM     29  C   UNL     1      -5.488  -4.028   3.952  1.00  0.00     0.016 A 
ATOM     30  C   UNL     1      -5.701  -4.935   1.712  1.00  0.00     0.016 A 
ATOM     31  C   UNL     1      -6.850  -3.731   3.975  1.00  0.00     0.010 A 
ATOM     32  C   UNL     1      -7.072  -4.644   1.737  1.00  0.00     0.010 A 
ATOM     33  C   UNL     1      -7.658  -4.076   2.882  1.00  0.00    -0.014 A 
BRANCH  33  34
ATOM     34  C   UNL     1      -9.134  -3.983   3.015  1.00  0.00     0.031 A 
ATOM     35  C   UNL     1      -9.914  -5.221   3.365  1.00  0.00     0.074 A 
ATOM     36  C   UNL     1      -9.769  -2.806   2.877  1.00  0.00     0.049 A 
ATOM     37  N   UNL     1     -11.204  -5.373   3.530  1.00  0.00    -0.248 NA
ATOM     38  C   UNL     1      -9.134  -6.454   3.556  1.00  0.00     0.031 C 
ATOM     39  C   UNL     1      -9.124  -1.528   2.584  1.00  0.00     0.029 A 
ATOM     40  N   UNL     1     -11.104  -2.499   2.969  1.00  0.00    -0.354 N 
ATOM     41  C   UNL     1     -11.389  -6.714   3.842  1.00  0.00     0.074 A 
ATOM     42  C   UNL     1     -10.085  -7.340   3.813  1.00  0.00     0.031 C 
ATOM     43  C   UNL     1     -10.067  -0.572   2.516  1.00  0.00     0.029 A 
ATOM     44  C   UNL     1     -11.382  -1.175   2.733  1.00  0.00     0.049 A 
ATOM     45  H   UNL     1     -11.797  -3.164   3.184  1.00  0.00     0.167 HD
ATOM     46  C   UNL     1     -12.541  -7.364   4.136  1.00  0.00     0.037 A 
ATOM     47  C   UNL     1     -12.564  -0.530   2.684  1.00  0.00     0.037 A 
ATOM     48  C   UNL     1     -13.839  -6.745   4.172  1.00  0.00     0.049 A 
ATOM     49  C   UNL     1     -13.839  -1.290   2.948  1.00  0.00     0.074 A 
ATOM     50  C   UNL     1     -15.062  -7.319   4.476  1.00  0.00     0.029 A 
ATOM     51  N   UNL     1     -14.084  -5.410   3.887  1.00  0.00    -0.354 N 
ATOM     52  N   UNL     1     -14.001  -2.552   3.264  1.00  0.00    -0.248 NA
ATOM     53  C   UNL     1     -15.096  -0.533   2.850  1.00  0.00     0.031 C 
ATOM     54  C   UNL     1     -16.052  -6.341   4.331  1.00  0.00     0.029 A 
ATOM     55  C   UNL     1     -15.441  -5.148   3.983  1.00  0.00     0.049 A 
ATOM     56  H   UNL     1     -13.396  -4.747   3.652  1.00  0.00     0.167 HD
ATOM     57  C   UNL     1     -15.369  -2.733   3.429  1.00  0.00     0.074 A 
ATOM     58  C   UNL     1     -15.992  -1.449   3.190  1.00  0.00     0.031 C 
ATOM     59  C   UNL     1     -16.047  -3.862   3.751  1.00  0.00     0.037 A 
BRANCH  46  60
ATOM     60  C   UNL     1     -12.451  -8.834   4.423  1.00  0.00     0.064 A 
ATOM     61  C   UNL     1     -11.905  -9.319   5.620  1.00  0.00     0.173 A 
ATOM     62  C   UNL     1     -12.950  -9.767   3.502  1.00  0.00     0.173 A 
ATOM     63  F   UNL     1     -11.403  -8.466   6.527  1.00  0.00    -0.203 F 
ATOM     64  C   UNL     1     -11.840 -10.686   5.875  1.00  0.00     0.198 A 
ATOM     65  C   UNL     1     -12.907 -11.132   3.771  1.00  0.00     0.198 A 
ATOM     66  F   UNL     1     -13.486  -9.354   2.343  1.00  0.00    -0.203 F 
ATOM     67  F   UNL     1     -11.277 -11.130   7.007  1.00  0.00    -0.200 F 
ATOM     68  C   UNL     1     -12.347 -11.591   4.954  1.00  0.00     0.200 A 
ATOM     69  F   UNL     1     -13.407 -12.005   2.885  1.00  0.00    -0.200 F 
ATOM     70  F   UNL     1     -12.290 -12.907   5.203  1.00  0.00    -0.200 F 
ENDBRANCH  46  60
BRANCH  47  71
ATOM     71  C   UNL     1     -12.604   0.920   2.360  1.00  0.00     0.064 A 
ATOM     72  C   UNL     1     -12.984   1.868   3.320  1.00  0.00     0.173 A 
ATOM     73  C   UNL     1     -12.285   1.383   1.075  1.00  0.00     0.173 A 
ATOM     74  F   UNL     1     -13.324   1.470   4.555  1.00  0.00    -0.203 F 
ATOM     75  C   UNL     1     -13.060   3.222   3.002  1.00  0.00     0.198 A 
ATOM     76  C   UNL     1     -12.336   2.740   0.766  1.00  0.00     0.198 A 
ATOM     77  F   UNL     1     -11.915   0.516   0.121  1.00  0.00    -0.203 F 
ATOM     78  F   UNL     1     -13.471   4.103   3.925  1.00  0.00    -0.200 F 
ATOM     79  C   UNL     1     -12.731   3.658   1.727  1.00  0.00     0.200 A 
ATOM     80  F   UNL     1     -12.006   3.158  -0.464  1.00  0.00    -0.200 F 
ATOM     81  F   UNL     1     -12.803   4.961   1.422  1.00  0.00    -0.200 F 
ENDBRANCH  47  71
BRANCH  59  82
ATOM     82  C   UNL     1     -17.538  -3.757   3.896  1.00  0.00     0.064 A 
ATOM     83  C   UNL     1     -18.377  -3.609   2.782  1.00  0.00     0.173 A 
ATOM     84  C   UNL     1     -18.137  -3.853   5.161  1.00  0.00     0.173 A 
ATOM     85  F   UNL     1     -17.852  -3.499   1.552  1.00  0.00    -0.203 F 
ATOM     86  C   UNL     1     -19.760  -3.538   2.932  1.00  0.00     0.198 A 
ATOM     87  C   UNL     1     -19.521  -3.809   5.305  1.00  0.00     0.198 A 
ATOM     88  F   UNL     1     -17.380  -4.003   6.258  1.00  0.00    -0.203 F 
ATOM     89  F   UNL     1     -20.540  -3.354   1.857  1.00  0.00    -0.200 F 
ATOM     90  C   UNL     1     -20.331  -3.646   4.191  1.00  0.00     0.200 A 
ATOM     91  F   UNL     1     -20.072  -3.926   6.521  1.00  0.00    -0.200 F 
ATOM     92  F   UNL     1     -21.662  -3.586   4.332  1.00  0.00    -0.200 F 
ENDBRANCH  59  82
ENDBRANCH  33  34
ENDBRANCH  26  28
ENDBRANCH  25  26
ENDBRANCH  24  25
ENDBRANCH  23  24
ENDBRANCH   1  23
TORSDOF 17
