REMARK SMILES CC(C)(C)C(=O)C[N@@H+]1CCCC[C@H]1C(=O)OCCOCCOC(=O)c1ccc(-c2c3nc(c(-c4c(F)c(F)c(F)c(F)c4F)c4ccc([nH]4)c(-c4c(F)c(F)c(F)c(F)c4F)c4nc(c(-c5c(F)c(F)c(F)c(F)c5F)c5ccc2[nH]5)C=C4)C=C3)cc1
REMARK SMILES IDX 18 1 17 2 16 3 14 4 15 5 13 6 8 7 9 8 10 10 12 11 11 12 7 13
REMARK SMILES IDX 5 14 6 15 2 16 1 17 3 18 4 19 19 20 20 21 21 22 22 23 23 24
REMARK SMILES IDX 24 25 25 26 26 27 87 28 27 29 86 30 28 31 29 32 30 33 80 34
REMARK SMILES IDX 31 35 85 36 79 37 81 38 32 39 84 40 78 41 77 42 33 44 65 45
REMARK SMILES IDX 45 46 64 47 46 48 49 49 63 50 82 51 47 52 48 53 62 55 83 56
REMARK SMILES IDX 50 57 34 58 35 59 43 60 36 61 37 62 41 63 44 64 38 65 39 66
REMARK SMILES IDX 42 67 40 68 66 69 67 70 75 71 68 72 69 73 73 74 76 75 70 76
REMARK SMILES IDX 71 77 74 78 72 79 51 80 52 81 60 82 53 83 54 84 58 85 61 86
REMARK SMILES IDX 55 87 56 88 59 89 57 90
REMARK H PARENT 8 9 81 43 49 54
REMARK Flexibility Score: inf
ROOT
ATOM      1  C   UNL     1      -0.348   3.186  -0.298  1.00  0.00     0.202 C 
ENDROOT
BRANCH   1   2
ATOM      2  C   UNL     1      -1.174   2.909   0.979  1.00  0.00     0.261 C 
BRANCH   2   3
ATOM      3  O   UNL     1      -0.391   2.850   2.168  1.00  0.00    -0.459 OA
BRANCH   3   4
ATOM      4  C   UNL     1      -0.913   2.192   3.239  1.00  0.00     0.365 C 
ATOM      5  O   UNL     1      -2.053   1.748   3.300  1.00  0.00    -0.245 OA
BRANCH   4   6
ATOM      6  C   UNL     1       0.175   1.977   4.320  1.00  0.00     0.295 C 
ATOM      7  N   UNL     1       1.184   1.050   3.764  1.00  0.00    -0.317 N 
ATOM      8  C   UNL     1       2.574   1.168   4.202  1.00  0.00     0.263 C 
ATOM      9  H   UNL     1       1.252   1.405   2.810  1.00  0.00     0.349 HD
ATOM     10  C   UNL     1       2.930   2.391   5.042  1.00  0.00     0.062 C 
ATOM     11  C   UNL     1       0.662   3.360   4.808  1.00  0.00     0.078 C 
ATOM     12  C   UNL     1       2.149   3.614   4.613  1.00  0.00     0.013 C 
BRANCH   7  13
ATOM     13  C   UNL     1       0.718  -0.351   3.727  1.00  0.00     0.340 C 
BRANCH  13  14
ATOM     14  C   UNL     1       1.373  -1.147   2.587  1.00  0.00     0.192 C 
ATOM     15  O   UNL     1       2.267  -1.960   2.851  1.00  0.00    -0.293 OA
BRANCH  14  16
ATOM     16  C   UNL     1       0.929  -0.897   1.123  1.00  0.00     0.026 C 
ATOM     17  C   UNL     1       1.478  -2.005   0.205  1.00  0.00     0.019 C 
ATOM     18  C   UNL     1       1.527   0.423   0.634  1.00  0.00     0.019 C 
ATOM     19  C   UNL     1      -0.599  -0.903   0.986  1.00  0.00     0.019 C 
ENDBRANCH  14  16
ENDBRANCH  13  14
ENDBRANCH   7  13
ENDBRANCH   4   6
ENDBRANCH   3   4
ENDBRANCH   2   3
ENDBRANCH   1   2
BRANCH   1  20
ATOM     20  O   UNL     1       1.006   3.626  -0.299  1.00  0.00    -0.374 OA
BRANCH  20  21
ATOM     21  C   UNL     1       1.551   4.347   0.791  1.00  0.00     0.202 C 
BRANCH  21  22
ATOM     22  C   UNL     1       1.047   5.770   1.041  1.00  0.00     0.261 C 
BRANCH  22  23
ATOM     23  O   UNL     1      -0.368   5.906   0.872  1.00  0.00    -0.460 OA
BRANCH  23  24
ATOM     24  C   UNL     1      -0.726   6.493  -0.298  1.00  0.00     0.338 C 
ATOM     25  O   UNL     1      -0.002   6.983  -1.140  1.00  0.00    -0.246 OA
BRANCH  24  26
ATOM     26  C   UNL     1      -2.174   6.306  -0.506  1.00  0.00     0.060 A 
ATOM     27  C   UNL     1      -2.579   5.808  -1.750  1.00  0.00     0.016 A 
ATOM     28  C   UNL     1      -3.112   6.642   0.473  1.00  0.00     0.016 A 
ATOM     29  C   UNL     1      -3.931   5.679  -2.038  1.00  0.00     0.010 A 
ATOM     30  C   UNL     1      -4.471   6.540   0.173  1.00  0.00     0.010 A 
ATOM     31  C   UNL     1      -4.880   6.096  -1.097  1.00  0.00    -0.014 A 
BRANCH  31  32
ATOM     32  C   UNL     1      -6.274   6.292  -1.544  1.00  0.00     0.031 A 
ATOM     33  C   UNL     1      -6.647   7.634  -2.107  1.00  0.00     0.074 A 
ATOM     34  C   UNL     1      -7.165   5.288  -1.502  1.00  0.00     0.049 A 
ATOM     35  N   UNL     1      -7.793   8.048  -2.582  1.00  0.00    -0.248 NA
ATOM     36  C   UNL     1      -5.577   8.646  -2.144  1.00  0.00     0.031 C 
ATOM     37  C   UNL     1      -6.894   3.938  -1.016  1.00  0.00     0.029 A 
ATOM     38  N   UNL     1      -8.483   5.258  -1.877  1.00  0.00    -0.354 N 
ATOM     39  C   UNL     1      -7.579   9.362  -2.977  1.00  0.00     0.074 A 
ATOM     40  C   UNL     1      -6.206   9.688  -2.665  1.00  0.00     0.031 C 
ATOM     41  C   UNL     1      -8.020   3.209  -1.110  1.00  0.00     0.029 A 
ATOM     42  C   UNL     1      -9.091   4.050  -1.642  1.00  0.00     0.049 A 
ATOM     43  H   UNL     1      -8.949   6.028  -2.275  1.00  0.00     0.167 HD
ATOM     44  C   UNL     1      -8.452  10.218  -3.556  1.00  0.00     0.037 A 
ATOM     45  C   UNL     1     -10.373   3.681  -1.826  1.00  0.00     0.037 A 
ATOM     46  C   UNL     1      -9.820   9.892  -3.850  1.00  0.00     0.049 A 
ATOM     47  C   UNL     1     -11.344   4.675  -2.410  1.00  0.00     0.074 A 
ATOM     48  C   UNL     1     -10.792  10.683  -4.433  1.00  0.00     0.029 A 
ATOM     49  N   UNL     1     -10.411   8.668  -3.568  1.00  0.00    -0.354 N 
ATOM     50  N   UNL     1     -11.132   5.908  -2.804  1.00  0.00    -0.248 NA
ATOM     51  C   UNL     1     -12.733   4.224  -2.579  1.00  0.00     0.031 C 
ATOM     52  C   UNL     1     -11.984   9.952  -4.467  1.00  0.00     0.029 A 
ATOM     53  C   UNL     1     -11.742   8.690  -3.946  1.00  0.00     0.049 A 
ATOM     54  H   UNL     1      -9.951   7.899  -3.161  1.00  0.00     0.167 HD
ATOM     55  C   UNL     1     -12.348   6.372  -3.287  1.00  0.00     0.074 A 
ATOM     56  C   UNL     1     -13.293   5.283  -3.149  1.00  0.00     0.031 C 
ATOM     57  C   UNL     1     -12.658   7.588  -3.800  1.00  0.00     0.037 A 
BRANCH  44  58
ATOM     58  C   UNL     1      -7.954  11.595  -3.875  1.00  0.00     0.064 A 
ATOM     59  C   UNL     1      -7.065  11.828  -4.935  1.00  0.00     0.173 A 
ATOM     60  C   UNL     1      -8.374  12.694  -3.114  1.00  0.00     0.173 A 
ATOM     61  F   UNL     1      -6.616  10.805  -5.677  1.00  0.00    -0.203 F 
ATOM     62  C   UNL     1      -6.599  13.112  -5.207  1.00  0.00     0.198 A 
ATOM     63  C   UNL     1      -7.925  13.979  -3.404  1.00  0.00     0.198 A 
ATOM     64  F   UNL     1      -9.219  12.522  -2.086  1.00  0.00    -0.203 F 
ATOM     65  F   UNL     1      -5.715  13.306  -6.196  1.00  0.00    -0.200 F 
ATOM     66  C   UNL     1      -7.034  14.186  -4.446  1.00  0.00     0.200 A 
ATOM     67  F   UNL     1      -8.349  15.018  -2.670  1.00  0.00    -0.200 F 
ATOM     68  F   UNL     1      -6.585  15.421  -4.710  1.00  0.00    -0.200 F 
ENDBRANCH  44  58
BRANCH  45  69
ATOM     69  C   UNL     1     -10.814   2.316  -1.444  1.00  0.00     0.064 A 
ATOM     70  C   UNL     1     -11.178   1.372  -2.413  1.00  0.00     0.173 A 
ATOM     71  C   UNL     1     -10.892   1.931  -0.097  1.00  0.00     0.173 A 
ATOM     72  F   UNL     1     -11.145   1.701  -3.713  1.00  0.00    -0.203 F 
ATOM     73  C   UNL     1     -11.616   0.099  -2.050  1.00  0.00     0.198 A 
ATOM     74  C   UNL     1     -11.306   0.651   0.264  1.00  0.00     0.198 A 
ATOM     75  F   UNL     1     -10.558   2.799   0.869  1.00  0.00    -0.203 F 
ATOM     76  F   UNL     1     -11.997  -0.771  -2.995  1.00  0.00    -0.200 F 
ATOM     77  C   UNL     1     -11.674  -0.262  -0.712  1.00  0.00     0.200 A 
ATOM     78  F   UNL     1     -11.352   0.304   1.558  1.00  0.00    -0.200 F 
ATOM     79  F   UNL     1     -12.092  -1.486  -0.364  1.00  0.00    -0.200 F 
ENDBRANCH  45  69
BRANCH  57  80
ATOM     80  C   UNL     1     -14.066   7.796  -4.271  1.00  0.00     0.064 A 
ATOM     81  C   UNL     1     -15.125   7.960  -3.368  1.00  0.00     0.173 A 
ATOM     82  C   UNL     1     -14.349   7.885  -5.643  1.00  0.00     0.173 A 
ATOM     83  F   UNL     1     -14.905   7.870  -2.047  1.00  0.00    -0.203 F 
ATOM     84  C   UNL     1     -16.422   8.185  -3.821  1.00  0.00     0.198 A 
ATOM     85  C   UNL     1     -15.642   8.136  -6.092  1.00  0.00     0.198 A 
ATOM     86  F   UNL     1     -13.367   7.743  -6.546  1.00  0.00    -0.203 F 
ATOM     87  F   UNL     1     -17.426   8.300  -2.942  1.00  0.00    -0.200 F 
ATOM     88  C   UNL     1     -16.677   8.280  -5.181  1.00  0.00     0.200 A 
ATOM     89  F   UNL     1     -15.885   8.241  -7.405  1.00  0.00    -0.200 F 
ATOM     90  F   UNL     1     -17.925   8.506  -5.615  1.00  0.00    -0.200 F 
ENDBRANCH  57  80
ENDBRANCH  31  32
ENDBRANCH  24  26
ENDBRANCH  23  24
ENDBRANCH  22  23
ENDBRANCH  21  22
ENDBRANCH  20  21
ENDBRANCH   1  20
TORSDOF 17
