REMARK SMILES CCOC(=O)c1cc(C[NH2+]CC(=O)OCCOCCOC(=O)c2ccc(-c3c4nc(c(-c5c(F)c(F)c(F)c(F)c5F)c5ccc([nH]5)c(-c5c(F)c(F)c(F)c(F)c5F)c5nc(c(-c6c(F)c(F)c(F)c(F)c6F)c6ccc3[nH]6)C=C5)C=C4)cc2)c(C)o1
REMARK SMILES IDX 15 1 14 2 12 3 13 4 11 5 10 6 9 9 8 10 6 11 7 12 88 13 86 14
REMARK SMILES IDX 87 15 4 16 5 17 3 18 2 19 1 20 16 21 17 22 18 23 19 24 20 25
REMARK SMILES IDX 21 26 22 27 23 28 24 29 85 30 25 31 84 32 26 33 27 34 28 35
REMARK SMILES IDX 78 36 29 37 83 38 77 39 79 40 30 41 82 42 76 43 75 44 31 46
REMARK SMILES IDX 63 47 43 48 62 49 44 50 47 51 61 52 80 53 45 54 46 55 60 57
REMARK SMILES IDX 81 58 48 59 32 60 33 61 41 62 34 63 35 64 39 65 42 66 36 67
REMARK SMILES IDX 37 68 40 69 38 70 64 71 65 72 73 73 66 74 67 75 71 76 74 77
REMARK SMILES IDX 68 78 69 79 72 80 70 81 49 82 50 83 58 84 51 85 52 86 56 87
REMARK SMILES IDX 59 88 53 89 54 90 57 91 55 92
REMARK H PARENT 10 7 10 8 79 45 47 56
REMARK Flexibility Score: inf
ROOT
ATOM      1  C   UNL     1       3.235   1.537  -5.915  1.00  0.00     0.261 C 
ENDROOT
BRANCH   1   2
ATOM      2  O   UNL     1       4.208   1.484  -4.852  1.00  0.00    -0.459 OA
BRANCH   2   3
ATOM      3  C   UNL     1       5.286   2.304  -4.979  1.00  0.00     0.361 C 
ATOM      4  O   UNL     1       5.514   3.004  -5.958  1.00  0.00    -0.245 OA
BRANCH   3   5
ATOM      5  C   UNL     1       6.226   2.230  -3.779  1.00  0.00     0.385 C 
BRANCH   5   6
ATOM      6  N   UNL     1       5.616   2.433  -2.452  1.00  0.00    -0.333 N 
ATOM      7  H   UNL     1       6.360   2.629  -1.783  1.00  0.00     0.347 HD
ATOM      8  H   UNL     1       4.959   3.208  -2.544  1.00  0.00     0.347 HD
BRANCH   6   9
ATOM      9  C   UNL     1       4.859   1.292  -1.974  1.00  0.00     0.301 C 
BRANCH   9  10
ATOM     10  C   UNL     1       4.659   1.428  -0.502  1.00  0.00     0.048 A 
ATOM     11  C   UNL     1       3.657   1.347   1.519  1.00  0.00     0.212 A 
ATOM     12  C   UNL     1       3.411   1.537   0.170  1.00  0.00     0.068 A 
ATOM     13  O   UNL     1       5.006   1.319   1.726  1.00  0.00    -0.454 OA
ATOM     14  C   UNL     1       5.607   1.367   0.505  1.00  0.00     0.110 A 
ATOM     15  C   UNL     1       7.081   1.274   0.515  1.00  0.00     0.088 C 
BRANCH  11  16
ATOM     16  C   UNL     1       2.767   1.029   2.608  1.00  0.00     0.374 C 
ATOM     17  O   UNL     1       3.074   0.777   3.773  1.00  0.00    -0.242 OA
BRANCH  16  18
ATOM     18  O   UNL     1       1.506   0.866   2.112  1.00  0.00    -0.460 OA
BRANCH  18  19
ATOM     19  C   UNL     1       1.024  -0.479   2.233  1.00  0.00     0.230 C 
ATOM     20  C   UNL     1       1.606  -1.315   1.101  1.00  0.00     0.049 C 
ENDBRANCH  18  19
ENDBRANCH  16  18
ENDBRANCH  11  16
ENDBRANCH   9  10
ENDBRANCH   6   9
ENDBRANCH   5   6
ENDBRANCH   3   5
ENDBRANCH   2   3
ENDBRANCH   1   2
BRANCH   1  21
ATOM     21  C   UNL     1       1.933   2.174  -5.427  1.00  0.00     0.202 C 
BRANCH  21  22
ATOM     22  O   UNL     1       1.981   3.585  -5.215  1.00  0.00    -0.374 OA
BRANCH  22  23
ATOM     23  C   UNL     1       2.506   4.022  -3.964  1.00  0.00     0.202 C 
BRANCH  23  24
ATOM     24  C   UNL     1       1.517   4.053  -2.792  1.00  0.00     0.261 C 
BRANCH  24  25
ATOM     25  O   UNL     1       0.989   2.752  -2.484  1.00  0.00    -0.460 OA
BRANCH  25  26
ATOM     26  C   UNL     1      -0.228   2.486  -3.022  1.00  0.00     0.338 C 
ATOM     27  O   UNL     1      -0.931   3.234  -3.679  1.00  0.00    -0.246 OA
BRANCH  26  28
ATOM     28  C   UNL     1      -0.532   1.055  -2.825  1.00  0.00     0.060 A 
ATOM     29  C   UNL     1      -0.977   0.297  -3.916  1.00  0.00     0.016 A 
ATOM     30  C   UNL     1      -0.408   0.470  -1.569  1.00  0.00     0.016 A 
ATOM     31  C   UNL     1      -1.332  -1.046  -3.742  1.00  0.00     0.010 A 
ATOM     32  C   UNL     1      -0.743  -0.875  -1.408  1.00  0.00     0.010 A 
ATOM     33  C   UNL     1      -1.242  -1.640  -2.476  1.00  0.00    -0.014 A 
BRANCH  33  34
ATOM     34  C   UNL     1      -1.786  -3.001  -2.202  1.00  0.00     0.031 A 
ATOM     35  C   UNL     1      -2.937  -3.150  -1.236  1.00  0.00     0.074 A 
ATOM     36  C   UNL     1      -1.241  -4.104  -2.750  1.00  0.00     0.049 A 
ATOM     37  N   UNL     1      -3.504  -4.236  -0.770  1.00  0.00    -0.248 NA
ATOM     38  C   UNL     1      -3.489  -1.905  -0.678  1.00  0.00     0.031 C 
ATOM     39  C   UNL     1      -0.096  -4.125  -3.659  1.00  0.00     0.029 A 
ATOM     40  N   UNL     1      -1.577  -5.429  -2.607  1.00  0.00    -0.354 N 
ATOM     41  C   UNL     1      -4.446  -3.801   0.156  1.00  0.00     0.074 A 
ATOM     42  C   UNL     1      -4.311  -2.365   0.251  1.00  0.00     0.031 C 
ATOM     43  C   UNL     1       0.159  -5.397  -4.013  1.00  0.00     0.029 A 
ATOM     44  C   UNL     1      -0.787  -6.284  -3.336  1.00  0.00     0.049 A 
ATOM     45  H   UNL     1      -2.317  -5.737  -2.035  1.00  0.00     0.167 HD
ATOM     46  C   UNL     1      -5.373  -4.519   0.835  1.00  0.00     0.037 A 
ATOM     47  C   UNL     1      -0.826  -7.627  -3.449  1.00  0.00     0.037 A 
ATOM     48  C   UNL     1      -5.552  -5.939   0.699  1.00  0.00     0.049 A 
ATOM     49  C   UNL     1      -1.875  -8.410  -2.699  1.00  0.00     0.074 A 
ATOM     50  C   UNL     1      -6.513  -6.748   1.281  1.00  0.00     0.029 A 
ATOM     51  N   UNL     1      -4.755  -6.763  -0.081  1.00  0.00    -0.354 N 
ATOM     52  N   UNL     1      -2.810  -7.980  -1.888  1.00  0.00    -0.248 NA
ATOM     53  C   UNL     1      -1.879  -9.868  -2.895  1.00  0.00     0.031 C 
ATOM     54  C   UNL     1      -6.270  -8.068   0.888  1.00  0.00     0.029 A 
ATOM     55  C   UNL     1      -5.194  -8.074   0.016  1.00  0.00     0.049 A 
ATOM     56  H   UNL     1      -3.990  -6.462  -0.623  1.00  0.00     0.167 HD
ATOM     57  C   UNL     1      -3.537  -9.104  -1.511  1.00  0.00     0.074 A 
ATOM     58  C   UNL     1      -2.939 -10.235  -2.189  1.00  0.00     0.031 C 
ATOM     59  C   UNL     1      -4.606  -9.190  -0.681  1.00  0.00     0.037 A 
BRANCH  46  60
ATOM     60  C   UNL     1      -6.277  -3.767   1.773  1.00  0.00     0.064 A 
ATOM     61  C   UNL     1      -7.209  -2.826   1.305  1.00  0.00     0.173 A 
ATOM     62  C   UNL     1      -6.214  -3.989   3.157  1.00  0.00     0.173 A 
ATOM     63  F   UNL     1      -7.306  -2.568  -0.008  1.00  0.00    -0.203 F 
ATOM     64  C   UNL     1      -8.000  -2.097   2.188  1.00  0.00     0.198 A 
ATOM     65  C   UNL     1      -7.038  -3.288   4.035  1.00  0.00     0.198 A 
ATOM     66  F   UNL     1      -5.351  -4.883   3.662  1.00  0.00    -0.203 F 
ATOM     67  F   UNL     1      -8.821  -1.147   1.719  1.00  0.00    -0.200 F 
ATOM     68  C   UNL     1      -7.919  -2.332   3.551  1.00  0.00     0.200 A 
ATOM     69  F   UNL     1      -6.972  -3.530   5.351  1.00  0.00    -0.200 F 
ATOM     70  F   UNL     1      -8.681  -1.629   4.400  1.00  0.00    -0.200 F 
ENDBRANCH  46  60
BRANCH  47  71
ATOM     71  C   UNL     1       0.123  -8.324  -4.358  1.00  0.00     0.064 A 
ATOM     72  C   UNL     1      -0.332  -8.916  -5.546  1.00  0.00     0.173 A 
ATOM     73  C   UNL     1       1.489  -8.428  -4.061  1.00  0.00     0.173 A 
ATOM     74  F   UNL     1      -1.634  -8.864  -5.862  1.00  0.00    -0.203 F 
ATOM     75  C   UNL     1       0.539  -9.603  -6.390  1.00  0.00     0.198 A 
ATOM     76  C   UNL     1       2.364  -9.091  -4.920  1.00  0.00     0.198 A 
ATOM     77  F   UNL     1       1.976  -7.877  -2.939  1.00  0.00    -0.203 F 
ATOM     78  F   UNL     1       0.067 -10.199  -7.494  1.00  0.00    -0.200 F 
ATOM     79  C   UNL     1       1.887  -9.685  -6.079  1.00  0.00     0.200 A 
ATOM     80  F   UNL     1       3.669  -9.157  -4.624  1.00  0.00    -0.200 F 
ATOM     81  F   UNL     1       2.725 -10.341  -6.893  1.00  0.00    -0.200 F 
ENDBRANCH  47  71
BRANCH  59  82
ATOM     82  C   UNL     1      -5.244 -10.539  -0.498  1.00  0.00     0.064 A 
ATOM     83  C   UNL     1      -4.614 -11.568   0.216  1.00  0.00     0.173 A 
ATOM     84  C   UNL     1      -6.530 -10.785  -1.004  1.00  0.00     0.173 A 
ATOM     85  F   UNL     1      -3.379 -11.389   0.710  1.00  0.00    -0.203 F 
ATOM     86  C   UNL     1      -5.236 -12.801   0.395  1.00  0.00     0.198 A 
ATOM     87  C   UNL     1      -7.163 -12.008  -0.794  1.00  0.00     0.198 A 
ATOM     88  F   UNL     1      -7.183  -9.833  -1.687  1.00  0.00    -0.203 F 
ATOM     89  F   UNL     1      -4.595 -13.786   1.040  1.00  0.00    -0.200 F 
ATOM     90  C   UNL     1      -6.513 -13.017  -0.102  1.00  0.00     0.200 A 
ATOM     91  F   UNL     1      -8.403 -12.207  -1.261  1.00  0.00    -0.200 F 
ATOM     92  F   UNL     1      -7.114 -14.201   0.081  1.00  0.00    -0.200 F 
ENDBRANCH  59  82
ENDBRANCH  33  34
ENDBRANCH  26  28
ENDBRANCH  25  26
ENDBRANCH  24  25
ENDBRANCH  23  24
ENDBRANCH  22  23
ENDBRANCH  21  22
ENDBRANCH   1  21
TORSDOF 20
