REMARK SMILES C[C@H](C[N@H+](C)[C@H]1CC[C@H]([NH3+])CC1)C(=O)OCCOCCOC(=O)c1ccc(-c2c3nc(c(-c4c(F)c(F)c(F)c(F)c4F)c4ccc([nH]4)c(-c4c(F)c(F)c(F)c(F)c4F)c4nc(c(-c5c(F)c(F)c(F)c(F)c5F)c5ccc2[nH]5)C=C4)C=C3)cc1
REMARK SMILES IDX 17 1 16 2 15 3 13 4 14 5 2 6 1 7 3 8 4 9 5 10 6 12 7 13
REMARK SMILES IDX 12 14 8 15 11 16 9 17 10 18 18 22 19 23 20 24 21 25 22 26
REMARK SMILES IDX 23 27 24 28 25 29 86 30 26 31 85 32 27 33 28 34 29 35 79 36
REMARK SMILES IDX 30 37 84 38 78 39 80 40 31 41 83 42 77 43 76 44 32 46 64 47
REMARK SMILES IDX 44 48 63 49 45 50 48 51 62 52 81 53 46 54 47 55 61 57 82 58
REMARK SMILES IDX 49 59 33 60 34 61 42 62 35 63 36 64 40 65 43 66 37 67 38 68
REMARK SMILES IDX 41 69 39 70 65 71 66 72 74 73 67 74 68 75 72 76 75 77 69 78
REMARK SMILES IDX 70 79 73 80 71 81 50 82 51 83 59 84 52 85 53 86 57 87 60 88
REMARK SMILES IDX 54 89 55 90 58 91 56 92
REMARK H PARENT 4 11 10 19 10 20 10 21 80 45 48 56
REMARK Flexibility Score: inf
ROOT
ATOM      1  C   UNL     1      -3.760  -1.538   0.216  1.00  0.00     0.202 C 
ENDROOT
BRANCH   1   2
ATOM      2  C   UNL     1      -3.001  -1.150   1.491  1.00  0.00     0.261 C 
BRANCH   2   3
ATOM      3  O   UNL     1      -1.636  -0.833   1.175  1.00  0.00    -0.463 OA
BRANCH   3   4
ATOM      4  C   UNL     1      -0.750  -0.729   2.196  1.00  0.00     0.314 C 
ATOM      5  O   UNL     1      -1.050  -0.880   3.373  1.00  0.00    -0.252 OA
BRANCH   4   6
ATOM      6  C   UNL     1       0.680  -0.501   1.687  1.00  0.00     0.151 C 
ATOM      7  C   UNL     1       1.582   0.066   2.781  1.00  0.00     0.026 C 
BRANCH   6   8
ATOM      8  C   UNL     1       0.838   0.248   0.338  1.00  0.00     0.277 C 
BRANCH   8   9
ATOM      9  N   UNL     1       0.537   1.676   0.175  1.00  0.00    -0.334 N 
ATOM     10  C   UNL     1       1.613   2.602   0.459  1.00  0.00     0.332 C 
ATOM     11  H   UNL     1       0.488   1.776  -0.839  1.00  0.00     0.348 HD
BRANCH   9  12
ATOM     12  C   UNL     1      -0.801   2.076   0.581  1.00  0.00     0.184 C 
ATOM     13  C   UNL     1      -1.409   3.099  -0.370  1.00  0.00     0.071 C 
ATOM     14  C   UNL     1      -0.983   2.599   2.014  1.00  0.00     0.071 C 
ATOM     15  C   UNL     1      -2.910   3.076  -0.110  1.00  0.00     0.071 C 
ATOM     16  C   UNL     1      -2.464   2.724   2.373  1.00  0.00     0.071 C 
ATOM     17  C   UNL     1      -3.286   3.467   1.320  1.00  0.00     0.181 C 
BRANCH  17  18
ATOM     18  N   UNL     1      -4.708   3.204   1.559  1.00  0.00    -0.355 N 
ATOM     19  H   UNL     1      -4.890   2.205   1.465  1.00  0.00     0.344 HD
ATOM     20  H   UNL     1      -5.268   3.717   0.878  1.00  0.00     0.344 HD
ATOM     21  H   UNL     1      -4.957   3.508   2.501  1.00  0.00     0.344 HD
ENDBRANCH  17  18
ENDBRANCH   9  12
ENDBRANCH   8   9
ENDBRANCH   6   8
ENDBRANCH   4   6
ENDBRANCH   3   4
ENDBRANCH   2   3
ENDBRANCH   1   2
BRANCH   1  22
ATOM     22  O   UNL     1      -3.253  -2.676  -0.479  1.00  0.00    -0.374 OA
BRANCH  22  23
ATOM     23  C   UNL     1      -1.996  -2.533  -1.135  1.00  0.00     0.202 C 
BRANCH  23  24
ATOM     24  C   UNL     1      -1.977  -1.740  -2.452  1.00  0.00     0.261 C 
BRANCH  24  25
ATOM     25  O   UNL     1      -2.442  -0.376  -2.376  1.00  0.00    -0.460 OA
BRANCH  25  26
ATOM     26  C   UNL     1      -3.619  -0.133  -3.007  1.00  0.00     0.338 C 
ATOM     27  O   UNL     1      -4.368  -0.961  -3.510  1.00  0.00    -0.246 OA
BRANCH  26  28
ATOM     28  C   UNL     1      -3.965   1.305  -2.981  1.00  0.00     0.060 A 
ATOM     29  C   UNL     1      -5.207   1.694  -2.457  1.00  0.00     0.016 A 
ATOM     30  C   UNL     1      -3.126   2.264  -3.555  1.00  0.00     0.016 A 
ATOM     31  C   UNL     1      -5.607   3.040  -2.493  1.00  0.00     0.010 A 
ATOM     32  C   UNL     1      -3.531   3.610  -3.597  1.00  0.00     0.010 A 
ATOM     33  C   UNL     1      -4.779   4.013  -3.073  1.00  0.00    -0.014 A 
BRANCH  33  34
ATOM     34  C   UNL     1      -5.252   5.417  -3.267  1.00  0.00     0.031 A 
ATOM     35  C   UNL     1      -5.787   5.803  -4.617  1.00  0.00     0.074 A 
ATOM     36  C   UNL     1      -5.198   6.356  -2.299  1.00  0.00     0.049 A 
ATOM     37  N   UNL     1      -6.219   6.965  -5.035  1.00  0.00    -0.248 NA
ATOM     38  C   UNL     1      -5.861   4.733  -5.624  1.00  0.00     0.031 C 
ATOM     39  C   UNL     1      -4.781   6.132  -0.925  1.00  0.00     0.029 A 
ATOM     40  N   UNL     1      -5.476   7.705  -2.326  1.00  0.00    -0.354 N 
ATOM     41  C   UNL     1      -6.635   6.762  -6.342  1.00  0.00     0.074 A 
ATOM     42  C   UNL     1      -6.358   5.380  -6.668  1.00  0.00     0.031 C 
ATOM     43  C   UNL     1      -4.744   7.294  -0.257  1.00  0.00     0.029 A 
ATOM     44  C   UNL     1      -5.168   8.359  -1.153  1.00  0.00     0.049 A 
ATOM     45  H   UNL     1      -5.860   8.159  -3.111  1.00  0.00     0.167 HD
ATOM     46  C   UNL     1      -7.217   7.644  -7.187  1.00  0.00     0.037 A 
ATOM     47  C   UNL     1      -5.219   9.665  -0.825  1.00  0.00     0.037 A 
ATOM     48  C   UNL     1      -7.484   9.023  -6.875  1.00  0.00     0.049 A 
ATOM     49  C   UNL     1      -5.771  10.645  -1.822  1.00  0.00     0.074 A 
ATOM     50  C   UNL     1      -8.104   9.977  -7.662  1.00  0.00     0.029 A 
ATOM     51  N   UNL     1      -7.128   9.651  -5.691  1.00  0.00    -0.354 N 
ATOM     52  N   UNL     1      -6.234  10.422  -3.027  1.00  0.00    -0.248 NA
ATOM     53  C   UNL     1      -5.837  12.053  -1.406  1.00  0.00     0.031 C 
ATOM     54  C   UNL     1      -8.066  11.198  -6.981  1.00  0.00     0.029 A 
ATOM     55  C   UNL     1      -7.479  10.991  -5.744  1.00  0.00     0.049 A 
ATOM     56  H   UNL     1      -6.692   9.210  -4.926  1.00  0.00     0.167 HD
ATOM     57  C   UNL     1      -6.685  11.648  -3.494  1.00  0.00     0.074 A 
ATOM     58  C   UNL     1      -6.452  12.611  -2.439  1.00  0.00     0.031 C 
ATOM     59  C   UNL     1      -7.247  11.945  -4.690  1.00  0.00     0.037 A 
BRANCH  46  60
ATOM     60  C   UNL     1      -7.599   7.144  -8.547  1.00  0.00     0.064 A 
ATOM     61  C   UNL     1      -8.678   6.267  -8.730  1.00  0.00     0.173 A 
ATOM     62  C   UNL     1      -6.909   7.588  -9.684  1.00  0.00     0.173 A 
ATOM     63  F   UNL     1      -9.358   5.802  -7.672  1.00  0.00    -0.203 F 
ATOM     64  C   UNL     1      -9.043   5.841 -10.004  1.00  0.00     0.198 A 
ATOM     65  C   UNL     1      -7.295   7.182 -10.958  1.00  0.00     0.198 A 
ATOM     66  F   UNL     1      -5.870   8.427  -9.560  1.00  0.00    -0.203 F 
ATOM     67  F   UNL     1     -10.054   4.973 -10.154  1.00  0.00    -0.200 F 
ATOM     68  C   UNL     1      -8.358   6.306 -11.117  1.00  0.00     0.200 A 
ATOM     69  F   UNL     1      -6.639   7.642 -12.032  1.00  0.00    -0.200 F 
ATOM     70  F   UNL     1      -8.720   5.906 -12.343  1.00  0.00    -0.200 F 
ENDBRANCH  46  60
BRANCH  47  71
ATOM     71  C   UNL     1      -4.750  10.131   0.510  1.00  0.00     0.064 A 
ATOM     72  C   UNL     1      -5.644  10.660   1.452  1.00  0.00     0.173 A 
ATOM     73  C   UNL     1      -3.388  10.111   0.847  1.00  0.00     0.173 A 
ATOM     74  F   UNL     1      -6.953  10.723   1.169  1.00  0.00    -0.203 F 
ATOM     75  C   UNL     1      -5.191  11.185   2.662  1.00  0.00     0.198 A 
ATOM     76  C   UNL     1      -2.940  10.610   2.070  1.00  0.00     0.198 A 
ATOM     77  F   UNL     1      -2.489   9.617  -0.016  1.00  0.00    -0.203 F 
ATOM     78  F   UNL     1      -6.061  11.746   3.513  1.00  0.00    -0.200 F 
ATOM     79  C   UNL     1      -3.840  11.158   2.970  1.00  0.00     0.200 A 
ATOM     80  F   UNL     1      -1.633  10.575   2.367  1.00  0.00    -0.200 F 
ATOM     81  F   UNL     1      -3.404  11.676   4.127  1.00  0.00    -0.200 F 
ENDBRANCH  47  71
BRANCH  59  82
ATOM     82  C   UNL     1      -7.679  13.365  -4.916  1.00  0.00     0.064 A 
ATOM     83  C   UNL     1      -6.748  14.402  -5.073  1.00  0.00     0.173 A 
ATOM     84  C   UNL     1      -9.042  13.686  -5.013  1.00  0.00     0.173 A 
ATOM     85  F   UNL     1      -5.434  14.151  -4.972  1.00  0.00    -0.203 F 
ATOM     86  C   UNL     1      -7.166  15.712  -5.290  1.00  0.00     0.198 A 
ATOM     87  C   UNL     1      -9.455  14.990  -5.265  1.00  0.00     0.198 A 
ATOM     88  F   UNL     1      -9.974  12.730  -4.875  1.00  0.00    -0.203 F 
ATOM     89  F   UNL     1      -6.260  16.695  -5.384  1.00  0.00    -0.200 F 
ATOM     90  C   UNL     1      -8.518  16.004  -5.395  1.00  0.00     0.200 A 
ATOM     91  F   UNL     1     -10.761  15.267  -5.382  1.00  0.00    -0.200 F 
ATOM     92  F   UNL     1      -8.918  17.264  -5.615  1.00  0.00    -0.200 F 
ENDBRANCH  59  82
ENDBRANCH  33  34
ENDBRANCH  26  28
ENDBRANCH  25  26
ENDBRANCH  24  25
ENDBRANCH  23  24
ENDBRANCH  22  23
ENDBRANCH   1  22
TORSDOF 18
