REMARK SMILES Cc1ncc(C(=O)OCCOCCOC(=O)c2ccc(-c3c4nc(c(-c5c(F)c(F)c(F)c(F)c5F)c5ccc([nH]5)c(-c5c(F)c(F)c(F)c(F)c5F)c5nc(c(-c6c(F)c(F)c(F)c(F)c6F)c6ccc3[nH]6)C=C5)C=C4)cc2)cc1C#N
REMARK SMILES IDX 12 1 11 2 10 3 9 4 8 5 6 6 7 7 5 8 1 9 2 10 3 11 81 12 4 13
REMARK SMILES IDX 80 14 82 15 83 16 13 17 14 18 15 19 16 20 17 21 18 22 79 23
REMARK SMILES IDX 19 24 78 25 20 26 21 27 22 28 72 29 23 30 77 31 71 32 73 33
REMARK SMILES IDX 24 34 76 35 70 36 69 37 25 39 57 40 37 41 56 42 38 43 41 44
REMARK SMILES IDX 55 45 74 46 39 47 40 48 54 50 75 51 42 52 26 53 27 54 35 55
REMARK SMILES IDX 28 56 29 57 33 58 36 59 30 60 31 61 34 62 32 63 58 64 59 65
REMARK SMILES IDX 67 66 60 67 61 68 65 69 68 70 62 71 63 72 66 73 64 74 43 75
REMARK SMILES IDX 44 76 52 77 45 78 46 79 50 80 53 81 47 82 48 83 51 84 49 85
REMARK H PARENT 73 38 41 49
REMARK Flexibility Score: inf
ROOT
ATOM      1  C   UNL     1      -2.614   2.339   5.532  1.00  0.00     0.202 C 
ENDROOT
BRANCH   1   2
ATOM      2  O   UNL     1      -2.244   2.683   6.866  1.00  0.00    -0.374 OA
BRANCH   2   3
ATOM      3  C   UNL     1      -1.470   3.855   7.083  1.00  0.00     0.202 C 
BRANCH   3   4
ATOM      4  C   UNL     1       0.022   3.836   6.734  1.00  0.00     0.261 C 
BRANCH   4   5
ATOM      5  O   UNL     1       0.270   3.453   5.374  1.00  0.00    -0.460 OA
BRANCH   5   6
ATOM      6  C   UNL     1       0.697   2.174   5.239  1.00  0.00     0.339 C 
ATOM      7  O   UNL     1       0.957   1.390   6.137  1.00  0.00    -0.246 OA
BRANCH   6   8
ATOM      8  C   UNL     1       0.669   1.763   3.828  1.00  0.00     0.079 A 
ATOM      9  C   UNL     1       0.912   0.006  -0.026  1.00  0.00     0.068 C 
ATOM     10  C   UNL     1       0.723   0.703   1.291  1.00  0.00     0.055 A 
ATOM     11  N   UNL     1       0.382  -0.105   2.327  1.00  0.00    -0.259 NA
ATOM     12  C   UNL     1       0.985   2.068   1.461  1.00  0.00     0.074 A 
ATOM     13  C   UNL     1       0.370   0.434   3.566  1.00  0.00     0.127 A 
ATOM     14  C   UNL     1       0.940   2.609   2.754  1.00  0.00     0.038 A 
BRANCH  12  15
ATOM     15  C   UNL     1       1.333   2.904   0.354  1.00  0.00     0.101 C 
ATOM     16  N   UNL     1       1.617   3.585  -0.545  1.00  0.00    -0.192 NA
ENDBRANCH  12  15
ENDBRANCH   6   8
ENDBRANCH   5   6
ENDBRANCH   4   5
ENDBRANCH   3   4
ENDBRANCH   2   3
ENDBRANCH   1   2
BRANCH   1  17
ATOM     17  C   UNL     1      -3.599   3.235   4.766  1.00  0.00     0.261 C 
BRANCH  17  18
ATOM     18  O   UNL     1      -3.109   4.569   4.548  1.00  0.00    -0.460 OA
BRANCH  18  19
ATOM     19  C   UNL     1      -3.722   5.523   5.292  1.00  0.00     0.338 C 
ATOM     20  O   UNL     1      -4.627   5.378   6.095  1.00  0.00    -0.246 OA
BRANCH  19  21
ATOM     21  C   UNL     1      -3.003   6.796   5.131  1.00  0.00     0.060 A 
ATOM     22  C   UNL     1      -2.333   7.335   6.239  1.00  0.00     0.016 A 
ATOM     23  C   UNL     1      -3.079   7.497   3.929  1.00  0.00     0.016 A 
ATOM     24  C   UNL     1      -1.755   8.598   6.155  1.00  0.00     0.010 A 
ATOM     25  C   UNL     1      -2.520   8.773   3.854  1.00  0.00     0.010 A 
ATOM     26  C   UNL     1      -1.889   9.340   4.976  1.00  0.00    -0.014 A 
BRANCH  26  27
ATOM     27  C   UNL     1      -1.541  10.778   4.972  1.00  0.00     0.031 A 
ATOM     28  C   UNL     1      -2.643  11.783   5.150  1.00  0.00     0.074 A 
ATOM     29  C   UNL     1      -0.268  11.179   4.821  1.00  0.00     0.049 A 
ATOM     30  N   UNL     1      -2.589  13.089   5.112  1.00  0.00    -0.248 NA
ATOM     31  C   UNL     1      -3.989  11.241   5.401  1.00  0.00     0.031 C 
ATOM     32  C   UNL     1       0.885  10.293   4.690  1.00  0.00     0.029 A 
ATOM     33  N   UNL     1       0.262  12.442   4.741  1.00  0.00    -0.354 N 
ATOM     34  C   UNL     1      -3.889  13.523   5.333  1.00  0.00     0.074 A 
ATOM     35  C   UNL     1      -4.718  12.345   5.461  1.00  0.00     0.031 C 
ATOM     36  C   UNL     1       1.991  11.041   4.534  1.00  0.00     0.029 A 
ATOM     37  C   UNL     1       1.616  12.455   4.519  1.00  0.00     0.049 A 
ATOM     38  H   UNL     1      -0.277  13.260   4.835  1.00  0.00     0.167 HD
ATOM     39  C   UNL     1      -4.343  14.793   5.435  1.00  0.00     0.037 A 
ATOM     40  C   UNL     1       2.450  13.492   4.307  1.00  0.00     0.037 A 
ATOM     41  C   UNL     1      -3.511  15.960   5.301  1.00  0.00     0.049 A 
ATOM     42  C   UNL     1       1.900  14.896   4.328  1.00  0.00     0.074 A 
ATOM     43  C   UNL     1      -3.876  17.291   5.399  1.00  0.00     0.029 A 
ATOM     44  N   UNL     1      -2.150  15.935   5.033  1.00  0.00    -0.354 N 
ATOM     45  N   UNL     1       0.677  15.304   4.565  1.00  0.00    -0.248 NA
ATOM     46  C   UNL     1       2.850  15.984   4.054  1.00  0.00     0.031 C 
ATOM     47  C   UNL     1      -2.751  18.072   5.124  1.00  0.00     0.029 A 
ATOM     48  C   UNL     1      -1.668  17.230   4.927  1.00  0.00     0.049 A 
ATOM     49  H   UNL     1      -1.608  15.120   4.933  1.00  0.00     0.167 HD
ATOM     50  C   UNL     1       0.715  16.692   4.499  1.00  0.00     0.074 A 
ATOM     51  C   UNL     1       2.088  17.057   4.218  1.00  0.00     0.031 C 
ATOM     52  C   UNL     1      -0.296  17.582   4.655  1.00  0.00     0.037 A 
BRANCH  39  53
ATOM     53  C   UNL     1      -5.807  14.997   5.696  1.00  0.00     0.064 A 
ATOM     54  C   UNL     1      -6.385  14.673   6.933  1.00  0.00     0.173 A 
ATOM     55  C   UNL     1      -6.627  15.594   4.726  1.00  0.00     0.173 A 
ATOM     56  F   UNL     1      -5.649  14.088   7.889  1.00  0.00    -0.203 F 
ATOM     57  C   UNL     1      -7.730  14.929   7.184  1.00  0.00     0.198 A 
ATOM     58  C   UNL     1      -7.963  15.880   4.992  1.00  0.00     0.198 A 
ATOM     59  F   UNL     1      -6.125  15.926   3.526  1.00  0.00    -0.203 F 
ATOM     60  F   UNL     1      -8.268  14.579   8.360  1.00  0.00    -0.200 F 
ATOM     61  C   UNL     1      -8.514  15.544   6.219  1.00  0.00     0.200 A 
ATOM     62  F   UNL     1      -8.714  16.491   4.066  1.00  0.00    -0.200 F 
ATOM     63  F   UNL     1      -9.803  15.812   6.472  1.00  0.00    -0.200 F 
ENDBRANCH  39  53
BRANCH  40  64
ATOM     64  C   UNL     1       3.896  13.239   4.072  1.00  0.00     0.064 A 
ATOM     65  C   UNL     1       4.856  13.643   5.009  1.00  0.00     0.173 A 
ATOM     66  C   UNL     1       4.347  12.582   2.917  1.00  0.00     0.173 A 
ATOM     67  F   UNL     1       4.477  14.296   6.117  1.00  0.00    -0.203 F 
ATOM     68  C   UNL     1       6.213  13.407   4.797  1.00  0.00     0.198 A 
ATOM     69  C   UNL     1       5.701  12.318   2.722  1.00  0.00     0.198 A 
ATOM     70  F   UNL     1       3.470  12.176   1.988  1.00  0.00    -0.203 F 
ATOM     71  F   UNL     1       7.113  13.840   5.691  1.00  0.00    -0.200 F 
ATOM     72  C   UNL     1       6.634  12.736   3.659  1.00  0.00     0.200 A 
ATOM     73  F   UNL     1       6.102  11.654   1.629  1.00  0.00    -0.200 F 
ATOM     74  F   UNL     1       7.937  12.496   3.463  1.00  0.00    -0.200 F 
ENDBRANCH  40  64
BRANCH  52  75
ATOM     75  C   UNL     1       0.031  19.046   4.551  1.00  0.00     0.064 A 
ATOM     76  C   UNL     1       0.375  19.637   3.327  1.00  0.00     0.173 A 
ATOM     77  C   UNL     1      -0.087  19.883   5.672  1.00  0.00     0.173 A 
ATOM     78  F   UNL     1       0.510  18.882   2.226  1.00  0.00    -0.203 F 
ATOM     79  C   UNL     1       0.605  21.008   3.232  1.00  0.00     0.198 A 
ATOM     80  C   UNL     1       0.106  21.258   5.566  1.00  0.00     0.198 A 
ATOM     81  F   UNL     1      -0.424  19.373   6.866  1.00  0.00    -0.203 F 
ATOM     82  F   UNL     1       0.971  21.544   2.060  1.00  0.00    -0.200 F 
ATOM     83  C   UNL     1       0.458  21.818   4.348  1.00  0.00     0.200 A 
ATOM     84  F   UNL     1      -0.059  22.041   6.641  1.00  0.00    -0.200 F 
ATOM     85  F   UNL     1       0.656  23.140   4.250  1.00  0.00    -0.200 F 
ENDBRANCH  52  75
ENDBRANCH  26  27
ENDBRANCH  19  21
ENDBRANCH  18  19
ENDBRANCH  17  18
ENDBRANCH   1  17
TORSDOF 15
