REMARK SMILES COc1cccc(C(=O)Nc2ccc(NC(=O)[C@@H]3[C@@H](C(=O)OCCOCCOC(=O)c4ccc(-c5c6nc(c(-c7c(F)c(F)c(F)c(F)c7F)c7ccc([nH]7)c(-c7c(F)c(F)c(F)c(F)c7F)c7nc(c(-c8c(F)c(F)c(F)c(F)c8F)c8ccc5[nH]8)C=C7)C=C6)cc4)[C@@H]4C=C[C@H]3C4)cc2)c1
REMARK SMILES IDX 23 1 22 2 20 3 21 4 19 5 18 6 97 7 94 8 96 9 98 10 95 11
REMARK SMILES IDX 16 12 15 13 17 15 14 16 11 17 12 18 100 19 13 20 99 21 10 22
REMARK SMILES IDX 8 23 9 24 7 26 3 27 4 28 101 29 5 30 6 31 2 32 1 33 24 34
REMARK SMILES IDX 25 35 26 36 27 37 28 38 29 39 30 40 31 41 32 42 93 43 33 44
REMARK SMILES IDX 92 45 34 46 35 47 36 48 86 49 37 50 91 51 85 52 87 53 38 54
REMARK SMILES IDX 90 55 84 56 83 57 39 59 71 60 51 61 70 62 52 63 55 64 69 65
REMARK SMILES IDX 88 66 53 67 54 68 68 70 89 71 56 72 40 73 41 74 49 75 42 76
REMARK SMILES IDX 43 77 47 78 50 79 44 80 45 81 48 82 46 83 72 84 73 85 81 86
REMARK SMILES IDX 74 87 75 88 79 89 82 90 76 91 77 92 80 93 78 94 57 95 58 96
REMARK SMILES IDX 66 97 59 98 60 99 64 100 67 101 61 102 62 103 65 104 63 105
REMARK H PARENT 15 14 10 25 87 58 55 69
REMARK Flexibility Score: inf
ROOT
ATOM      1  C   UNL     1       8.100  -1.930   0.926  1.00  0.00     0.261 C 
ENDROOT
BRANCH   1   2
ATOM      2  O   UNL     1       6.954  -2.804   1.031  1.00  0.00    -0.463 OA
BRANCH   2   3
ATOM      3  C   UNL     1       6.373  -3.133  -0.153  1.00  0.00     0.310 C 
ATOM      4  O   UNL     1       6.739  -2.715  -1.246  1.00  0.00    -0.252 OA
BRANCH   3   5
ATOM      5  C   UNL     1       5.189  -4.055  -0.017  1.00  0.00     0.119 C 
ATOM      6  C   UNL     1       3.985  -3.446   0.752  1.00  0.00     0.100 C 
ATOM      7  C   UNL     1       3.495  -4.652   1.597  1.00  0.00     0.025 C 
ATOM      8  C   UNL     1       5.420  -5.395   0.726  1.00  0.00     0.027 C 
ATOM      9  C   UNL     1       3.172  -5.864   0.754  1.00  0.00    -0.027 C 
ATOM     10  C   UNL     1       4.862  -5.120   2.129  1.00  0.00     0.017 C 
ATOM     11  C   UNL     1       4.326  -6.326   0.251  1.00  0.00    -0.027 C 
BRANCH   6  12
ATOM     12  C   UNL     1       3.025  -2.827  -0.233  1.00  0.00     0.228 C 
ATOM     13  N   UNL     1       3.251  -1.587  -0.766  1.00  0.00    -0.326 N 
ATOM     14  H   UNL     1       2.788  -1.459  -1.626  1.00  0.00     0.169 HD
ATOM     15  O   UNL     1       2.038  -3.441  -0.645  1.00  0.00    -0.274 OA
BRANCH  13  16
ATOM     16  C   UNL     1       3.987  -0.445  -0.379  1.00  0.00     0.041 A 
ATOM     17  C   UNL     1       4.752   2.069   0.609  1.00  0.00     0.041 A 
ATOM     18  C   UNL     1       5.226   0.916   1.213  1.00  0.00     0.028 A 
ATOM     19  C   UNL     1       4.085   1.982  -0.609  1.00  0.00     0.028 A 
ATOM     20  C   UNL     1       4.807  -0.328   0.741  1.00  0.00     0.028 A 
ATOM     21  C   UNL     1       3.725   0.725  -1.110  1.00  0.00     0.028 A 
BRANCH  17  22
ATOM     22  N   UNL     1       4.855   3.243   1.354  1.00  0.00    -0.322 N 
ATOM     23  C   UNL     1       3.880   4.165   1.676  1.00  0.00     0.255 C 
ATOM     24  O   UNL     1       4.215   5.149   2.338  1.00  0.00    -0.269 OA
ATOM     25  H   UNL     1       5.754   3.443   1.701  1.00  0.00     0.170 HD
BRANCH  23  26
ATOM     26  C   UNL     1       2.435   3.988   1.334  1.00  0.00     0.043 A 
ATOM     27  C   UNL     1       0.453   2.660   0.840  1.00  0.00     0.119 A 
ATOM     28  C   UNL     1      -0.259   3.841   0.618  1.00  0.00     0.046 A 
ATOM     29  C   UNL     1       1.782   2.742   1.263  1.00  0.00     0.060 A 
ATOM     30  C   UNL     1       0.344   5.085   0.795  1.00  0.00     0.005 A 
ATOM     31  C   UNL     1       1.690   5.158   1.140  1.00  0.00     0.014 A 
BRANCH  27  32
ATOM     32  O   UNL     1      -0.276   1.530   0.609  1.00  0.00    -0.497 OA
ATOM     33  C   UNL     1       0.348   0.256   0.631  1.00  0.00     0.278 C 
ENDBRANCH  27  32
ENDBRANCH  23  26
ENDBRANCH  17  22
ENDBRANCH  13  16
ENDBRANCH   6  12
ENDBRANCH   3   5
ENDBRANCH   2   3
ENDBRANCH   1   2
BRANCH   1  34
ATOM     34  C   UNL     1       9.343  -2.534   1.581  1.00  0.00     0.202 C 
BRANCH  34  35
ATOM     35  O   UNL     1       9.912  -3.687   0.962  1.00  0.00    -0.374 OA
BRANCH  35  36
ATOM     36  C   UNL     1       9.156  -4.893   0.997  1.00  0.00     0.202 C 
BRANCH  36  37
ATOM     37  C   UNL     1       9.164  -5.694   2.307  1.00  0.00     0.261 C 
BRANCH  37  38
ATOM     38  O   UNL     1       8.874  -4.895   3.463  1.00  0.00    -0.460 OA
BRANCH  38  39
ATOM     39  C   UNL     1       9.973  -4.565   4.183  1.00  0.00     0.338 C 
ATOM     40  O   UNL     1      11.121  -4.952   3.999  1.00  0.00    -0.246 OA
BRANCH  39  41
ATOM     41  C   UNL     1       9.659  -3.520   5.173  1.00  0.00     0.060 A 
ATOM     42  C   UNL     1      10.540  -2.434   5.248  1.00  0.00     0.016 A 
ATOM     43  C   UNL     1       8.595  -3.636   6.070  1.00  0.00     0.016 A 
ATOM     44  C   UNL     1      10.414  -1.503   6.274  1.00  0.00     0.010 A 
ATOM     45  C   UNL     1       8.470  -2.701   7.104  1.00  0.00     0.010 A 
ATOM     46  C   UNL     1       9.412  -1.664   7.239  1.00  0.00    -0.014 A 
BRANCH  46  47
ATOM     47  C   UNL     1       9.488  -0.866   8.487  1.00  0.00     0.031 A 
ATOM     48  C   UNL     1      10.104  -1.497   9.707  1.00  0.00     0.074 A 
ATOM     49  C   UNL     1       9.087   0.417   8.513  1.00  0.00     0.049 A 
ATOM     50  N   UNL     1      10.282  -0.998  10.903  1.00  0.00    -0.248 NA
ATOM     51  C   UNL     1      10.591  -2.878   9.554  1.00  0.00     0.031 C 
ATOM     52  C   UNL     1       8.531   1.150   7.379  1.00  0.00     0.029 A 
ATOM     53  N   UNL     1       9.095   1.331   9.536  1.00  0.00    -0.354 N 
ATOM     54  C   UNL     1      10.899  -2.001  11.641  1.00  0.00     0.074 A 
ATOM     55  C   UNL     1      11.032  -3.149  10.773  1.00  0.00     0.031 C 
ATOM     56  C   UNL     1       8.247   2.405   7.769  1.00  0.00     0.029 A 
ATOM     57  C   UNL     1       8.574   2.552   9.186  1.00  0.00     0.049 A 
ATOM     58  H   UNL     1       9.441   1.130  10.436  1.00  0.00     0.167 HD
ATOM     59  C   UNL     1      11.331  -1.961  12.924  1.00  0.00     0.037 A 
ATOM     60  C   UNL     1       8.373   3.654   9.934  1.00  0.00     0.037 A 
ATOM     61  C   UNL     1      11.197  -0.816  13.785  1.00  0.00     0.049 A 
ATOM     62  C   UNL     1       8.784   3.643  11.384  1.00  0.00     0.074 A 
ATOM     63  C   UNL     1      11.589  -0.676  15.104  1.00  0.00     0.029 A 
ATOM     64  N   UNL     1      10.623   0.388  13.407  1.00  0.00    -0.354 N 
ATOM     65  N   UNL     1       9.370   2.693  12.073  1.00  0.00    -0.248 NA
ATOM     66  C   UNL     1       8.508   4.860  12.160  1.00  0.00     0.031 C 
ATOM     67  C   UNL     1      11.214   0.600  15.537  1.00  0.00     0.029 A 
ATOM     68  C   UNL     1      10.634   1.272  14.473  1.00  0.00     0.049 A 
ATOM     69  H   UNL     1      10.262   0.586  12.512  1.00  0.00     0.167 HD
ATOM     70  C   UNL     1       9.564   3.208  13.348  1.00  0.00     0.074 A 
ATOM     71  C   UNL     1       9.040   4.558  13.336  1.00  0.00     0.031 C 
ATOM     72  C   UNL     1      10.125   2.619  14.432  1.00  0.00     0.037 A 
BRANCH  59  73
ATOM     73  C   UNL     1      11.971  -3.200  13.479  1.00  0.00     0.064 A 
ATOM     74  C   UNL     1      13.249  -3.614  13.071  1.00  0.00     0.173 A 
ATOM     75  C   UNL     1      11.312  -3.968  14.450  1.00  0.00     0.173 A 
ATOM     76  F   UNL     1      13.914  -2.924  12.132  1.00  0.00    -0.203 F 
ATOM     77  C   UNL     1      13.832  -4.763  13.600  1.00  0.00     0.198 A 
ATOM     78  C   UNL     1      11.910  -5.100  14.997  1.00  0.00     0.198 A 
ATOM     79  F   UNL     1      10.089  -3.615  14.876  1.00  0.00    -0.203 F 
ATOM     80  F   UNL     1      15.034  -5.163  13.163  1.00  0.00    -0.200 F 
ATOM     81  C   UNL     1      13.166  -5.500  14.567  1.00  0.00     0.200 A 
ATOM     82  F   UNL     1      11.269  -5.806  15.939  1.00  0.00    -0.200 F 
ATOM     83  F   UNL     1      13.732  -6.602  15.079  1.00  0.00    -0.200 F 
ENDBRANCH  59  73
BRANCH  60  84
ATOM     84  C   UNL     1       7.744   4.860   9.333  1.00  0.00     0.064 A 
ATOM     85  C   UNL     1       8.469   6.048   9.165  1.00  0.00     0.173 A 
ATOM     86  C   UNL     1       6.397   4.858   8.941  1.00  0.00     0.173 A 
ATOM     87  F   UNL     1       9.753   6.108   9.548  1.00  0.00    -0.203 F 
ATOM     88  C   UNL     1       7.864   7.194   8.651  1.00  0.00     0.198 A 
ATOM     89  C   UNL     1       5.801   5.995   8.402  1.00  0.00     0.198 A 
ATOM     90  F   UNL     1       5.659   3.747   9.083  1.00  0.00    -0.203 F 
ATOM     91  F   UNL     1       8.566   8.331   8.551  1.00  0.00    -0.200 F 
ATOM     92  C   UNL     1       6.532   7.165   8.265  1.00  0.00     0.200 A 
ATOM     93  F   UNL     1       4.516   5.960   8.025  1.00  0.00    -0.200 F 
ATOM     94  F   UNL     1       5.951   8.269   7.776  1.00  0.00    -0.200 F 
ENDBRANCH  60  84
BRANCH  72  95
ATOM     95  C   UNL     1      10.248   3.444  15.680  1.00  0.00     0.064 A 
ATOM     96  C   UNL     1       9.133   3.761  16.468  1.00  0.00     0.173 A 
ATOM     97  C   UNL     1      11.509   3.880  16.117  1.00  0.00     0.173 A 
ATOM     98  F   UNL     1       7.905   3.378  16.085  1.00  0.00    -0.203 F 
ATOM     99  C   UNL     1       9.272   4.507  17.636  1.00  0.00     0.198 A 
ATOM    100  C   UNL     1      11.647   4.600  17.300  1.00  0.00     0.198 A 
ATOM    101  F   UNL     1      12.608   3.594  15.403  1.00  0.00    -0.203 F 
ATOM    102  F   UNL     1       8.187   4.837  18.350  1.00  0.00    -0.200 F 
ATOM    103  C   UNL     1      10.528   4.918  18.055  1.00  0.00     0.200 A 
ATOM    104  F   UNL     1      12.864   4.984  17.711  1.00  0.00    -0.200 F 
ATOM    105  F   UNL     1      10.661   5.628  19.183  1.00  0.00    -0.200 F 
ENDBRANCH  72  95
ENDBRANCH  46  47
ENDBRANCH  39  41
ENDBRANCH  38  39
ENDBRANCH  37  38
ENDBRANCH  36  37
ENDBRANCH  35  36
ENDBRANCH  34  35
ENDBRANCH   1  34
TORSDOF 19
