REMARK SMILES CC1(C(=O)N[C@@H](C(=O)OCCOCCOC(=O)c2ccc(-c3c4nc(c(-c5c(F)c(F)c(F)c(F)c5F)c5ccc([nH]5)c(-c5c(F)c(F)c(F)c(F)c5F)c5nc(c(-c6c(F)c(F)c(F)c(F)c6F)c6ccc3[nH]6)C=C5)C=C4)cc2)c2ccccc2)CCCC1
REMARK SMILES IDX 12 1 11 2 10 3 9 4 7 5 8 6 6 7 5 8 3 9 4 10 2 12 1 13 87 14
REMARK SMILES IDX 90 15 88 16 89 17 81 18 82 19 86 20 83 21 85 22 84 23 13 24
REMARK SMILES IDX 14 25 15 26 16 27 17 28 18 29 19 30 80 31 20 32 79 33 21 34
REMARK SMILES IDX 22 35 23 36 73 37 24 38 78 39 72 40 74 41 25 42 77 43 71 44
REMARK SMILES IDX 70 45 26 47 58 48 38 49 57 50 39 51 42 52 56 53 75 54 40 55
REMARK SMILES IDX 41 56 55 58 76 59 43 60 27 61 28 62 36 63 29 64 30 65 34 66
REMARK SMILES IDX 37 67 31 68 32 69 35 70 33 71 59 72 60 73 68 74 61 75 62 76
REMARK SMILES IDX 66 77 69 78 63 79 64 80 67 81 65 82 44 83 45 84 53 85 46 86
REMARK SMILES IDX 47 87 51 88 54 89 48 90 49 91 52 92 50 93
REMARK H PARENT 5 11 74 46 42 57
REMARK Flexibility Score: inf
ROOT
ATOM      1  O   UNL     1       7.114  -2.757   0.168  1.00  0.00    -0.374 OA
ENDROOT
BRANCH   1   2
ATOM      2  C   UNL     1       7.011  -1.789  -0.873  1.00  0.00     0.202 C 
BRANCH   2   3
ATOM      3  C   UNL     1       5.694  -1.749  -1.652  1.00  0.00     0.261 C 
BRANCH   3   4
ATOM      4  O   UNL     1       4.561  -1.586  -0.784  1.00  0.00    -0.461 OA
BRANCH   4   5
ATOM      5  C   UNL     1       3.649  -2.600  -0.831  1.00  0.00     0.333 C 
ATOM      6  O   UNL     1       3.663  -3.500  -1.666  1.00  0.00    -0.249 OA
BRANCH   5   7
ATOM      7  C   UNL     1       2.597  -2.516   0.305  1.00  0.00     0.223 C 
BRANCH   7   8
ATOM      8  N   UNL     1       2.648  -1.291   1.108  1.00  0.00    -0.339 N 
ATOM      9  C   UNL     1       1.865  -0.182   1.120  1.00  0.00     0.226 C 
ATOM     10  O   UNL     1       2.184   0.698   1.925  1.00  0.00    -0.274 OA
ATOM     11  H   UNL     1       3.387  -1.268   1.758  1.00  0.00     0.164 HD
BRANCH   9  12
ATOM     12  C   UNL     1       0.697   0.011   0.138  1.00  0.00     0.046 C 
ATOM     13  C   UNL     1       1.264   0.190  -1.278  1.00  0.00     0.022 C 
ATOM     14  C   UNL     1      -0.124   1.262   0.533  1.00  0.00     0.016 C 
ATOM     15  C   UNL     1      -0.399  -1.063   0.225  1.00  0.00     0.016 C 
ATOM     16  C   UNL     1      -1.476   1.093  -0.150  1.00  0.00     0.001 C 
ATOM     17  C   UNL     1      -1.670  -0.408  -0.311  1.00  0.00     0.001 C 
ENDBRANCH   9  12
ENDBRANCH   7   8
BRANCH   7  18
ATOM     18  C   UNL     1       2.621  -3.779   1.170  1.00  0.00    -0.014 A 
ATOM     19  C   UNL     1       3.050  -3.801   2.508  1.00  0.00     0.006 A 
ATOM     20  C   UNL     1       2.219  -4.997   0.589  1.00  0.00     0.006 A 
ATOM     21  C   UNL     1       3.094  -5.000   3.227  1.00  0.00     0.000 A 
ATOM     22  C   UNL     1       2.266  -6.193   1.307  1.00  0.00     0.000 A 
ATOM     23  C   UNL     1       2.707  -6.194   2.625  1.00  0.00     0.000 A 
ENDBRANCH   7  18
ENDBRANCH   5   7
ENDBRANCH   4   5
ENDBRANCH   3   4
ENDBRANCH   2   3
ENDBRANCH   1   2
BRANCH   1  24
ATOM     24  C   UNL     1       6.410  -2.510   1.385  1.00  0.00     0.202 C 
BRANCH  24  25
ATOM     25  C   UNL     1       6.926  -1.374   2.277  1.00  0.00     0.261 C 
BRANCH  25  26
ATOM     26  O   UNL     1       6.739  -0.079   1.677  1.00  0.00    -0.460 OA
BRANCH  26  27
ATOM     27  C   UNL     1       7.884   0.600   1.426  1.00  0.00     0.338 C 
ATOM     28  O   UNL     1       9.025   0.257   1.704  1.00  0.00    -0.246 OA
BRANCH  27  29
ATOM     29  C   UNL     1       7.612   1.778   0.584  1.00  0.00     0.060 A 
ATOM     30  C   UNL     1       8.324   1.894  -0.618  1.00  0.00     0.016 A 
ATOM     31  C   UNL     1       6.766   2.802   1.011  1.00  0.00     0.016 A 
ATOM     32  C   UNL     1       8.234   3.061  -1.374  1.00  0.00     0.010 A 
ATOM     33  C   UNL     1       6.688   3.978   0.258  1.00  0.00     0.010 A 
ATOM     34  C   UNL     1       7.450   4.127  -0.916  1.00  0.00    -0.014 A 
BRANCH  34  35
ATOM     35  C   UNL     1       7.549   5.450  -1.576  1.00  0.00     0.031 A 
ATOM     36  C   UNL     1       8.456   6.492  -0.983  1.00  0.00     0.074 A 
ATOM     37  C   UNL     1       6.853   5.717  -2.694  1.00  0.00     0.049 A 
ATOM     38  N   UNL     1       8.644   7.736  -1.345  1.00  0.00    -0.248 NA
ATOM     39  C   UNL     1       9.259   6.074   0.177  1.00  0.00     0.031 C 
ATOM     40  C   UNL     1       5.980   4.775  -3.389  1.00  0.00     0.029 A 
ATOM     41  N   UNL     1       6.763   6.871  -3.432  1.00  0.00    -0.354 N 
ATOM     42  C   UNL     1       9.575   8.251  -0.452  1.00  0.00     0.074 A 
ATOM     43  C   UNL     1       9.900   7.193   0.481  1.00  0.00     0.031 C 
ATOM     44  C   UNL     1       5.424   5.395  -4.444  1.00  0.00     0.029 A 
ATOM     45  C   UNL     1       5.876   6.785  -4.475  1.00  0.00     0.049 A 
ATOM     46  H   UNL     1       7.284   7.682  -3.232  1.00  0.00     0.167 HD
ATOM     47  C   UNL     1      10.111   9.494  -0.415  1.00  0.00     0.037 A 
ATOM     48  C   UNL     1       5.457   7.731  -5.338  1.00  0.00     0.037 A 
ATOM     49  C   UNL     1       9.786  10.544  -1.344  1.00  0.00     0.049 A 
ATOM     50  C   UNL     1       6.017   9.126  -5.237  1.00  0.00     0.074 A 
ATOM     51  C   UNL     1      10.288  11.832  -1.403  1.00  0.00     0.029 A 
ATOM     52  N   UNL     1       8.866  10.426  -2.376  1.00  0.00    -0.354 N 
ATOM     53  N   UNL     1       6.907   9.602  -4.401  1.00  0.00    -0.248 NA
ATOM     54  C   UNL     1       5.512  10.115  -6.200  1.00  0.00     0.031 C 
ATOM     55  C   UNL     1       9.638  12.508  -2.441  1.00  0.00     0.029 A 
ATOM     56  C   UNL     1       8.768  11.626  -3.062  1.00  0.00     0.049 A 
ATOM     57  H   UNL     1       8.358   9.610  -2.589  1.00  0.00     0.167 HD
ATOM     58  C   UNL     1       7.091  10.933  -4.753  1.00  0.00     0.074 A 
ATOM     59  C   UNL     1       6.224  11.188  -5.885  1.00  0.00     0.031 C 
ATOM     60  C   UNL     1       7.907  11.859  -4.193  1.00  0.00     0.037 A 
BRANCH  47  61
ATOM     61  C   UNL     1      11.083   9.795   0.687  1.00  0.00     0.064 A 
ATOM     62  C   UNL     1      12.379   9.259   0.695  1.00  0.00     0.173 A 
ATOM     63  C   UNL     1      10.720  10.653   1.736  1.00  0.00     0.173 A 
ATOM     64  F   UNL     1      12.769   8.421  -0.278  1.00  0.00    -0.203 F 
ATOM     65  C   UNL     1      13.267   9.551   1.727  1.00  0.00     0.198 A 
ATOM     66  C   UNL     1      11.620  10.964   2.752  1.00  0.00     0.198 A 
ATOM     67  F   UNL     1       9.493  11.196   1.773  1.00  0.00    -0.203 F 
ATOM     68  F   UNL     1      14.486   8.992   1.738  1.00  0.00    -0.200 F 
ATOM     69  C   UNL     1      12.890  10.407   2.750  1.00  0.00     0.200 A 
ATOM     70  F   UNL     1      11.257  11.800   3.734  1.00  0.00    -0.200 F 
ATOM     71  F   UNL     1      13.748  10.691   3.740  1.00  0.00    -0.200 F 
ENDBRANCH  47  61
BRANCH  48  72
ATOM     72  C   UNL     1       4.439   7.393  -6.365  1.00  0.00     0.064 A 
ATOM     73  C   UNL     1       4.774   7.336  -7.724  1.00  0.00     0.173 A 
ATOM     74  C   UNL     1       3.110   7.124  -6.007  1.00  0.00     0.173 A 
ATOM     75  F   UNL     1       6.026   7.611  -8.117  1.00  0.00    -0.203 F 
ATOM     76  C   UNL     1       3.814   7.034  -8.689  1.00  0.00     0.198 A 
ATOM     77  C   UNL     1       2.157   6.797  -6.970  1.00  0.00     0.198 A 
ATOM     78  F   UNL     1       2.738   7.168  -4.719  1.00  0.00    -0.203 F 
ATOM     79  F   UNL     1       4.152   7.024  -9.986  1.00  0.00    -0.200 F 
ATOM     80  C   UNL     1       2.509   6.758  -8.310  1.00  0.00     0.200 A 
ATOM     81  F   UNL     1       0.900   6.520  -6.598  1.00  0.00    -0.200 F 
ATOM     82  F   UNL     1       1.589   6.461  -9.238  1.00  0.00    -0.200 F 
ENDBRANCH  48  72
BRANCH  60  83
ATOM     83  C   UNL     1       7.936  13.224  -4.817  1.00  0.00     0.064 A 
ATOM     84  C   UNL     1       6.876  14.128  -4.662  1.00  0.00     0.173 A 
ATOM     85  C   UNL     1       9.063  13.648  -5.538  1.00  0.00     0.173 A 
ATOM     86  F   UNL     1       5.771  13.764  -3.993  1.00  0.00    -0.203 F 
ATOM     87  C   UNL     1       6.934  15.401  -5.223  1.00  0.00     0.198 A 
ATOM     88  C   UNL     1       9.129  14.931  -6.075  1.00  0.00     0.198 A 
ATOM     89  F   UNL     1      10.106  12.823  -5.710  1.00  0.00    -0.203 F 
ATOM     90  F   UNL     1       5.893  16.236  -5.096  1.00  0.00    -0.200 F 
ATOM     91  C   UNL     1       8.063  15.804  -5.921  1.00  0.00     0.200 A 
ATOM     92  F   UNL     1      10.225  15.322  -6.739  1.00  0.00    -0.200 F 
ATOM     93  F   UNL     1       8.121  17.033  -6.453  1.00  0.00    -0.200 F 
ENDBRANCH  60  83
ENDBRANCH  34  35
ENDBRANCH  27  29
ENDBRANCH  26  27
ENDBRANCH  25  26
ENDBRANCH  24  25
ENDBRANCH   1  24
TORSDOF 17
