REMARK SMILES COc1ccc([C@H]2CC(c3ccc(S(C)(=O)=O)cc3)=NN2c2ccc(C(=O)OCCOCCOC(=O)c3ccc(-c4c5nc(c(-c6c(F)c(F)c(F)c(F)c6F)c6ccc([nH]6)c(-c6c(F)c(F)c(F)c(F)c6F)c6nc(c(-c7c(F)c(F)c(F)c(F)c7F)c7ccc4[nH]7)C=C6)C=C5)cc3)cc2)cc1
REMARK SMILES IDX 30 1 29 2 28 3 26 4 27 5 25 6 22 7 23 8 101 9 24 10 100 11
REMARK SMILES IDX 21 12 7 13 8 14 9 15 20 16 6 17 3 18 4 19 103 20 5 21 102 22
REMARK SMILES IDX 2 23 1 24 10 25 11 26 19 27 12 28 18 29 13 30 14 31 15 32
REMARK SMILES IDX 16 33 17 34 31 35 32 36 33 37 34 38 35 39 36 40 37 41 38 42
REMARK SMILES IDX 99 43 39 44 98 45 40 46 41 47 42 48 92 49 43 50 97 51 91 52
REMARK SMILES IDX 93 53 44 54 96 55 90 56 89 57 45 59 77 60 57 61 76 62 58 63
REMARK SMILES IDX 61 64 75 65 94 66 59 67 60 68 74 70 95 71 62 72 46 73 47 74
REMARK SMILES IDX 55 75 48 76 49 77 53 78 56 79 50 80 51 81 54 82 52 83 78 84
REMARK SMILES IDX 79 85 87 86 80 87 81 88 85 89 88 90 82 91 83 92 86 93 84 94
REMARK SMILES IDX 63 95 64 96 72 97 65 98 66 99 70 100 73 101 67 102 68 103
REMARK SMILES IDX 71 104 69 105
REMARK H PARENT 93 58 61 69
REMARK Flexibility Score: inf
ROOT
ATOM      1  C   UNL     1       2.273 -11.349   4.542  1.00  0.00     0.202 C 
ENDROOT
BRANCH   1   2
ATOM      2  C   UNL     1       1.462 -10.050   4.537  1.00  0.00     0.261 C 
BRANCH   2   3
ATOM      3  O   UNL     1       1.347  -9.509   3.210  1.00  0.00    -0.460 OA
BRANCH   3   4
ATOM      4  C   UNL     1       2.061  -8.377   2.997  1.00  0.00     0.338 C 
ATOM      5  O   UNL     1       2.666  -7.725   3.836  1.00  0.00    -0.246 OA
BRANCH   4   6
ATOM      6  C   UNL     1       2.149  -8.086   1.550  1.00  0.00     0.060 A 
ATOM      7  C   UNL     1       2.400  -7.328  -1.150  1.00  0.00     0.060 A 
ATOM      8  C   UNL     1       3.488  -7.230  -0.274  1.00  0.00     0.029 A 
ATOM      9  C   UNL     1       1.205  -7.885  -0.663  1.00  0.00     0.029 A 
ATOM     10  C   UNL     1       3.359  -7.577   1.070  1.00  0.00     0.018 A 
ATOM     11  C   UNL     1       1.079  -8.282   0.674  1.00  0.00     0.018 A 
BRANCH   7  12
ATOM     12  N   UNL     1       2.494  -6.828  -2.445  1.00  0.00    -0.257 N 
ATOM     13  C   UNL     1       1.530  -5.878  -3.009  1.00  0.00     0.144 C 
ATOM     14  C   UNL     1       2.182  -5.481  -4.338  1.00  0.00     0.091 C 
ATOM     15  C   UNL     1       3.466  -6.254  -4.246  1.00  0.00     0.071 C 
ATOM     16  N   UNL     1       3.629  -6.976  -3.182  1.00  0.00    -0.176 NA
BRANCH  13  17
ATOM     17  C   UNL     1       1.282  -4.676  -2.106  1.00  0.00    -0.023 A 
ATOM     18  C   UNL     1       0.763  -2.437  -0.475  1.00  0.00     0.118 A 
ATOM     19  C   UNL     1      -0.265  -3.317  -0.808  1.00  0.00     0.047 A 
ATOM     20  C   UNL     1       2.062  -2.697  -0.907  1.00  0.00     0.047 A 
ATOM     21  C   UNL     1      -0.012  -4.421  -1.626  1.00  0.00     0.010 A 
ATOM     22  C   UNL     1       2.320  -3.811  -1.714  1.00  0.00     0.010 A 
BRANCH  18  23
ATOM     23  O   UNL     1       0.419  -1.384   0.327  1.00  0.00    -0.497 OA
ATOM     24  C   UNL     1       1.000  -0.145  -0.073  1.00  0.00     0.278 C 
ENDBRANCH  18  23
ENDBRANCH  13  17
BRANCH  15  25
ATOM     25  C   UNL     1       4.429  -6.222  -5.352  1.00  0.00    -0.002 A 
ATOM     26  C   UNL     1       4.718  -7.417  -6.018  1.00  0.00     0.011 A 
ATOM     27  C   UNL     1       5.008  -5.016  -5.753  1.00  0.00     0.011 A 
ATOM     28  C   UNL     1       5.580  -7.405  -7.115  1.00  0.00     0.021 A 
ATOM     29  C   UNL     1       5.892  -5.006  -6.835  1.00  0.00     0.021 A 
ATOM     30  C   UNL     1       6.170  -6.200  -7.511  1.00  0.00     0.067 A 
BRANCH  30  31
ATOM     31  S   UNL     1       7.253  -6.190  -8.922  1.00  0.00     0.175 S 
ATOM     32  C   UNL     1       8.594  -7.253  -8.453  1.00  0.00     0.163 C 
ATOM     33  O   UNL     1       6.527  -6.819 -10.008  1.00  0.00    -0.224 OA
ATOM     34  O   UNL     1       7.785  -4.848  -9.056  1.00  0.00    -0.224 OA
ENDBRANCH  30  31
ENDBRANCH  15  25
ENDBRANCH   7  12
ENDBRANCH   4   6
ENDBRANCH   3   4
ENDBRANCH   2   3
ENDBRANCH   1   2
BRANCH   1  35
ATOM     35  O   UNL     1       3.638 -11.231   4.142  1.00  0.00    -0.374 OA
BRANCH  35  36
ATOM     36  C   UNL     1       3.898 -11.250   2.736  1.00  0.00     0.202 C 
BRANCH  36  37
ATOM     37  C   UNL     1       3.943 -12.641   2.092  1.00  0.00     0.261 C 
BRANCH  37  38
ATOM     38  O   UNL     1       2.638 -13.249   2.062  1.00  0.00    -0.460 OA
BRANCH  38  39
ATOM     39  C   UNL     1       2.482 -14.313   2.881  1.00  0.00     0.338 C 
ATOM     40  O   UNL     1       3.342 -14.872   3.549  1.00  0.00    -0.246 OA
BRANCH  39  41
ATOM     41  C   UNL     1       1.050 -14.641   3.011  1.00  0.00     0.060 A 
ATOM     42  C   UNL     1       0.536 -14.793   4.306  1.00  0.00     0.016 A 
ATOM     43  C   UNL     1       0.236 -14.857   1.896  1.00  0.00     0.016 A 
ATOM     44  C   UNL     1      -0.779 -15.213   4.491  1.00  0.00     0.010 A 
ATOM     45  C   UNL     1      -1.083 -15.287   2.084  1.00  0.00     0.010 A 
ATOM     46  C   UNL     1      -1.584 -15.501   3.381  1.00  0.00    -0.014 A 
BRANCH  46  47
ATOM     47  C   UNL     1      -2.896 -16.163   3.581  1.00  0.00     0.031 A 
ATOM     48  C   UNL     1      -2.993 -17.654   3.406  1.00  0.00     0.074 A 
ATOM     49  C   UNL     1      -3.978 -15.454   3.945  1.00  0.00     0.049 A 
ATOM     50  N   UNL     1      -4.037 -18.437   3.503  1.00  0.00    -0.248 NA
ATOM     51  C   UNL     1      -1.742 -18.356   3.078  1.00  0.00     0.031 C 
ATOM     52  C   UNL     1      -4.002 -14.014   4.186  1.00  0.00     0.029 A 
ATOM     53  N   UNL     1      -5.271 -15.856   4.171  1.00  0.00    -0.354 N 
ATOM     54  C   UNL     1      -3.570 -19.720   3.248  1.00  0.00     0.074 A 
ATOM     55  C   UNL     1      -2.157 -19.608   2.960  1.00  0.00     0.031 C 
ATOM     56  C   UNL     1      -5.252 -13.649   4.519  1.00  0.00     0.029 A 
ATOM     57  C   UNL     1      -6.120 -14.825   4.485  1.00  0.00     0.049 A 
ATOM     58  H   UNL     1      -5.562 -16.795   4.113  1.00  0.00     0.167 HD
ATOM     59  C   UNL     1      -4.257 -20.887   3.264  1.00  0.00     0.037 A 
ATOM     60  C   UNL     1      -7.450 -14.830   4.701  1.00  0.00     0.037 A 
ATOM     61  C   UNL     1      -5.663 -20.998   3.550  1.00  0.00     0.049 A 
ATOM     62  C   UNL     1      -8.206 -16.132   4.636  1.00  0.00     0.074 A 
ATOM     63  C   UNL     1      -6.447 -22.138   3.600  1.00  0.00     0.029 A 
ATOM     64  N   UNL     1      -6.497 -19.926   3.829  1.00  0.00    -0.354 N 
ATOM     65  N   UNL     1      -7.754 -17.343   4.415  1.00  0.00    -0.248 NA
ATOM     66  C   UNL     1      -9.658 -16.067   4.853  1.00  0.00     0.031 C 
ATOM     67  C   UNL     1      -7.765 -21.750   3.865  1.00  0.00     0.029 A 
ATOM     68  C   UNL     1      -7.793 -20.375   4.028  1.00  0.00     0.049 A 
ATOM     69  H   UNL     1      -6.211 -18.985   3.877  1.00  0.00     0.167 HD
ATOM     70  C   UNL     1      -8.856 -18.184   4.497  1.00  0.00     0.074 A 
ATOM     71  C   UNL     1      -9.999 -17.347   4.798  1.00  0.00     0.031 C 
ATOM     72  C   UNL     1      -8.917 -19.529   4.338  1.00  0.00     0.037 A 
BRANCH  59  73
ATOM     73  C   UNL     1      -3.497 -22.140   2.943  1.00  0.00     0.064 A 
ATOM     74  C   UNL     1      -2.573 -22.691   3.843  1.00  0.00     0.173 A 
ATOM     75  C   UNL     1      -3.720 -22.817   1.734  1.00  0.00     0.173 A 
ATOM     76  F   UNL     1      -2.313 -22.074   5.006  1.00  0.00    -0.203 F 
ATOM     77  C   UNL     1      -1.883 -23.861   3.534  1.00  0.00     0.198 A 
ATOM     78  C   UNL     1      -3.049 -24.000   1.441  1.00  0.00     0.198 A 
ATOM     79  F   UNL     1      -4.597 -22.333   0.841  1.00  0.00    -0.203 F 
ATOM     80  F   UNL     1      -0.973 -24.346   4.391  1.00  0.00    -0.200 F 
ATOM     81  C   UNL     1      -2.126 -24.517   2.337  1.00  0.00     0.200 A 
ATOM     82  F   UNL     1      -3.293 -24.639   0.288  1.00  0.00    -0.200 F 
ATOM     83  F   UNL     1      -1.466 -25.646   2.045  1.00  0.00    -0.200 F 
ENDBRANCH  59  73
BRANCH  60  84
ATOM     84  C   UNL     1      -8.162 -13.558   4.991  1.00  0.00     0.064 A 
ATOM     85  C   UNL     1      -8.719 -13.313   6.253  1.00  0.00     0.173 A 
ATOM     86  C   UNL     1      -8.322 -12.574   4.004  1.00  0.00     0.173 A 
ATOM     87  F   UNL     1      -8.617 -14.236   7.221  1.00  0.00    -0.203 F 
ATOM     88  C   UNL     1      -9.426 -12.140   6.512  1.00  0.00     0.198 A 
ATOM     89  C   UNL     1      -9.005 -11.390   4.273  1.00  0.00     0.198 A 
ATOM     90  F   UNL     1      -7.811 -12.762   2.779  1.00  0.00    -0.203 F 
ATOM     91  F   UNL     1      -9.991 -11.953   7.713  1.00  0.00    -0.200 F 
ATOM     92  C   UNL     1      -9.563 -11.177   5.524  1.00  0.00     0.200 A 
ATOM     93  F   UNL     1      -9.127 -10.458   3.317  1.00  0.00    -0.200 F 
ATOM     94  F   UNL     1     -10.244 -10.050   5.773  1.00  0.00    -0.200 F 
ENDBRANCH  60  84
BRANCH  72  95
ATOM     95  C   UNL     1     -10.254 -20.187   4.526  1.00  0.00     0.064 A 
ATOM     96  C   UNL     1     -11.278 -20.056   3.577  1.00  0.00     0.173 A 
ATOM     97  C   UNL     1     -10.496 -20.992   5.649  1.00  0.00     0.173 A 
ATOM     98  F   UNL     1     -11.101 -19.285   2.494  1.00  0.00    -0.203 F 
ATOM     99  C   UNL     1     -12.506 -20.689   3.759  1.00  0.00     0.198 A 
ATOM    100  C   UNL     1     -11.714 -21.646   5.813  1.00  0.00     0.198 A 
ATOM    101  F   UNL     1      -9.546 -21.155   6.582  1.00  0.00    -0.203 F 
ATOM    102  F   UNL     1     -13.486 -20.514   2.862  1.00  0.00    -0.200 F 
ATOM    103  C   UNL     1     -12.720 -21.488   4.872  1.00  0.00     0.200 A 
ATOM    104  F   UNL     1     -11.915 -22.428   6.883  1.00  0.00    -0.200 F 
ATOM    105  F   UNL     1     -13.899 -22.102   5.041  1.00  0.00    -0.200 F 
ENDBRANCH  72  95
ENDBRANCH  46  47
ENDBRANCH  39  41
ENDBRANCH  38  39
ENDBRANCH  37  38
ENDBRANCH  36  37
ENDBRANCH  35  36
ENDBRANCH   1  35
TORSDOF 19
