REMARK SMILES Cc1c(CC(=O)N[C@@H](C)C(=O)OCCOCCOC(=O)c2ccc(-c3c4nc(c(-c5c(F)c(F)c(F)c(F)c5F)c5ccc([nH]5)c(-c5c(F)c(F)c(F)c(F)c5F)c5nc(c(-c6c(F)c(F)c(F)c(F)c6F)c6ccc3[nH]6)C=C5)C=C4)cc2)c(=O)oc2cc3oc4c(c3cc12)CCCC4
REMARK SMILES IDX 14 1 13 2 12 3 10 4 11 5 8 6 9 7 7 8 5 9 6 10 4 12 3 13 1 14
REMARK SMILES IDX 2 15 95 16 84 17 87 18 94 19 85 20 86 21 88 22 93 23 89 24
REMARK SMILES IDX 92 25 90 26 91 27 96 28 99 29 97 30 98 31 15 32 16 33 17 34
REMARK SMILES IDX 18 35 19 36 20 37 21 38 22 39 83 40 23 41 82 42 24 43 25 44
REMARK SMILES IDX 26 45 76 46 27 47 81 48 75 49 77 50 28 51 80 52 74 53 73 54
REMARK SMILES IDX 29 56 61 57 41 58 60 59 42 60 45 61 59 62 78 63 43 64 44 65
REMARK SMILES IDX 58 67 79 68 46 69 30 70 31 71 39 72 32 73 33 74 37 75 40 76
REMARK SMILES IDX 34 77 35 78 38 79 36 80 62 81 63 82 71 83 64 84 65 85 69 86
REMARK SMILES IDX 72 87 66 88 67 89 70 90 68 91 47 92 48 93 56 94 49 95 50 96
REMARK SMILES IDX 54 97 57 98 51 99 52 100 55 101 53 102
REMARK H PARENT 7 11 77 55 45 66
REMARK Flexibility Score: inf
ROOT
ATOM      1  C   UNL     1       6.680   6.207  -1.373  1.00  0.00     0.202 C 
ENDROOT
BRANCH   1   2
ATOM      2  C   UNL     1       6.473   5.838   0.101  1.00  0.00     0.261 C 
BRANCH   2   3
ATOM      3  O   UNL     1       5.709   4.636   0.246  1.00  0.00    -0.462 OA
BRANCH   3   4
ATOM      4  C   UNL     1       4.611   4.757   1.038  1.00  0.00     0.328 C 
ATOM      5  O   UNL     1       4.377   5.704   1.780  1.00  0.00    -0.250 OA
BRANCH   4   6
ATOM      6  C   UNL     1       3.677   3.550   0.933  1.00  0.00     0.189 C 
ATOM      7  C   UNL     1       3.683   2.837   2.279  1.00  0.00     0.043 C 
BRANCH   6   8
ATOM      8  N   UNL     1       3.955   2.588  -0.143  1.00  0.00    -0.343 N 
ATOM      9  C   UNL     1       3.130   2.114  -1.125  1.00  0.00     0.225 C 
ATOM     10  O   UNL     1       3.586   1.288  -1.921  1.00  0.00    -0.275 OA
ATOM     11  H   UNL     1       4.872   2.232  -0.159  1.00  0.00     0.164 HD
BRANCH   9  12
ATOM     12  C   UNL     1       1.688   2.614  -1.266  1.00  0.00     0.143 C 
BRANCH  12  13
ATOM     13  C   UNL     1       0.888   2.363  -0.015  1.00  0.00     0.051 A 
ATOM     14  C   UNL     1       1.188  -0.134  -0.105  1.00  0.00     0.046 C 
ATOM     15  C   UNL     1       0.807   1.158   0.579  1.00  0.00    -0.029 A 
ATOM     16  C   UNL     1       0.286   1.092   1.949  1.00  0.00     0.022 A 
ATOM     17  C   UNL     1       0.249   3.570   0.576  1.00  0.00     0.340 A 
ATOM     18  C   UNL     1      -0.344   2.211   2.500  1.00  0.00     0.142 A 
ATOM     19  C   UNL     1       0.333  -0.097   2.682  1.00  0.00     0.024 A 
ATOM     20  O   UNL     1       0.259   4.649  -0.007  1.00  0.00    -0.246 OA
ATOM     21  O   UNL     1      -0.346   3.438   1.816  1.00  0.00    -0.422 OA
ATOM     22  C   UNL     1      -1.088   2.175   3.683  1.00  0.00     0.095 A 
ATOM     23  C   UNL     1      -0.569  -0.224   3.744  1.00  0.00     0.025 A 
ATOM     24  C   UNL     1      -1.285   0.892   4.168  1.00  0.00     0.138 A 
ATOM     25  C   UNL     1      -1.218  -1.358   4.295  1.00  0.00     0.001 A 
ATOM     26  O   UNL     1      -2.349   0.504   4.928  1.00  0.00    -0.461 OA
ATOM     27  C   UNL     1      -2.408  -0.843   4.776  1.00  0.00     0.108 A 
ATOM     28  C   UNL     1      -1.171  -2.760   3.797  1.00  0.00     0.040 C 
ATOM     29  C   UNL     1      -3.716  -1.458   4.400  1.00  0.00     0.076 C 
ATOM     30  C   UNL     1      -2.325  -2.968   2.788  1.00  0.00     0.005 C 
ATOM     31  C   UNL     1      -3.518  -1.978   2.945  1.00  0.00     0.008 C 
ENDBRANCH  12  13
ENDBRANCH   9  12
ENDBRANCH   6   8
ENDBRANCH   4   6
ENDBRANCH   3   4
ENDBRANCH   2   3
ENDBRANCH   1   2
BRANCH   1  32
ATOM     32  O   UNL     1       5.515   6.259  -2.191  1.00  0.00    -0.374 OA
BRANCH  32  33
ATOM     33  C   UNL     1       4.869   5.028  -2.527  1.00  0.00     0.202 C 
BRANCH  33  34
ATOM     34  C   UNL     1       5.720   3.925  -3.175  1.00  0.00     0.261 C 
BRANCH  34  35
ATOM     35  O   UNL     1       6.578   3.283  -2.213  1.00  0.00    -0.460 OA
BRANCH  35  36
ATOM     36  C   UNL     1       7.891   3.220  -2.529  1.00  0.00     0.338 C 
ATOM     37  O   UNL     1       8.444   3.596  -3.553  1.00  0.00    -0.246 OA
BRANCH  36  38
ATOM     38  C   UNL     1       8.612   2.793  -1.326  1.00  0.00     0.060 A 
ATOM     39  C   UNL     1       8.629   1.451  -0.952  1.00  0.00     0.016 A 
ATOM     40  C   UNL     1       9.279   3.759  -0.568  1.00  0.00     0.016 A 
ATOM     41  C   UNL     1       9.331   1.077   0.195  1.00  0.00     0.010 A 
ATOM     42  C   UNL     1       9.935   3.390   0.600  1.00  0.00     0.010 A 
ATOM     43  C   UNL     1       9.995   2.042   0.974  1.00  0.00    -0.014 A 
BRANCH  43  44
ATOM     44  C   UNL     1      10.904   1.580   2.043  1.00  0.00     0.031 A 
ATOM     45  C   UNL     1      12.230   2.288   2.091  1.00  0.00     0.074 A 
ATOM     46  C   UNL     1      10.443   1.001   3.172  1.00  0.00     0.049 A 
ATOM     47  N   UNL     1      12.419   3.426   2.699  1.00  0.00    -0.248 NA
ATOM     48  C   UNL     1      13.340   1.901   1.220  1.00  0.00     0.031 C 
ATOM     49  C   UNL     1       9.216   1.410   3.864  1.00  0.00     0.029 A 
ATOM     50  N   UNL     1      11.044   0.115   4.040  1.00  0.00    -0.354 N 
ATOM     51  C   UNL     1      13.645   3.922   2.281  1.00  0.00     0.074 A 
ATOM     52  C   UNL     1      14.181   2.936   1.369  1.00  0.00     0.031 C 
ATOM     53  C   UNL     1       9.246   0.917   5.120  1.00  0.00     0.029 A 
ATOM     54  C   UNL     1      10.417   0.054   5.282  1.00  0.00     0.049 A 
ATOM     55  H   UNL     1      11.837  -0.420   3.806  1.00  0.00     0.167 HD
ATOM     56  C   UNL     1      14.155   5.109   2.709  1.00  0.00     0.037 A 
ATOM     57  C   UNL     1      11.064  -0.148   6.466  1.00  0.00     0.037 A 
ATOM     58  C   UNL     1      13.347   5.836   3.640  1.00  0.00     0.049 A 
ATOM     59  C   UNL     1      11.752   1.186   6.639  1.00  0.00     0.074 A 
ATOM     60  C   UNL     1      12.463   6.894   3.629  1.00  0.00     0.029 A 
ATOM     61  N   UNL     1      13.382   5.439   4.955  1.00  0.00    -0.354 N 
ATOM     62  N   UNL     1      11.198   2.299   7.043  1.00  0.00    -0.248 NA
ATOM     63  C   UNL     1      13.045   1.350   5.971  1.00  0.00     0.031 C 
ATOM     64  C   UNL     1      11.669   6.734   4.811  1.00  0.00     0.029 A 
ATOM     65  C   UNL     1      12.109   5.573   5.442  1.00  0.00     0.049 A 
ATOM     66  H   UNL     1      14.170   5.119   5.452  1.00  0.00     0.167 HD
ATOM     67  C   UNL     1      11.946   3.318   6.447  1.00  0.00     0.074 A 
ATOM     68  C   UNL     1      13.071   2.665   5.812  1.00  0.00     0.031 C 
ATOM     69  C   UNL     1      11.523   4.611   6.344  1.00  0.00     0.037 A 
BRANCH  56  70
ATOM     70  C   UNL     1      15.534   5.581   2.467  1.00  0.00     0.064 A 
ATOM     71  C   UNL     1      16.460   5.425   3.511  1.00  0.00     0.173 A 
ATOM     72  C   UNL     1      15.893   6.383   1.382  1.00  0.00     0.173 A 
ATOM     73  F   UNL     1      16.143   4.673   4.579  1.00  0.00    -0.203 F 
ATOM     74  C   UNL     1      17.680   6.089   3.500  1.00  0.00     0.198 A 
ATOM     75  C   UNL     1      17.127   7.037   1.364  1.00  0.00     0.198 A 
ATOM     76  F   UNL     1      15.036   6.577   0.369  1.00  0.00    -0.203 F 
ATOM     77  F   UNL     1      18.511   5.970   4.544  1.00  0.00    -0.200 F 
ATOM     78  C   UNL     1      18.010   6.904   2.430  1.00  0.00     0.200 A 
ATOM     79  F   UNL     1      17.451   7.830   0.333  1.00  0.00    -0.200 F 
ATOM     80  F   UNL     1      19.170   7.574   2.435  1.00  0.00    -0.200 F 
ENDBRANCH  56  70
BRANCH  57  81
ATOM     81  C   UNL     1      11.774  -1.461   6.628  1.00  0.00     0.064 A 
ATOM     82  C   UNL     1      11.084  -2.646   6.298  1.00  0.00     0.173 A 
ATOM     83  C   UNL     1      13.087  -1.630   7.096  1.00  0.00     0.173 A 
ATOM     84  F   UNL     1       9.783  -2.599   5.968  1.00  0.00    -0.203 F 
ATOM     85  C   UNL     1      11.711  -3.893   6.289  1.00  0.00     0.198 A 
ATOM     86  C   UNL     1      13.726  -2.873   7.059  1.00  0.00     0.198 A 
ATOM     87  F   UNL     1      13.787  -0.597   7.582  1.00  0.00    -0.203 F 
ATOM     88  F   UNL     1      11.025  -4.983   5.922  1.00  0.00    -0.200 F 
ATOM     89  C   UNL     1      13.046  -3.999   6.633  1.00  0.00     0.200 A 
ATOM     90  F   UNL     1      15.016  -2.967   7.412  1.00  0.00    -0.200 F 
ATOM     91  F   UNL     1      13.672  -5.181   6.560  1.00  0.00    -0.200 F 
ENDBRANCH  57  81
BRANCH  69  92
ATOM     92  C   UNL     1      10.255   4.944   7.045  1.00  0.00     0.064 A 
ATOM     93  C   UNL     1      10.223   5.024   8.442  1.00  0.00     0.173 A 
ATOM     94  C   UNL     1       9.085   5.259   6.336  1.00  0.00     0.173 A 
ATOM     95  F   UNL     1      11.320   4.742   9.162  1.00  0.00    -0.203 F 
ATOM     96  C   UNL     1       9.072   5.437   9.105  1.00  0.00     0.198 A 
ATOM     97  C   UNL     1       7.945   5.697   7.001  1.00  0.00     0.198 A 
ATOM     98  F   UNL     1       9.052   5.177   4.996  1.00  0.00    -0.203 F 
ATOM     99  F   UNL     1       9.065   5.523  10.442  1.00  0.00    -0.200 F 
ATOM    100  C   UNL     1       7.940   5.790   8.383  1.00  0.00     0.200 A 
ATOM    101  F   UNL     1       6.859   6.055   6.301  1.00  0.00    -0.200 F 
ATOM    102  F   UNL     1       6.849   6.236   9.022  1.00  0.00    -0.200 F 
ENDBRANCH  69  92
ENDBRANCH  43  44
ENDBRANCH  36  38
ENDBRANCH  35  36
ENDBRANCH  34  35
ENDBRANCH  33  34
ENDBRANCH  32  33
ENDBRANCH   1  32
TORSDOF 17
