REMARK SMILES COCCN1C[C@H](C(=O)N2CCC(C(=O)OCCOCCOC(=O)c3ccc(-c4c5nc(c(-c6c(F)c(F)c(F)c(F)c6F)c6ccc([nH]6)c(-c6c(F)c(F)c(F)c(F)c6F)c6nc(c(-c7c(F)c(F)c(F)c(F)c7F)c7ccc4[nH]7)C=C6)C=C5)cc3)CC2)CC1=O
REMARK SMILES IDX 18 1 17 2 16 3 14 4 15 5 13 6 8 7 9 8 10 9 11 10 89 11 12 12
REMARK SMILES IDX 88 13 7 14 5 15 6 16 91 17 90 18 92 19 4 20 3 21 2 22 1 23
REMARK SMILES IDX 19 24 20 25 21 26 22 27 23 28 24 29 25 30 26 31 87 32 27 33
REMARK SMILES IDX 86 34 28 35 29 36 30 37 80 38 31 39 85 40 79 41 81 42 32 43
REMARK SMILES IDX 84 44 78 45 77 46 33 48 65 49 45 50 64 51 46 52 49 53 63 54
REMARK SMILES IDX 82 55 47 56 48 57 62 59 83 60 50 61 34 62 35 63 43 64 36 65
REMARK SMILES IDX 37 66 41 67 44 68 38 69 39 70 42 71 40 72 66 73 67 74 75 75
REMARK SMILES IDX 68 76 69 77 73 78 76 79 70 80 71 81 74 82 72 83 51 84 52 85
REMARK SMILES IDX 60 86 53 87 54 88 58 89 61 90 55 91 56 92 59 93 57 94
REMARK H PARENT 81 47 49 58
REMARK Flexibility Score: inf
ROOT
ATOM      1  C   UNL     1      10.599   6.336   2.711  1.00  0.00     0.202 C 
ENDROOT
BRANCH   1   2
ATOM      2  C   UNL     1       9.559   5.838   3.719  1.00  0.00     0.261 C 
BRANCH   2   3
ATOM      3  O   UNL     1       8.260   5.695   3.123  1.00  0.00    -0.463 OA
BRANCH   3   4
ATOM      4  C   UNL     1       7.325   6.573   3.566  1.00  0.00     0.309 C 
ATOM      5  O   UNL     1       7.481   7.370   4.483  1.00  0.00    -0.252 OA
BRANCH   4   6
ATOM      6  C   UNL     1       6.021   6.480   2.809  1.00  0.00     0.103 C 
ATOM      7  C   UNL     1       3.316   4.015   1.198  1.00  0.00     0.227 C 
ATOM      8  O   UNL     1       3.967   3.357   0.386  1.00  0.00    -0.274 OA
ATOM      9  N   UNL     1       3.739   5.264   1.604  1.00  0.00    -0.342 N 
ATOM     10  C   UNL     1       4.708   5.952   0.763  1.00  0.00     0.120 C 
ATOM     11  C   UNL     1       3.632   5.741   2.981  1.00  0.00     0.120 C 
ATOM     12  C   UNL     1       6.093   5.900   1.390  1.00  0.00     0.037 C 
ATOM     13  C   UNL     1       5.007   5.701   3.648  1.00  0.00     0.037 C 
BRANCH   7  14
ATOM     14  C   UNL     1       1.945   3.557   1.679  1.00  0.00     0.107 C 
ATOM     15  N   UNL     1       1.168   2.204  -0.072  1.00  0.00    -0.340 N 
ATOM     16  C   UNL     1       1.004   3.529   0.484  1.00  0.00     0.133 C 
ATOM     17  C   UNL     1       1.879   1.381   0.793  1.00  0.00     0.223 C 
ATOM     18  C   UNL     1       2.006   2.104   2.110  1.00  0.00     0.115 C 
ATOM     19  O   UNL     1       2.303   0.254   0.601  1.00  0.00    -0.275 OA
BRANCH  15  20
ATOM     20  C   UNL     1       0.724   1.938  -1.439  1.00  0.00     0.148 C 
BRANCH  20  21
ATOM     21  C   UNL     1       1.004   0.566  -2.063  1.00  0.00     0.181 C 
BRANCH  21  22
ATOM     22  O   UNL     1      -0.043  -0.379  -1.823  1.00  0.00    -0.383 OA
ATOM     23  C   UNL     1       0.138  -1.125  -0.628  1.00  0.00     0.194 C 
ENDBRANCH  21  22
ENDBRANCH  20  21
ENDBRANCH  15  20
ENDBRANCH   7  14
ENDBRANCH   4   6
ENDBRANCH   3   4
ENDBRANCH   2   3
ENDBRANCH   1   2
BRANCH   1  24
ATOM     24  O   UNL     1      10.390   7.607   2.103  1.00  0.00    -0.374 OA
BRANCH  24  25
ATOM     25  C   UNL     1       9.383   7.715   1.101  1.00  0.00     0.202 C 
BRANCH  25  26
ATOM     26  C   UNL     1       9.645   7.065  -0.268  1.00  0.00     0.261 C 
BRANCH  26  27
ATOM     27  O   UNL     1       9.828   5.639  -0.199  1.00  0.00    -0.460 OA
BRANCH  27  28
ATOM     28  C   UNL     1      11.100   5.230  -0.434  1.00  0.00     0.338 C 
ATOM     29  O   UNL     1      12.055   5.924  -0.742  1.00  0.00    -0.246 OA
BRANCH  28  30
ATOM     30  C   UNL     1      11.259   3.808  -0.079  1.00  0.00     0.060 A 
ATOM     31  C   UNL     1      12.241   3.490   0.869  1.00  0.00     0.016 A 
ATOM     32  C   UNL     1      10.548   2.800  -0.731  1.00  0.00     0.016 A 
ATOM     33  C   UNL     1      12.557   2.160   1.129  1.00  0.00     0.010 A 
ATOM     34  C   UNL     1      10.873   1.463  -0.473  1.00  0.00     0.010 A 
ATOM     35  C   UNL     1      11.906   1.139   0.427  1.00  0.00    -0.014 A 
BRANCH  35  36
ATOM     36  C   UNL     1      12.411  -0.252   0.533  1.00  0.00     0.031 A 
ATOM     37  C   UNL     1      13.251  -0.815  -0.581  1.00  0.00     0.074 A 
ATOM     38  C   UNL     1      12.162  -0.991   1.629  1.00  0.00     0.049 A 
ATOM     39  N   UNL     1      13.770  -2.010  -0.710  1.00  0.00    -0.248 NA
ATOM     40  C   UNL     1      13.543   0.092  -1.702  1.00  0.00     0.031 C 
ATOM     41  C   UNL     1      11.399  -0.541   2.791  1.00  0.00     0.029 A 
ATOM     42  N   UNL     1      12.521  -2.279   1.937  1.00  0.00    -0.354 N 
ATOM     43  C   UNL     1      14.435  -2.003  -1.930  1.00  0.00     0.074 A 
ATOM     44  C   UNL     1      14.233  -0.695  -2.515  1.00  0.00     0.031 C 
ATOM     45  C   UNL     1      11.338  -1.543   3.684  1.00  0.00     0.029 A 
ATOM     46  C   UNL     1      12.023  -2.714   3.140  1.00  0.00     0.049 A 
ATOM     47  H   UNL     1      13.081  -2.838   1.351  1.00  0.00     0.167 HD
ATOM     48  C   UNL     1      15.154  -2.997  -2.504  1.00  0.00     0.037 A 
ATOM     49  C   UNL     1      12.090  -3.927   3.721  1.00  0.00     0.037 A 
ATOM     50  C   UNL     1      15.358  -4.294  -1.913  1.00  0.00     0.049 A 
ATOM     51  C   UNL     1      12.840  -5.036   3.031  1.00  0.00     0.074 A 
ATOM     52  C   UNL     1      16.098  -5.357  -2.401  1.00  0.00     0.029 A 
ATOM     53  N   UNL     1      14.810  -4.709  -0.707  1.00  0.00    -0.354 N 
ATOM     54  N   UNL     1      13.491  -5.015   1.893  1.00  0.00    -0.248 NA
ATOM     55  C   UNL     1      12.869  -6.339   3.710  1.00  0.00     0.031 C 
ATOM     56  C   UNL     1      15.943  -6.436  -1.525  1.00  0.00     0.029 A 
ATOM     57  C   UNL     1      15.168  -6.024  -0.453  1.00  0.00     0.049 A 
ATOM     58  H   UNL     1      14.251  -4.152  -0.119  1.00  0.00     0.167 HD
ATOM     59  C   UNL     1      14.030  -6.285   1.735  1.00  0.00     0.074 A 
ATOM     60  C   UNL     1      13.643  -7.049   2.902  1.00  0.00     0.031 C 
ATOM     61  C   UNL     1      14.781  -6.774   0.716  1.00  0.00     0.037 A 
BRANCH  48  62
ATOM     62  C   UNL     1      15.746  -2.738  -3.861  1.00  0.00     0.064 A 
ATOM     63  C   UNL     1      16.814  -1.848  -4.048  1.00  0.00     0.173 A 
ATOM     64  C   UNL     1      15.267  -3.430  -4.984  1.00  0.00     0.173 A 
ATOM     65  F   UNL     1      17.304  -1.152  -3.011  1.00  0.00    -0.203 F 
ATOM     66  C   UNL     1      17.362  -1.642  -5.312  1.00  0.00     0.198 A 
ATOM     67  C   UNL     1      15.838  -3.247  -6.240  1.00  0.00     0.198 A 
ATOM     68  F   UNL     1      14.251  -4.298  -4.861  1.00  0.00    -0.203 F 
ATOM     69  F   UNL     1      18.352  -0.753  -5.475  1.00  0.00    -0.200 F 
ATOM     70  C   UNL     1      16.881  -2.348  -6.404  1.00  0.00     0.200 A 
ATOM     71  F   UNL     1      15.382  -3.943  -7.290  1.00  0.00    -0.200 F 
ATOM     72  F   UNL     1      17.418  -2.158  -7.617  1.00  0.00    -0.200 F 
ENDBRANCH  48  62
BRANCH  49  73
ATOM     73  C   UNL     1      11.413  -4.161   5.025  1.00  0.00     0.064 A 
ATOM     74  C   UNL     1      12.150  -4.414   6.189  1.00  0.00     0.173 A 
ATOM     75  C   UNL     1      10.014  -4.144   5.129  1.00  0.00     0.173 A 
ATOM     76  F   UNL     1      13.489  -4.465   6.137  1.00  0.00    -0.203 F 
ATOM     77  C   UNL     1      11.514  -4.659   7.405  1.00  0.00     0.198 A 
ATOM     78  C   UNL     1       9.380  -4.357   6.351  1.00  0.00     0.198 A 
ATOM     79  F   UNL     1       9.262  -3.907   4.045  1.00  0.00    -0.203 F 
ATOM     80  F   UNL     1      12.241  -4.947   8.493  1.00  0.00    -0.200 F 
ATOM     81  C   UNL     1      10.130  -4.623   7.486  1.00  0.00     0.200 A 
ATOM     82  F   UNL     1       8.043  -4.305   6.428  1.00  0.00    -0.200 F 
ATOM     83  F   UNL     1       9.519  -4.851   8.657  1.00  0.00    -0.200 F 
ENDBRANCH  49  73
BRANCH  61  84
ATOM     84  C   UNL     1      15.274  -8.189   0.833  1.00  0.00     0.064 A 
ATOM     85  C   UNL     1      14.406  -9.287   0.740  1.00  0.00     0.173 A 
ATOM     86  C   UNL     1      16.643  -8.450   1.000  1.00  0.00     0.173 A 
ATOM     87  F   UNL     1      13.086  -9.095   0.592  1.00  0.00    -0.203 F 
ATOM     88  C   UNL     1      14.886 -10.591   0.839  1.00  0.00     0.198 A 
ATOM     89  C   UNL     1      17.124  -9.755   1.063  1.00  0.00     0.198 A 
ATOM     90  F   UNL     1      17.520  -7.438   1.087  1.00  0.00    -0.203 F 
ATOM     91  F   UNL     1      14.031 -11.623   0.802  1.00  0.00    -0.200 F 
ATOM     92  C   UNL     1      16.245 -10.824   0.992  1.00  0.00     0.200 A 
ATOM     93  F   UNL     1      18.439  -9.977   1.192  1.00  0.00    -0.200 F 
ATOM     94  F   UNL     1      16.706 -12.079   1.079  1.00  0.00    -0.200 F 
ENDBRANCH  61  84
ENDBRANCH  35  36
ENDBRANCH  28  30
ENDBRANCH  27  28
ENDBRANCH  26  27
ENDBRANCH  25  26
ENDBRANCH  24  25
ENDBRANCH   1  24
TORSDOF 18
