REMARK SMILES O=C(CC1(C(=O)OCCOCCOC(=O)c2ccc(-c3c4nc(c(-c5c(F)c(F)c(F)c(F)c5F)c5ccc([nH]5)c(-c5c(F)c(F)c(F)c(F)c5F)c5nc(c(-c6c(F)c(F)c(F)c(F)c6F)c6ccc3[nH]6)C=C5)C=C4)cc2)CCCCC1)Nc1ccc(N2CCOC2=O)cc1
REMARK SMILES IDX 9 1 8 2 7 3 5 4 6 5 4 6 79 7 83 8 80 9 82 10 81 11 3 12 2 13
REMARK SMILES IDX 1 14 84 15 85 17 86 18 96 19 87 20 95 21 88 22 89 23 90 24
REMARK SMILES IDX 93 25 91 26 92 27 94 28 10 29 11 30 12 31 13 32 14 33 15 34
REMARK SMILES IDX 16 35 17 36 78 37 18 38 77 39 19 40 20 41 21 42 71 43 22 44
REMARK SMILES IDX 76 45 70 46 72 47 23 48 75 49 69 50 68 51 24 53 56 54 36 55
REMARK SMILES IDX 55 56 37 57 40 58 54 59 73 60 38 61 39 62 53 64 74 65 41 66
REMARK SMILES IDX 25 67 26 68 34 69 27 70 28 71 32 72 35 73 29 74 30 75 33 76
REMARK SMILES IDX 31 77 57 78 58 79 66 80 59 81 60 82 64 83 67 84 61 85 62 86
REMARK SMILES IDX 65 87 63 88 42 89 43 90 51 91 44 92 45 93 49 94 52 95 46 96
REMARK SMILES IDX 47 97 50 98 48 99
REMARK H PARENT 84 16 72 52 40 63
REMARK Flexibility Score: inf
ROOT
ATOM      1  C   UNL     1       8.238   1.113  -0.073  1.00  0.00     0.202 C 
ENDROOT
BRANCH   1   2
ATOM      2  C   UNL     1       7.442   2.392   0.184  1.00  0.00     0.261 C 
BRANCH   2   3
ATOM      3  O   UNL     1       6.201   2.107   0.849  1.00  0.00    -0.463 OA
BRANCH   3   4
ATOM      4  C   UNL     1       5.082   2.422   0.152  1.00  0.00     0.312 C 
ATOM      5  O   UNL     1       5.084   2.998  -0.930  1.00  0.00    -0.252 OA
BRANCH   4   6
ATOM      6  C   UNL     1       3.782   1.963   0.841  1.00  0.00     0.077 C 
ATOM      7  C   UNL     1       3.093   3.267   1.309  1.00  0.00     0.019 C 
ATOM      8  C   UNL     1       3.967   1.028   2.065  1.00  0.00     0.019 C 
ATOM      9  C   UNL     1       3.819   3.913   2.497  1.00  0.00     0.001 C 
ATOM     10  C   UNL     1       4.557   1.656   3.327  1.00  0.00     0.001 C 
ATOM     11  C   UNL     1       3.886   2.969   3.690  1.00  0.00     0.000 C 
BRANCH   6  12
ATOM     12  C   UNL     1       2.982   1.279  -0.326  1.00  0.00     0.119 C 
BRANCH  12  13
ATOM     13  C   UNL     1       2.058   0.100  -0.042  1.00  0.00     0.225 C 
ATOM     14  O   UNL     1       0.839   0.223  -0.108  1.00  0.00    -0.275 OA
ATOM     15  N   UNL     1       2.723  -1.070   0.284  1.00  0.00    -0.326 N 
ATOM     16  H   UNL     1       3.704  -1.030   0.350  1.00  0.00     0.169 HD
BRANCH  15  17
ATOM     17  C   UNL     1       2.108  -2.310   0.527  1.00  0.00     0.041 A 
ATOM     18  C   UNL     1       2.622  -3.107   1.554  1.00  0.00     0.028 A 
ATOM     19  C   UNL     1       1.042  -2.776  -0.238  1.00  0.00     0.028 A 
ATOM     20  C   UNL     1       2.006  -4.320   1.879  1.00  0.00     0.028 A 
ATOM     21  C   UNL     1       0.502  -4.042   0.014  1.00  0.00     0.028 A 
ATOM     22  C   UNL     1       0.953  -4.802   1.098  1.00  0.00     0.047 A 
BRANCH  22  23
ATOM     23  N   UNL     1       0.319  -6.011   1.419  1.00  0.00    -0.274 N 
ATOM     24  C   UNL     1      -0.038  -6.387   2.748  1.00  0.00     0.171 C 
ATOM     25  C   UNL     1      -0.060  -6.992   0.527  1.00  0.00     0.414 C 
ATOM     26  C   UNL     1      -1.046  -7.483   2.498  1.00  0.00     0.257 C 
ATOM     27  O   UNL     1      -0.732  -7.982   1.195  1.00  0.00    -0.447 OA
ATOM     28  O   UNL     1       0.181  -7.049  -0.672  1.00  0.00    -0.224 OA
ENDBRANCH  22  23
ENDBRANCH  15  17
ENDBRANCH  12  13
ENDBRANCH   6  12
ENDBRANCH   4   6
ENDBRANCH   3   4
ENDBRANCH   2   3
ENDBRANCH   1   2
BRANCH   1  29
ATOM     29  O   UNL     1       7.637   0.114  -0.893  1.00  0.00    -0.374 OA
BRANCH  29  30
ATOM     30  C   UNL     1       6.537  -0.626  -0.375  1.00  0.00     0.202 C 
BRANCH  30  31
ATOM     31  C   UNL     1       6.807  -1.647   0.738  1.00  0.00     0.261 C 
BRANCH  31  32
ATOM     32  O   UNL     1       7.311  -1.048   1.945  1.00  0.00    -0.460 OA
BRANCH  32  33
ATOM     33  C   UNL     1       8.609  -1.344   2.201  1.00  0.00     0.338 C 
ATOM     34  O   UNL     1       9.335  -2.088   1.563  1.00  0.00    -0.246 OA
BRANCH  33  35
ATOM     35  C   UNL     1       9.137  -0.499   3.286  1.00  0.00     0.060 A 
ATOM     36  C   UNL     1      10.302   0.230   3.012  1.00  0.00     0.016 A 
ATOM     37  C   UNL     1       8.597  -0.524   4.572  1.00  0.00     0.016 A 
ATOM     38  C   UNL     1      10.978   0.874   4.041  1.00  0.00     0.010 A 
ATOM     39  C   UNL     1       9.281   0.123   5.608  1.00  0.00     0.010 A 
ATOM     40  C   UNL     1      10.500   0.779   5.354  1.00  0.00    -0.014 A 
BRANCH  40  41
ATOM     41  C   UNL     1      11.376   1.219   6.468  1.00  0.00     0.031 A 
ATOM     42  C   UNL     1      12.119   0.182   7.266  1.00  0.00     0.074 A 
ATOM     43  C   UNL     1      11.559   2.527   6.717  1.00  0.00     0.049 A 
ATOM     44  N   UNL     1      12.938   0.337   8.275  1.00  0.00    -0.248 NA
ATOM     45  C   UNL     1      11.909  -1.220   6.874  1.00  0.00     0.031 C 
ATOM     46  C   UNL     1      10.935   3.621   5.976  1.00  0.00     0.029 A 
ATOM     47  N   UNL     1      12.332   3.155   7.661  1.00  0.00    -0.354 N 
ATOM     48  C   UNL     1      13.333  -0.944   8.642  1.00  0.00     0.074 A 
ATOM     49  C   UNL     1      12.634  -1.866   7.775  1.00  0.00     0.031 C 
ATOM     50  C   UNL     1      11.351   4.789   6.493  1.00  0.00     0.029 A 
ATOM     51  C   UNL     1      12.240   4.523   7.622  1.00  0.00     0.049 A 
ATOM     52  H   UNL     1      12.897   2.670   8.305  1.00  0.00     0.167 HD
ATOM     53  C   UNL     1      14.210  -1.315   9.606  1.00  0.00     0.037 A 
ATOM     54  C   UNL     1      12.798   5.453   8.421  1.00  0.00     0.037 A 
ATOM     55  C   UNL     1      14.905  -0.389  10.463  1.00  0.00     0.049 A 
ATOM     56  C   UNL     1      13.706   5.009   9.540  1.00  0.00     0.074 A 
ATOM     57  C   UNL     1      15.823  -0.659  11.462  1.00  0.00     0.029 A 
ATOM     58  N   UNL     1      14.749   0.990  10.427  1.00  0.00    -0.354 N 
ATOM     59  N   UNL     1      14.091   3.799   9.867  1.00  0.00    -0.248 NA
ATOM     60  C   UNL     1      14.263   6.066  10.396  1.00  0.00     0.031 C 
ATOM     61  C   UNL     1      16.174   0.549  12.073  1.00  0.00     0.029 A 
ATOM     62  C   UNL     1      15.531   1.581  11.407  1.00  0.00     0.049 A 
ATOM     63  H   UNL     1      14.169   1.476   9.797  1.00  0.00     0.167 HD
ATOM     64  C   UNL     1      14.961   3.950  10.940  1.00  0.00     0.074 A 
ATOM     65  C   UNL     1      15.057   5.372  11.198  1.00  0.00     0.031 C 
ATOM     66  C   UNL     1      15.623   3.000  11.646  1.00  0.00     0.037 A 
BRANCH  53  67
ATOM     67  C   UNL     1      14.440  -2.787   9.808  1.00  0.00     0.064 A 
ATOM     68  C   UNL     1      15.103  -3.574   8.854  1.00  0.00     0.173 A 
ATOM     69  C   UNL     1      14.010  -3.416  10.987  1.00  0.00     0.173 A 
ATOM     70  F   UNL     1      15.524  -3.028   7.702  1.00  0.00    -0.203 F 
ATOM     71  C   UNL     1      15.296  -4.939   9.057  1.00  0.00     0.198 A 
ATOM     72  C   UNL     1      14.237  -4.773  11.203  1.00  0.00     0.198 A 
ATOM     73  F   UNL     1      13.375  -2.712  11.937  1.00  0.00    -0.203 F 
ATOM     74  F   UNL     1      15.879  -5.680   8.105  1.00  0.00    -0.200 F 
ATOM     75  C   UNL     1      14.870  -5.535  10.234  1.00  0.00     0.200 A 
ATOM     76  F   UNL     1      13.836  -5.343  12.348  1.00  0.00    -0.200 F 
ATOM     77  F   UNL     1      15.060  -6.847  10.430  1.00  0.00    -0.200 F 
ENDBRANCH  53  67
BRANCH  54  78
ATOM     78  C   UNL     1      12.514   6.895   8.197  1.00  0.00     0.064 A 
ATOM     79  C   UNL     1      13.524   7.777   7.788  1.00  0.00     0.173 A 
ATOM     80  C   UNL     1      11.232   7.425   8.407  1.00  0.00     0.173 A 
ATOM     81  F   UNL     1      14.771   7.323   7.596  1.00  0.00    -0.203 F 
ATOM     82  C   UNL     1      13.268   9.136   7.620  1.00  0.00     0.198 A 
ATOM     83  C   UNL     1      10.970   8.778   8.206  1.00  0.00     0.198 A 
ATOM     84  F   UNL     1      10.229   6.625   8.798  1.00  0.00    -0.203 F 
ATOM     85  F   UNL     1      14.265   9.965   7.279  1.00  0.00    -0.200 F 
ATOM     86  C   UNL     1      11.991   9.635   7.822  1.00  0.00     0.200 A 
ATOM     87  F   UNL     1       9.730   9.252   8.387  1.00  0.00    -0.200 F 
ATOM     88  F   UNL     1      11.745  10.941   7.657  1.00  0.00    -0.200 F 
ENDBRANCH  54  78
BRANCH  66  89
ATOM     89  C   UNL     1      16.551   3.468  12.732  1.00  0.00     0.064 A 
ATOM     90  C   UNL     1      16.076   4.055  13.915  1.00  0.00     0.173 A 
ATOM     91  C   UNL     1      17.939   3.300  12.597  1.00  0.00     0.173 A 
ATOM     92  F   UNL     1      14.760   4.250  14.090  1.00  0.00    -0.203 F 
ATOM     93  C   UNL     1      16.956   4.490  14.903  1.00  0.00     0.198 A 
ATOM     94  C   UNL     1      18.813   3.701  13.604  1.00  0.00     0.198 A 
ATOM     95  F   UNL     1      18.448   2.736  11.492  1.00  0.00    -0.203 F 
ATOM     96  F   UNL     1      16.482   5.104  15.996  1.00  0.00    -0.200 F 
ATOM     97  C   UNL     1      18.322   4.306  14.751  1.00  0.00     0.200 A 
ATOM     98  F   UNL     1      20.131   3.505  13.462  1.00  0.00    -0.200 F 
ATOM     99  F   UNL     1      19.166   4.719  15.705  1.00  0.00    -0.200 F 
ENDBRANCH  66  89
ENDBRANCH  40  41
ENDBRANCH  33  35
ENDBRANCH  32  33
ENDBRANCH  31  32
ENDBRANCH  30  31
ENDBRANCH  29  30
ENDBRANCH   1  29
TORSDOF 18
