REMARK SMILES O=C(OCCOCCOC(=O)C1CC[NH+]([C@H]2CC(=O)N(c3ccc4c(c3)OCCO4)C2=O)CC1)c1ccc(-c2c3nc(c(-c4c(F)c(F)c(F)c(F)c4F)c4ccc([nH]4)c(-c4c(F)c(F)c(F)c(F)c4F)c4nc(c(-c5c(F)c(F)c(F)c(F)c5F)c5ccc2[nH]5)C=C4)C=C3)cc1
REMARK SMILES IDX 6 1 5 2 4 3 3 4 2 5 1 6 35 7 36 8 97 9 37 10 96 11 38 12
REMARK SMILES IDX 39 13 40 14 90 15 41 16 95 17 89 18 91 19 42 20 94 21 88 22
REMARK SMILES IDX 87 23 43 25 75 26 55 27 74 28 56 29 59 30 73 31 92 32 57 33
REMARK SMILES IDX 58 34 72 36 93 37 60 38 44 39 45 40 53 41 46 42 47 43 51 44
REMARK SMILES IDX 54 45 48 46 49 47 52 48 50 49 76 50 77 51 85 52 78 53 79 54
REMARK SMILES IDX 83 55 86 56 80 57 81 58 84 59 82 60 61 61 62 62 70 63 63 64
REMARK SMILES IDX 64 65 68 66 71 67 65 68 66 69 69 70 67 71 7 72 8 73 9 74
REMARK SMILES IDX 10 75 11 76 12 77 13 78 34 79 14 80 33 81 15 82 16 84 17 85
REMARK SMILES IDX 31 86 18 87 20 88 32 89 19 90 21 91 22 92 26 93 23 94 25 95
REMARK SMILES IDX 24 96 27 97 30 98 28 99 29 100
REMARK H PARENT 91 24 59 35 15 83
REMARK Flexibility Score: inf
ROOT
ATOM      1  O   UNL     1       4.928  10.239   6.505  1.00  0.00    -0.374 OA
ENDROOT
BRANCH   1   2
ATOM      2  C   UNL     1       3.697   9.579   6.818  1.00  0.00     0.202 C 
BRANCH   2   3
ATOM      3  C   UNL     1       3.018   9.985   8.129  1.00  0.00     0.261 C 
BRANCH   3   4
ATOM      4  O   UNL     1       2.785  11.400   8.162  1.00  0.00    -0.460 OA
BRANCH   4   5
ATOM      5  C   UNL     1       3.582  12.358   8.691  1.00  0.00     0.338 C 
ATOM      6  O   UNL     1       3.253  13.535   8.565  1.00  0.00    -0.246 OA
BRANCH   5   7
ATOM      7  C   UNL     1       4.851  12.061   9.423  1.00  0.00     0.060 A 
ATOM      8  C   UNL     1       5.624  10.916   9.240  1.00  0.00     0.016 A 
ATOM      9  C   UNL     1       5.341  13.048  10.295  1.00  0.00     0.016 A 
ATOM     10  C   UNL     1       6.803  10.713   9.916  1.00  0.00     0.010 A 
ATOM     11  C   UNL     1       6.560  12.875  10.960  1.00  0.00     0.010 A 
ATOM     12  C   UNL     1       7.284  11.696  10.768  1.00  0.00    -0.014 A 
BRANCH  12  13
ATOM     13  C   UNL     1       8.491  11.330  11.514  1.00  0.00     0.031 A 
ATOM     14  C   UNL     1       8.319  10.856  12.918  1.00  0.00     0.074 A 
ATOM     15  C   UNL     1       9.639  11.174  10.830  1.00  0.00     0.049 A 
ATOM     16  N   UNL     1       9.214  10.412  13.754  1.00  0.00    -0.248 NA
ATOM     17  C   UNL     1       6.941  10.845  13.443  1.00  0.00     0.031 C 
ATOM     18  C   UNL     1       9.809  11.443   9.396  1.00  0.00     0.029 A 
ATOM     19  N   UNL     1      10.854  10.688  11.222  1.00  0.00    -0.354 N 
ATOM     20  C   UNL     1       8.514  10.085  14.906  1.00  0.00     0.074 A 
ATOM     21  C   UNL     1       7.122  10.388  14.672  1.00  0.00     0.031 C 
ATOM     22  C   UNL     1      11.051  11.095   9.028  1.00  0.00     0.029 A 
ATOM     23  C   UNL     1      11.783  10.661  10.210  1.00  0.00     0.049 A 
ATOM     24  H   UNL     1      11.046  10.388  12.140  1.00  0.00     0.167 HD
ATOM     25  C   UNL     1       9.011   9.578  16.055  1.00  0.00     0.037 A 
ATOM     26  C   UNL     1      13.092  10.361  10.263  1.00  0.00     0.037 A 
ATOM     27  C   UNL     1      10.409   9.303  16.242  1.00  0.00     0.049 A 
ATOM     28  C   UNL     1      13.643   9.938  11.599  1.00  0.00     0.074 A 
ATOM     29  C   UNL     1      11.071   8.903  17.385  1.00  0.00     0.029 A 
ATOM     30  N   UNL     1      11.363   9.405  15.235  1.00  0.00    -0.354 N 
ATOM     31  N   UNL     1      13.005   9.737  12.730  1.00  0.00    -0.248 NA
ATOM     32  C   UNL     1      15.089   9.714  11.675  1.00  0.00     0.031 C 
ATOM     33  C   UNL     1      12.434   8.810  17.081  1.00  0.00     0.029 A 
ATOM     34  C   UNL     1      12.614   9.090  15.734  1.00  0.00     0.049 A 
ATOM     35  H   UNL     1      11.175   9.663  14.304  1.00  0.00     0.167 HD
ATOM     36  C   UNL     1      13.968   9.350  13.649  1.00  0.00     0.074 A 
ATOM     37  C   UNL     1      15.227   9.310  12.929  1.00  0.00     0.031 C 
ATOM     38  C   UNL     1      13.836   9.063  14.969  1.00  0.00     0.037 A 
BRANCH  25  39
ATOM     39  C   UNL     1       8.049   9.385  17.187  1.00  0.00     0.064 A 
ATOM     40  C   UNL     1       7.075   8.375  17.173  1.00  0.00     0.173 A 
ATOM     41  C   UNL     1       8.073  10.257  18.285  1.00  0.00     0.173 A 
ATOM     42  F   UNL     1       6.982   7.540  16.127  1.00  0.00    -0.203 F 
ATOM     43  C   UNL     1       6.146   8.262  18.206  1.00  0.00     0.198 A 
ATOM     44  C   UNL     1       7.162  10.123  19.329  1.00  0.00     0.198 A 
ATOM     45  F   UNL     1       8.972  11.251  18.339  1.00  0.00    -0.203 F 
ATOM     46  F   UNL     1       5.186   7.329  18.142  1.00  0.00    -0.200 F 
ATOM     47  C   UNL     1       6.194   9.132  19.285  1.00  0.00     0.200 A 
ATOM     48  F   UNL     1       7.209  10.967  20.369  1.00  0.00    -0.200 F 
ATOM     49  F   UNL     1       5.296   9.025  20.274  1.00  0.00    -0.200 F 
ENDBRANCH  25  39
BRANCH  26  50
ATOM     50  C   UNL     1      13.965  10.541   9.071  1.00  0.00     0.064 A 
ATOM     51  C   UNL     1      14.683   9.475   8.512  1.00  0.00     0.173 A 
ATOM     52  C   UNL     1      14.141  11.810   8.493  1.00  0.00     0.173 A 
ATOM     53  F   UNL     1      14.570   8.244   9.033  1.00  0.00    -0.203 F 
ATOM     54  C   UNL     1      15.568   9.678   7.452  1.00  0.00     0.198 A 
ATOM     55  C   UNL     1      14.995  12.004   7.410  1.00  0.00     0.198 A 
ATOM     56  F   UNL     1      13.484  12.871   8.985  1.00  0.00    -0.203 F 
ATOM     57  F   UNL     1      16.296   8.654   6.986  1.00  0.00    -0.200 F 
ATOM     58  C   UNL     1      15.720  10.941   6.900  1.00  0.00     0.200 A 
ATOM     59  F   UNL     1      15.124  13.225   6.872  1.00  0.00    -0.200 F 
ATOM     60  F   UNL     1      16.579  11.136   5.890  1.00  0.00    -0.200 F 
ENDBRANCH  26  50
BRANCH  38  61
ATOM     61  C   UNL     1      15.085   8.655  15.689  1.00  0.00     0.064 A 
ATOM     62  C   UNL     1      16.113   9.571  15.958  1.00  0.00     0.173 A 
ATOM     63  C   UNL     1      15.241   7.335  16.136  1.00  0.00     0.173 A 
ATOM     64  F   UNL     1      16.014  10.841  15.535  1.00  0.00    -0.203 F 
ATOM     65  C   UNL     1      17.270   9.169  16.614  1.00  0.00     0.198 A 
ATOM     66  C   UNL     1      16.383   6.947  16.828  1.00  0.00     0.198 A 
ATOM     67  F   UNL     1      14.281   6.426  15.911  1.00  0.00    -0.203 F 
ATOM     68  F   UNL     1      18.269  10.043  16.801  1.00  0.00    -0.200 F 
ATOM     69  C   UNL     1      17.401   7.861  17.055  1.00  0.00     0.200 A 
ATOM     70  F   UNL     1      16.499   5.688  17.270  1.00  0.00    -0.200 F 
ATOM     71  F   UNL     1      18.515   7.476  17.693  1.00  0.00    -0.200 F 
ENDBRANCH  38  61
ENDBRANCH  12  13
ENDBRANCH   5   7
ENDBRANCH   4   5
ENDBRANCH   3   4
ENDBRANCH   2   3
ENDBRANCH   1   2
BRANCH   1  72
ATOM     72  C   UNL     1       4.840  11.517   5.860  1.00  0.00     0.202 C 
BRANCH  72  73
ATOM     73  C   UNL     1       5.761  11.546   4.635  1.00  0.00     0.261 C 
BRANCH  73  74
ATOM     74  O   UNL     1       5.335  10.512   3.745  1.00  0.00    -0.463 OA
BRANCH  74  75
ATOM     75  C   UNL     1       5.804   9.278   4.067  1.00  0.00     0.309 C 
ATOM     76  O   UNL     1       6.915   9.050   4.530  1.00  0.00    -0.252 OA
BRANCH  75  77
ATOM     77  C   UNL     1       4.737   8.210   3.878  1.00  0.00     0.110 C 
ATOM     78  C   UNL     1       5.288   7.109   2.981  1.00  0.00     0.077 C 
ATOM     79  C   UNL     1       3.389   8.755   3.377  1.00  0.00     0.077 C 
ATOM     80  C   UNL     1       5.276   7.550   1.524  1.00  0.00     0.263 C 
ATOM     81  C   UNL     1       3.405   9.071   1.885  1.00  0.00     0.263 C 
ATOM     82  N   UNL     1       3.964   8.003   1.063  1.00  0.00    -0.324 N 
ATOM     83  H   UNL     1       4.121   8.476   0.173  1.00  0.00     0.348 HD
BRANCH  82  84
ATOM     84  C   UNL     1       3.059   6.930   0.618  1.00  0.00     0.284 C 
ATOM     85  C   UNL     1       2.291   6.131   1.655  1.00  0.00     0.176 C 
ATOM     86  C   UNL     1       1.949   7.502  -0.257  1.00  0.00     0.292 C 
ATOM     87  C   UNL     1       0.906   6.697   1.611  1.00  0.00     0.240 C 
ATOM     88  N   UNL     1       0.756   7.381   0.426  1.00  0.00    -0.245 N 
ATOM     89  O   UNL     1       2.148   8.050  -1.337  1.00  0.00    -0.267 OA
ATOM     90  O   UNL     1       0.080   6.462   2.476  1.00  0.00    -0.274 OA
BRANCH  88  91
ATOM     91  C   UNL     1      -0.479   7.888  -0.042  1.00  0.00     0.056 A 
ATOM     92  C   UNL     1      -0.767   7.874  -1.415  1.00  0.00     0.031 A 
ATOM     93  C   UNL     1      -1.446   8.385   0.843  1.00  0.00     0.077 A 
ATOM     94  C   UNL     1      -2.003   8.312  -1.893  1.00  0.00     0.052 A 
ATOM     95  C   UNL     1      -2.668   8.859   0.360  1.00  0.00     0.163 A 
ATOM     96  C   UNL     1      -2.946   8.818  -1.007  1.00  0.00     0.161 A 
ATOM     97  O   UNL     1      -3.539   9.369   1.288  1.00  0.00    -0.486 OA
ATOM     98  O   UNL     1      -4.126   9.249  -1.551  1.00  0.00    -0.486 OA
ATOM     99  C   UNL     1      -4.861   9.503   0.753  1.00  0.00     0.271 C 
ATOM    100  C   UNL     1      -4.832  10.100  -0.644  1.00  0.00     0.271 C 
ENDBRANCH  88  91
ENDBRANCH  82  84
ENDBRANCH  75  77
ENDBRANCH  74  75
ENDBRANCH  73  74
ENDBRANCH  72  73
ENDBRANCH   1  72
TORSDOF 16
