REMARK SMILES CC1CCN(C(=O)Nc2nccnc2C(=O)OCCOCCOC(=O)c2ccc(-c3c4nc(c(-c5c(F)c(F)c(F)c(F)c5F)c5ccc([nH]5)c(-c5c(F)c(F)c(F)c(F)c5F)c5nc(c(-c6c(F)c(F)c(F)c(F)c6F)c6ccc3[nH]6)C=C5)C=C4)cc2)CC1
REMARK SMILES IDX 21 1 20 2 19 3 18 4 17 5 15 6 16 7 14 8 9 9 10 10 11 11
REMARK SMILES IDX 13 12 12 13 8 14 1 15 2 16 3 17 90 18 4 19 89 20 5 21 6 22
REMARK SMILES IDX 7 23 22 25 23 26 24 27 25 28 26 29 27 30 88 31 28 32 87 33
REMARK SMILES IDX 29 34 30 35 31 36 81 37 32 38 86 39 80 40 82 41 33 42 85 43
REMARK SMILES IDX 79 44 78 45 34 47 66 48 46 49 65 50 47 51 50 52 64 53 83 54
REMARK SMILES IDX 48 55 49 56 63 58 84 59 51 60 35 61 36 62 44 63 37 64 38 65
REMARK SMILES IDX 42 66 45 67 39 68 40 69 43 70 41 71 67 72 68 73 76 74 69 75
REMARK SMILES IDX 70 76 74 77 77 78 71 79 72 80 75 81 73 82 52 83 53 84 61 85
REMARK SMILES IDX 54 86 55 87 59 88 62 89 56 90 57 91 60 92 58 93
REMARK H PARENT 8 24 82 46 50 57
REMARK Flexibility Score: inf
ROOT
ATOM      1  C   UNL     1       6.164  -2.996   1.272  1.00  0.00     0.202 C 
ENDROOT
BRANCH   1   2
ATOM      2  O   UNL     1       7.436  -3.090   0.628  1.00  0.00    -0.374 OA
BRANCH   2   3
ATOM      3  C   UNL     1       7.707  -2.161  -0.420  1.00  0.00     0.202 C 
BRANCH   3   4
ATOM      4  C   UNL     1       7.152  -2.539  -1.794  1.00  0.00     0.261 C 
BRANCH   4   5
ATOM      5  O   UNL     1       5.711  -2.585  -1.768  1.00  0.00    -0.458 OA
BRANCH   5   6
ATOM      6  C   UNL     1       5.176  -3.822  -1.944  1.00  0.00     0.360 C 
ATOM      7  O   UNL     1       5.810  -4.810  -2.287  1.00  0.00    -0.244 OA
BRANCH   6   8
ATOM      8  C   UNL     1       3.716  -3.875  -1.609  1.00  0.00     0.191 A 
ATOM      9  C   UNL     1       2.871  -2.768  -1.406  1.00  0.00     0.167 A 
ATOM     10  N   UNL     1       1.545  -2.978  -1.231  1.00  0.00    -0.235 NA
ATOM     11  C   UNL     1       1.108  -4.253  -1.119  1.00  0.00     0.133 A 
ATOM     12  N   UNL     1       3.263  -5.164  -1.480  1.00  0.00    -0.244 NA
ATOM     13  C   UNL     1       1.958  -5.328  -1.209  1.00  0.00     0.132 A 
BRANCH   9  14
ATOM     14  N   UNL     1       3.356  -1.450  -1.378  1.00  0.00    -0.290 N 
ATOM     15  C   UNL     1      -2.490   0.094  -0.067  1.00  0.00     0.008 C 
ATOM     16  C   UNL     1      -1.046   0.212   0.420  1.00  0.00    -0.011 C 
ATOM     17  C   UNL     1      -0.293   1.296  -0.374  1.00  0.00     0.025 C 
ATOM     18  C   UNL     1      -0.325  -1.143   0.316  1.00  0.00     0.025 C 
ATOM     19  C   UNL     1       1.213   1.305  -0.093  1.00  0.00     0.121 C 
ATOM     20  C   UNL     1       1.150  -0.988   0.691  1.00  0.00     0.121 C 
ATOM     21  N   UNL     1       1.779  -0.041  -0.222  1.00  0.00    -0.324 N 
ATOM     22  C   UNL     1       2.845  -0.239  -1.058  1.00  0.00     0.323 C 
ATOM     23  O   UNL     1       3.468   0.724  -1.525  1.00  0.00    -0.248 OA
ATOM     24  H   UNL     1       4.298  -1.394  -1.661  1.00  0.00     0.173 HD
ENDBRANCH   9  14
ENDBRANCH   6   8
ENDBRANCH   5   6
ENDBRANCH   4   5
ENDBRANCH   3   4
ENDBRANCH   2   3
ENDBRANCH   1   2
BRANCH   1  25
ATOM     25  C   UNL     1       6.026  -1.885   2.318  1.00  0.00     0.261 C 
BRANCH  25  26
ATOM     26  O   UNL     1       5.992  -0.584   1.703  1.00  0.00    -0.460 OA
BRANCH  26  27
ATOM     27  C   UNL     1       7.087   0.182   1.917  1.00  0.00     0.338 C 
ATOM     28  O   UNL     1       8.045  -0.078   2.634  1.00  0.00    -0.246 OA
BRANCH  27  29
ATOM     29  C   UNL     1       7.075   1.342   1.008  1.00  0.00     0.060 A 
ATOM     30  C   UNL     1       8.238   1.602   0.269  1.00  0.00     0.016 A 
ATOM     31  C   UNL     1       5.972   2.192   0.918  1.00  0.00     0.016 A 
ATOM     32  C   UNL     1       8.320   2.742  -0.526  1.00  0.00     0.010 A 
ATOM     33  C   UNL     1       6.061   3.342   0.129  1.00  0.00     0.010 A 
ATOM     34  C   UNL     1       7.246   3.639  -0.569  1.00  0.00    -0.014 A 
BRANCH  34  35
ATOM     35  C   UNL     1       7.404   4.957  -1.226  1.00  0.00     0.031 A 
ATOM     36  C   UNL     1       7.705   6.160  -0.380  1.00  0.00     0.074 A 
ATOM     37  C   UNL     1       7.272   5.082  -2.557  1.00  0.00     0.049 A 
ATOM     38  N   UNL     1       7.798   7.419  -0.723  1.00  0.00    -0.248 NA
ATOM     39  C   UNL     1       7.923   5.907   1.053  1.00  0.00     0.031 C 
ATOM     40  C   UNL     1       7.009   3.984  -3.483  1.00  0.00     0.029 A 
ATOM     41  N   UNL     1       7.322   6.197  -3.354  1.00  0.00    -0.354 N 
ATOM     42  C   UNL     1       8.071   8.110   0.450  1.00  0.00     0.074 A 
ATOM     43  C   UNL     1       8.104   7.134   1.518  1.00  0.00     0.031 C 
ATOM     44  C   UNL     1       6.896   4.484  -4.725  1.00  0.00     0.029 A 
ATOM     45  C   UNL     1       7.044   5.938  -4.672  1.00  0.00     0.049 A 
ATOM     46  H   UNL     1       7.536   7.096  -3.014  1.00  0.00     0.167 HD
ATOM     47  C   UNL     1       8.277   9.438   0.618  1.00  0.00     0.037 A 
ATOM     48  C   UNL     1       6.893   6.783  -5.710  1.00  0.00     0.037 A 
ATOM     49  C   UNL     1       8.237  10.405  -0.448  1.00  0.00     0.049 A 
ATOM     50  C   UNL     1       7.067   8.263  -5.491  1.00  0.00     0.074 A 
ATOM     51  C   UNL     1       8.460  11.769  -0.387  1.00  0.00     0.029 A 
ATOM     52  N   UNL     1       7.942  10.106  -1.771  1.00  0.00    -0.354 N 
ATOM     53  N   UNL     1       7.351   8.909  -4.387  1.00  0.00    -0.248 NA
ATOM     54  C   UNL     1       6.901   9.130  -6.666  1.00  0.00     0.031 C 
ATOM     55  C   UNL     1       8.248  12.304  -1.663  1.00  0.00     0.029 A 
ATOM     56  C   UNL     1       7.948  11.265  -2.531  1.00  0.00     0.049 A 
ATOM     57  H   UNL     1       7.755   9.204  -2.118  1.00  0.00     0.167 HD
ATOM     58  C   UNL     1       7.422  10.252  -4.735  1.00  0.00     0.074 A 
ATOM     59  C   UNL     1       7.159  10.327  -6.157  1.00  0.00     0.031 C 
ATOM     60  C   UNL     1       7.685  11.324  -3.947  1.00  0.00     0.037 A 
BRANCH  47  61
ATOM     61  C   UNL     1       8.526   9.922   2.017  1.00  0.00     0.064 A 
ATOM     62  C   UNL     1       9.717   9.631   2.700  1.00  0.00     0.173 A 
ATOM     63  C   UNL     1       7.559  10.689   2.684  1.00  0.00     0.173 A 
ATOM     64  F   UNL     1      10.668   8.889   2.114  1.00  0.00    -0.203 F 
ATOM     65  C   UNL     1       9.914  10.059   4.011  1.00  0.00     0.198 A 
ATOM     66  C   UNL     1       7.772  11.141   3.983  1.00  0.00     0.198 A 
ATOM     67  F   UNL     1       6.404  11.000   2.076  1.00  0.00    -0.203 F 
ATOM     68  F   UNL     1      11.034   9.719   4.664  1.00  0.00    -0.200 F 
ATOM     69  C   UNL     1       8.944  10.817   4.650  1.00  0.00     0.200 A 
ATOM     70  F   UNL     1       6.838  11.883   4.595  1.00  0.00    -0.200 F 
ATOM     71  F   UNL     1       9.133  11.226   5.912  1.00  0.00    -0.200 F 
ENDBRANCH  47  61
BRANCH  48  72
ATOM     72  C   UNL     1       6.543   6.241  -7.047  1.00  0.00     0.064 A 
ATOM     73  C   UNL     1       7.477   6.236  -8.091  1.00  0.00     0.173 A 
ATOM     74  C   UNL     1       5.275   5.698  -7.301  1.00  0.00     0.173 A 
ATOM     75  F   UNL     1       8.694   6.769  -7.903  1.00  0.00    -0.203 F 
ATOM     76  C   UNL     1       7.155   5.712  -9.341  1.00  0.00     0.198 A 
ATOM     77  C   UNL     1       4.962   5.151  -8.543  1.00  0.00     0.198 A 
ATOM     78  F   UNL     1       4.345   5.684  -6.335  1.00  0.00    -0.203 F 
ATOM     79  F   UNL     1       8.055   5.747 -10.332  1.00  0.00    -0.200 F 
ATOM     80  C   UNL     1       5.901   5.161  -9.563  1.00  0.00     0.200 A 
ATOM     81  F   UNL     1       3.753   4.611  -8.750  1.00  0.00    -0.200 F 
ATOM     82  F   UNL     1       5.596   4.646 -10.761  1.00  0.00    -0.200 F 
ENDBRANCH  48  72
BRANCH  60  83
ATOM     83  C   UNL     1       7.735  12.671  -4.609  1.00  0.00     0.064 A 
ATOM     84  C   UNL     1       6.573  13.318  -5.055  1.00  0.00     0.173 A 
ATOM     85  C   UNL     1       8.959  13.344  -4.755  1.00  0.00     0.173 A 
ATOM     86  F   UNL     1       5.381  12.712  -4.952  1.00  0.00    -0.203 F 
ATOM     87  C   UNL     1       6.638  14.580  -5.643  1.00  0.00     0.198 A 
ATOM     88  C   UNL     1       9.015  14.616  -5.316  1.00  0.00     0.198 A 
ATOM     89  F   UNL     1      10.098  12.772  -4.339  1.00  0.00    -0.203 F 
ATOM     90  F   UNL     1       5.520  15.161  -6.101  1.00  0.00    -0.200 F 
ATOM     91  C   UNL     1       7.856  15.230  -5.766  1.00  0.00     0.200 A 
ATOM     92  F   UNL     1      10.192  15.249  -5.422  1.00  0.00    -0.200 F 
ATOM     93  F   UNL     1       7.915  16.448  -6.323  1.00  0.00    -0.200 F 
ENDBRANCH  60  83
ENDBRANCH  34  35
ENDBRANCH  27  29
ENDBRANCH  26  27
ENDBRANCH  25  26
ENDBRANCH   1  25
TORSDOF 15
