REMARK SMILES O=C(OCCOCCOC(=O)c1cc(=O)[nH]c2c(Br)cccc12)c1ccc(-c2c3nc(c(-c4c(F)c(F)c(F)c(F)c4F)c4ccc([nH]4)c(-c4c(F)c(F)c(F)c(F)c4F)c4nc(c(-c5c(F)c(F)c(F)c(F)c5F)c5ccc2[nH]5)C=C4)C=C3)cc1
REMARK SMILES IDX 5 1 4 2 3 3 2 4 1 5 24 6 25 7 86 8 26 9 85 10 27 11 28 12
REMARK SMILES IDX 29 13 79 14 30 15 84 16 78 17 80 18 31 19 83 20 77 21 76 22
REMARK SMILES IDX 32 24 64 25 44 26 63 27 45 28 48 29 62 30 81 31 46 32 47 33
REMARK SMILES IDX 61 35 82 36 49 37 33 38 34 39 42 40 35 41 36 42 40 43 43 44
REMARK SMILES IDX 37 45 38 46 41 47 39 48 65 49 66 50 74 51 67 52 68 53 72 54
REMARK SMILES IDX 75 55 69 56 70 57 73 58 71 59 50 60 51 61 59 62 52 63 53 64
REMARK SMILES IDX 57 65 60 66 54 67 55 68 58 69 56 70 6 71 7 72 8 73 9 74
REMARK SMILES IDX 10 75 11 76 12 77 13 78 23 79 14 80 17 81 22 82 15 83 16 84
REMARK SMILES IDX 18 85 21 86 19 88 20 89
REMARK H PARENT 80 23 48 34 16 87
REMARK Flexibility Score: inf
ROOT
ATOM      1  C   UNL     1       3.974  -1.220  -0.647  1.00  0.00     0.202 C 
ENDROOT
BRANCH   1   2
ATOM      2  C   UNL     1       3.808  -1.146   0.871  1.00  0.00     0.261 C 
BRANCH   2   3
ATOM      3  O   UNL     1       2.478  -0.757   1.231  1.00  0.00    -0.460 OA
BRANCH   3   4
ATOM      4  C   UNL     1       1.939   0.481   1.291  1.00  0.00     0.338 C 
ATOM      5  O   UNL     1       0.724   0.556   1.480  1.00  0.00    -0.246 OA
BRANCH   4   6
ATOM      6  C   UNL     1       2.695   1.779   1.170  1.00  0.00     0.060 A 
ATOM      7  C   UNL     1       1.967   2.940   1.498  1.00  0.00     0.016 A 
ATOM      8  C   UNL     1       4.005   1.958   0.714  1.00  0.00     0.016 A 
ATOM      9  C   UNL     1       2.512   4.218   1.341  1.00  0.00     0.010 A 
ATOM     10  C   UNL     1       4.559   3.228   0.552  1.00  0.00     0.010 A 
ATOM     11  C   UNL     1       3.811   4.362   0.854  1.00  0.00    -0.014 A 
BRANCH  11  12
ATOM     12  C   UNL     1       4.447   5.684   0.745  1.00  0.00     0.031 A 
ATOM     13  C   UNL     1       4.537   6.386  -0.572  1.00  0.00     0.074 A 
ATOM     14  C   UNL     1       5.020   6.188   1.851  1.00  0.00     0.049 A 
ATOM     15  N   UNL     1       5.006   7.577  -0.837  1.00  0.00    -0.248 NA
ATOM     16  C   UNL     1       4.057   5.649  -1.752  1.00  0.00     0.031 C 
ATOM     17  C   UNL     1       5.056   5.514   3.150  1.00  0.00     0.029 A 
ATOM     18  N   UNL     1       5.691   7.360   2.058  1.00  0.00    -0.354 N 
ATOM     19  C   UNL     1       4.853   7.746  -2.206  1.00  0.00     0.074 A 
ATOM     20  C   UNL     1       4.302   6.514  -2.728  1.00  0.00     0.031 C 
ATOM     21  C   UNL     1       5.711   6.290   4.026  1.00  0.00     0.029 A 
ATOM     22  C   UNL     1       6.130   7.512   3.348  1.00  0.00     0.049 A 
ATOM     23  H   UNL     1       5.843   8.029   1.352  1.00  0.00     0.167 HD
ATOM     24  C   UNL     1       5.132   8.848  -2.942  1.00  0.00     0.037 A 
ATOM     25  C   UNL     1       6.778   8.541   3.922  1.00  0.00     0.037 A 
ATOM     26  C   UNL     1       5.704  10.050  -2.388  1.00  0.00     0.049 A 
ATOM     27  C   UNL     1       7.051   9.761   3.094  1.00  0.00     0.074 A 
ATOM     28  C   UNL     1       5.970  11.253  -3.016  1.00  0.00     0.029 A 
ATOM     29  N   UNL     1       6.114  10.188  -1.067  1.00  0.00    -0.354 N 
ATOM     30  N   UNL     1       6.793   9.967   1.824  1.00  0.00    -0.248 NA
ATOM     31  C   UNL     1       7.678  10.899   3.776  1.00  0.00     0.031 C 
ATOM     32  C   UNL     1       6.580  12.104  -2.087  1.00  0.00     0.029 A 
ATOM     33  C   UNL     1       6.652  11.448  -0.867  1.00  0.00     0.049 A 
ATOM     34  H   UNL     1       6.033   9.493  -0.376  1.00  0.00     0.167 HD
ATOM     35  C   UNL     1       7.210  11.261   1.554  1.00  0.00     0.074 A 
ATOM     36  C   UNL     1       7.722  11.798   2.801  1.00  0.00     0.031 C 
ATOM     37  C   UNL     1       7.172  11.943   0.384  1.00  0.00     0.037 A 
BRANCH  24  38
ATOM     38  C   UNL     1       4.804   8.822  -4.407  1.00  0.00     0.064 A 
ATOM     39  C   UNL     1       3.473   8.829  -4.856  1.00  0.00     0.173 A 
ATOM     40  C   UNL     1       5.818   8.869  -5.375  1.00  0.00     0.173 A 
ATOM     41  F   UNL     1       2.463   8.779  -3.974  1.00  0.00    -0.203 F 
ATOM     42  C   UNL     1       3.171   8.869  -6.215  1.00  0.00     0.198 A 
ATOM     43  C   UNL     1       5.513   8.935  -6.734  1.00  0.00     0.198 A 
ATOM     44  F   UNL     1       7.107   8.871  -5.005  1.00  0.00    -0.203 F 
ATOM     45  F   UNL     1       1.893   8.846  -6.617  1.00  0.00    -0.200 F 
ATOM     46  C   UNL     1       4.191   8.932  -7.152  1.00  0.00     0.200 A 
ATOM     47  F   UNL     1       6.499   9.009  -7.639  1.00  0.00    -0.200 F 
ATOM     48  F   UNL     1       3.899   8.989  -8.459  1.00  0.00    -0.200 F 
ENDBRANCH  24  38
BRANCH  25  49
ATOM     49  C   UNL     1       7.099   8.468   5.367  1.00  0.00     0.064 A 
ATOM     50  C   UNL     1       6.336   9.180   6.301  1.00  0.00     0.173 A 
ATOM     51  C   UNL     1       8.091   7.603   5.853  1.00  0.00     0.173 A 
ATOM     52  F   UNL     1       5.379  10.021   5.881  1.00  0.00    -0.203 F 
ATOM     53  C   UNL     1       6.550   9.028   7.669  1.00  0.00     0.198 A 
ATOM     54  C   UNL     1       8.290   7.436   7.221  1.00  0.00     0.198 A 
ATOM     55  F   UNL     1       8.832   6.884   4.997  1.00  0.00    -0.203 F 
ATOM     56  F   UNL     1       5.809   9.724   8.542  1.00  0.00    -0.200 F 
ATOM     57  C   UNL     1       7.519   8.148   8.128  1.00  0.00     0.200 A 
ATOM     58  F   UNL     1       9.211   6.569   7.662  1.00  0.00    -0.200 F 
ATOM     59  F   UNL     1       7.703   7.980   9.445  1.00  0.00    -0.200 F 
ENDBRANCH  25  49
BRANCH  37  60
ATOM     60  C   UNL     1       7.713  13.341   0.398  1.00  0.00     0.064 A 
ATOM     61  C   UNL     1       9.092  13.584   0.452  1.00  0.00     0.173 A 
ATOM     62  C   UNL     1       6.849  14.441   0.301  1.00  0.00     0.173 A 
ATOM     63  F   UNL     1       9.954  12.562   0.560  1.00  0.00    -0.203 F 
ATOM     64  C   UNL     1       9.588  14.883   0.426  1.00  0.00     0.198 A 
ATOM     65  C   UNL     1       7.349  15.738   0.250  1.00  0.00     0.198 A 
ATOM     66  F   UNL     1       5.521  14.256   0.240  1.00  0.00    -0.203 F 
ATOM     67  F   UNL     1      10.908  15.097   0.516  1.00  0.00    -0.200 F 
ATOM     68  C   UNL     1       8.717  15.958   0.317  1.00  0.00     0.200 A 
ATOM     69  F   UNL     1       6.509  16.775   0.132  1.00  0.00    -0.200 F 
ATOM     70  F   UNL     1       9.197  17.209   0.282  1.00  0.00    -0.200 F 
ENDBRANCH  37  60
ENDBRANCH  11  12
ENDBRANCH   4   6
ENDBRANCH   3   4
ENDBRANCH   2   3
ENDBRANCH   1   2
BRANCH   1  71
ATOM     71  O   UNL     1       3.588  -0.015  -1.305  1.00  0.00    -0.374 OA
BRANCH  71  72
ATOM     72  C   UNL     1       2.405  -0.114  -2.102  1.00  0.00     0.202 C 
BRANCH  72  73
ATOM     73  C   UNL     1       2.771  -0.205  -3.583  1.00  0.00     0.261 C 
BRANCH  73  74
ATOM     74  O   UNL     1       3.416  -1.463  -3.841  1.00  0.00    -0.460 OA
BRANCH  74  75
ATOM     75  C   UNL     1       4.777  -1.461  -3.872  1.00  0.00     0.339 C 
ATOM     76  O   UNL     1       5.502  -0.481  -3.849  1.00  0.00    -0.246 OA
BRANCH  75  77
ATOM     77  C   UNL     1       5.252  -2.868  -3.772  1.00  0.00     0.074 A 
ATOM     78  C   UNL     1       4.618  -3.767  -4.544  1.00  0.00     0.088 A 
ATOM     79  C   UNL     1       6.278  -3.316  -2.805  1.00  0.00     0.014 A 
ATOM     80  C   UNL     1       4.874  -5.212  -4.410  1.00  0.00     0.249 A 
ATOM     81  C   UNL     1       6.442  -4.698  -2.604  1.00  0.00     0.063 A 
ATOM     82  C   UNL     1       7.051  -2.437  -2.033  1.00  0.00     0.011 A 
ATOM     83  O   UNL     1       4.301  -6.017  -5.133  1.00  0.00    -0.270 OA
ATOM     84  N   UNL     1       5.734  -5.591  -3.424  1.00  0.00    -0.321 N 
ATOM     85  C   UNL     1       7.304  -5.176  -1.607  1.00  0.00     0.042 A 
ATOM     86  C   UNL     1       7.903  -2.915  -1.032  1.00  0.00     0.002 A 
ATOM     87  H   UNL     1       5.867  -6.556  -3.275  1.00  0.00     0.170 HD
ATOM     88  Br  UNL     1       7.517  -7.036  -1.287  1.00  0.00    -0.049 Br
ATOM     89  C   UNL     1       8.020  -4.284  -0.809  1.00  0.00     0.018 A 
ENDBRANCH  75  77
ENDBRANCH  74  75
ENDBRANCH  73  74
ENDBRANCH  72  73
ENDBRANCH  71  72
ENDBRANCH   1  71
TORSDOF 14
