REMARK SMILES O=C(Nc1ccc(N2CC[NH+](CC(=O)N3CCOCC3)CC2)c(C(=O)OCCOCCOC(=O)c2ccc(-c3c4nc(c(-c5c(F)c(F)c(F)c(F)c5F)c5ccc([nH]5)c(-c5c(F)c(F)c(F)c(F)c5F)c5nc(c(-c6c(F)c(F)c(F)c(F)c6F)c6ccc3[nH]6)C=C5)C=C4)cc2)c1)c1cccc(Cl)c1
REMARK SMILES IDX 28 1 27 2 26 3 24 4 25 5 23 6 4 7 5 8 98 9 6 10 7 11 3 12
REMARK SMILES IDX 1 13 2 14 99 16 100 17 105 18 101 19 103 20 102 21 104 22
REMARK SMILES IDX 8 23 9 24 22 25 10 26 21 27 11 28 12 30 13 31 14 32 15 33
REMARK SMILES IDX 16 34 20 35 17 36 19 37 18 38 29 39 30 40 31 41 32 42 33 43
REMARK SMILES IDX 34 44 35 45 36 46 97 47 37 48 96 49 38 50 39 51 40 52 90 53
REMARK SMILES IDX 41 54 95 55 89 56 91 57 42 58 94 59 88 60 87 61 43 63 75 64
REMARK SMILES IDX 55 65 74 66 56 67 59 68 73 69 92 70 57 71 58 72 72 74 93 75
REMARK SMILES IDX 60 76 44 77 45 78 53 79 46 80 47 81 51 82 54 83 48 84 49 85
REMARK SMILES IDX 52 86 50 87 76 88 77 89 85 90 78 91 79 92 83 93 86 94 80 95
REMARK SMILES IDX 81 96 84 97 82 98 61 99 62 100 70 101 63 102 64 103 68 104
REMARK SMILES IDX 71 105 65 106 66 107 69 108 67 109
REMARK H PARENT 3 15 11 29 91 62 59 73
REMARK Flexibility Score: inf
ROOT
ATOM      1  C   UNL     1       7.628   4.442  -1.584  1.00  0.00     0.202 C 
ENDROOT
BRANCH   1   2
ATOM      2  C   UNL     1       7.501   3.105  -2.315  1.00  0.00     0.261 C 
BRANCH   2   3
ATOM      3  O   UNL     1       6.673   2.253  -1.513  1.00  0.00    -0.460 OA
BRANCH   3   4
ATOM      4  C   UNL     1       7.011   0.942  -1.512  1.00  0.00     0.340 C 
ATOM      5  O   UNL     1       7.719   0.381  -2.329  1.00  0.00    -0.246 OA
BRANCH   4   6
ATOM      6  C   UNL     1       6.465   0.352  -0.262  1.00  0.00     0.085 A 
ATOM      7  C   UNL     1       4.438  -0.180   0.946  1.00  0.00     0.042 A 
ATOM      8  C   UNL     1       5.184  -0.948   1.834  1.00  0.00     0.028 A 
ATOM      9  C   UNL     1       5.106   0.563  -0.017  1.00  0.00     0.044 A 
ATOM     10  C   UNL     1       6.575  -1.070   1.660  1.00  0.00     0.029 A 
ATOM     11  C   UNL     1       7.252  -0.437   0.602  1.00  0.00     0.052 A 
BRANCH   7  12
ATOM     12  N   UNL     1       3.031  -0.242   0.981  1.00  0.00    -0.322 N 
ATOM     13  O   UNL     1       0.937   0.033   0.121  1.00  0.00    -0.269 OA
ATOM     14  C   UNL     1       2.142  -0.091  -0.077  1.00  0.00     0.255 C 
ATOM     15  H   UNL     1       2.628  -0.413   1.863  1.00  0.00     0.170 HD
BRANCH  14  16
ATOM     16  C   UNL     1       2.646  -0.132  -1.477  1.00  0.00     0.041 A 
ATOM     17  C   UNL     1       3.518  -1.153  -1.891  1.00  0.00     0.014 A 
ATOM     18  C   UNL     1       2.377   0.951  -2.319  1.00  0.00     0.034 A 
ATOM     19  C   UNL     1       4.220  -1.024  -3.090  1.00  0.00     0.002 A 
ATOM     20  C   UNL     1       3.070   1.057  -3.525  1.00  0.00     0.041 A 
ATOM     21  C   UNL     1       4.008   0.091  -3.899  1.00  0.00     0.020 A 
ATOM     22  Cl  UNL     1       2.827   2.430  -4.532  1.00  0.00    -0.084 Cl
ENDBRANCH  14  16
ENDBRANCH   7  12
BRANCH  11  23
ATOM     23  N   UNL     1       8.639  -0.501   0.470  1.00  0.00    -0.360 N 
ATOM     24  C   UNL     1       9.444  -1.603   1.030  1.00  0.00     0.178 C 
ATOM     25  C   UNL     1       9.306   0.803   0.524  1.00  0.00     0.178 C 
ATOM     26  C   UNL     1      10.927  -1.541   0.546  1.00  0.00     0.284 C 
ATOM     27  C   UNL     1      10.686   0.764  -0.127  1.00  0.00     0.284 C 
ATOM     28  N   UNL     1      11.582  -0.219   0.476  1.00  0.00    -0.324 N 
ATOM     29  H   UNL     1      12.375  -0.349  -0.152  1.00  0.00     0.348 HD
BRANCH  28  30
ATOM     30  C   UNL     1      12.310   0.243   1.668  1.00  0.00     0.363 C 
BRANCH  30  31
ATOM     31  C   UNL     1      11.557   0.259   3.005  1.00  0.00     0.277 C 
ATOM     32  O   UNL     1      11.306  -0.806   3.581  1.00  0.00    -0.268 OA
ATOM     33  N   UNL     1      11.258   1.484   3.605  1.00  0.00    -0.333 N 
ATOM     34  C   UNL     1      10.932   2.715   2.878  1.00  0.00     0.148 C 
ATOM     35  C   UNL     1      10.776   1.461   4.989  1.00  0.00     0.148 C 
ATOM     36  C   UNL     1      11.134   3.992   3.694  1.00  0.00     0.181 C 
ATOM     37  C   UNL     1      11.024   2.790   5.709  1.00  0.00     0.181 C 
ATOM     38  O   UNL     1      10.481   3.890   4.965  1.00  0.00    -0.378 OA
ENDBRANCH  30  31
ENDBRANCH  28  30
ENDBRANCH  11  23
ENDBRANCH   4   6
ENDBRANCH   3   4
ENDBRANCH   2   3
ENDBRANCH   1   2
BRANCH   1  39
ATOM     39  O   UNL     1       8.412   4.351  -0.384  1.00  0.00    -0.374 OA
BRANCH  39  40
ATOM     40  C   UNL     1       7.687   3.966   0.790  1.00  0.00     0.202 C 
BRANCH  40  41
ATOM     41  C   UNL     1       7.251   5.137   1.667  1.00  0.00     0.261 C 
BRANCH  41  42
ATOM     42  O   UNL     1       6.191   5.846   1.018  1.00  0.00    -0.460 OA
BRANCH  42  43
ATOM     43  C   UNL     1       6.578   6.957   0.353  1.00  0.00     0.338 C 
ATOM     44  O   UNL     1       7.656   7.522   0.410  1.00  0.00    -0.246 OA
BRANCH  43  45
ATOM     45  C   UNL     1       5.540   7.275  -0.647  1.00  0.00     0.060 A 
ATOM     46  C   UNL     1       5.973   7.717  -1.903  1.00  0.00     0.016 A 
ATOM     47  C   UNL     1       4.178   7.099  -0.382  1.00  0.00     0.016 A 
ATOM     48  C   UNL     1       5.042   8.019  -2.890  1.00  0.00     0.010 A 
ATOM     49  C   UNL     1       3.244   7.407  -1.369  1.00  0.00     0.010 A 
ATOM     50  C   UNL     1       3.675   7.895  -2.613  1.00  0.00    -0.014 A 
BRANCH  50  51
ATOM     51  C   UNL     1       2.688   8.429  -3.571  1.00  0.00     0.031 A 
ATOM     52  C   UNL     1       2.166   9.818  -3.352  1.00  0.00     0.074 A 
ATOM     53  C   UNL     1       2.279   7.689  -4.614  1.00  0.00     0.049 A 
ATOM     54  N   UNL     1       1.272  10.486  -4.033  1.00  0.00    -0.248 NA
ATOM     55  C   UNL     1       2.728  10.553  -2.207  1.00  0.00     0.031 C 
ATOM     56  C   UNL     1       2.748   6.342  -4.927  1.00  0.00     0.029 A 
ATOM     57  N   UNL     1       1.364   7.968  -5.595  1.00  0.00    -0.354 N 
ATOM     58  C   UNL     1       1.169  11.717  -3.403  1.00  0.00     0.074 A 
ATOM     59  C   UNL     1       2.063  11.696  -2.267  1.00  0.00     0.031 C 
ATOM     60  C   UNL     1       2.103   5.901  -6.020  1.00  0.00     0.029 A 
ATOM     61  C   UNL     1       1.159   6.924  -6.462  1.00  0.00     0.049 A 
ATOM     62  H   UNL     1       0.900   8.832  -5.671  1.00  0.00     0.167 HD
ATOM     63  C   UNL     1       0.401  12.775  -3.753  1.00  0.00     0.037 A 
ATOM     64  C   UNL     1       0.286   6.808  -7.480  1.00  0.00     0.037 A 
ATOM     65  C   UNL     1      -0.494  12.777  -4.878  1.00  0.00     0.049 A 
ATOM     66  C   UNL     1      -0.613   7.971  -7.803  1.00  0.00     0.074 A 
ATOM     67  C   UNL     1      -1.309  13.797  -5.333  1.00  0.00     0.029 A 
ATOM     68  N   UNL     1      -0.699  11.692  -5.719  1.00  0.00    -0.354 N 
ATOM     69  N   UNL     1      -0.683   9.148  -7.228  1.00  0.00    -0.248 NA
ATOM     70  C   UNL     1      -1.553   7.793  -8.918  1.00  0.00     0.031 C 
ATOM     71  C   UNL     1      -2.040  13.315  -6.423  1.00  0.00     0.029 A 
ATOM     72  C   UNL     1      -1.648  12.009  -6.676  1.00  0.00     0.049 A 
ATOM     73  H   UNL     1      -0.237  10.826  -5.646  1.00  0.00     0.167 HD
ATOM     74  C   UNL     1      -1.656   9.856  -7.920  1.00  0.00     0.074 A 
ATOM     75  C   UNL     1      -2.140   8.981  -8.968  1.00  0.00     0.031 C 
ATOM     76  C   UNL     1      -2.110  11.116  -7.708  1.00  0.00     0.037 A 
BRANCH  63  77
ATOM     77  C   UNL     1       0.485  14.000  -2.894  1.00  0.00     0.064 A 
ATOM     78  C   UNL     1       1.617  14.829  -2.905  1.00  0.00     0.173 A 
ATOM     79  C   UNL     1      -0.581  14.355  -2.055  1.00  0.00     0.173 A 
ATOM     80  F   UNL     1       2.672  14.520  -3.675  1.00  0.00    -0.203 F 
ATOM     81  C   UNL     1       1.688  15.956  -2.091  1.00  0.00     0.198 A 
ATOM     82  C   UNL     1      -0.518  15.496  -1.261  1.00  0.00     0.198 A 
ATOM     83  F   UNL     1      -1.684  13.593  -2.004  1.00  0.00    -0.203 F 
ATOM     84  F   UNL     1       2.797  16.708  -2.084  1.00  0.00    -0.200 F 
ATOM     85  C   UNL     1       0.618  16.292  -1.275  1.00  0.00     0.200 A 
ATOM     86  F   UNL     1      -1.554  15.823  -0.477  1.00  0.00    -0.200 F 
ATOM     87  F   UNL     1       0.686  17.378  -0.493  1.00  0.00    -0.200 F 
ENDBRANCH  63  77
BRANCH  64  88
ATOM     88  C   UNL     1       0.215   5.542  -8.253  1.00  0.00     0.064 A 
ATOM     89  C   UNL     1       0.652   5.481  -9.583  1.00  0.00     0.173 A 
ATOM     90  C   UNL     1      -0.292   4.367  -7.678  1.00  0.00     0.173 A 
ATOM     91  F   UNL     1       1.122   6.584 -10.184  1.00  0.00    -0.203 F 
ATOM     92  C   UNL     1       0.572   4.297 -10.313  1.00  0.00     0.198 A 
ATOM     93  C   UNL     1      -0.348   3.177  -8.401  1.00  0.00     0.198 A 
ATOM     94  F   UNL     1      -0.728   4.374  -6.410  1.00  0.00    -0.203 F 
ATOM     95  F   UNL     1       0.959   4.276 -11.596  1.00  0.00    -0.200 F 
ATOM     96  C   UNL     1       0.078   3.145  -9.720  1.00  0.00     0.200 A 
ATOM     97  F   UNL     1      -0.821   2.065  -7.822  1.00  0.00    -0.200 F 
ATOM     98  F   UNL     1       0.003   2.006 -10.423  1.00  0.00    -0.200 F 
ENDBRANCH  64  88
BRANCH  76  99
ATOM     99  C   UNL     1      -3.168  11.628  -8.639  1.00  0.00     0.064 A 
ATOM    100  C   UNL     1      -4.495  11.183  -8.554  1.00  0.00     0.173 A 
ATOM    101  C   UNL     1      -2.861  12.613  -9.590  1.00  0.00     0.173 A 
ATOM    102  F   UNL     1      -4.832  10.232  -7.670  1.00  0.00    -0.203 F 
ATOM    103  C   UNL     1      -5.474  11.694  -9.401  1.00  0.00     0.198 A 
ATOM    104  C   UNL     1      -3.848  13.140 -10.417  1.00  0.00     0.198 A 
ATOM    105  F   UNL     1      -1.607  13.075  -9.704  1.00  0.00    -0.203 F 
ATOM    106  F   UNL     1      -6.728  11.227  -9.330  1.00  0.00    -0.200 F 
ATOM    107  C   UNL     1      -5.152  12.677 -10.326  1.00  0.00     0.200 A 
ATOM    108  F   UNL     1      -3.538  14.099 -11.300  1.00  0.00    -0.200 F 
ATOM    109  F   UNL     1      -6.098  13.174 -11.133  1.00  0.00    -0.200 F 
ENDBRANCH  76  99
ENDBRANCH  50  51
ENDBRANCH  43  45
ENDBRANCH  42  43
ENDBRANCH  41  42
ENDBRANCH  40  41
ENDBRANCH  39  40
ENDBRANCH   1  39
TORSDOF 19
