REMARK SMILES C[C@H](C(=O)OCCOCCOC(=O)c1ccc(-c2c3nc(c(-c4c(F)c(F)c(F)c(F)c4F)c4ccc([nH]4)c(-c4c(F)c(F)c(F)c(F)c4F)c4nc(c(-c5c(F)c(F)c(F)c(F)c5F)c5ccc2[nH]5)C=C4)C=C3)cc1)c1ccc2c(c1)[nH]c1ccc(Cl)cc12
REMARK SMILES IDX 9 1 8 2 7 3 6 4 5 5 3 6 4 7 2 8 1 9 77 10 78 11 82 12 79 13
REMARK SMILES IDX 81 14 80 15 83 16 90 17 84 18 89 20 85 21 87 22 86 23 88 24
REMARK SMILES IDX 10 25 11 26 12 27 13 28 14 29 15 30 76 31 16 32 75 33 17 34
REMARK SMILES IDX 18 35 19 36 69 37 20 38 74 39 68 40 70 41 21 42 73 43 67 44
REMARK SMILES IDX 66 45 22 47 54 48 34 49 53 50 35 51 38 52 52 53 71 54 36 55
REMARK SMILES IDX 37 56 51 58 72 59 39 60 23 61 24 62 32 63 25 64 26 65 30 66
REMARK SMILES IDX 33 67 27 68 28 69 31 70 29 71 55 72 56 73 64 74 57 75 58 76
REMARK SMILES IDX 62 77 65 78 59 79 60 80 63 81 61 82 40 83 41 84 49 85 42 86
REMARK SMILES IDX 43 87 47 88 50 89 44 90 45 91 48 92 46 93
REMARK H PARENT 83 19 70 46 38 57
REMARK Flexibility Score: inf
ROOT
ATOM      1  C   UNL     1       3.455  -0.470   1.556  1.00  0.00     0.202 C 
ENDROOT
BRANCH   1   2
ATOM      2  O   UNL     1       3.905   0.797   1.091  1.00  0.00    -0.374 OA
BRANCH   2   3
ATOM      3  C   UNL     1       2.890   1.793   0.896  1.00  0.00     0.202 C 
BRANCH   3   4
ATOM      4  C   UNL     1       1.902   1.572  -0.265  1.00  0.00     0.261 C 
BRANCH   4   5
ATOM      5  O   UNL     1       1.020   0.459   0.001  1.00  0.00    -0.463 OA
BRANCH   5   6
ATOM      6  C   UNL     1       0.685  -0.301  -1.081  1.00  0.00     0.313 C 
ATOM      7  O   UNL     1       0.856   0.055  -2.242  1.00  0.00    -0.252 OA
BRANCH   6   8
ATOM      8  C   UNL     1       0.121  -1.670  -0.706  1.00  0.00     0.126 C 
ATOM      9  C   UNL     1       0.793  -2.282   0.537  1.00  0.00     0.025 C 
BRANCH   8  10
ATOM     10  C   UNL     1      -1.387  -1.799  -0.567  1.00  0.00    -0.032 A 
ATOM     11  C   UNL     1      -2.298  -0.739  -0.556  1.00  0.00     0.005 A 
ATOM     12  C   UNL     1      -1.860  -3.109  -0.366  1.00  0.00     0.031 A 
ATOM     13  C   UNL     1      -3.673  -0.971  -0.324  1.00  0.00     0.011 A 
ATOM     14  C   UNL     1      -3.182  -3.293   0.007  1.00  0.00     0.047 A 
ATOM     15  C   UNL     1      -4.122  -2.273  -0.002  1.00  0.00     0.007 A 
ATOM     16  N   UNL     1      -3.788  -4.428   0.471  1.00  0.00    -0.355 N 
ATOM     17  C   UNL     1      -5.378  -2.880   0.340  1.00  0.00     0.009 A 
ATOM     18  C   UNL     1      -5.110  -4.194   0.732  1.00  0.00     0.047 A 
ATOM     19  H   UNL     1      -3.336  -5.293   0.599  1.00  0.00     0.167 HD
ATOM     20  C   UNL     1      -6.716  -2.439   0.385  1.00  0.00     0.031 A 
ATOM     21  C   UNL     1      -6.069  -5.056   1.269  1.00  0.00     0.028 A 
ATOM     22  C   UNL     1      -7.702  -3.318   0.851  1.00  0.00     0.041 A 
ATOM     23  C   UNL     1      -7.382  -4.591   1.318  1.00  0.00     0.022 A 
ATOM     24  Cl  UNL     1      -9.352  -2.823   0.839  1.00  0.00    -0.084 Cl
ENDBRANCH   8  10
ENDBRANCH   6   8
ENDBRANCH   5   6
ENDBRANCH   4   5
ENDBRANCH   3   4
ENDBRANCH   2   3
ENDBRANCH   1   2
BRANCH   1  25
ATOM     25  C   UNL     1       3.263  -0.662   3.065  1.00  0.00     0.261 C 
BRANCH  25  26
ATOM     26  O   UNL     1       2.577   0.438   3.669  1.00  0.00    -0.460 OA
BRANCH  26  27
ATOM     27  C   UNL     1       3.413   1.340   4.226  1.00  0.00     0.338 C 
ATOM     28  O   UNL     1       4.623   1.229   4.397  1.00  0.00    -0.246 OA
BRANCH  27  29
ATOM     29  C   UNL     1       2.702   2.601   4.471  1.00  0.00     0.060 A 
ATOM     30  C   UNL     1       3.322   3.772   4.019  1.00  0.00     0.016 A 
ATOM     31  C   UNL     1       1.495   2.653   5.174  1.00  0.00     0.016 A 
ATOM     32  C   UNL     1       2.780   5.009   4.340  1.00  0.00     0.010 A 
ATOM     33  C   UNL     1       0.952   3.898   5.497  1.00  0.00     0.010 A 
ATOM     34  C   UNL     1       1.621   5.078   5.123  1.00  0.00    -0.014 A 
BRANCH  34  35
ATOM     35  C   UNL     1       1.224   6.385   5.692  1.00  0.00     0.031 A 
ATOM     36  C   UNL     1       1.604   6.697   7.112  1.00  0.00     0.074 A 
ATOM     37  C   UNL     1       0.596   7.298   4.934  1.00  0.00     0.049 A 
ATOM     38  N   UNL     1       1.375   7.774   7.818  1.00  0.00    -0.248 NA
ATOM     39  C   UNL     1       2.345   5.651   7.837  1.00  0.00     0.031 C 
ATOM     40  C   UNL     1       0.220   7.114   3.534  1.00  0.00     0.029 A 
ATOM     41  N   UNL     1       0.167   8.564   5.238  1.00  0.00    -0.354 N 
ATOM     42  C   UNL     1       1.940   7.535   9.064  1.00  0.00     0.074 A 
ATOM     43  C   UNL     1       2.490   6.198   9.034  1.00  0.00     0.031 C 
ATOM     44  C   UNL     1      -0.395   8.228   3.100  1.00  0.00     0.029 A 
ATOM     45  C   UNL     1      -0.478   9.187   4.199  1.00  0.00     0.049 A 
ATOM     46  H   UNL     1       0.307   8.985   6.116  1.00  0.00     0.167 HD
ATOM     47  C   UNL     1       2.006   8.365  10.131  1.00  0.00     0.037 A 
ATOM     48  C   UNL     1      -1.082  10.389   4.154  1.00  0.00     0.037 A 
ATOM     49  C   UNL     1       1.455   9.694  10.151  1.00  0.00     0.049 A 
ATOM     50  C   UNL     1      -1.055  11.268   5.377  1.00  0.00     0.074 A 
ATOM     51  C   UNL     1       1.472  10.622  11.177  1.00  0.00     0.029 A 
ATOM     52  N   UNL     1       0.778  10.281   9.091  1.00  0.00    -0.354 N 
ATOM     53  N   UNL     1      -0.500  11.046   6.545  1.00  0.00    -0.248 NA
ATOM     54  C   UNL     1      -1.731  12.568   5.274  1.00  0.00     0.031 C 
ATOM     55  C   UNL     1       0.760  11.750  10.755  1.00  0.00     0.029 A 
ATOM     56  C   UNL     1       0.350  11.549   9.447  1.00  0.00     0.049 A 
ATOM     57  H   UNL     1       0.624   9.858   8.215  1.00  0.00     0.167 HD
ATOM     58  C   UNL     1      -0.737  12.184   7.305  1.00  0.00     0.074 A 
ATOM     59  C   UNL     1      -1.473  13.102   6.460  1.00  0.00     0.031 C 
ATOM     60  C   UNL     1      -0.378  12.447   8.586  1.00  0.00     0.037 A 
BRANCH  47  61
ATOM     61  C   UNL     1       2.675   7.847  11.371  1.00  0.00     0.064 A 
ATOM     62  C   UNL     1       4.062   7.640  11.432  1.00  0.00     0.173 A 
ATOM     63  C   UNL     1       1.922   7.574  12.523  1.00  0.00     0.173 A 
ATOM     64  F   UNL     1       4.827   7.870  10.354  1.00  0.00    -0.203 F 
ATOM     65  C   UNL     1       4.665   7.153  12.589  1.00  0.00     0.198 A 
ATOM     66  C   UNL     1       2.532   7.116  13.688  1.00  0.00     0.198 A 
ATOM     67  F   UNL     1       0.593   7.756  12.521  1.00  0.00    -0.203 F 
ATOM     68  F   UNL     1       5.984   6.915  12.607  1.00  0.00    -0.200 F 
ATOM     69  C   UNL     1       3.901   6.899  13.718  1.00  0.00     0.200 A 
ATOM     70  F   UNL     1       1.793   6.881  14.781  1.00  0.00    -0.200 F 
ATOM     71  F   UNL     1       4.483   6.435  14.833  1.00  0.00    -0.200 F 
ENDBRANCH  47  61
BRANCH  48  72
ATOM     72  C   UNL     1      -1.772  10.824   2.911  1.00  0.00     0.064 A 
ATOM     73  C   UNL     1      -1.284  11.889   2.143  1.00  0.00     0.173 A 
ATOM     74  C   UNL     1      -2.939  10.182   2.470  1.00  0.00     0.173 A 
ATOM     75  F   UNL     1      -0.184  12.549   2.535  1.00  0.00    -0.203 F 
ATOM     76  C   UNL     1      -1.946  12.307   0.990  1.00  0.00     0.198 A 
ATOM     77  C   UNL     1      -3.583  10.582   1.301  1.00  0.00     0.198 A 
ATOM     78  F   UNL     1      -3.448   9.157   3.169  1.00  0.00    -0.203 F 
ATOM     79  F   UNL     1      -1.483  13.357   0.297  1.00  0.00    -0.200 F 
ATOM     80  C   UNL     1      -3.091  11.649   0.566  1.00  0.00     0.200 A 
ATOM     81  F   UNL     1      -4.681   9.934   0.889  1.00  0.00    -0.200 F 
ATOM     82  F   UNL     1      -3.723  12.047  -0.546  1.00  0.00    -0.200 F 
ENDBRANCH  48  72
BRANCH  60  83
ATOM     83  C   UNL     1      -0.748  13.793   9.141  1.00  0.00     0.064 A 
ATOM     84  C   UNL     1      -2.075  14.123   9.452  1.00  0.00     0.173 A 
ATOM     85  C   UNL     1       0.247  14.748   9.404  1.00  0.00     0.173 A 
ATOM     86  F   UNL     1      -3.063  13.250   9.206  1.00  0.00    -0.203 F 
ATOM     87  C   UNL     1      -2.396  15.370   9.981  1.00  0.00     0.198 A 
ATOM     88  C   UNL     1      -0.074  15.981   9.963  1.00  0.00     0.198 A 
ATOM     89  F   UNL     1       1.533  14.479   9.133  1.00  0.00    -0.203 F 
ATOM     90  F   UNL     1      -3.676  15.683  10.224  1.00  0.00    -0.200 F 
ATOM     91  C   UNL     1      -1.396  16.295  10.243  1.00  0.00     0.200 A 
ATOM     92  F   UNL     1       0.895  16.867  10.231  1.00  0.00    -0.200 F 
ATOM     93  F   UNL     1      -1.706  17.491  10.760  1.00  0.00    -0.200 F 
ENDBRANCH  60  83
ENDBRANCH  34  35
ENDBRANCH  27  29
ENDBRANCH  26  27
ENDBRANCH  25  26
ENDBRANCH   1  25
TORSDOF 15
