REMARK SMILES O=C(OCCOCCOC(=O)[C@H]1CC2=c3ccccc3=N[C@H]2[C@H](c2ccccc2F)[NH2+]1)c1ccc(-c2c3nc(c(-c4c(F)c(F)c(F)c(F)c4F)c4ccc([nH]4)c(-c4c(F)c(F)c(F)c(F)c4F)c4nc(c(-c5c(F)c(F)c(F)c(F)c5F)c5ccc2[nH]5)C=C4)C=C3)cc1
REMARK SMILES IDX 5 1 4 2 3 3 2 4 1 5 32 6 33 7 94 8 34 9 93 10 35 11 36 12
REMARK SMILES IDX 37 13 87 14 38 15 92 16 86 17 88 18 39 19 91 20 85 21 84 22
REMARK SMILES IDX 40 24 72 25 52 26 71 27 53 28 56 29 70 30 89 31 54 32 55 33
REMARK SMILES IDX 69 35 90 36 57 37 41 38 42 39 50 40 43 41 44 42 48 43 51 44
REMARK SMILES IDX 45 45 46 46 49 47 47 48 73 49 74 50 82 51 75 52 76 53 80 54
REMARK SMILES IDX 83 55 77 56 78 57 81 58 79 59 58 60 59 61 67 62 60 63 61 64
REMARK SMILES IDX 65 65 68 66 62 67 63 68 66 69 64 70 6 71 7 72 8 73 9 74
REMARK SMILES IDX 10 75 11 76 12 77 13 78 31 79 14 80 23 81 15 84 22 85 16 86
REMARK SMILES IDX 20 87 21 88 17 89 19 90 18 91 24 92 25 93 29 94 26 95 28 96
REMARK SMILES IDX 30 97 27 98
REMARK H PARENT 88 23 56 34 31 82 31 83
REMARK Flexibility Score: inf
ROOT
ATOM      1  C   UNL     1       4.506  -1.523  -1.056  1.00  0.00     0.202 C 
ENDROOT
BRANCH   1   2
ATOM      2  C   UNL     1       4.527  -1.283   0.462  1.00  0.00     0.261 C 
BRANCH   2   3
ATOM      3  O   UNL     1       3.221  -0.987   0.980  1.00  0.00    -0.460 OA
BRANCH   3   4
ATOM      4  C   UNL     1       2.604   0.205   1.134  1.00  0.00     0.338 C 
ATOM      5  O   UNL     1       1.460   0.201   1.591  1.00  0.00    -0.246 OA
BRANCH   4   6
ATOM      6  C   UNL     1       3.196   1.533   0.762  1.00  0.00     0.060 A 
ATOM      7  C   UNL     1       2.434   2.670   1.101  1.00  0.00     0.016 A 
ATOM      8  C   UNL     1       4.392   1.746   0.074  1.00  0.00     0.016 A 
ATOM      9  C   UNL     1       2.854   3.958   0.756  1.00  0.00     0.010 A 
ATOM     10  C   UNL     1       4.838   3.024  -0.240  1.00  0.00     0.010 A 
ATOM     11  C   UNL     1       4.066   4.134   0.087  1.00  0.00    -0.014 A 
BRANCH  11  12
ATOM     12  C   UNL     1       4.610   5.465  -0.222  1.00  0.00     0.031 A 
ATOM     13  C   UNL     1       4.670   5.950  -1.637  1.00  0.00     0.074 A 
ATOM     14  C   UNL     1       5.178   6.150   0.784  1.00  0.00     0.049 A 
ATOM     15  N   UNL     1       5.155   7.071  -2.102  1.00  0.00    -0.248 NA
ATOM     16  C   UNL     1       4.142   5.046  -2.672  1.00  0.00     0.031 C 
ATOM     17  C   UNL     1       5.251   5.689   2.172  1.00  0.00     0.029 A 
ATOM     18  N   UNL     1       5.825   7.355   0.795  1.00  0.00    -0.354 N 
ATOM     19  C   UNL     1       4.976   7.017  -3.477  1.00  0.00     0.074 A 
ATOM     20  C   UNL     1       4.397   5.727  -3.782  1.00  0.00     0.031 C 
ATOM     21  C   UNL     1       5.896   6.608   2.905  1.00  0.00     0.029 A 
ATOM     22  C   UNL     1       6.293   7.708   2.034  1.00  0.00     0.049 A 
ATOM     23  H   UNL     1       5.942   7.913  -0.008  1.00  0.00     0.167 HD
ATOM     24  C   UNL     1       5.251   7.978  -4.389  1.00  0.00     0.037 A 
ATOM     25  C   UNL     1       6.963   8.809   2.420  1.00  0.00     0.037 A 
ATOM     26  C   UNL     1       5.846   9.246  -4.049  1.00  0.00     0.049 A 
ATOM     27  C   UNL     1       7.248   9.864   1.391  1.00  0.00     0.074 A 
ATOM     28  C   UNL     1       6.111  10.326  -4.871  1.00  0.00     0.029 A 
ATOM     29  N   UNL     1       6.284   9.593  -2.777  1.00  0.00    -0.354 N 
ATOM     30  N   UNL     1       6.972   9.860   0.109  1.00  0.00    -0.248 NA
ATOM     31  C   UNL     1       7.920  11.080   1.861  1.00  0.00     0.031 C 
ATOM     32  C   UNL     1       6.753  11.306  -4.107  1.00  0.00     0.029 A 
ATOM     33  C   UNL     1       6.842  10.861  -2.797  1.00  0.00     0.049 A 
ATOM     34  H   UNL     1       6.208   9.022  -1.978  1.00  0.00     0.167 HD
ATOM     35  C   UNL     1       7.423  11.074  -0.383  1.00  0.00     0.074 A 
ATOM     36  C   UNL     1       7.968  11.800   0.749  1.00  0.00     0.031 C 
ATOM     37  C   UNL     1       7.394  11.546  -1.654  1.00  0.00     0.037 A 
BRANCH  24  38
ATOM     38  C   UNL     1       4.892   7.716  -5.825  1.00  0.00     0.064 A 
ATOM     39  C   UNL     1       3.552   7.641  -6.239  1.00  0.00     0.173 A 
ATOM     40  C   UNL     1       5.885   7.618  -6.812  1.00  0.00     0.173 A 
ATOM     41  F   UNL     1       2.561   7.722  -5.338  1.00  0.00    -0.203 F 
ATOM     42  C   UNL     1       3.221   7.463  -7.580  1.00  0.00     0.198 A 
ATOM     43  C   UNL     1       5.550   7.469  -8.156  1.00  0.00     0.198 A 
ATOM     44  F   UNL     1       7.182   7.688  -6.476  1.00  0.00    -0.203 F 
ATOM     45  F   UNL     1       1.935   7.365  -7.944  1.00  0.00    -0.200 F 
ATOM     46  C   UNL     1       4.220   7.389  -8.539  1.00  0.00     0.200 A 
ATOM     47  F   UNL     1       6.516   7.414  -9.084  1.00  0.00    -0.200 F 
ATOM     48  F   UNL     1       3.900   7.241  -9.832  1.00  0.00    -0.200 F 
ENDBRANCH  24  38
BRANCH  25  49
ATOM     49  C   UNL     1       7.310   8.977   3.852  1.00  0.00     0.064 A 
ATOM     50  C   UNL     1       6.603   9.885   4.651  1.00  0.00     0.173 A 
ATOM     51  C   UNL     1       8.278   8.174   4.473  1.00  0.00     0.173 A 
ATOM     52  F   UNL     1       5.673  10.678   4.099  1.00  0.00    -0.203 F 
ATOM     53  C   UNL     1       6.851   9.984   6.018  1.00  0.00     0.198 A 
ATOM     54  C   UNL     1       8.507   8.256   5.845  1.00  0.00     0.198 A 
ATOM     55  F   UNL     1       8.968   7.276   3.754  1.00  0.00    -0.203 F 
ATOM     56  F   UNL     1       6.169  10.870   6.756  1.00  0.00    -0.200 F 
ATOM     57  C   UNL     1       7.794   9.162   6.616  1.00  0.00     0.200 A 
ATOM     58  F   UNL     1       9.402   7.444   6.424  1.00  0.00    -0.200 F 
ATOM     59  F   UNL     1       8.011   9.239   7.936  1.00  0.00    -0.200 F 
ENDBRANCH  25  49
BRANCH  37  60
ATOM     60  C   UNL     1       7.982  12.906  -1.884  1.00  0.00     0.064 A 
ATOM     61  C   UNL     1       9.368  13.117  -1.834  1.00  0.00     0.173 A 
ATOM     62  C   UNL     1       7.159  13.995  -2.207  1.00  0.00     0.173 A 
ATOM     63  F   UNL     1      10.193  12.109  -1.515  1.00  0.00    -0.203 F 
ATOM     64  C   UNL     1       9.907  14.377  -2.077  1.00  0.00     0.198 A 
ATOM     65  C   UNL     1       7.704  15.245  -2.480  1.00  0.00     0.198 A 
ATOM     66  F   UNL     1       5.828  13.841  -2.275  1.00  0.00    -0.203 F 
ATOM     67  F   UNL     1      11.230  14.567  -1.978  1.00  0.00    -0.200 F 
ATOM     68  C   UNL     1       9.076  15.437  -2.408  1.00  0.00     0.200 A 
ATOM     69  F   UNL     1       6.902  16.265  -2.816  1.00  0.00    -0.200 F 
ATOM     70  F   UNL     1       9.598  16.646  -2.653  1.00  0.00    -0.200 F 
ENDBRANCH  37  60
ENDBRANCH  11  12
ENDBRANCH   4   6
ENDBRANCH   3   4
ENDBRANCH   2   3
ENDBRANCH   1   2
BRANCH   1  71
ATOM     71  O   UNL     1       3.934  -0.490  -1.863  1.00  0.00    -0.374 OA
BRANCH  71  72
ATOM     72  C   UNL     1       2.508  -0.548  -2.036  1.00  0.00     0.202 C 
BRANCH  72  73
ATOM     73  C   UNL     1       2.082  -1.175  -3.373  1.00  0.00     0.261 C 
BRANCH  73  74
ATOM     74  O   UNL     1       2.038  -2.604  -3.204  1.00  0.00    -0.459 OA
BRANCH  74  75
ATOM     75  C   UNL     1       2.646  -3.333  -4.192  1.00  0.00     0.365 C 
ATOM     76  O   UNL     1       2.535  -3.126  -5.386  1.00  0.00    -0.245 OA
BRANCH  75  77
ATOM     77  C   UNL     1       3.627  -4.295  -3.519  1.00  0.00     0.298 C 
ATOM     78  C   UNL     1       3.105  -5.669  -2.998  1.00  0.00     0.111 C 
ATOM     79  N   UNL     1       4.947  -4.322  -4.219  1.00  0.00    -0.326 N 
ATOM     80  C   UNL     1       4.192  -6.296  -2.130  1.00  0.00    -0.024 C 
ATOM     81  C   UNL     1       5.846  -5.289  -3.542  1.00  0.00     0.246 C 
ATOM     82  H   UNL     1       5.365  -3.393  -4.192  1.00  0.00     0.347 HD
ATOM     83  H   UNL     1       4.811  -4.607  -5.189  1.00  0.00     0.347 HD
ATOM     84  C   UNL     1       4.466  -7.530  -1.698  1.00  0.00     0.002 A 
ATOM     85  C   UNL     1       5.457  -5.462  -2.031  1.00  0.00     0.196 C 
ATOM     86  C   UNL     1       3.891  -8.831  -1.815  1.00  0.00     0.010 A 
ATOM     87  C   UNL     1       5.815  -7.378  -1.103  1.00  0.00     0.066 A 
ATOM     88  N   UNL     1       6.421  -6.246  -1.240  1.00  0.00    -0.270 NA
ATOM     89  C   UNL     1       4.560  -9.881  -1.300  1.00  0.00     0.001 A 
ATOM     90  C   UNL     1       6.413  -8.537  -0.429  1.00  0.00     0.028 A 
ATOM     91  C   UNL     1       5.798  -9.720  -0.552  1.00  0.00     0.002 A 
BRANCH  81  92
ATOM     92  C   UNL     1       7.325  -5.096  -3.724  1.00  0.00     0.048 A 
ATOM     93  C   UNL     1       8.119  -6.260  -3.838  1.00  0.00     0.013 A 
ATOM     94  C   UNL     1       7.963  -3.868  -3.603  1.00  0.00     0.132 A 
ATOM     95  C   UNL     1       9.507  -6.190  -3.796  1.00  0.00     0.001 A 
ATOM     96  C   UNL     1       9.354  -3.790  -3.590  1.00  0.00     0.040 A 
ATOM     97  F   UNL     1       7.255  -2.741  -3.439  1.00  0.00    -0.206 F 
ATOM     98  C   UNL     1      10.126  -4.951  -3.671  1.00  0.00     0.003 A 
ENDBRANCH  81  92
ENDBRANCH  75  77
ENDBRANCH  74  75
ENDBRANCH  73  74
ENDBRANCH  72  73
ENDBRANCH  71  72
ENDBRANCH   1  71
TORSDOF 15
