REMARK SMILES O=C(OCCOCCOC(=O)c1ccccc1C(=O)Nc1ccc(N2C(=O)[C@H]3[C@@H]4CC[C@@H](C4)[C@@H]3C2=O)cc1)c1ccc(-c2c3nc(c(-c4c(F)c(F)c(F)c(F)c4F)c4ccc([nH]4)c(-c4c(F)c(F)c(F)c(F)c4F)c4nc(c(-c5c(F)c(F)c(F)c(F)c5F)c5ccc2[nH]5)C=C4)C=C3)cc1
REMARK SMILES IDX 7 1 6 2 5 3 4 4 3 5 2 6 1 7 39 8 40 9 101 10 41 11 100 12
REMARK SMILES IDX 42 13 43 14 44 15 94 16 45 17 99 18 93 19 95 20 46 21 98 22
REMARK SMILES IDX 92 23 91 24 47 26 79 27 59 28 78 29 60 30 63 31 77 32 96 33
REMARK SMILES IDX 61 34 62 35 76 37 97 38 64 39 48 40 49 41 57 42 50 43 51 44
REMARK SMILES IDX 55 45 58 46 52 47 53 48 56 49 54 50 80 51 81 52 89 53 82 54
REMARK SMILES IDX 83 55 87 56 90 57 84 58 85 59 88 60 86 61 65 62 66 63 74 64
REMARK SMILES IDX 67 65 68 66 72 67 75 68 69 69 70 70 73 71 71 72 8 73 9 74
REMARK SMILES IDX 10 75 11 76 12 77 13 78 17 79 14 80 16 81 15 82 18 83 19 84
REMARK SMILES IDX 20 85 21 87 22 88 38 89 23 90 37 91 24 92 25 93 26 94 35 95
REMARK SMILES IDX 27 96 28 97 34 98 36 99 29 100 32 101 30 102 33 103 31 104
REMARK H PARENT 95 25 63 36 20 86
REMARK Flexibility Score: inf
ROOT
ATOM      1  C   UNL     1       1.574   0.075  -1.406  1.00  0.00     0.202 C 
ENDROOT
BRANCH   1   2
ATOM      2  O   UNL     1       2.737  -0.156  -0.635  1.00  0.00    -0.374 OA
BRANCH   2   3
ATOM      3  C   UNL     1       3.569  -1.235  -1.058  1.00  0.00     0.202 C 
BRANCH   3   4
ATOM      4  C   UNL     1       3.259  -2.495  -0.256  1.00  0.00     0.261 C 
BRANCH   4   5
ATOM      5  O   UNL     1       3.141  -2.158   1.137  1.00  0.00    -0.460 OA
BRANCH   5   6
ATOM      6  C   UNL     1       1.895  -1.766   1.534  1.00  0.00     0.338 C 
ATOM      7  O   UNL     1       0.830  -2.039   1.039  1.00  0.00    -0.246 OA
BRANCH   6   8
ATOM      8  C   UNL     1       2.099  -0.868   2.690  1.00  0.00     0.060 A 
ATOM      9  C   UNL     1       2.801   0.313   2.483  1.00  0.00     0.016 A 
ATOM     10  C   UNL     1       1.732  -1.246   3.978  1.00  0.00     0.016 A 
ATOM     11  C   UNL     1       3.341   0.986   3.567  1.00  0.00     0.010 A 
ATOM     12  C   UNL     1       2.235  -0.523   5.074  1.00  0.00     0.010 A 
ATOM     13  C   UNL     1       3.163   0.517   4.875  1.00  0.00    -0.014 A 
BRANCH  13  14
ATOM     14  C   UNL     1       4.170   0.906   5.923  1.00  0.00     0.031 A 
ATOM     15  C   UNL     1       5.013  -0.182   6.574  1.00  0.00     0.074 A 
ATOM     16  C   UNL     1       4.556   2.189   6.109  1.00  0.00     0.049 A 
ATOM     17  N   UNL     1       5.926  -0.085   7.513  1.00  0.00    -0.248 NA
ATOM     18  C   UNL     1       4.844  -1.556   6.069  1.00  0.00     0.031 C 
ATOM     19  C   UNL     1       4.002   3.351   5.415  1.00  0.00     0.029 A 
ATOM     20  N   UNL     1       5.574   2.722   6.869  1.00  0.00    -0.354 N 
ATOM     21  C   UNL     1       6.415  -1.373   7.708  1.00  0.00     0.074 A 
ATOM     22  C   UNL     1       5.681  -2.246   6.825  1.00  0.00     0.031 C 
ATOM     23  C   UNL     1       4.755   4.428   5.685  1.00  0.00     0.029 A 
ATOM     24  C   UNL     1       5.738   4.079   6.705  1.00  0.00     0.049 A 
ATOM     25  H   UNL     1       6.133   2.182   7.474  1.00  0.00     0.167 HD
ATOM     26  C   UNL     1       7.414  -1.801   8.516  1.00  0.00     0.037 A 
ATOM     27  C   UNL     1       6.534   4.960   7.347  1.00  0.00     0.037 A 
ATOM     28  C   UNL     1       8.193  -0.954   9.373  1.00  0.00     0.049 A 
ATOM     29  C   UNL     1       7.423   4.464   8.456  1.00  0.00     0.074 A 
ATOM     30  C   UNL     1       9.142  -1.313  10.313  1.00  0.00     0.029 A 
ATOM     31  N   UNL     1       8.127   0.428   9.374  1.00  0.00    -0.354 N 
ATOM     32  N   UNL     1       7.749   3.235   8.772  1.00  0.00    -0.248 NA
ATOM     33  C   UNL     1       8.011   5.483   9.339  1.00  0.00     0.031 C 
ATOM     34  C   UNL     1       9.617  -0.145  10.920  1.00  0.00     0.029 A 
ATOM     35  C   UNL     1       8.993   0.939  10.326  1.00  0.00     0.049 A 
ATOM     36  H   UNL     1       7.551   0.968   8.787  1.00  0.00     0.167 HD
ATOM     37  C   UNL     1       8.578   3.334   9.883  1.00  0.00     0.074 A 
ATOM     38  C   UNL     1       8.734   4.744  10.168  1.00  0.00     0.031 C 
ATOM     39  C   UNL     1       9.145   2.341  10.611  1.00  0.00     0.037 A 
BRANCH  26  40
ATOM     40  C   UNL     1       7.689  -3.274   8.542  1.00  0.00     0.064 A 
ATOM     41  C   UNL     1       8.402  -3.911   7.517  1.00  0.00     0.173 A 
ATOM     42  C   UNL     1       7.238  -4.053   9.618  1.00  0.00     0.173 A 
ATOM     43  F   UNL     1       8.829  -3.210   6.455  1.00  0.00    -0.203 F 
ATOM     44  C   UNL     1       8.639  -5.283   7.561  1.00  0.00     0.198 A 
ATOM     45  C   UNL     1       7.495  -5.420   9.668  1.00  0.00     0.198 A 
ATOM     46  F   UNL     1       6.549  -3.487  10.619  1.00  0.00    -0.203 F 
ATOM     47  F   UNL     1       9.288  -5.882   6.552  1.00  0.00    -0.200 F 
ATOM     48  C   UNL     1       8.191  -6.034   8.638  1.00  0.00     0.200 A 
ATOM     49  F   UNL     1       7.064  -6.143  10.711  1.00  0.00    -0.200 F 
ATOM     50  F   UNL     1       8.420  -7.354   8.678  1.00  0.00    -0.200 F 
ENDBRANCH  26  40
BRANCH  27  51
ATOM     51  C   UNL     1       6.430   6.424   7.067  1.00  0.00     0.064 A 
ATOM     52  C   UNL     1       7.543   7.181   6.674  1.00  0.00     0.173 A 
ATOM     53  C   UNL     1       5.220   7.113   7.261  1.00  0.00     0.173 A 
ATOM     54  F   UNL     1       8.740   6.592   6.531  1.00  0.00    -0.203 F 
ATOM     55  C   UNL     1       7.449   8.562   6.489  1.00  0.00     0.198 A 
ATOM     56  C   UNL     1       5.115   8.481   7.030  1.00  0.00     0.198 A 
ATOM     57  F   UNL     1       4.129   6.454   7.679  1.00  0.00    -0.203 F 
ATOM     58  F   UNL     1       8.543   9.273   6.183  1.00  0.00    -0.200 F 
ATOM     59  C   UNL     1       6.232   9.208   6.655  1.00  0.00     0.200 A 
ATOM     60  F   UNL     1       3.934   9.094   7.187  1.00  0.00    -0.200 F 
ATOM     61  F   UNL     1       6.141  10.533   6.477  1.00  0.00    -0.200 F 
ENDBRANCH  27  51
BRANCH  39  62
ATOM     62  C   UNL     1       9.992   2.736  11.784  1.00  0.00     0.064 A 
ATOM     63  C   UNL     1       9.418   3.259  12.953  1.00  0.00     0.173 A 
ATOM     64  C   UNL     1      11.383   2.554  11.760  1.00  0.00     0.173 A 
ATOM     65  F   UNL     1       8.095   3.465  13.021  1.00  0.00    -0.203 F 
ATOM     66  C   UNL     1      10.209   3.606  14.045  1.00  0.00     0.198 A 
ATOM     67  C   UNL     1      12.167   2.874  12.865  1.00  0.00     0.198 A 
ATOM     68  F   UNL     1      11.980   2.050  10.670  1.00  0.00    -0.203 F 
ATOM     69  F   UNL     1       9.644   4.146  15.134  1.00  0.00    -0.200 F 
ATOM     70  C   UNL     1      11.581   3.406  14.003  1.00  0.00     0.200 A 
ATOM     71  F   UNL     1      13.490   2.665  12.828  1.00  0.00    -0.200 F 
ATOM     72  F   UNL     1      12.339   3.733  15.058  1.00  0.00    -0.200 F 
ENDBRANCH  39  62
ENDBRANCH  13  14
ENDBRANCH   6   8
ENDBRANCH   5   6
ENDBRANCH   4   5
ENDBRANCH   3   4
ENDBRANCH   2   3
ENDBRANCH   1   2
BRANCH   1  73
ATOM     73  C   UNL     1       1.701   1.399  -2.156  1.00  0.00     0.261 C 
BRANCH  73  74
ATOM     74  O   UNL     1       2.625   1.367  -3.258  1.00  0.00    -0.460 OA
BRANCH  74  75
ATOM     75  C   UNL     1       3.934   1.437  -2.947  1.00  0.00     0.339 C 
ATOM     76  O   UNL     1       4.483   1.321  -1.864  1.00  0.00    -0.246 OA
BRANCH  75  77
ATOM     77  C   UNL     1       4.717   1.649  -4.149  1.00  0.00     0.072 A 
ATOM     78  C   UNL     1       5.494   0.566  -4.586  1.00  0.00     0.016 A 
ATOM     79  C   UNL     1       4.686   2.861  -4.843  1.00  0.00     0.054 A 
ATOM     80  C   UNL     1       6.170   0.650  -5.797  1.00  0.00     0.001 A 
ATOM     81  C   UNL     1       5.328   2.907  -6.090  1.00  0.00     0.015 A 
ATOM     82  C   UNL     1       6.060   1.808  -6.564  1.00  0.00     0.001 A 
BRANCH  79  83
ATOM     83  C   UNL     1       3.895   4.048  -4.419  1.00  0.00     0.256 C 
ATOM     84  O   UNL     1       3.216   4.608  -5.284  1.00  0.00    -0.269 OA
ATOM     85  N   UNL     1       3.794   4.496  -3.116  1.00  0.00    -0.322 N 
ATOM     86  H   UNL     1       3.042   5.114  -2.968  1.00  0.00     0.170 HD
BRANCH  85  87
ATOM     87  C   UNL     1       4.554   4.245  -1.957  1.00  0.00     0.041 A 
ATOM     88  C   UNL     1       3.863   4.210  -0.737  1.00  0.00     0.028 A 
ATOM     89  C   UNL     1       5.918   3.951  -1.970  1.00  0.00     0.028 A 
ATOM     90  C   UNL     1       4.472   3.677   0.409  1.00  0.00     0.029 A 
ATOM     91  C   UNL     1       6.553   3.501  -0.799  1.00  0.00     0.029 A 
ATOM     92  C   UNL     1       5.815   3.293   0.374  1.00  0.00     0.052 A 
BRANCH  92  93
ATOM     93  N   UNL     1       6.376   2.560   1.438  1.00  0.00    -0.250 N 
ATOM     94  C   UNL     1       7.465   2.982   2.216  1.00  0.00     0.237 C 
ATOM     95  C   UNL     1       6.139   1.193   1.620  1.00  0.00     0.237 C 
ATOM     96  O   UNL     1       7.906   4.102   2.392  1.00  0.00    -0.274 OA
ATOM     97  C   UNL     1       8.084   1.682   2.666  1.00  0.00     0.095 C 
ATOM     98  C   UNL     1       6.802   0.913   2.919  1.00  0.00     0.095 C 
ATOM     99  O   UNL     1       5.565   0.370   0.934  1.00  0.00    -0.274 OA
ATOM    100  C   UNL     1       8.972   1.163   3.802  1.00  0.00     0.002 C 
ATOM    101  C   UNL     1       7.290  -0.338   3.619  1.00  0.00     0.002 C 
ATOM    102  C   UNL     1       9.671  -0.088   3.203  1.00  0.00     0.005 C 
ATOM    103  C   UNL     1       8.026   0.404   4.759  1.00  0.00     0.009 C 
ATOM    104  C   UNL     1       8.472  -1.031   2.914  1.00  0.00     0.005 C 
ENDBRANCH  92  93
ENDBRANCH  85  87
ENDBRANCH  79  83
ENDBRANCH  75  77
ENDBRANCH  74  75
ENDBRANCH  73  74
ENDBRANCH   1  73
TORSDOF 17
