REMARK SMILES C[C@]([NH2+]Cc1nc(-c2ccsc2)no1)(C(=O)OCCOCCOC(=O)c1ccc(-c2c3nc(c(-c4c(F)c(F)c(F)c(F)c4F)c4ccc([nH]4)c(-c4c(F)c(F)c(F)c(F)c4F)c4nc(c(-c5c(F)c(F)c(F)c(F)c5F)c5ccc2[nH]5)C=C4)C=C3)cc1)C(F)(F)F
REMARK SMILES IDX 19 1 18 2 17 3 15 4 16 5 2 6 1 7 89 8 90 9 91 10 92 11 3 12
REMARK SMILES IDX 4 15 5 16 6 17 14 18 7 19 13 20 8 21 9 22 12 23 10 24 11 25
REMARK SMILES IDX 20 26 21 27 22 28 23 29 24 30 25 31 26 32 27 33 88 34 28 35
REMARK SMILES IDX 87 36 29 37 30 38 31 39 81 40 32 41 86 42 80 43 82 44 33 45
REMARK SMILES IDX 85 46 79 47 78 48 34 50 66 51 46 52 65 53 47 54 50 55 64 56
REMARK SMILES IDX 83 57 48 58 49 59 63 61 84 62 51 63 35 64 36 65 44 66 37 67
REMARK SMILES IDX 38 68 42 69 45 70 39 71 40 72 43 73 41 74 67 75 68 76 76 77
REMARK SMILES IDX 69 78 70 79 74 80 77 81 71 82 72 83 75 84 73 85 52 86 53 87
REMARK SMILES IDX 61 88 54 89 55 90 59 91 62 92 56 93 57 94 60 95 58 96
REMARK H PARENT 3 13 3 14 82 49 50 60
REMARK Flexibility Score: inf
ROOT
ATOM      1  C   UNL     1      -3.687  -0.585   0.285  1.00  0.00     0.202 C 
ENDROOT
BRANCH   1   2
ATOM      2  C   UNL     1      -2.948  -0.818   1.604  1.00  0.00     0.261 C 
BRANCH   2   3
ATOM      3  O   UNL     1      -1.538  -0.547   1.488  1.00  0.00    -0.458 OA
BRANCH   3   4
ATOM      4  C   UNL     1      -0.725  -1.636   1.648  1.00  0.00     0.377 C 
ATOM      5  O   UNL     1      -1.131  -2.732   2.013  1.00  0.00    -0.244 OA
BRANCH   4   6
ATOM      6  C   UNL     1       0.758  -1.306   1.428  1.00  0.00     0.287 C 
ATOM      7  C   UNL     1       1.373  -1.227   2.837  1.00  0.00     0.103 C 
BRANCH   6   8
ATOM      8  C   UNL     1       1.295  -2.547   0.667  1.00  0.00     0.455 C 
ATOM      9  F   UNL     1       0.670  -2.716  -0.523  1.00  0.00    -0.164 F 
ATOM     10  F   UNL     1       2.619  -2.407   0.393  1.00  0.00    -0.164 F 
ATOM     11  F   UNL     1       1.184  -3.696   1.367  1.00  0.00    -0.164 F 
ENDBRANCH   6   8
BRANCH   6  12
ATOM     12  N   UNL     1       0.938   0.004   0.658  1.00  0.00    -0.317 N 
ATOM     13  H   UNL     1       0.284   0.694   1.027  1.00  0.00     0.347 HD
ATOM     14  H   UNL     1       0.761  -0.189  -0.328  1.00  0.00     0.347 HD
BRANCH  12  15
ATOM     15  C   UNL     1       2.308   0.540   0.772  1.00  0.00     0.363 C 
BRANCH  15  16
ATOM     16  C   UNL     1       2.695   1.642  -0.159  1.00  0.00     0.282 A 
ATOM     17  N   UNL     1       3.916   1.997  -0.493  1.00  0.00    -0.186 NA
ATOM     18  O   UNL     1       1.741   2.521  -0.583  1.00  0.00    -0.333 OA
ATOM     19  C   UNL     1       3.711   3.198  -1.119  1.00  0.00     0.203 A 
ATOM     20  N   UNL     1       2.426   3.566  -1.223  1.00  0.00    -0.057 NA
BRANCH  19  21
ATOM     21  C   UNL     1       4.864   4.027  -1.483  1.00  0.00     0.033 A 
ATOM     22  C   UNL     1       6.173   3.486  -1.680  1.00  0.00     0.024 A 
ATOM     23  C   UNL     1       4.852   5.398  -1.624  1.00  0.00     0.077 A 
ATOM     24  C   UNL     1       7.106   4.464  -1.951  1.00  0.00     0.065 A 
ATOM     25  S   UNL     1       6.408   6.027  -1.969  1.00  0.00    -0.152 S 
ENDBRANCH  19  21
ENDBRANCH  15  16
ENDBRANCH  12  15
ENDBRANCH   6  12
ENDBRANCH   4   6
ENDBRANCH   3   4
ENDBRANCH   2   3
ENDBRANCH   1   2
BRANCH   1  26
ATOM     26  O   UNL     1      -3.300  -1.404  -0.815  1.00  0.00    -0.374 OA
BRANCH  26  27
ATOM     27  C   UNL     1      -2.071  -1.096  -1.474  1.00  0.00     0.202 C 
BRANCH  27  28
ATOM     28  C   UNL     1      -2.069   0.122  -2.405  1.00  0.00     0.261 C 
BRANCH  28  29
ATOM     29  O   UNL     1      -2.374   1.346  -1.712  1.00  0.00    -0.460 OA
BRANCH  29  30
ATOM     30  C   UNL     1      -3.546   1.919  -2.074  1.00  0.00     0.338 C 
ATOM     31  O   UNL     1      -4.305   1.560  -2.965  1.00  0.00    -0.246 OA
BRANCH  30  32
ATOM     32  C   UNL     1      -3.921   2.978  -1.119  1.00  0.00     0.060 A 
ATOM     33  C   UNL     1      -5.201   2.906  -0.557  1.00  0.00     0.016 A 
ATOM     34  C   UNL     1      -3.084   4.062  -0.841  1.00  0.00     0.016 A 
ATOM     35  C   UNL     1      -5.673   3.945   0.239  1.00  0.00     0.010 A 
ATOM     36  C   UNL     1      -3.564   5.111  -0.045  1.00  0.00     0.010 A 
ATOM     37  C   UNL     1      -4.874   5.074   0.467  1.00  0.00    -0.014 A 
BRANCH  37  38
ATOM     38  C   UNL     1      -5.479   6.256   1.129  1.00  0.00     0.031 A 
ATOM     39  C   UNL     1      -6.006   7.383   0.284  1.00  0.00     0.074 A 
ATOM     40  C   UNL     1      -5.628   6.289   2.466  1.00  0.00     0.049 A 
ATOM     41  N   UNL     1      -6.622   8.479   0.651  1.00  0.00    -0.248 NA
ATOM     42  C   UNL     1      -5.820   7.256  -1.170  1.00  0.00     0.031 C 
ATOM     43  C   UNL     1      -5.186   5.246   3.389  1.00  0.00     0.029 A 
ATOM     44  N   UNL     1      -6.200   7.238   3.276  1.00  0.00    -0.354 N 
ATOM     45  C   UNL     1      -6.908   9.163  -0.524  1.00  0.00     0.074 A 
ATOM     46  C   UNL     1      -6.365   8.380  -1.613  1.00  0.00     0.031 C 
ATOM     47  C   UNL     1      -5.500   5.614   4.644  1.00  0.00     0.029 A 
ATOM     48  C   UNL     1      -6.148   6.924   4.611  1.00  0.00     0.049 A 
ATOM     49  H   UNL     1      -6.608   8.065   2.932  1.00  0.00     0.167 HD
ATOM     50  C   UNL     1      -7.578  10.330  -0.681  1.00  0.00     0.037 A 
ATOM     51  C   UNL     1      -6.569   7.620   5.685  1.00  0.00     0.037 A 
ATOM     52  C   UNL     1      -8.113  11.114   0.401  1.00  0.00     0.049 A 
ATOM     53  C   UNL     1      -7.260   8.944   5.484  1.00  0.00     0.074 A 
ATOM     54  C   UNL     1      -8.805  12.312   0.340  1.00  0.00     0.029 A 
ATOM     55  N   UNL     1      -8.011  10.780   1.742  1.00  0.00    -0.354 N 
ATOM     56  N   UNL     1      -7.548   9.568   4.367  1.00  0.00    -0.248 NA
ATOM     57  C   UNL     1      -7.693   9.656   6.695  1.00  0.00     0.031 C 
ATOM     58  C   UNL     1      -9.089  12.721   1.647  1.00  0.00     0.029 A 
ATOM     59  C   UNL     1      -8.613  11.757   2.520  1.00  0.00     0.049 A 
ATOM     60  H   UNL     1      -7.577   9.968   2.091  1.00  0.00     0.167 HD
ATOM     61  C   UNL     1      -8.211  10.730   4.739  1.00  0.00     0.074 A 
ATOM     62  C   UNL     1      -8.305  10.714   6.184  1.00  0.00     0.031 C 
ATOM     63  C   UNL     1      -8.696  11.725   3.957  1.00  0.00     0.037 A 
BRANCH  50  64
ATOM     64  C   UNL     1      -7.766  10.837  -2.079  1.00  0.00     0.064 A 
ATOM     65  C   UNL     1      -8.687  10.242  -2.955  1.00  0.00     0.173 A 
ATOM     66  C   UNL     1      -7.062  11.963  -2.531  1.00  0.00     0.173 A 
ATOM     67  F   UNL     1      -9.375   9.155  -2.573  1.00  0.00    -0.203 F 
ATOM     68  C   UNL     1      -8.885  10.747  -4.237  1.00  0.00     0.198 A 
ATOM     69  C   UNL     1      -7.280  12.480  -3.805  1.00  0.00     0.198 A 
ATOM     70  F   UNL     1      -6.173  12.570  -1.731  1.00  0.00    -0.203 F 
ATOM     71  F   UNL     1      -9.747  10.144  -5.068  1.00  0.00    -0.200 F 
ATOM     72  C   UNL     1      -8.188  11.870  -4.658  1.00  0.00     0.200 A 
ATOM     73  F   UNL     1      -6.613  13.571  -4.207  1.00  0.00    -0.200 F 
ATOM     74  F   UNL     1      -8.388  12.362  -5.888  1.00  0.00    -0.200 F 
ENDBRANCH  50  64
BRANCH  51  75
ATOM     75  C   UNL     1      -6.342   7.089   7.054  1.00  0.00     0.064 A 
ATOM     76  C   UNL     1      -7.411   6.674   7.860  1.00  0.00     0.173 A 
ATOM     77  C   UNL     1      -5.050   7.021   7.596  1.00  0.00     0.173 A 
ATOM     78  F   UNL     1      -8.667   6.745   7.395  1.00  0.00    -0.203 F 
ATOM     79  C   UNL     1      -7.198   6.235   9.166  1.00  0.00     0.198 A 
ATOM     80  C   UNL     1      -4.836   6.555   8.891  1.00  0.00     0.198 A 
ATOM     81  F   UNL     1      -3.994   7.407   6.866  1.00  0.00    -0.203 F 
ATOM     82  F   UNL     1      -8.242   5.896   9.934  1.00  0.00    -0.200 F 
ATOM     83  C   UNL     1      -5.911   6.172   9.679  1.00  0.00     0.200 A 
ATOM     84  F   UNL     1      -3.590   6.485   9.378  1.00  0.00    -0.200 F 
ATOM     85  F   UNL     1      -5.708   5.753  10.935  1.00  0.00    -0.200 F 
ENDBRANCH  51  75
BRANCH  63  86
ATOM     86  C   UNL     1      -9.387  12.865   4.648  1.00  0.00     0.064 A 
ATOM     87  C   UNL     1      -8.672  13.810   5.397  1.00  0.00     0.173 A 
ATOM     88  C   UNL     1     -10.778  13.023   4.545  1.00  0.00     0.173 A 
ATOM     89  F   UNL     1      -7.342  13.694   5.537  1.00  0.00    -0.203 F 
ATOM     90  C   UNL     1      -9.327  14.854   6.045  1.00  0.00     0.198 A 
ATOM     91  C   UNL     1     -11.426  14.084   5.171  1.00  0.00     0.198 A 
ATOM     92  F   UNL     1     -11.507  12.150   3.834  1.00  0.00    -0.203 F 
ATOM     93  F   UNL     1      -8.629  15.714   6.800  1.00  0.00    -0.200 F 
ATOM     94  C   UNL     1     -10.702  14.993   5.928  1.00  0.00     0.200 A 
ATOM     95  F   UNL     1     -12.753  14.223   5.048  1.00  0.00    -0.200 F 
ATOM     96  F   UNL     1     -11.330  15.997   6.554  1.00  0.00    -0.200 F 
ENDBRANCH  63  86
ENDBRANCH  37  38
ENDBRANCH  30  32
ENDBRANCH  29  30
ENDBRANCH  28  29
ENDBRANCH  27  28
ENDBRANCH  26  27
ENDBRANCH   1  26
TORSDOF 19
