REMARK SMILES Cc1ccc(C#N)cc1S(=O)(=O)Nc1cccc(C(=O)OCCOCCOC(=O)c2ccc(-c3c4nc(c(-c5c(F)c(F)c(F)c(F)c5F)c5ccc([nH]5)c(-c5c(F)c(F)c(F)c(F)c5F)c5nc(c(-c6c(F)c(F)c(F)c(F)c6F)c6ccc3[nH]6)C=C5)C=C4)cc2)c1
REMARK SMILES IDX 23 1 22 2 21 3 19 4 20 5 18 6 14 7 15 8 93 9 16 10 17 11
REMARK SMILES IDX 13 12 10 14 11 15 12 16 9 17 1 18 2 19 3 20 4 21 8 22 5 23
REMARK SMILES IDX 6 24 7 25 24 26 25 27 26 28 27 29 28 30 29 31 30 32 31 33
REMARK SMILES IDX 92 34 32 35 91 36 33 37 34 38 35 39 85 40 36 41 90 42 84 43
REMARK SMILES IDX 86 44 37 45 89 46 83 47 82 48 38 50 70 51 50 52 69 53 51 54
REMARK SMILES IDX 54 55 68 56 87 57 52 58 53 59 67 61 88 62 55 63 39 64 40 65
REMARK SMILES IDX 48 66 41 67 42 68 46 69 49 70 43 71 44 72 47 73 45 74 71 75
REMARK SMILES IDX 72 76 80 77 73 78 74 79 78 80 81 81 75 82 76 83 79 84 77 85
REMARK SMILES IDX 56 86 57 87 65 88 58 89 59 90 63 91 66 92 60 93 61 94 64 95
REMARK SMILES IDX 62 96
REMARK H PARENT 13 13 86 49 54 60
REMARK Flexibility Score: inf
ROOT
ATOM      1  C   UNL     1      -3.374  -3.776   2.682  1.00  0.00     0.202 C 
ENDROOT
BRANCH   1   2
ATOM      2  C   UNL     1      -1.988  -3.947   3.318  1.00  0.00     0.261 C 
BRANCH   2   3
ATOM      3  O   UNL     1      -1.008  -2.986   2.880  1.00  0.00    -0.460 OA
BRANCH   3   4
ATOM      4  C   UNL     1      -0.081  -3.503   2.031  1.00  0.00     0.338 C 
ATOM      5  O   UNL     1      -0.021  -4.671   1.675  1.00  0.00    -0.246 OA
BRANCH   4   6
ATOM      6  C   UNL     1       0.823  -2.472   1.447  1.00  0.00     0.062 A 
ATOM      7  C   UNL     1       1.895  -0.297   1.297  1.00  0.00     0.050 A 
ATOM      8  C   UNL     1       2.548  -0.692   0.127  1.00  0.00     0.027 A 
ATOM      9  C   UNL     1       1.051  -1.192   1.986  1.00  0.00     0.042 A 
ATOM     10  C   UNL     1       2.317  -1.956  -0.408  1.00  0.00     0.003 A 
ATOM     11  C   UNL     1       1.447  -2.832   0.239  1.00  0.00     0.016 A 
BRANCH   7  12
ATOM     12  N   UNL     1       2.139   1.029   1.760  1.00  0.00    -0.280 N 
ATOM     13  H   UNL     1       2.820   1.150   2.460  1.00  0.00     0.180 HD
BRANCH  12  14
ATOM     14  S   UNL     1       1.337   2.415   1.189  1.00  0.00     0.262 S 
ATOM     15  O   UNL     1       2.359   3.445   1.250  1.00  0.00    -0.201 OA
ATOM     16  O   UNL     1       0.146   2.548   2.002  1.00  0.00    -0.201 OA
BRANCH  14  17
ATOM     17  C   UNL     1       0.785   2.366  -0.520  1.00  0.00     0.092 A 
ATOM     18  C   UNL     1      -0.679   0.256  -0.340  1.00  0.00     0.046 C 
ATOM     19  C   UNL     1      -0.037   1.378  -1.083  1.00  0.00    -0.030 A 
ATOM     20  C   UNL     1      -0.374   1.455  -2.450  1.00  0.00     0.006 A 
ATOM     21  C   UNL     1      -0.090   2.588  -3.201  1.00  0.00     0.020 A 
ATOM     22  C   UNL     1       1.030   3.535  -1.283  1.00  0.00     0.042 A 
ATOM     23  C   UNL     1       0.554   3.662  -2.597  1.00  0.00     0.053 A 
BRANCH  23  24
ATOM     24  C   UNL     1       0.650   4.905  -3.315  1.00  0.00     0.099 C 
ATOM     25  N   UNL     1       0.669   5.895  -3.912  1.00  0.00    -0.192 NA
ENDBRANCH  23  24
ENDBRANCH  14  17
ENDBRANCH  12  14
ENDBRANCH   7  12
ENDBRANCH   4   6
ENDBRANCH   3   4
ENDBRANCH   2   3
ENDBRANCH   1   2
BRANCH   1  26
ATOM     26  O   UNL     1      -3.466  -3.640   1.270  1.00  0.00    -0.374 OA
BRANCH  26  27
ATOM     27  C   UNL     1      -3.047  -2.411   0.681  1.00  0.00     0.202 C 
BRANCH  27  28
ATOM     28  C   UNL     1      -3.872  -1.148   0.967  1.00  0.00     0.261 C 
BRANCH  28  29
ATOM     29  O   UNL     1      -3.853  -0.763   2.350  1.00  0.00    -0.460 OA
BRANCH  29  30
ATOM     30  C   UNL     1      -5.046  -0.883   2.986  1.00  0.00     0.338 C 
ATOM     31  O   UNL     1      -6.109  -1.242   2.510  1.00  0.00    -0.246 OA
BRANCH  30  32
ATOM     32  C   UNL     1      -4.837  -0.714   4.434  1.00  0.00     0.060 A 
ATOM     33  C   UNL     1      -4.283   0.456   4.949  1.00  0.00     0.016 A 
ATOM     34  C   UNL     1      -5.249  -1.747   5.287  1.00  0.00     0.016 A 
ATOM     35  C   UNL     1      -4.168   0.601   6.333  1.00  0.00     0.010 A 
ATOM     36  C   UNL     1      -5.136  -1.599   6.669  1.00  0.00     0.010 A 
ATOM     37  C   UNL     1      -4.614  -0.413   7.204  1.00  0.00    -0.014 A 
BRANCH  37  38
ATOM     38  C   UNL     1      -4.643  -0.173   8.668  1.00  0.00     0.031 A 
ATOM     39  C   UNL     1      -3.706  -0.882   9.599  1.00  0.00     0.074 A 
ATOM     40  C   UNL     1      -5.543   0.703   9.156  1.00  0.00     0.049 A 
ATOM     41  N   UNL     1      -3.555  -0.724  10.890  1.00  0.00    -0.248 NA
ATOM     42  C   UNL     1      -2.830  -1.906   9.012  1.00  0.00     0.031 C 
ATOM     43  C   UNL     1      -6.533   1.418   8.351  1.00  0.00     0.029 A 
ATOM     44  N   UNL     1      -5.763   1.152  10.434  1.00  0.00    -0.354 N 
ATOM     45  C   UNL     1      -2.555  -1.608  11.268  1.00  0.00     0.074 A 
ATOM     46  C   UNL     1      -2.174  -2.344  10.080  1.00  0.00     0.031 C 
ATOM     47  C   UNL     1      -7.224   2.250   9.143  1.00  0.00     0.029 A 
ATOM     48  C   UNL     1      -6.756   2.098  10.518  1.00  0.00     0.049 A 
ATOM     49  H   UNL     1      -5.259   0.828  11.214  1.00  0.00     0.167 HD
ATOM     50  C   UNL     1      -1.991  -1.767  12.489  1.00  0.00     0.037 A 
ATOM     51  C   UNL     1      -7.236   2.771  11.582  1.00  0.00     0.037 A 
ATOM     52  C   UNL     1      -2.385  -1.038  13.669  1.00  0.00     0.049 A 
ATOM     53  C   UNL     1      -6.627   2.532  12.937  1.00  0.00     0.074 A 
ATOM     54  C   UNL     1      -1.846  -1.107  14.942  1.00  0.00     0.029 A 
ATOM     55  N   UNL     1      -3.423  -0.118  13.726  1.00  0.00    -0.354 N 
ATOM     56  N   UNL     1      -5.622   1.758  13.266  1.00  0.00    -0.248 NA
ATOM     57  C   UNL     1      -7.215   3.263  14.069  1.00  0.00     0.031 C 
ATOM     58  C   UNL     1      -2.599  -0.284  15.783  1.00  0.00     0.029 A 
ATOM     59  C   UNL     1      -3.563   0.356  15.022  1.00  0.00     0.049 A 
ATOM     60  H   UNL     1      -3.978   0.157  12.961  1.00  0.00     0.167 HD
ATOM     61  C   UNL     1      -5.443   1.924  14.633  1.00  0.00     0.074 A 
ATOM     62  C   UNL     1      -6.428   2.891  15.069  1.00  0.00     0.031 C 
ATOM     63  C   UNL     1      -4.543   1.323  15.450  1.00  0.00     0.037 A 
BRANCH  50  64
ATOM     64  C   UNL     1      -0.871  -2.760  12.626  1.00  0.00     0.064 A 
ATOM     65  C   UNL     1       0.387  -2.525  12.050  1.00  0.00     0.173 A 
ATOM     66  C   UNL     1      -1.022  -3.906  13.422  1.00  0.00     0.173 A 
ATOM     67  F   UNL     1       0.585  -1.447  11.277  1.00  0.00    -0.203 F 
ATOM     68  C   UNL     1       1.445  -3.408  12.252  1.00  0.00     0.198 A 
ATOM     69  C   UNL     1       0.047  -4.769  13.649  1.00  0.00     0.198 A 
ATOM     70  F   UNL     1      -2.200  -4.174  14.006  1.00  0.00    -0.203 F 
ATOM     71  F   UNL     1       2.627  -3.179  11.664  1.00  0.00    -0.200 F 
ATOM     72  C   UNL     1       1.278  -4.522  13.061  1.00  0.00     0.200 A 
ATOM     73  F   UNL     1      -0.111  -5.834  14.448  1.00  0.00    -0.200 F 
ATOM     74  F   UNL     1       2.304  -5.357  13.273  1.00  0.00    -0.200 F 
ENDBRANCH  50  64
BRANCH  51  75
ATOM     75  C   UNL     1      -8.332   3.757  11.395  1.00  0.00     0.064 A 
ATOM     76  C   UNL     1      -8.110   5.128  11.585  1.00  0.00     0.173 A 
ATOM     77  C   UNL     1      -9.617   3.355  11.001  1.00  0.00     0.173 A 
ATOM     78  F   UNL     1      -6.904   5.563  11.980  1.00  0.00    -0.203 F 
ATOM     79  C   UNL     1      -9.133   6.056  11.400  1.00  0.00     0.198 A 
ATOM     80  C   UNL     1     -10.630   4.286  10.783  1.00  0.00     0.198 A 
ATOM     81  F   UNL     1      -9.883   2.055  10.802  1.00  0.00    -0.203 F 
ATOM     82  F   UNL     1      -8.903   7.356  11.628  1.00  0.00    -0.200 F 
ATOM     83  C   UNL     1     -10.389   5.636  10.989  1.00  0.00     0.200 A 
ATOM     84  F   UNL     1     -11.836   3.876  10.367  1.00  0.00    -0.200 F 
ATOM     85  F   UNL     1     -11.367   6.530  10.796  1.00  0.00    -0.200 F 
ENDBRANCH  51  75
BRANCH  63  86
ATOM     86  C   UNL     1      -4.561   1.693  16.907  1.00  0.00     0.064 A 
ATOM     87  C   UNL     1      -5.605   1.293  17.754  1.00  0.00     0.173 A 
ATOM     88  C   UNL     1      -3.476   2.374  17.483  1.00  0.00     0.173 A 
ATOM     89  F   UNL     1      -6.671   0.650  17.255  1.00  0.00    -0.203 F 
ATOM     90  C   UNL     1      -5.567   1.569  19.119  1.00  0.00     0.198 A 
ATOM     91  C   UNL     1      -3.425   2.617  18.853  1.00  0.00     0.198 A 
ATOM     92  F   UNL     1      -2.446   2.773  16.721  1.00  0.00    -0.203 F 
ATOM     93  F   UNL     1      -6.592   1.206  19.902  1.00  0.00    -0.200 F 
ATOM     94  C   UNL     1      -4.472   2.218  19.669  1.00  0.00     0.200 A 
ATOM     95  F   UNL     1      -2.355   3.224  19.385  1.00  0.00    -0.200 F 
ATOM     96  F   UNL     1      -4.425   2.457  20.987  1.00  0.00    -0.200 F 
ENDBRANCH  63  86
ENDBRANCH  37  38
ENDBRANCH  30  32
ENDBRANCH  29  30
ENDBRANCH  28  29
ENDBRANCH  27  28
ENDBRANCH  26  27
ENDBRANCH   1  26
TORSDOF 18
