REMARK SMILES O=C(OCCOCCOC(=O)[C@@H]1CCCCC[C@H]1NC(=O)C1CC1)c1ccc(-c2c3nc(c(-c4c(F)c(F)c(F)c(F)c4F)c4ccc([nH]4)c(-c4c(F)c(F)c(F)c(F)c4F)c4nc(c(-c5c(F)c(F)c(F)c(F)c5F)c5ccc2[nH]5)C=C4)C=C3)cc1
REMARK SMILES IDX 7 1 6 2 5 3 4 4 3 5 2 6 1 7 25 8 26 9 87 10 27 11 86 12
REMARK SMILES IDX 28 13 29 14 30 15 80 16 31 17 85 18 79 19 81 20 32 21 84 22
REMARK SMILES IDX 78 23 77 24 33 26 65 27 45 28 64 29 46 30 49 31 63 32 82 33
REMARK SMILES IDX 47 34 48 35 62 37 83 38 50 39 34 40 35 41 43 42 36 43 37 44
REMARK SMILES IDX 41 45 44 46 38 47 39 48 42 49 40 50 66 51 67 52 75 53 68 54
REMARK SMILES IDX 69 55 73 56 76 57 70 58 71 59 74 60 72 61 51 62 52 63 60 64
REMARK SMILES IDX 53 65 54 66 58 67 61 68 55 69 56 70 59 71 57 72 8 73 9 74
REMARK SMILES IDX 10 75 11 76 12 77 13 78 14 79 18 81 17 82 16 83 15 84 19 86
REMARK SMILES IDX 20 87 21 89 22 90 23 91 24 92
REMARK H PARENT 81 25 49 36 19 88
REMARK Flexibility Score: 90.00
ROOT
ATOM      1  C   UNL     1       2.316   0.032   2.168  1.00  0.00     0.202 C 
ENDROOT
BRANCH   1   2
ATOM      2  O   UNL     1       3.602   0.070   1.539  1.00  0.00    -0.374 OA
BRANCH   2   3
ATOM      3  C   UNL     1       3.798   1.113   0.593  1.00  0.00     0.202 C 
BRANCH   3   4
ATOM      4  C   UNL     1       3.372   0.838  -0.843  1.00  0.00     0.261 C 
BRANCH   4   5
ATOM      5  O   UNL     1       1.983   0.478  -0.883  1.00  0.00    -0.460 OA
BRANCH   5   6
ATOM      6  C   UNL     1       1.500  -0.767  -1.110  1.00  0.00     0.338 C 
ATOM      7  O   UNL     1       0.293  -0.967  -1.174  1.00  0.00    -0.246 OA
BRANCH   6   8
ATOM      8  C   UNL     1       2.430  -1.899  -1.331  1.00  0.00     0.060 A 
ATOM      9  C   UNL     1       3.522  -2.129  -0.500  1.00  0.00     0.016 A 
ATOM     10  C   UNL     1       2.161  -2.807  -2.356  1.00  0.00     0.016 A 
ATOM     11  C   UNL     1       4.417  -3.143  -0.738  1.00  0.00     0.010 A 
ATOM     12  C   UNL     1       2.985  -3.923  -2.522  1.00  0.00     0.010 A 
ATOM     13  C   UNL     1       4.113  -4.089  -1.704  1.00  0.00    -0.014 A 
BRANCH  13  14
ATOM     14  C   UNL     1       5.014  -5.245  -1.803  1.00  0.00     0.031 A 
ATOM     15  C   UNL     1       5.854  -5.389  -3.023  1.00  0.00     0.074 A 
ATOM     16  C   UNL     1       5.133  -6.063  -0.739  1.00  0.00     0.049 A 
ATOM     17  N   UNL     1       6.603  -6.390  -3.389  1.00  0.00    -0.248 NA
ATOM     18  C   UNL     1       5.855  -4.253  -3.961  1.00  0.00     0.031 C 
ATOM     19  C   UNL     1       4.442  -5.891   0.546  1.00  0.00     0.029 A 
ATOM     20  N   UNL     1       5.899  -7.179  -0.547  1.00  0.00    -0.354 N 
ATOM     21  C   UNL     1       7.115  -6.034  -4.626  1.00  0.00     0.074 A 
ATOM     22  C   UNL     1       6.612  -4.716  -4.943  1.00  0.00     0.031 C 
ATOM     23  C   UNL     1       4.844  -6.843   1.399  1.00  0.00     0.029 A 
ATOM     24  C   UNL     1       5.723  -7.757   0.687  1.00  0.00     0.049 A 
ATOM     25  H   UNL     1       6.516  -7.534  -1.227  1.00  0.00     0.167 HD
ATOM     26  C   UNL     1       7.918  -6.774  -5.421  1.00  0.00     0.037 A 
ATOM     27  C   UNL     1       6.172  -8.934   1.155  1.00  0.00     0.037 A 
ATOM     28  C   UNL     1       8.404  -8.072  -5.041  1.00  0.00     0.049 A 
ATOM     29  C   UNL     1       6.995  -9.770   0.214  1.00  0.00     0.074 A 
ATOM     30  C   UNL     1       9.177  -8.957  -5.767  1.00  0.00     0.029 A 
ATOM     31  N   UNL     1       8.161  -8.665  -3.806  1.00  0.00    -0.354 N 
ATOM     32  N   UNL     1       7.405  -9.483  -1.000  1.00  0.00    -0.248 NA
ATOM     33  C   UNL     1       7.393 -11.098   0.688  1.00  0.00     0.031 C 
ATOM     34  C   UNL     1       9.363 -10.104  -4.988  1.00  0.00     0.029 A 
ATOM     35  C   UNL     1       8.754  -9.913  -3.755  1.00  0.00     0.049 A 
ATOM     36  H   UNL     1       7.642  -8.257  -3.076  1.00  0.00     0.167 HD
ATOM     37  C   UNL     1       8.121 -10.587  -1.432  1.00  0.00     0.074 A 
ATOM     38  C   UNL     1       8.112 -11.537  -0.335  1.00  0.00     0.031 C 
ATOM     39  C   UNL     1       8.725 -10.809  -2.626  1.00  0.00     0.037 A 
BRANCH  26  40
ATOM     40  C   UNL     1       8.228  -6.234  -6.783  1.00  0.00     0.064 A 
ATOM     41  C   UNL     1       9.084  -5.141  -6.980  1.00  0.00     0.173 A 
ATOM     42  C   UNL     1       7.632  -6.812  -7.915  1.00  0.00     0.173 A 
ATOM     43  F   UNL     1       9.650  -4.529  -5.929  1.00  0.00    -0.203 F 
ATOM     44  C   UNL     1       9.318  -4.636  -8.258  1.00  0.00     0.198 A 
ATOM     45  C   UNL     1       7.888  -6.322  -9.192  1.00  0.00     0.198 A 
ATOM     46  F   UNL     1       6.791  -7.849  -7.780  1.00  0.00    -0.203 F 
ATOM     47  F   UNL     1      10.097  -3.557  -8.418  1.00  0.00    -0.200 F 
ATOM     48  C   UNL     1       8.725  -5.231  -9.362  1.00  0.00     0.200 A 
ATOM     49  F   UNL     1       7.313  -6.899 -10.257  1.00  0.00    -0.200 F 
ATOM     50  F   UNL     1       8.949  -4.742 -10.590  1.00  0.00    -0.200 F 
ENDBRANCH  26  40
BRANCH  27  51
ATOM     51  C   UNL     1       5.785  -9.420   2.508  1.00  0.00     0.064 A 
ATOM     52  C   UNL     1       6.747  -9.669   3.495  1.00  0.00     0.173 A 
ATOM     53  C   UNL     1       4.443  -9.679   2.835  1.00  0.00     0.173 A 
ATOM     54  F   UNL     1       8.046  -9.457   3.233  1.00  0.00    -0.203 F 
ATOM     55  C   UNL     1       6.389 -10.184   4.741  1.00  0.00     0.198 A 
ATOM     56  C   UNL     1       4.082 -10.158   4.093  1.00  0.00     0.198 A 
ATOM     57  F   UNL     1       3.474  -9.462   1.933  1.00  0.00    -0.203 F 
ATOM     58  F   UNL     1       7.338 -10.472   5.643  1.00  0.00    -0.200 F 
ATOM     59  C   UNL     1       5.056 -10.424   5.041  1.00  0.00     0.200 A 
ATOM     60  F   UNL     1       2.790 -10.369   4.382  1.00  0.00    -0.200 F 
ATOM     61  F   UNL     1       4.713 -10.923   6.236  1.00  0.00    -0.200 F 
ENDBRANCH  27  51
BRANCH  39  62
ATOM     62  C   UNL     1       9.453 -12.109  -2.773  1.00  0.00     0.064 A 
ATOM     63  C   UNL     1       8.766 -13.322  -2.913  1.00  0.00     0.173 A 
ATOM     64  C   UNL     1      10.854 -12.127  -2.818  1.00  0.00     0.173 A 
ATOM     65  F   UNL     1       7.426 -13.352  -2.855  1.00  0.00    -0.203 F 
ATOM     66  C   UNL     1       9.461 -14.516  -3.071  1.00  0.00     0.198 A 
ATOM     67  C   UNL     1      11.544 -13.317  -3.011  1.00  0.00     0.198 A 
ATOM     68  F   UNL     1      11.550 -10.986  -2.694  1.00  0.00    -0.203 F 
ATOM     69  F   UNL     1       8.790 -15.673  -3.153  1.00  0.00    -0.200 F 
ATOM     70  C   UNL     1      10.848 -14.511  -3.130  1.00  0.00     0.200 A 
ATOM     71  F   UNL     1      12.881 -13.309  -3.084  1.00  0.00    -0.200 F 
ATOM     72  F   UNL     1      11.515 -15.661  -3.295  1.00  0.00    -0.200 F 
ENDBRANCH  39  62
ENDBRANCH  13  14
ENDBRANCH   6   8
ENDBRANCH   5   6
ENDBRANCH   4   5
ENDBRANCH   3   4
ENDBRANCH   2   3
ENDBRANCH   1   2
BRANCH   1  73
ATOM     73  C   UNL     1       2.515   0.124   3.678  1.00  0.00     0.261 C 
BRANCH  73  74
ATOM     74  O   UNL     1       3.155   1.382   3.964  1.00  0.00    -0.463 OA
BRANCH  74  75
ATOM     75  C   UNL     1       4.514   1.369   4.040  1.00  0.00     0.311 C 
ATOM     76  O   UNL     1       5.202   0.357   4.096  1.00  0.00    -0.252 OA
BRANCH  75  77
ATOM     77  C   UNL     1       5.107   2.780   3.972  1.00  0.00     0.121 C 
BRANCH  77  78
ATOM     78  C   UNL     1       4.048   3.841   4.296  1.00  0.00     0.017 C 
BRANCH  78  79
ATOM     79  C   UNL     1       4.583   5.266   4.297  1.00  0.00     0.001 CG0
ATOM     80  G   UNL     1       4.439   5.946   2.942  1.00  0.00     0.000 G0
ENDBRANCH  78  79
ENDBRANCH  77  78
BRANCH  77  81
ATOM     81  C   UNL     1       5.858   2.951   2.627  1.00  0.00     0.096 C 
BRANCH  81  82
ATOM     82  C   UNL     1       5.234   3.916   1.595  1.00  0.00     0.026 C 
BRANCH  82  83
ATOM     83  C   UNL     1       5.368   5.412   1.861  1.00  0.00     0.002 C 
BRANCH  83  84
ATOM     84  C   UNL     1       4.439   5.946   2.942  1.00  0.00     0.000 CG0
ATOM     85  G   UNL     1       4.583   5.266   4.297  1.00  0.00     0.000 G0
ENDBRANCH  83  84
ENDBRANCH  82  83
ENDBRANCH  81  82
BRANCH  81  86
ATOM     86  N   UNL     1       7.266   3.290   2.836  1.00  0.00    -0.352 N 
ATOM     87  C   UNL     1       8.383   2.753   2.255  1.00  0.00     0.223 C 
ATOM     88  H   UNL     1       7.434   4.007   3.490  1.00  0.00     0.163 HD
ATOM     89  O   UNL     1       9.483   3.253   2.477  1.00  0.00    -0.275 OA
BRANCH  87  90
ATOM     90  C   UNL     1       8.271   1.609   1.312  1.00  0.00     0.078 C 
ATOM     91  C   UNL     1       9.206   0.431   1.533  1.00  0.00     0.014 C 
ATOM     92  C   UNL     1       7.731   0.249   1.688  1.00  0.00     0.014 C 
ENDBRANCH  87  90
ENDBRANCH  81  86
ENDBRANCH  77  81
ENDBRANCH  75  77
ENDBRANCH  74  75
ENDBRANCH  73  74
ENDBRANCH   1  73
TORSDOF 16
