REMARK SMILES O=C(OCCOCCOC(=O)[C@]12C[NH2+]C[C@H]1CN(C(=O)c1ccccc1-n1cncn1)C2)c1ccc(-c2c3nc(c(-c4c(F)c(F)c(F)c(F)c4F)c4ccc([nH]4)c(-c4c(F)c(F)c(F)c(F)c4F)c4nc(c(-c5c(F)c(F)c(F)c(F)c5F)c5ccc2[nH]5)C=C4)C=C3)cc1
REMARK SMILES IDX 7 1 6 2 5 3 4 4 3 5 2 6 1 7 33 8 34 9 95 10 35 11 94 12
REMARK SMILES IDX 36 13 37 14 38 15 88 16 39 17 93 18 87 19 89 20 40 21 92 22
REMARK SMILES IDX 86 23 85 24 41 26 73 27 53 28 72 29 54 30 57 31 71 32 90 33
REMARK SMILES IDX 55 34 56 35 70 37 91 38 58 39 42 40 43 41 51 42 44 43 45 44
REMARK SMILES IDX 49 45 52 46 46 47 47 48 50 49 48 50 74 51 75 52 83 53 76 54
REMARK SMILES IDX 77 55 81 56 84 57 78 58 79 59 82 60 80 61 59 62 60 63 68 64
REMARK SMILES IDX 61 65 62 66 66 67 69 68 63 69 64 70 67 71 65 72 8 73 9 74
REMARK SMILES IDX 10 75 11 76 12 77 13 78 16 79 32 80 14 81 15 82 17 83 18 84
REMARK SMILES IDX 19 87 20 88 21 89 22 90 26 91 23 92 25 93 24 94 27 95 28 96
REMARK SMILES IDX 31 97 29 98 30 99
REMARK H PARENT 89 25 57 36 14 85 14 86
REMARK Flexibility Score: inf
ROOT
ATOM      1  C   UNL     1       2.892   1.206   2.098  1.00  0.00     0.202 C 
ENDROOT
BRANCH   1   2
ATOM      2  O   UNL     1       3.909   0.238   1.846  1.00  0.00    -0.374 OA
BRANCH   2   3
ATOM      3  C   UNL     1       4.744   0.390   0.709  1.00  0.00     0.202 C 
BRANCH   3   4
ATOM      4  C   UNL     1       4.122   0.268  -0.697  1.00  0.00     0.261 C 
BRANCH   4   5
ATOM      5  O   UNL     1       2.771   0.702  -0.793  1.00  0.00    -0.460 OA
BRANCH   5   6
ATOM      6  C   UNL     1       1.674  -0.042  -0.534  1.00  0.00     0.338 C 
ATOM      7  O   UNL     1       0.570   0.483  -0.671  1.00  0.00    -0.246 OA
BRANCH   6   8
ATOM      8  C   UNL     1       1.727  -1.457  -0.058  1.00  0.00     0.060 A 
ATOM      9  C   UNL     1       2.876  -2.233   0.115  1.00  0.00     0.016 A 
ATOM     10  C   UNL     1       0.483  -2.060   0.181  1.00  0.00     0.016 A 
ATOM     11  C   UNL     1       2.800  -3.599   0.221  1.00  0.00     0.010 A 
ATOM     12  C   UNL     1       0.395  -3.421   0.402  1.00  0.00     0.010 A 
ATOM     13  C   UNL     1       1.552  -4.187   0.302  1.00  0.00    -0.014 A 
BRANCH  13  14
ATOM     14  C   UNL     1       1.541  -5.635   0.328  1.00  0.00     0.031 A 
ATOM     15  C   UNL     1       2.319  -6.243   1.447  1.00  0.00     0.074 A 
ATOM     16  C   UNL     1       0.819  -6.296  -0.594  1.00  0.00     0.049 A 
ATOM     17  N   UNL     1       3.211  -7.181   1.405  1.00  0.00    -0.248 NA
ATOM     18  C   UNL     1       2.181  -5.614   2.776  1.00  0.00     0.031 C 
ATOM     19  C   UNL     1      -0.106  -5.737  -1.587  1.00  0.00     0.029 A 
ATOM     20  N   UNL     1       0.653  -7.631  -0.746  1.00  0.00    -0.354 N 
ATOM     21  C   UNL     1       3.612  -7.381   2.726  1.00  0.00     0.074 A 
ATOM     22  C   UNL     1       3.067  -6.298   3.495  1.00  0.00     0.031 C 
ATOM     23  C   UNL     1      -0.929  -6.714  -2.021  1.00  0.00     0.029 A 
ATOM     24  C   UNL     1      -0.498  -7.969  -1.437  1.00  0.00     0.049 A 
ATOM     25  H   UNL     1       1.290  -8.297  -0.399  1.00  0.00     0.167 HD
ATOM     26  C   UNL     1       4.157  -8.559   3.134  1.00  0.00     0.037 A 
ATOM     27  C   UNL     1      -1.114  -9.172  -1.383  1.00  0.00     0.037 A 
ATOM     28  C   UNL     1       4.807  -9.237   2.044  1.00  0.00     0.049 A 
ATOM     29  C   UNL     1      -0.123 -10.153  -0.864  1.00  0.00     0.074 A 
ATOM     30  C   UNL     1       5.874  -8.934   1.220  1.00  0.00     0.029 A 
ATOM     31  N   UNL     1       4.157 -10.280   1.432  1.00  0.00    -0.354 N 
ATOM     32  N   UNL     1       0.946 -10.517  -1.519  1.00  0.00    -0.248 NA
ATOM     33  C   UNL     1      -0.072 -10.365   0.577  1.00  0.00     0.031 C 
ATOM     34  C   UNL     1       5.520  -9.462  -0.056  1.00  0.00     0.029 A 
ATOM     35  C   UNL     1       4.285 -10.095   0.080  1.00  0.00     0.049 A 
ATOM     36  H   UNL     1       3.689 -11.021   1.880  1.00  0.00     0.167 HD
ATOM     37  C   UNL     1       1.940 -10.624  -0.555  1.00  0.00     0.074 A 
ATOM     38  C   UNL     1       1.237 -10.592   0.725  1.00  0.00     0.031 C 
ATOM     39  C   UNL     1       3.256 -10.438  -0.870  1.00  0.00     0.037 A 
BRANCH  26  40
ATOM     40  C   UNL     1       3.730  -9.263   4.405  1.00  0.00     0.064 A 
ATOM     41  C   UNL     1       4.334 -10.493   4.737  1.00  0.00     0.173 A 
ATOM     42  C   UNL     1       2.551  -8.958   5.124  1.00  0.00     0.173 A 
ATOM     43  F   UNL     1       5.465 -10.886   4.131  1.00  0.00    -0.203 F 
ATOM     44  C   UNL     1       3.735 -11.396   5.620  1.00  0.00     0.198 A 
ATOM     45  C   UNL     1       1.982  -9.842   6.037  1.00  0.00     0.198 A 
ATOM     46  F   UNL     1       1.839  -7.848   4.906  1.00  0.00    -0.203 F 
ATOM     47  F   UNL     1       4.272 -12.610   5.793  1.00  0.00    -0.200 F 
ATOM     48  C   UNL     1       2.549 -11.077   6.255  1.00  0.00     0.200 A 
ATOM     49  F   UNL     1       0.829  -9.513   6.637  1.00  0.00    -0.200 F 
ATOM     50  F   UNL     1       1.931 -11.970   7.037  1.00  0.00    -0.200 F 
ENDBRANCH  26  40
BRANCH  27  51
ATOM     51  C   UNL     1      -2.579  -9.389  -1.357  1.00  0.00     0.064 A 
ATOM     52  C   UNL     1      -3.126 -10.644  -1.654  1.00  0.00     0.173 A 
ATOM     53  C   UNL     1      -3.463  -8.430  -0.818  1.00  0.00     0.173 A 
ATOM     54  F   UNL     1      -2.340 -11.627  -2.116  1.00  0.00    -0.203 F 
ATOM     55  C   UNL     1      -4.479 -10.922  -1.427  1.00  0.00     0.198 A 
ATOM     56  C   UNL     1      -4.813  -8.703  -0.607  1.00  0.00     0.198 A 
ATOM     57  F   UNL     1      -3.020  -7.234  -0.403  1.00  0.00    -0.203 F 
ATOM     58  F   UNL     1      -4.958 -12.149  -1.677  1.00  0.00    -0.200 F 
ATOM     59  C   UNL     1      -5.319  -9.953  -0.902  1.00  0.00     0.200 A 
ATOM     60  F   UNL     1      -5.605  -7.766  -0.065  1.00  0.00    -0.200 F 
ATOM     61  F   UNL     1      -6.604 -10.235  -0.644  1.00  0.00    -0.200 F 
ENDBRANCH  27  51
BRANCH  39  62
ATOM     62  C   UNL     1       3.615 -10.321  -2.324  1.00  0.00     0.064 A 
ATOM     63  C   UNL     1       3.184  -9.262  -3.143  1.00  0.00     0.173 A 
ATOM     64  C   UNL     1       4.551 -11.211  -2.862  1.00  0.00     0.173 A 
ATOM     65  F   UNL     1       2.384  -8.305  -2.662  1.00  0.00    -0.203 F 
ATOM     66  C   UNL     1       3.631  -9.133  -4.456  1.00  0.00     0.198 A 
ATOM     67  C   UNL     1       5.025 -11.060  -4.163  1.00  0.00     0.198 A 
ATOM     68  F   UNL     1       5.050 -12.200  -2.104  1.00  0.00    -0.203 F 
ATOM     69  F   UNL     1       3.197  -8.118  -5.218  1.00  0.00    -0.200 F 
ATOM     70  C   UNL     1       4.557 -10.029  -4.963  1.00  0.00     0.200 A 
ATOM     71  F   UNL     1       5.963 -11.894  -4.631  1.00  0.00    -0.200 F 
ATOM     72  F   UNL     1       5.023  -9.880  -6.211  1.00  0.00    -0.200 F 
ENDBRANCH  39  62
ENDBRANCH  13  14
ENDBRANCH   6   8
ENDBRANCH   5   6
ENDBRANCH   4   5
ENDBRANCH   3   4
ENDBRANCH   2   3
ENDBRANCH   1   2
BRANCH   1  73
ATOM     73  C   UNL     1       3.167   2.713   1.974  1.00  0.00     0.261 C 
BRANCH  73  74
ATOM     74  O   UNL     1       3.843   3.154   0.776  1.00  0.00    -0.463 OA
BRANCH  74  75
ATOM     75  C   UNL     1       4.986   3.887   0.980  1.00  0.00     0.320 C 
ATOM     76  O   UNL     1       5.546   3.976   2.072  1.00  0.00    -0.251 OA
BRANCH  75  77
ATOM     77  C   UNL     1       5.567   4.636  -0.263  1.00  0.00     0.144 C 
ATOM     78  C   UNL     1       4.276   5.553  -0.126  1.00  0.00     0.281 C 
ATOM     79  C   UNL     1       5.536   4.984  -1.803  1.00  0.00     0.088 C 
ATOM     80  C   UNL     1       6.133   3.199  -0.674  1.00  0.00     0.145 C 
ATOM     81  N   UNL     1       4.585   6.837  -0.773  1.00  0.00    -0.345 N 
ATOM     82  C   UNL     1       5.282   6.465  -1.986  1.00  0.00     0.267 C 
ATOM     83  C   UNL     1       6.885   4.593  -2.383  1.00  0.00     0.130 C 
ATOM     84  N   UNL     1       7.121   3.351  -1.724  1.00  0.00    -0.337 N 
ATOM     85  H   UNL     1       5.180   7.409  -0.174  1.00  0.00     0.346 HD
ATOM     86  H   UNL     1       3.749   7.393  -0.957  1.00  0.00     0.346 HD
BRANCH  84  87
ATOM     87  C   UNL     1       8.153   2.511  -2.105  1.00  0.00     0.256 C 
ATOM     88  O   UNL     1       9.022   2.829  -2.898  1.00  0.00    -0.269 OA
BRANCH  87  89
ATOM     89  C   UNL     1       8.176   1.121  -1.595  1.00  0.00     0.065 A 
ATOM     90  C   UNL     1       9.014   0.866  -0.498  1.00  0.00     0.016 A 
ATOM     91  C   UNL     1       7.441   0.071  -2.172  1.00  0.00     0.079 A 
ATOM     92  C   UNL     1       9.098  -0.419   0.045  1.00  0.00     0.001 A 
ATOM     93  C   UNL     1       7.510  -1.213  -1.589  1.00  0.00     0.029 A 
ATOM     94  C   UNL     1       8.340  -1.455  -0.493  1.00  0.00     0.002 A 
BRANCH  91  95
ATOM     95  N   UNL     1       6.604   0.232  -3.308  1.00  0.00    -0.220 N 
ATOM     96  C   UNL     1       6.585   1.190  -4.290  1.00  0.00     0.225 A 
ATOM     97  N   UNL     1       5.566  -0.624  -3.518  1.00  0.00    -0.155 NA
ATOM     98  N   UNL     1       5.502   1.077  -5.025  1.00  0.00    -0.223 NA
ATOM     99  C   UNL     1       4.909  -0.034  -4.517  1.00  0.00     0.246 A 
ENDBRANCH  91  95
ENDBRANCH  87  89
ENDBRANCH  84  87
ENDBRANCH  75  77
ENDBRANCH  74  75
ENDBRANCH  73  74
ENDBRANCH   1  73
TORSDOF 17
