REMARK SMILES CSCC[C@H](NC(=O)Cc1c(C)c2ccc(O)cc2oc1=O)C(=O)OCCOCCOC(=O)c1ccc(-c2c3nc(c(-c4c(F)c(F)c(F)c(F)c4F)c4ccc([nH]4)c(-c4c(F)c(F)c(F)c(F)c4F)c4nc(c(-c5c(F)c(F)c(F)c(F)c5F)c5ccc2[nH]5)C=C4)C=C3)cc1
REMARK SMILES IDX 27 1 26 2 25 3 23 4 24 5 5 6 4 7 3 8 2 9 1 10 6 11 7 12 8 14
REMARK SMILES IDX 9 15 10 16 11 17 21 18 12 19 13 20 20 21 22 22 14 23 19 24
REMARK SMILES IDX 15 25 18 26 16 27 17 28 28 30 29 31 30 32 31 33 32 34 33 35
REMARK SMILES IDX 34 36 35 37 96 38 36 39 95 40 37 41 38 42 39 43 89 44 40 45
REMARK SMILES IDX 94 46 88 47 90 48 41 49 93 50 87 51 86 52 42 54 74 55 54 56
REMARK SMILES IDX 73 57 55 58 58 59 72 60 91 61 56 62 57 63 71 65 92 66 59 67
REMARK SMILES IDX 43 68 44 69 52 70 45 71 46 72 50 73 53 74 47 75 48 76 51 77
REMARK SMILES IDX 49 78 75 79 76 80 84 81 77 82 78 83 82 84 85 85 79 86 80 87
REMARK SMILES IDX 83 88 81 89 60 90 61 91 69 92 62 93 63 94 67 95 70 96 64 97
REMARK SMILES IDX 65 98 68 99 66 100
REMARK H PARENT 6 13 17 29 90 53 58 64
REMARK Flexibility Score: inf
ROOT
ATOM      1  C   UNL     1      -1.631   6.417  -0.940  1.00  0.00     0.202 C 
ENDROOT
BRANCH   1   2
ATOM      2  C   UNL     1      -0.142   6.161  -0.700  1.00  0.00     0.261 C 
BRANCH   2   3
ATOM      3  O   UNL     1       0.304   4.851  -1.066  1.00  0.00    -0.462 OA
BRANCH   3   4
ATOM      4  C   UNL     1       0.284   3.958  -0.027  1.00  0.00     0.328 C 
ATOM      5  O   UNL     1      -0.190   4.186   1.075  1.00  0.00    -0.250 OA
BRANCH   4   6
ATOM      6  C   UNL     1       1.073   2.697  -0.374  1.00  0.00     0.193 C 
BRANCH   6   7
ATOM      7  C   UNL     1       2.582   3.001  -0.363  1.00  0.00     0.048 C 
BRANCH   7   8
ATOM      8  C   UNL     1       3.138   4.159   0.470  1.00  0.00     0.072 C 
BRANCH   8   9
ATOM      9  S   UNL     1       3.503   3.738   2.200  1.00  0.00    -0.165 SA
ATOM     10  C   UNL     1       1.935   4.167   2.988  1.00  0.00     0.085 C 
ENDBRANCH   8   9
ENDBRANCH   7   8
ENDBRANCH   6   7
BRANCH   6  11
ATOM     11  N   UNL     1       0.636   2.251  -1.718  1.00  0.00    -0.342 N 
ATOM     12  C   UNL     1       0.574   1.025  -2.308  1.00  0.00     0.225 C 
ATOM     13  H   UNL     1       0.330   2.985  -2.298  1.00  0.00     0.164 HD
ATOM     14  O   UNL     1       0.108   0.969  -3.449  1.00  0.00    -0.275 OA
BRANCH  12  15
ATOM     15  C   UNL     1       1.066  -0.230  -1.603  1.00  0.00     0.143 C 
BRANCH  15  16
ATOM     16  C   UNL     1       2.561  -0.375  -1.438  1.00  0.00     0.051 A 
ATOM     17  C   UNL     1       3.542   0.293  -2.084  1.00  0.00    -0.029 A 
ATOM     18  C   UNL     1       2.915  -1.416  -0.421  1.00  0.00     0.340 A 
ATOM     19  C   UNL     1       3.373   1.057  -3.369  1.00  0.00     0.046 C 
ATOM     20  C   UNL     1       4.840   0.369  -1.393  1.00  0.00     0.021 A 
ATOM     21  O   UNL     1       4.256  -1.639  -0.169  1.00  0.00    -0.422 OA
ATOM     22  O   UNL     1       2.050  -2.111   0.103  1.00  0.00    -0.246 OA
ATOM     23  C   UNL     1       5.692   1.479  -1.494  1.00  0.00     0.016 A 
ATOM     24  C   UNL     1       5.157  -0.610  -0.457  1.00  0.00     0.142 A 
ATOM     25  C   UNL     1       6.830   1.582  -0.684  1.00  0.00     0.047 A 
ATOM     26  C   UNL     1       6.320  -0.559   0.308  1.00  0.00     0.094 A 
ATOM     27  C   UNL     1       7.141   0.553   0.199  1.00  0.00     0.119 A 
BRANCH  27  28
ATOM     28  O   UNL     1       8.233   0.618   1.011  1.00  0.00    -0.508 OA
ATOM     29  H   UNL     1       8.809   1.355   0.963  1.00  0.00     0.293 HD
ENDBRANCH  27  28
ENDBRANCH  15  16
ENDBRANCH  12  15
ENDBRANCH   6  11
ENDBRANCH   4   6
ENDBRANCH   3   4
ENDBRANCH   2   3
ENDBRANCH   1   2
BRANCH   1  30
ATOM     30  O   UNL     1      -2.564   5.446  -0.493  1.00  0.00    -0.374 OA
BRANCH  30  31
ATOM     31  C   UNL     1      -2.700   4.223  -1.219  1.00  0.00     0.202 C 
BRANCH  31  32
ATOM     32  C   UNL     1      -3.269   4.289  -2.638  1.00  0.00     0.261 C 
BRANCH  32  33
ATOM     33  O   UNL     1      -2.350   4.907  -3.557  1.00  0.00    -0.460 OA
BRANCH  33  34
ATOM     34  C   UNL     1      -2.773   6.090  -4.064  1.00  0.00     0.338 C 
ATOM     35  O   UNL     1      -3.822   6.665  -3.841  1.00  0.00    -0.246 OA
BRANCH  34  36
ATOM     36  C   UNL     1      -1.678   6.720  -4.817  1.00  0.00     0.060 A 
ATOM     37  C   UNL     1      -1.282   8.013  -4.445  1.00  0.00     0.016 A 
ATOM     38  C   UNL     1      -1.152   6.104  -5.952  1.00  0.00     0.016 A 
ATOM     39  C   UNL     1      -0.404   8.729  -5.252  1.00  0.00     0.010 A 
ATOM     40  C   UNL     1      -0.288   6.829  -6.770  1.00  0.00     0.010 A 
ATOM     41  C   UNL     1       0.044   8.158  -6.448  1.00  0.00    -0.014 A 
BRANCH  41  42
ATOM     42  C   UNL     1       0.659   9.011  -7.487  1.00  0.00     0.031 A 
ATOM     43  C   UNL     1      -0.226   9.527  -8.586  1.00  0.00     0.074 A 
ATOM     44  C   UNL     1       1.971   9.291  -7.465  1.00  0.00     0.049 A 
ATOM     45  N   UNL     1       0.095  10.135  -9.697  1.00  0.00    -0.248 NA
ATOM     46  C   UNL     1      -1.674   9.319  -8.408  1.00  0.00     0.031 C 
ATOM     47  C   UNL     1       2.901   8.897  -6.411  1.00  0.00     0.029 A 
ATOM     48  N   UNL     1       2.750   9.954  -8.378  1.00  0.00    -0.354 N 
ATOM     49  C   UNL     1      -1.105  10.359 -10.360  1.00  0.00     0.074 A 
ATOM     50  C   UNL     1      -2.160   9.812  -9.537  1.00  0.00     0.031 C 
ATOM     51  C   UNL     1       4.138   9.296  -6.753  1.00  0.00     0.029 A 
ATOM     52  C   UNL     1       4.087   9.929  -8.070  1.00  0.00     0.049 A 
ATOM     53  H   UNL     1       2.387  10.402  -9.175  1.00  0.00     0.167 HD
ATOM     54  C   UNL     1      -1.302  10.965 -11.554  1.00  0.00     0.037 A 
ATOM     55  C   UNL     1       5.146  10.332  -8.797  1.00  0.00     0.037 A 
ATOM     56  C   UNL     1      -0.240  11.504 -12.359  1.00  0.00     0.049 A 
ATOM     57  C   UNL     1       4.911  10.930 -10.161  1.00  0.00     0.074 A 
ATOM     58  C   UNL     1      -0.321  12.147 -13.580  1.00  0.00     0.029 A 
ATOM     59  N   UNL     1       1.105  11.453 -12.018  1.00  0.00    -0.354 N 
ATOM     60  N   UNL     1       3.778  11.142 -10.787  1.00  0.00    -0.248 NA
ATOM     61  C   UNL     1       6.100  11.341 -10.921  1.00  0.00     0.031 C 
ATOM     62  C   UNL     1       0.979  12.442 -14.002  1.00  0.00     0.029 A 
ATOM     63  C   UNL     1       1.866  12.034 -13.017  1.00  0.00     0.049 A 
ATOM     64  H   UNL     1       1.463  11.061 -11.189  1.00  0.00     0.167 HD
ATOM     65  C   UNL     1       4.113  11.741 -11.995  1.00  0.00     0.074 A 
ATOM     66  C   UNL     1       5.556  11.859 -12.014  1.00  0.00     0.031 C 
ATOM     67  C   UNL     1       3.301  12.160 -12.996  1.00  0.00     0.037 A 
BRANCH  54  68
ATOM     68  C   UNL     1      -2.707  11.041 -12.074  1.00  0.00     0.064 A 
ATOM     69  C   UNL     1      -3.667  11.882 -11.492  1.00  0.00     0.173 A 
ATOM     70  C   UNL     1      -3.092  10.278 -13.187  1.00  0.00     0.173 A 
ATOM     71  F   UNL     1      -3.356  12.619 -10.415  1.00  0.00    -0.203 F 
ATOM     72  C   UNL     1      -4.966  11.940 -11.992  1.00  0.00     0.198 A 
ATOM     73  C   UNL     1      -4.382  10.360 -13.702  1.00  0.00     0.198 A 
ATOM     74  F   UNL     1      -2.212   9.457 -13.781  1.00  0.00    -0.203 F 
ATOM     75  F   UNL     1      -5.880  12.716 -11.393  1.00  0.00    -0.200 F 
ATOM     76  C   UNL     1      -5.320  11.185 -13.101  1.00  0.00     0.200 A 
ATOM     77  F   UNL     1      -4.719   9.638 -14.780  1.00  0.00    -0.200 F 
ATOM     78  F   UNL     1      -6.569  11.247 -13.585  1.00  0.00    -0.200 F 
ENDBRANCH  54  68
BRANCH  55  79
ATOM     79  C   UNL     1       6.522  10.156  -8.264  1.00  0.00     0.064 A 
ATOM     80  C   UNL     1       7.305  11.263  -7.908  1.00  0.00     0.173 A 
ATOM     81  C   UNL     1       7.084   8.881  -8.101  1.00  0.00     0.173 A 
ATOM     82  F   UNL     1       6.820  12.503  -8.065  1.00  0.00    -0.203 F 
ATOM     83  C   UNL     1       8.602  11.102  -7.425  1.00  0.00     0.198 A 
ATOM     84  C   UNL     1       8.370   8.720  -7.590  1.00  0.00     0.198 A 
ATOM     85  F   UNL     1       6.377   7.788  -8.424  1.00  0.00    -0.203 F 
ATOM     86  F   UNL     1       9.343  12.179  -7.130  1.00  0.00    -0.200 F 
ATOM     87  C   UNL     1       9.131   9.831  -7.260  1.00  0.00     0.200 A 
ATOM     88  F   UNL     1       8.871   7.489  -7.417  1.00  0.00    -0.200 F 
ATOM     89  F   UNL     1      10.375   9.676  -6.787  1.00  0.00    -0.200 F 
ENDBRANCH  55  79
BRANCH  67  90
ATOM     90  C   UNL     1       3.940  12.840 -14.170  1.00  0.00     0.064 A 
ATOM     91  C   UNL     1       4.654  12.123 -15.140  1.00  0.00     0.173 A 
ATOM     92  C   UNL     1       3.760  14.218 -14.368  1.00  0.00     0.173 A 
ATOM     93  F   UNL     1       4.864  10.806 -14.987  1.00  0.00    -0.203 F 
ATOM     94  C   UNL     1       5.175  12.764 -16.261  1.00  0.00     0.198 A 
ATOM     95  C   UNL     1       4.257  14.850 -15.503  1.00  0.00     0.198 A 
ATOM     96  F   UNL     1       3.077  14.945 -13.471  1.00  0.00    -0.203 F 
ATOM     97  F   UNL     1       5.881  12.066 -17.161  1.00  0.00    -0.200 F 
ATOM     98  C   UNL     1       4.966  14.123 -16.447  1.00  0.00     0.200 A 
ATOM     99  F   UNL     1       4.041  16.159 -15.688  1.00  0.00    -0.200 F 
ATOM    100  F   UNL     1       5.452  14.733 -17.537  1.00  0.00    -0.200 F 
ENDBRANCH  67  90
ENDBRANCH  41  42
ENDBRANCH  34  36
ENDBRANCH  33  34
ENDBRANCH  32  33
ENDBRANCH  31  32
ENDBRANCH  30  31
ENDBRANCH   1  30
TORSDOF 21
