REMARK SMILES [NH3+][C@H](C(=O)OCCOCCOC(=O)c1ccc(-c2c3nc(c(-c4c(F)c(F)c(F)c(F)c4F)c4ccc([nH]4)c(-c4c(F)c(F)c(F)c(F)c4F)c4nc(c(-c5c(F)c(F)c(F)c(F)c5F)c5ccc2[nH]5)C=C4)C=C3)cc1)c1cc2c(cc1Br)OCO2
REMARK SMILES IDX 9 1 8 2 7 3 6 4 5 5 3 6 4 7 2 8 1 9 77 13 78 14 82 15 79 16
REMARK SMILES IDX 81 17 83 18 80 19 86 20 84 21 85 22 10 23 11 24 12 25 13 26
REMARK SMILES IDX 14 27 15 28 76 29 16 30 75 31 17 32 18 33 19 34 69 35 20 36
REMARK SMILES IDX 74 37 68 38 70 39 21 40 73 41 67 42 66 43 22 45 54 46 34 47
REMARK SMILES IDX 53 48 35 49 38 50 52 51 71 52 36 53 37 54 51 56 72 57 39 58
REMARK SMILES IDX 23 59 24 60 32 61 25 62 26 63 30 64 33 65 27 66 28 67 31 68
REMARK SMILES IDX 29 69 55 70 56 71 64 72 57 73 58 74 62 75 65 76 59 77 60 78
REMARK SMILES IDX 63 79 61 80 40 81 41 82 49 83 42 84 43 85 47 86 50 87 44 88
REMARK SMILES IDX 45 89 48 90 46 91
REMARK H PARENT 1 10 1 11 1 12 70 44 38 55
REMARK Flexibility Score: inf
ROOT
ATOM      1  C   UNL     1      -0.377  -1.283   1.842  1.00  0.00     0.202 C 
ENDROOT
BRANCH   1   2
ATOM      2  O   UNL     1       0.804  -1.091   2.621  1.00  0.00    -0.374 OA
BRANCH   2   3
ATOM      3  C   UNL     1       1.333   0.228   2.707  1.00  0.00     0.202 C 
BRANCH   3   4
ATOM      4  C   UNL     1       2.011   0.791   1.454  1.00  0.00     0.261 C 
BRANCH   4   5
ATOM      5  O   UNL     1       1.152   0.835   0.302  1.00  0.00    -0.459 OA
BRANCH   5   6
ATOM      6  C   UNL     1       1.531   0.049  -0.752  1.00  0.00     0.369 C 
ATOM      7  O   UNL     1       2.514  -0.685  -0.764  1.00  0.00    -0.245 OA
BRANCH   6   8
ATOM      8  C   UNL     1       0.614   0.271  -1.973  1.00  0.00     0.324 C 
BRANCH   8   9
ATOM      9  N   UNL     1       1.215  -0.326  -3.192  1.00  0.00    -0.342 N 
ATOM     10  H   UNL     1       0.596  -0.170  -3.987  1.00  0.00     0.345 HD
ATOM     11  H   UNL     1       1.343  -1.328  -3.052  1.00  0.00     0.345 HD
ATOM     12  H   UNL     1       2.119   0.110  -3.374  1.00  0.00     0.345 HD
ENDBRANCH   8   9
BRANCH   8  13
ATOM     13  C   UNL     1      -0.831  -0.166  -1.760  1.00  0.00     0.039 A 
ATOM     14  C   UNL     1      -1.771   0.849  -1.466  1.00  0.00     0.062 A 
ATOM     15  C   UNL     1      -1.295  -1.509  -1.812  1.00  0.00     0.031 A 
ATOM     16  C   UNL     1      -3.093   0.506  -1.270  1.00  0.00     0.166 A 
ATOM     17  C   UNL     1      -2.654  -1.821  -1.640  1.00  0.00     0.066 A 
ATOM     18  Br  UNL     1      -0.136  -3.002  -2.038  1.00  0.00    -0.050 Br
ATOM     19  C   UNL     1      -3.525  -0.791  -1.369  1.00  0.00     0.166 A 
ATOM     20  O   UNL     1      -4.099   1.365  -0.954  1.00  0.00    -0.454 OA
ATOM     21  O   UNL     1      -4.859  -0.915  -1.143  1.00  0.00    -0.454 OA
ATOM     22  C   UNL     1      -5.212   0.452  -0.844  1.00  0.00     0.468 C 
ENDBRANCH   8  13
ENDBRANCH   6   8
ENDBRANCH   5   6
ENDBRANCH   4   5
ENDBRANCH   3   4
ENDBRANCH   2   3
ENDBRANCH   1   2
BRANCH   1  23
ATOM     23  C   UNL     1      -1.669  -0.661   2.383  1.00  0.00     0.261 C 
BRANCH  23  24
ATOM     24  O   UNL     1      -1.619   0.779   2.399  1.00  0.00    -0.460 OA
BRANCH  24  25
ATOM     25  C   UNL     1      -1.940   1.333   3.594  1.00  0.00     0.338 C 
ATOM     26  O   UNL     1      -2.350   0.763   4.590  1.00  0.00    -0.246 OA
BRANCH  25  27
ATOM     27  C   UNL     1      -1.584   2.763   3.619  1.00  0.00     0.060 A 
ATOM     28  C   UNL     1      -0.640   3.178   4.567  1.00  0.00     0.016 A 
ATOM     29  C   UNL     1      -2.273   3.699   2.846  1.00  0.00     0.016 A 
ATOM     30  C   UNL     1      -0.424   4.537   4.788  1.00  0.00     0.010 A 
ATOM     31  C   UNL     1      -2.061   5.064   3.076  1.00  0.00     0.010 A 
ATOM     32  C   UNL     1      -1.167   5.489   4.077  1.00  0.00    -0.014 A 
BRANCH  32  33
ATOM     33  C   UNL     1      -1.112   6.913   4.493  1.00  0.00     0.031 A 
ATOM     34  C   UNL     1      -2.181   7.455   5.403  1.00  0.00     0.074 A 
ATOM     35  C   UNL     1      -0.097   7.704   4.104  1.00  0.00     0.049 A 
ATOM     36  N   UNL     1      -2.326   8.662   5.889  1.00  0.00    -0.248 NA
ATOM     37  C   UNL     1      -3.225   6.508   5.823  1.00  0.00     0.031 C 
ATOM     38  C   UNL     1       1.020   7.288   3.260  1.00  0.00     0.029 A 
ATOM     39  N   UNL     1       0.154   9.027   4.371  1.00  0.00    -0.354 N 
ATOM     40  C   UNL     1      -3.476   8.621   6.667  1.00  0.00     0.074 A 
ATOM     41  C   UNL     1      -4.005   7.277   6.569  1.00  0.00     0.031 C 
ATOM     42  C   UNL     1       1.838   8.338   3.072  1.00  0.00     0.029 A 
ATOM     43  C   UNL     1       1.287   9.505   3.761  1.00  0.00     0.049 A 
ATOM     44  H   UNL     1      -0.423   9.581   4.945  1.00  0.00     0.167 HD
ATOM     45  C   UNL     1      -4.035   9.611   7.404  1.00  0.00     0.037 A 
ATOM     46  C   UNL     1       1.810  10.746   3.748  1.00  0.00     0.037 A 
ATOM     47  C   UNL     1      -3.507  10.946   7.509  1.00  0.00     0.049 A 
ATOM     48  C   UNL     1       1.132  11.847   4.521  1.00  0.00     0.074 A 
ATOM     49  C   UNL     1      -3.988  12.009   8.254  1.00  0.00     0.029 A 
ATOM     50  N   UNL     1      -2.381  11.402   6.842  1.00  0.00    -0.354 N 
ATOM     51  N   UNL     1       0.062  11.791   5.277  1.00  0.00    -0.248 NA
ATOM     52  C   UNL     1       1.736  13.185   4.438  1.00  0.00     0.031 C 
ATOM     53  C   UNL     1      -3.179  13.122   8.001  1.00  0.00     0.029 A 
ATOM     54  C   UNL     1      -2.167  12.740   7.135  1.00  0.00     0.049 A 
ATOM     55  H   UNL     1      -1.816  10.857   6.247  1.00  0.00     0.167 HD
ATOM     56  C   UNL     1      -0.119  13.073   5.780  1.00  0.00     0.074 A 
ATOM     57  C   UNL     1       0.957  13.885   5.251  1.00  0.00     0.031 C 
ATOM     58  C   UNL     1      -1.088  13.534   6.607  1.00  0.00     0.037 A 
BRANCH  45  59
ATOM     59  C   UNL     1      -5.302   9.294   8.140  1.00  0.00     0.064 A 
ATOM     60  C   UNL     1      -5.305   8.493   9.292  1.00  0.00     0.173 A 
ATOM     61  C   UNL     1      -6.525   9.833   7.711  1.00  0.00     0.173 A 
ATOM     62  F   UNL     1      -4.164   7.946   9.735  1.00  0.00    -0.203 F 
ATOM     63  C   UNL     1      -6.489   8.225   9.973  1.00  0.00     0.198 A 
ATOM     64  C   UNL     1      -7.703   9.582   8.409  1.00  0.00     0.198 A 
ATOM     65  F   UNL     1      -6.574  10.609   6.618  1.00  0.00    -0.203 F 
ATOM     66  F   UNL     1      -6.476   7.425  11.049  1.00  0.00    -0.200 F 
ATOM     67  C   UNL     1      -7.686   8.774   9.535  1.00  0.00     0.200 A 
ATOM     68  F   UNL     1      -8.856  10.122   7.989  1.00  0.00    -0.200 F 
ATOM     69  F   UNL     1      -8.823   8.519  10.196  1.00  0.00    -0.200 F 
ENDBRANCH  45  59
BRANCH  46  70
ATOM     70  C   UNL     1       3.046  11.021   2.970  1.00  0.00     0.064 A 
ATOM     71  C   UNL     1       4.256  11.310   3.613  1.00  0.00     0.173 A 
ATOM     72  C   UNL     1       3.035  11.014   1.568  1.00  0.00     0.173 A 
ATOM     73  F   UNL     1       4.309  11.354   4.953  1.00  0.00    -0.203 F 
ATOM     74  C   UNL     1       5.408  11.595   2.883  1.00  0.00     0.198 A 
ATOM     75  C   UNL     1       4.193  11.275   0.839  1.00  0.00     0.198 A 
ATOM     76  F   UNL     1       1.900  10.748   0.905  1.00  0.00    -0.203 F 
ATOM     77  F   UNL     1       6.543  11.909   3.522  1.00  0.00    -0.200 F 
ATOM     78  C   UNL     1       5.377  11.572   1.496  1.00  0.00     0.200 A 
ATOM     79  F   UNL     1       4.161  11.242  -0.501  1.00  0.00    -0.200 F 
ATOM     80  F   UNL     1       6.486  11.843   0.795  1.00  0.00    -0.200 F 
ENDBRANCH  46  70
BRANCH  58  81
ATOM     81  C   UNL     1      -1.016  14.976   7.018  1.00  0.00     0.064 A 
ATOM     82  C   UNL     1      -1.339  16.011   6.129  1.00  0.00     0.173 A 
ATOM     83  C   UNL     1      -0.659  15.323   8.331  1.00  0.00     0.173 A 
ATOM     84  F   UNL     1      -1.671  15.731   4.860  1.00  0.00    -0.203 F 
ATOM     85  C   UNL     1      -1.286  17.343   6.533  1.00  0.00     0.198 A 
ATOM     86  C   UNL     1      -0.633  16.654   8.738  1.00  0.00     0.198 A 
ATOM     87  F   UNL     1      -0.347  14.369   9.221  1.00  0.00    -0.203 F 
ATOM     88  F   UNL     1      -1.559  18.318   5.655  1.00  0.00    -0.200 F 
ATOM     89  C   UNL     1      -0.941  17.662   7.838  1.00  0.00     0.200 A 
ATOM     90  F   UNL     1      -0.310  16.960  10.002  1.00  0.00    -0.200 F 
ATOM     91  F   UNL     1      -0.897  18.944   8.226  1.00  0.00    -0.200 F 
ENDBRANCH  58  81
ENDBRANCH  32  33
ENDBRANCH  25  27
ENDBRANCH  24  25
ENDBRANCH  23  24
ENDBRANCH   1  23
TORSDOF 16
