REMARK SMILES CCn1ccc([C@@H](C)NC(=O)c2cnn([C@H](C)C(=O)OCCOCCOC(=O)c3ccc(-c4c5nc(c(-c6c(F)c(F)c(F)c(F)c6F)c6ccc([nH]6)c(-c6c(F)c(F)c(F)c(F)c6F)c6nc(c(-c7c(F)c(F)c(F)c(F)c7F)c7ccc4[nH]7)C=C6)C=C5)cc3)c2)n1
REMARK SMILES IDX 21 1 20 2 18 3 19 4 16 5 17 6 15 7 12 8 13 9 92 10 14 11
REMARK SMILES IDX 10 12 9 13 11 15 7 16 8 17 6 18 3 19 4 20 93 21 5 22 2 23
REMARK SMILES IDX 1 24 22 25 23 26 24 27 25 28 26 29 27 30 28 31 29 32 30 33
REMARK SMILES IDX 91 34 31 35 90 36 32 37 33 38 34 39 84 40 35 41 89 42 83 43
REMARK SMILES IDX 85 44 36 45 88 46 82 47 81 48 37 50 69 51 49 52 68 53 50 54
REMARK SMILES IDX 53 55 67 56 86 57 51 58 52 59 66 61 87 62 54 63 38 64 39 65
REMARK SMILES IDX 47 66 40 67 41 68 45 69 48 70 42 71 43 72 46 73 44 74 70 75
REMARK SMILES IDX 71 76 79 77 72 78 73 79 77 80 80 81 74 82 75 83 78 84 76 85
REMARK SMILES IDX 55 86 56 87 64 88 57 89 58 90 62 91 65 92 59 93 60 94 63 95
REMARK SMILES IDX 61 96
REMARK H PARENT 9 14 85 49 53 60
REMARK Flexibility Score: inf
ROOT
ATOM      1  C   UNL     1       8.466  -0.887  -6.843  1.00  0.00     0.261 C 
ENDROOT
BRANCH   1   2
ATOM      2  O   UNL     1       7.529  -0.318  -5.915  1.00  0.00    -0.462 OA
BRANCH   2   3
ATOM      3  C   UNL     1       7.720  -0.671  -4.615  1.00  0.00     0.330 C 
ATOM      4  O   UNL     1       8.626  -1.399  -4.218  1.00  0.00    -0.250 OA
BRANCH   3   5
ATOM      5  C   UNL     1       6.742  -0.011  -3.667  1.00  0.00     0.213 C 
ATOM      6  C   UNL     1       6.043   1.252  -4.151  1.00  0.00     0.046 C 
BRANCH   5   7
ATOM      7  N   UNL     1       5.797  -1.008  -3.208  1.00  0.00    -0.258 N 
ATOM      8  C   UNL     1       4.794  -2.501  -1.968  1.00  0.00     0.077 A 
ATOM      9  C   UNL     1       4.510  -2.667  -3.341  1.00  0.00     0.149 A 
ATOM     10  C   UNL     1       5.557  -1.354  -1.913  1.00  0.00     0.123 A 
ATOM     11  N   UNL     1       5.094  -1.736  -4.098  1.00  0.00    -0.180 NA
BRANCH   8  12
ATOM     12  C   UNL     1       4.420  -3.311  -0.838  1.00  0.00     0.254 C 
ATOM     13  N   UNL     1       4.777  -4.631  -0.846  1.00  0.00    -0.344 N 
ATOM     14  H   UNL     1       4.398  -5.181  -0.123  1.00  0.00     0.164 HD
ATOM     15  O   UNL     1       3.831  -2.845   0.133  1.00  0.00    -0.269 OA
BRANCH  13  16
ATOM     16  C   UNL     1       5.646  -5.331  -1.789  1.00  0.00     0.130 C 
ATOM     17  C   UNL     1       4.862  -6.427  -2.502  1.00  0.00     0.038 C 
BRANCH  16  18
ATOM     18  C   UNL     1       6.844  -5.868  -1.052  1.00  0.00     0.084 A 
ATOM     19  N   UNL     1       8.896  -6.196  -0.608  1.00  0.00    -0.273 N 
ATOM     20  C   UNL     1       8.218  -6.919   0.333  1.00  0.00     0.109 A 
ATOM     21  N   UNL     1       8.082  -5.550  -1.460  1.00  0.00    -0.176 NA
ATOM     22  C   UNL     1       6.882  -6.728   0.073  1.00  0.00     0.047 A 
BRANCH  19  23
ATOM     23  C   UNL     1      10.341  -6.133  -0.740  1.00  0.00     0.141 C 
ATOM     24  C   UNL     1      10.870  -5.237  -1.851  1.00  0.00     0.029 C 
ENDBRANCH  19  23
ENDBRANCH  16  18
ENDBRANCH  13  16
ENDBRANCH   8  12
ENDBRANCH   5   7
ENDBRANCH   3   5
ENDBRANCH   2   3
ENDBRANCH   1   2
BRANCH   1  25
ATOM     25  C   UNL     1       9.414   0.165  -7.416  1.00  0.00     0.202 C 
BRANCH  25  26
ATOM     26  O   UNL     1      10.318   0.817  -6.526  1.00  0.00    -0.374 OA
BRANCH  26  27
ATOM     27  C   UNL     1       9.835   1.703  -5.523  1.00  0.00     0.202 C 
BRANCH  27  28
ATOM     28  C   UNL     1       9.258   3.039  -5.966  1.00  0.00     0.261 C 
BRANCH  28  29
ATOM     29  O   UNL     1       8.077   2.868  -6.737  1.00  0.00    -0.460 OA
BRANCH  29  30
ATOM     30  C   UNL     1       8.242   3.055  -8.058  1.00  0.00     0.338 C 
ATOM     31  O   UNL     1       9.307   3.157  -8.667  1.00  0.00    -0.246 OA
BRANCH  30  32
ATOM     32  C   UNL     1       6.939   3.298  -8.672  1.00  0.00     0.060 A 
ATOM     33  C   UNL     1       6.972   3.711 -10.003  1.00  0.00     0.016 A 
ATOM     34  C   UNL     1       5.812   3.484  -7.856  1.00  0.00     0.016 A 
ATOM     35  C   UNL     1       5.998   4.577 -10.426  1.00  0.00     0.010 A 
ATOM     36  C   UNL     1       4.842   4.358  -8.278  1.00  0.00     0.010 A 
ATOM     37  C   UNL     1       5.011   4.971  -9.514  1.00  0.00    -0.014 A 
BRANCH  37  38
ATOM     38  C   UNL     1       4.058   5.962  -9.955  1.00  0.00     0.031 A 
ATOM     39  C   UNL     1       3.118   5.378 -10.929  1.00  0.00     0.074 A 
ATOM     40  C   UNL     1       4.038   7.220  -9.475  1.00  0.00     0.049 A 
ATOM     41  N   UNL     1       3.110   5.565 -12.204  1.00  0.00    -0.248 NA
ATOM     42  C   UNL     1       2.257   4.272 -10.478  1.00  0.00     0.031 C 
ATOM     43  C   UNL     1       4.782   7.759  -8.333  1.00  0.00     0.029 A 
ATOM     44  N   UNL     1       3.265   8.274  -9.864  1.00  0.00    -0.354 N 
ATOM     45  C   UNL     1       2.064   4.782 -12.678  1.00  0.00     0.074 A 
ATOM     46  C   UNL     1       1.753   3.845 -11.636  1.00  0.00     0.031 C 
ATOM     47  C   UNL     1       4.254   8.954  -7.978  1.00  0.00     0.029 A 
ATOM     48  C   UNL     1       3.243   9.325  -8.951  1.00  0.00     0.049 A 
ATOM     49  H   UNL     1       2.768   8.290 -10.713  1.00  0.00     0.167 HD
ATOM     50  C   UNL     1       1.314   5.232 -13.719  1.00  0.00     0.037 A 
ATOM     51  C   UNL     1       2.388  10.378  -8.989  1.00  0.00     0.037 A 
ATOM     52  C   UNL     1       2.006   6.290 -14.413  1.00  0.00     0.049 A 
ATOM     53  C   UNL     1       1.892  10.486 -10.382  1.00  0.00     0.074 A 
ATOM     54  C   UNL     1       3.076   6.389 -15.274  1.00  0.00     0.029 A 
ATOM     55  N   UNL     1       1.815   7.524 -13.851  1.00  0.00    -0.354 N 
ATOM     56  N   UNL     1       2.652  10.819 -11.388  1.00  0.00    -0.248 NA
ATOM     57  C   UNL     1       0.630   9.846 -10.737  1.00  0.00     0.031 C 
ATOM     58  C   UNL     1       3.617   7.697 -15.085  1.00  0.00     0.029 A 
ATOM     59  C   UNL     1       2.835   8.380 -14.155  1.00  0.00     0.049 A 
ATOM     60  H   UNL     1       1.038   7.765 -13.296  1.00  0.00     0.167 HD
ATOM     61  C   UNL     1       2.179  10.061 -12.442  1.00  0.00     0.074 A 
ATOM     62  C   UNL     1       0.849   9.622 -12.036  1.00  0.00     0.031 C 
ATOM     63  C   UNL     1       3.036   9.592 -13.394  1.00  0.00     0.037 A 
BRANCH  50  64
ATOM     64  C   UNL     1      -0.201   5.146 -13.758  1.00  0.00     0.064 A 
ATOM     65  C   UNL     1      -0.869   5.620 -14.906  1.00  0.00     0.173 A 
ATOM     66  C   UNL     1      -1.023   4.937 -12.627  1.00  0.00     0.173 A 
ATOM     67  F   UNL     1      -0.189   5.879 -16.033  1.00  0.00    -0.203 F 
ATOM     68  C   UNL     1      -2.233   5.928 -14.893  1.00  0.00     0.198 A 
ATOM     69  C   UNL     1      -2.391   5.197 -12.634  1.00  0.00     0.198 A 
ATOM     70  F   UNL     1      -0.536   4.588 -11.433  1.00  0.00    -0.203 F 
ATOM     71  F   UNL     1      -2.798   6.490 -15.970  1.00  0.00    -0.200 F 
ATOM     72  C   UNL     1      -2.991   5.721 -13.756  1.00  0.00     0.200 A 
ATOM     73  F   UNL     1      -3.099   5.015 -11.510  1.00  0.00    -0.200 F 
ATOM     74  F   UNL     1      -4.284   6.070 -13.722  1.00  0.00    -0.200 F 
ENDBRANCH  50  64
BRANCH  51  75
ATOM     75  C   UNL     1       1.724  11.081  -7.864  1.00  0.00     0.064 A 
ATOM     76  C   UNL     1       1.095  12.324  -8.056  1.00  0.00     0.173 A 
ATOM     77  C   UNL     1       1.424  10.408  -6.665  1.00  0.00     0.173 A 
ATOM     78  F   UNL     1       1.293  13.012  -9.190  1.00  0.00    -0.203 F 
ATOM     79  C   UNL     1       0.188  12.841  -7.123  1.00  0.00     0.198 A 
ATOM     80  C   UNL     1       0.522  10.925  -5.734  1.00  0.00     0.198 A 
ATOM     81  F   UNL     1       1.921   9.186  -6.422  1.00  0.00    -0.203 F 
ATOM     82  F   UNL     1      -0.446  13.995  -7.374  1.00  0.00    -0.200 F 
ATOM     83  C   UNL     1      -0.108  12.133  -5.970  1.00  0.00     0.200 A 
ATOM     84  F   UNL     1       0.213  10.212  -4.641  1.00  0.00    -0.200 F 
ATOM     85  F   UNL     1      -1.030  12.591  -5.111  1.00  0.00    -0.200 F 
ENDBRANCH  51  75
BRANCH  63  86
ATOM     86  C   UNL     1       4.340  10.308 -13.557  1.00  0.00     0.064 A 
ATOM     87  C   UNL     1       5.373  10.317 -12.607  1.00  0.00     0.173 A 
ATOM     88  C   UNL     1       4.577  10.941 -14.784  1.00  0.00     0.173 A 
ATOM     89  F   UNL     1       5.244   9.670 -11.441  1.00  0.00    -0.203 F 
ATOM     90  C   UNL     1       6.581  10.963 -12.871  1.00  0.00     0.198 A 
ATOM     91  C   UNL     1       5.795  11.550 -15.059  1.00  0.00     0.198 A 
ATOM     92  F   UNL     1       3.634  10.926 -15.739  1.00  0.00    -0.203 F 
ATOM     93  F   UNL     1       7.554  10.975 -11.947  1.00  0.00    -0.200 F 
ATOM     94  C   UNL     1       6.793  11.570 -14.099  1.00  0.00     0.200 A 
ATOM     95  F   UNL     1       6.008  12.096 -16.264  1.00  0.00    -0.200 F 
ATOM     96  F   UNL     1       7.968  12.157 -14.368  1.00  0.00    -0.200 F 
ENDBRANCH  63  86
ENDBRANCH  37  38
ENDBRANCH  30  32
ENDBRANCH  29  30
ENDBRANCH  28  29
ENDBRANCH  27  28
ENDBRANCH  26  27
ENDBRANCH  25  26
ENDBRANCH   1  25
TORSDOF 19
