REMARK SMILES CC(C)C[C@H](NC(=O)c1cc(Cl)nnc1Cl)C(=O)OCCOCCOC(=O)c1ccc(-c2c3nc(c(-c4c(F)c(F)c(F)c(F)c4F)c4ccc([nH]4)c(-c4c(F)c(F)c(F)c(F)c4F)c4nc(c(-c5c(F)c(F)c(F)c(F)c5F)c5ccc2[nH]5)C=C4)C=C3)cc1
REMARK SMILES IDX 22 1 21 2 20 3 19 4 17 5 18 6 5 7 4 8 2 9 1 10 3 11 6 12
REMARK SMILES IDX 7 13 8 15 9 16 10 17 15 18 11 19 14 20 16 21 12 22 13 23
REMARK SMILES IDX 23 24 24 25 25 26 26 27 27 28 28 29 29 30 90 31 30 32 89 33
REMARK SMILES IDX 31 34 32 35 33 36 83 37 34 38 88 39 82 40 84 41 35 42 87 43
REMARK SMILES IDX 81 44 80 45 36 47 68 48 48 49 67 50 49 51 52 52 66 53 85 54
REMARK SMILES IDX 50 55 51 56 65 58 86 59 53 60 37 61 38 62 46 63 39 64 40 65
REMARK SMILES IDX 44 66 47 67 41 68 42 69 45 70 43 71 69 72 70 73 78 74 71 75
REMARK SMILES IDX 72 76 76 77 79 78 73 79 74 80 77 81 75 82 54 83 55 84 63 85
REMARK SMILES IDX 56 86 57 87 61 88 64 89 58 90 59 91 62 92 60 93
REMARK H PARENT 6 14 84 46 52 57
REMARK Flexibility Score: inf
ROOT
ATOM      1  O   UNL     1      -5.247  -0.614  -0.353  1.00  0.00    -0.374 OA
ENDROOT
BRANCH   1   2
ATOM      2  C   UNL     1      -5.878   0.556   0.148  1.00  0.00     0.202 C 
BRANCH   2   3
ATOM      3  C   UNL     1      -5.194   1.285   1.307  1.00  0.00     0.261 C 
BRANCH   3   4
ATOM      4  O   UNL     1      -3.784   1.492   1.136  1.00  0.00    -0.462 OA
BRANCH   4   5
ATOM      5  C   UNL     1      -3.013   0.570   1.788  1.00  0.00     0.328 C 
ATOM      6  O   UNL     1      -3.454  -0.411   2.372  1.00  0.00    -0.250 OA
BRANCH   5   7
ATOM      7  C   UNL     1      -1.533   0.983   1.829  1.00  0.00     0.192 C 
BRANCH   7   8
ATOM      8  C   UNL     1      -1.208   1.911   3.018  1.00  0.00     0.040 C 
BRANCH   8   9
ATOM      9  C   UNL     1      -2.148   1.928   4.237  1.00  0.00    -0.015 C 
ATOM     10  C   UNL     1      -2.162   0.618   5.024  1.00  0.00     0.007 C 
ATOM     11  C   UNL     1      -1.713   3.057   5.181  1.00  0.00     0.007 C 
ENDBRANCH   8   9
ENDBRANCH   7   8
BRANCH   7  12
ATOM     12  N   UNL     1      -1.136   1.605   0.542  1.00  0.00    -0.338 N 
ATOM     13  C   UNL     1       0.086   2.015   0.081  1.00  0.00     0.255 C 
ATOM     14  H   UNL     1      -1.879   1.747  -0.088  1.00  0.00     0.164 HD
ATOM     15  O   UNL     1       0.220   2.434  -1.063  1.00  0.00    -0.269 OA
BRANCH  13  16
ATOM     16  C   UNL     1       1.226   2.099   0.990  1.00  0.00     0.082 A 
ATOM     17  C   UNL     1       1.588   3.370   1.443  1.00  0.00     0.060 A 
ATOM     18  C   UNL     1       1.946   0.999   1.406  1.00  0.00     0.164 A 
ATOM     19  C   UNL     1       2.616   3.451   2.352  1.00  0.00     0.152 A 
ATOM     20  N   UNL     1       2.946   1.119   2.304  1.00  0.00    -0.136 NA
ATOM     21  Cl  UNL     1       1.673  -0.603   0.866  1.00  0.00    -0.059 Cl
ATOM     22  Cl  UNL     1       3.106   4.944   3.023  1.00  0.00    -0.060 Cl
ATOM     23  N   UNL     1       3.276   2.363   2.795  1.00  0.00    -0.137 NA
ENDBRANCH  13  16
ENDBRANCH   7  12
ENDBRANCH   5   7
ENDBRANCH   4   5
ENDBRANCH   3   4
ENDBRANCH   2   3
ENDBRANCH   1   2
BRANCH   1  24
ATOM     24  C   UNL     1      -4.109  -0.460  -1.203  1.00  0.00     0.202 C 
BRANCH  24  25
ATOM     25  C   UNL     1      -4.319   0.311  -2.509  1.00  0.00     0.261 C 
BRANCH  25  26
ATOM     26  O   UNL     1      -4.437   1.729  -2.265  1.00  0.00    -0.460 OA
BRANCH  26  27
ATOM     27  C   UNL     1      -5.517   2.311  -2.835  1.00  0.00     0.338 C 
ATOM     28  O   UNL     1      -6.353   1.790  -3.558  1.00  0.00    -0.246 OA
BRANCH  27  29
ATOM     29  C   UNL     1      -5.675   3.684  -2.337  1.00  0.00     0.060 A 
ATOM     30  C   UNL     1      -6.780   3.968  -1.523  1.00  0.00     0.016 A 
ATOM     31  C   UNL     1      -4.852   4.707  -2.810  1.00  0.00     0.016 A 
ATOM     32  C   UNL     1      -7.099   5.290  -1.224  1.00  0.00     0.010 A 
ATOM     33  C   UNL     1      -5.185   6.034  -2.525  1.00  0.00     0.010 A 
ATOM     34  C   UNL     1      -6.335   6.329  -1.771  1.00  0.00    -0.014 A 
BRANCH  34  35
ATOM     35  C   UNL     1      -6.858   7.713  -1.722  1.00  0.00     0.031 A 
ATOM     36  C   UNL     1      -7.727   8.195  -2.850  1.00  0.00     0.074 A 
ATOM     37  C   UNL     1      -6.598   8.512  -0.674  1.00  0.00     0.049 A 
ATOM     38  N   UNL     1      -8.293   9.361  -3.022  1.00  0.00    -0.248 NA
ATOM     39  C   UNL     1      -8.004   7.226  -3.924  1.00  0.00     0.031 C 
ATOM     40  C   UNL     1      -5.819   8.134   0.501  1.00  0.00     0.029 A 
ATOM     41  N   UNL     1      -6.968   9.811  -0.434  1.00  0.00    -0.354 N 
ATOM     42  C   UNL     1      -9.004   9.262  -4.211  1.00  0.00     0.074 A 
ATOM     43  C   UNL     1      -8.773   7.934  -4.737  1.00  0.00     0.031 C 
ATOM     44  C   UNL     1      -5.762   9.184   1.339  1.00  0.00     0.029 A 
ATOM     45  C   UNL     1      -6.479  10.312   0.745  1.00  0.00     0.049 A 
ATOM     46  H   UNL     1      -7.532  10.334  -1.050  1.00  0.00     0.167 HD
ATOM     47  C   UNL     1      -9.788  10.192  -4.804  1.00  0.00     0.037 A 
ATOM     48  C   UNL     1      -6.587  11.546   1.273  1.00  0.00     0.037 A 
ATOM     49  C   UNL     1      -9.996  11.520  -4.294  1.00  0.00     0.049 A 
ATOM     50  C   UNL     1      -7.367  12.601   0.534  1.00  0.00     0.074 A 
ATOM     51  C   UNL     1     -10.764  12.539  -4.827  1.00  0.00     0.029 A 
ATOM     52  N   UNL     1      -9.420  12.015  -3.133  1.00  0.00    -0.354 N 
ATOM     53  N   UNL     1      -8.043  12.499  -0.584  1.00  0.00    -0.248 NA
ATOM     54  C   UNL     1      -7.396  13.945   1.130  1.00  0.00     0.031 C 
ATOM     55  C   UNL     1     -10.618  13.666  -4.012  1.00  0.00     0.029 A 
ATOM     56  C   UNL     1      -9.794  13.335  -2.947  1.00  0.00     0.049 A 
ATOM     57  H   UNL     1      -8.833  11.503  -2.531  1.00  0.00     0.167 HD
ATOM     58  C   UNL     1      -8.593  13.752  -0.817  1.00  0.00     0.074 A 
ATOM     59  C   UNL     1      -8.180  14.600   0.283  1.00  0.00     0.031 C 
ATOM     60  C   UNL     1      -9.372  14.163  -1.847  1.00  0.00     0.037 A 
BRANCH  47  61
ATOM     61  C   UNL     1     -10.466   9.809  -6.084  1.00  0.00     0.064 A 
ATOM     62  C   UNL     1     -11.569   8.941  -6.094  1.00  0.00     0.173 A 
ATOM     63  C   UNL     1     -10.038  10.344  -7.308  1.00  0.00     0.173 A 
ATOM     64  F   UNL     1     -12.005   8.392  -4.951  1.00  0.00    -0.203 F 
ATOM     65  C   UNL     1     -12.208   8.611  -7.286  1.00  0.00     0.198 A 
ATOM     66  C   UNL     1     -10.694  10.029  -8.495  1.00  0.00     0.198 A 
ATOM     67  F   UNL     1      -8.989  11.179  -7.350  1.00  0.00    -0.203 F 
ATOM     68  F   UNL     1     -13.239   7.754  -7.277  1.00  0.00    -0.200 F 
ATOM     69  C   UNL     1     -11.775   9.161  -8.484  1.00  0.00     0.200 A 
ATOM     70  F   UNL     1     -10.280  10.567  -9.650  1.00  0.00    -0.200 F 
ATOM     71  F   UNL     1     -12.397   8.849  -9.629  1.00  0.00    -0.200 F 
ENDBRANCH  47  61
BRANCH  48  72
ATOM     72  C   UNL     1      -5.936  11.848   2.572  1.00  0.00     0.064 A 
ATOM     73  C   UNL     1      -6.699  12.049   3.730  1.00  0.00     0.173 A 
ATOM     74  C   UNL     1      -4.540  11.928   2.685  1.00  0.00     0.173 A 
ATOM     75  F   UNL     1      -8.037  12.006   3.664  1.00  0.00    -0.203 F 
ATOM     76  C   UNL     1      -6.090  12.320   4.953  1.00  0.00     0.198 A 
ATOM     77  C   UNL     1      -3.931  12.177   3.913  1.00  0.00     0.198 A 
ATOM     78  F   UNL     1      -3.767  11.746   1.605  1.00  0.00    -0.203 F 
ATOM     79  F   UNL     1      -6.842  12.532   6.041  1.00  0.00    -0.200 F 
ATOM     80  C   UNL     1      -4.707  12.376   5.046  1.00  0.00     0.200 A 
ATOM     81  F   UNL     1      -2.595  12.219   4.000  1.00  0.00    -0.200 F 
ATOM     82  F   UNL     1      -4.122  12.624   6.225  1.00  0.00    -0.200 F 
ENDBRANCH  48  72
BRANCH  60  83
ATOM     83  C   UNL     1      -9.845  15.586  -1.837  1.00  0.00     0.064 A 
ATOM     84  C   UNL     1      -8.983  16.645  -2.156  1.00  0.00     0.173 A 
ATOM     85  C   UNL     1     -11.192  15.886  -1.583  1.00  0.00     0.173 A 
ATOM     86  F   UNL     1      -7.684  16.408  -2.394  1.00  0.00    -0.203 F 
ATOM     87  C   UNL     1      -9.451  17.955  -2.213  1.00  0.00     0.198 A 
ATOM     88  C   UNL     1     -11.661  17.194  -1.665  1.00  0.00     0.198 A 
ATOM     89  F   UNL     1     -12.057  14.907  -1.280  1.00  0.00    -0.203 F 
ATOM     90  F   UNL     1      -8.604  18.955  -2.494  1.00  0.00    -0.200 F 
ATOM     91  C   UNL     1     -10.790  18.227  -1.977  1.00  0.00     0.200 A 
ATOM     92  F   UNL     1     -12.958  17.454  -1.449  1.00  0.00    -0.200 F 
ATOM     93  F   UNL     1     -11.242  19.487  -2.048  1.00  0.00    -0.200 F 
ENDBRANCH  60  83
ENDBRANCH  34  35
ENDBRANCH  27  29
ENDBRANCH  26  27
ENDBRANCH  25  26
ENDBRANCH  24  25
ENDBRANCH   1  24
TORSDOF 18
