REMARK SMILES COc1ccc2c(c1)c(Cc1nc(-c3ccc(C(=O)OCCOCCOC(=O)c4ccc(-c5c6nc(c(-c7c(F)c(F)c(F)c(F)c7F)c7ccc([nH]7)c(-c7c(F)c(F)c(F)c(F)c7F)c7nc(c(-c8c(F)c(F)c(F)c(F)c8F)c8ccc5[nH]8)C=C7)C=C6)cc4)cc3)cs1)c(C)n2C(=O)c1ccc(Cl)cc1
REMARK SMILES IDX 21 1 20 2 18 3 19 4 17 5 14 6 15 7 93 8 16 9 92 10 13 11
REMARK SMILES IDX 11 12 12 13 95 14 94 15 10 16 9 17 3 18 4 19 8 20 5 21 7 22
REMARK SMILES IDX 6 23 98 24 96 25 97 26 2 27 1 28 99 29 100 30 101 31 102 32
REMARK SMILES IDX 107 33 103 34 106 35 104 36 105 37 22 38 23 39 24 40 25 41
REMARK SMILES IDX 26 42 27 43 28 44 29 45 30 46 91 47 31 48 90 49 32 50 33 51
REMARK SMILES IDX 34 52 84 53 35 54 89 55 83 56 85 57 36 58 88 59 82 60 81 61
REMARK SMILES IDX 37 63 69 64 49 65 68 66 50 67 53 68 67 69 86 70 51 71 52 72
REMARK SMILES IDX 66 74 87 75 54 76 38 77 39 78 47 79 40 80 41 81 45 82 48 83
REMARK SMILES IDX 42 84 43 85 46 86 44 87 70 88 71 89 79 90 72 91 73 92 77 93
REMARK SMILES IDX 80 94 74 95 75 96 78 97 76 98 55 99 56 100 64 101 57 102
REMARK SMILES IDX 58 103 62 104 65 105 59 106 60 107 63 108 61 109
REMARK H PARENT 85 62 53 73
REMARK Flexibility Score: inf
ROOT
ATOM      1  C   UNL     1      -2.279   2.209   8.418  1.00  0.00     0.261 C 
ENDROOT
BRANCH   1   2
ATOM      2  O   UNL     1      -2.433   1.364   7.273  1.00  0.00    -0.460 OA
BRANCH   2   3
ATOM      3  C   UNL     1      -1.401   0.505   7.093  1.00  0.00     0.338 C 
ATOM      4  O   UNL     1      -0.321   0.522   7.662  1.00  0.00    -0.246 OA
BRANCH   3   5
ATOM      5  C   UNL     1      -1.835  -0.634   6.263  1.00  0.00     0.060 A 
ATOM      6  C   UNL     1      -2.551  -2.909   4.802  1.00  0.00     0.001 A 
ATOM      7  C   UNL     1      -1.850  -3.036   6.008  1.00  0.00     0.011 A 
ATOM      8  C   UNL     1      -2.905  -1.631   4.341  1.00  0.00     0.011 A 
ATOM      9  C   UNL     1      -1.486  -1.905   6.729  1.00  0.00     0.016 A 
ATOM     10  C   UNL     1      -2.565  -0.489   5.080  1.00  0.00     0.016 A 
BRANCH   6  11
ATOM     11  C   UNL     1      -2.794  -4.091   3.993  1.00  0.00     0.081 A 
ATOM     12  C   UNL     1      -2.526  -5.329   2.182  1.00  0.00     0.098 A 
ATOM     13  N   UNL     1      -2.491  -4.098   2.650  1.00  0.00    -0.241 NA
ATOM     14  S   UNL     1      -3.138  -6.504   3.281  1.00  0.00    -0.126 S 
ATOM     15  C   UNL     1      -3.240  -5.297   4.495  1.00  0.00     0.095 A 
BRANCH  12  16
ATOM     16  C   UNL     1      -2.112  -5.719   0.791  1.00  0.00     0.105 C 
BRANCH  16  17
ATOM     17  C   UNL     1      -0.618  -5.653   0.557  1.00  0.00    -0.012 A 
ATOM     18  C   UNL     1       0.807  -2.103   0.546  1.00  0.00     0.119 A 
ATOM     19  C   UNL     1       2.072  -2.449   0.108  1.00  0.00     0.048 A 
ATOM     20  C   UNL     1      -0.146  -3.101   0.737  1.00  0.00     0.057 A 
ATOM     21  C   UNL     1       2.400  -3.788  -0.139  1.00  0.00     0.031 A 
ATOM     22  C   UNL     1       0.163  -4.463   0.514  1.00  0.00     0.008 A 
ATOM     23  C   UNL     1       1.458  -4.810   0.117  1.00  0.00     0.057 A 
ATOM     24  N   UNL     1       1.531  -6.215   0.039  1.00  0.00    -0.280 N 
ATOM     25  C   UNL     1       0.236  -6.715   0.273  1.00  0.00     0.028 A 
ATOM     26  C   UNL     1      -0.164  -8.158   0.218  1.00  0.00     0.065 C 
BRANCH  18  27
ATOM     27  O   UNL     1       0.398  -0.833   0.843  1.00  0.00    -0.497 OA
ATOM     28  C   UNL     1       0.981   0.191   0.045  1.00  0.00     0.278 C 
ENDBRANCH  18  27
BRANCH  24  29
ATOM     29  C   UNL     1       2.703  -6.976  -0.259  1.00  0.00     0.262 C 
ATOM     30  O   UNL     1       2.599  -8.181  -0.483  1.00  0.00    -0.268 OA
BRANCH  29  31
ATOM     31  C   UNL     1       4.072  -6.437  -0.374  1.00  0.00     0.040 A 
ATOM     32  C   UNL     1       4.714  -5.846   0.720  1.00  0.00     0.015 A 
ATOM     33  C   UNL     1       4.707  -6.508  -1.620  1.00  0.00     0.015 A 
ATOM     34  C   UNL     1       5.963  -5.245   0.538  1.00  0.00     0.021 A 
ATOM     35  C   UNL     1       5.958  -5.914  -1.794  1.00  0.00     0.021 A 
ATOM     36  C   UNL     1       6.571  -5.268  -0.720  1.00  0.00     0.041 A 
ATOM     37  Cl  UNL     1       8.079  -4.475  -0.955  1.00  0.00    -0.084 Cl
ENDBRANCH  29  31
ENDBRANCH  24  29
ENDBRANCH  16  17
ENDBRANCH  12  16
ENDBRANCH   6  11
ENDBRANCH   3   5
ENDBRANCH   2   3
ENDBRANCH   1   2
BRANCH   1  38
ATOM     38  C   UNL     1      -3.320   1.916   9.507  1.00  0.00     0.202 C 
BRANCH  38  39
ATOM     39  O   UNL     1      -3.548   0.560   9.880  1.00  0.00    -0.374 OA
BRANCH  39  40
ATOM     40  C   UNL     1      -4.334  -0.255   9.000  1.00  0.00     0.202 C 
BRANCH  40  41
ATOM     41  C   UNL     1      -5.812   0.122   8.784  1.00  0.00     0.261 C 
BRANCH  41  42
ATOM     42  O   UNL     1      -5.914   1.312   7.989  1.00  0.00    -0.460 OA
BRANCH  42  43
ATOM     43  C   UNL     1      -6.858   2.203   8.389  1.00  0.00     0.338 C 
ATOM     44  O   UNL     1      -7.875   1.976   9.026  1.00  0.00    -0.246 OA
BRANCH  43  45
ATOM     45  C   UNL     1      -6.213   3.525   8.269  1.00  0.00     0.060 A 
ATOM     46  C   UNL     1      -5.488   3.847   7.120  1.00  0.00     0.016 A 
ATOM     47  C   UNL     1      -6.055   4.260   9.457  1.00  0.00     0.016 A 
ATOM     48  C   UNL     1      -4.533   4.851   7.196  1.00  0.00     0.010 A 
ATOM     49  C   UNL     1      -5.080   5.251   9.534  1.00  0.00     0.010 A 
ATOM     50  C   UNL     1      -4.294   5.521   8.413  1.00  0.00    -0.014 A 
BRANCH  50  51
ATOM     51  C   UNL     1      -3.344   6.635   8.370  1.00  0.00     0.031 A 
ATOM     52  C   UNL     1      -3.821   7.741   7.502  1.00  0.00     0.074 A 
ATOM     53  C   UNL     1      -2.194   6.781   9.061  1.00  0.00     0.049 A 
ATOM     54  N   UNL     1      -3.278   8.185   6.417  1.00  0.00    -0.248 NA
ATOM     55  C   UNL     1      -5.124   8.343   7.824  1.00  0.00     0.031 C 
ATOM     56  C   UNL     1      -1.709   5.979  10.183  1.00  0.00     0.029 A 
ATOM     57  N   UNL     1      -1.240   7.763   8.943  1.00  0.00    -0.354 N 
ATOM     58  C   UNL     1      -4.092   9.230   5.994  1.00  0.00     0.074 A 
ATOM     59  C   UNL     1      -5.274   9.202   6.816  1.00  0.00     0.031 C 
ATOM     60  C   UNL     1      -0.670   6.620  10.771  1.00  0.00     0.029 A 
ATOM     61  C   UNL     1      -0.329   7.801   9.991  1.00  0.00     0.049 A 
ATOM     62  H   UNL     1      -1.204   8.386   8.182  1.00  0.00     0.167 HD
ATOM     63  C   UNL     1      -3.627  10.187   5.152  1.00  0.00     0.037 A 
ATOM     64  C   UNL     1       0.605   8.757  10.226  1.00  0.00     0.037 A 
ATOM     65  C   UNL     1      -2.405   9.799   4.508  1.00  0.00     0.049 A 
ATOM     66  C   UNL     1       0.906   9.459   8.958  1.00  0.00     0.074 A 
ATOM     67  C   UNL     1      -2.030   9.075   3.399  1.00  0.00     0.029 A 
ATOM     68  N   UNL     1      -1.290   9.971   5.277  1.00  0.00    -0.354 N 
ATOM     69  N   UNL     1       1.549   8.924   7.960  1.00  0.00    -0.248 NA
ATOM     70  C   UNL     1       0.296  10.759   8.687  1.00  0.00     0.031 C 
ATOM     71  C   UNL     1      -0.661   8.719   3.589  1.00  0.00     0.029 A 
ATOM     72  C   UNL     1      -0.236   9.235   4.808  1.00  0.00     0.049 A 
ATOM     73  H   UNL     1      -1.250  10.552   6.071  1.00  0.00     0.167 HD
ATOM     74  C   UNL     1       1.075   9.598   6.857  1.00  0.00     0.074 A 
ATOM     75  C   UNL     1       0.478  10.822   7.367  1.00  0.00     0.031 C 
ATOM     76  C   UNL     1       0.876   8.945   5.681  1.00  0.00     0.037 A 
BRANCH  63  77
ATOM     77  C   UNL     1      -4.023  11.638   5.242  1.00  0.00     0.064 A 
ATOM     78  C   UNL     1      -3.686  12.517   4.196  1.00  0.00     0.173 A 
ATOM     79  C   UNL     1      -4.438  12.246   6.447  1.00  0.00     0.173 A 
ATOM     80  F   UNL     1      -3.236  12.043   3.025  1.00  0.00    -0.203 F 
ATOM     81  C   UNL     1      -3.731  13.905   4.360  1.00  0.00     0.198 A 
ATOM     82  C   UNL     1      -4.534  13.628   6.589  1.00  0.00     0.198 A 
ATOM     83  F   UNL     1      -4.650  11.533   7.561  1.00  0.00    -0.203 F 
ATOM     84  F   UNL     1      -3.303  14.706   3.375  1.00  0.00    -0.200 F 
ATOM     85  C   UNL     1      -4.158  14.459   5.554  1.00  0.00     0.200 A 
ATOM     86  F   UNL     1      -4.920  14.146   7.764  1.00  0.00    -0.200 F 
ATOM     87  F   UNL     1      -4.160  15.787   5.727  1.00  0.00    -0.200 F 
ENDBRANCH  63  77
BRANCH  64  88
ATOM     88  C   UNL     1       1.154   9.269  11.507  1.00  0.00     0.064 A 
ATOM     89  C   UNL     1       2.318  10.062  11.522  1.00  0.00     0.173 A 
ATOM     90  C   UNL     1       0.380   9.274  12.680  1.00  0.00     0.173 A 
ATOM     91  F   UNL     1       3.104  10.135  10.437  1.00  0.00    -0.203 F 
ATOM     92  C   UNL     1       2.645  10.868  12.615  1.00  0.00     0.198 A 
ATOM     93  C   UNL     1       0.716  10.070  13.777  1.00  0.00     0.198 A 
ATOM     94  F   UNL     1      -0.772   8.592  12.745  1.00  0.00    -0.203 F 
ATOM     95  F   UNL     1       3.708  11.682  12.551  1.00  0.00    -0.200 F 
ATOM     96  C   UNL     1       1.833  10.885  13.735  1.00  0.00     0.200 A 
ATOM     97  F   UNL     1      -0.092  10.100  14.846  1.00  0.00    -0.200 F 
ATOM     98  F   UNL     1       2.099  11.717  14.751  1.00  0.00    -0.200 F 
ENDBRANCH  64  88
BRANCH  76  99
ATOM     99  C   UNL     1       1.731   7.753   5.405  1.00  0.00     0.064 A 
ATOM    100  C   UNL     1       1.680   6.556   6.135  1.00  0.00     0.173 A 
ATOM    101  C   UNL     1       2.618   7.823   4.322  1.00  0.00     0.173 A 
ATOM    102  F   UNL     1       0.804   6.395   7.137  1.00  0.00    -0.203 F 
ATOM    103  C   UNL     1       2.520   5.490   5.815  1.00  0.00     0.198 A 
ATOM    104  C   UNL     1       3.426   6.745   3.982  1.00  0.00     0.198 A 
ATOM    105  F   UNL     1       2.680   8.936   3.574  1.00  0.00    -0.203 F 
ATOM    106  F   UNL     1       2.480   4.363   6.540  1.00  0.00    -0.200 F 
ATOM    107  C   UNL     1       3.386   5.583   4.736  1.00  0.00     0.200 A 
ATOM    108  F   UNL     1       4.234   6.828   2.916  1.00  0.00    -0.200 F 
ATOM    109  F   UNL     1       4.170   4.547   4.409  1.00  0.00    -0.200 F 
ENDBRANCH  76  99
ENDBRANCH  50  51
ENDBRANCH  43  45
ENDBRANCH  42  43
ENDBRANCH  41  42
ENDBRANCH  40  41
ENDBRANCH  39  40
ENDBRANCH  38  39
ENDBRANCH   1  38
TORSDOF 20
