REMARK SMILES C[C@H]1CC[C@@](NC(=O)N[C@H]2CCOC2)(C(=O)OCCOCCOC(=O)c2ccc(-c3c4nc(c(-c5c(F)c(F)c(F)c(F)c5F)c5ccc([nH]5)c(-c5c(F)c(F)c(F)c(F)c5F)c5nc(c(-c6c(F)c(F)c(F)c(F)c6F)c6ccc3[nH]6)C=C5)C=C4)cc2)CC1
REMARK SMILES IDX 20 1 19 2 18 3 17 4 15 5 16 6 5 7 1 8 2 9 90 10 3 11 89 12
REMARK SMILES IDX 4 13 6 14 7 15 8 17 9 18 10 20 11 21 14 22 12 23 13 24 21 25
REMARK SMILES IDX 22 26 23 27 24 28 25 29 26 30 27 31 88 32 28 33 87 34 29 35
REMARK SMILES IDX 30 36 31 37 81 38 32 39 86 40 80 41 82 42 33 43 85 44 79 45
REMARK SMILES IDX 78 46 34 48 66 49 46 50 65 51 47 52 50 53 64 54 83 55 48 56
REMARK SMILES IDX 49 57 63 59 84 60 51 61 35 62 36 63 44 64 37 65 38 66 42 67
REMARK SMILES IDX 45 68 39 69 40 70 43 71 41 72 67 73 68 74 76 75 69 76 70 77
REMARK SMILES IDX 74 78 77 79 71 80 72 81 75 82 73 83 52 84 53 85 61 86 54 87
REMARK SMILES IDX 55 88 59 89 62 90 56 91 57 92 60 93 58 94
REMARK H PARENT 6 16 9 19 82 47 50 58
REMARK Flexibility Score: inf
ROOT
ATOM      1  O   UNL     1      -2.330   0.270   0.161  1.00  0.00    -0.374 OA
ENDROOT
BRANCH   1   2
ATOM      2  C   UNL     1      -2.434   1.452  -0.594  1.00  0.00     0.202 C 
BRANCH   2   3
ATOM      3  C   UNL     1      -3.470   1.497  -1.736  1.00  0.00     0.261 C 
BRANCH   3   4
ATOM      4  O   UNL     1      -4.471   0.481  -1.932  1.00  0.00    -0.461 OA
BRANCH   4   5
ATOM      5  C   UNL     1      -4.164  -0.843  -1.930  1.00  0.00     0.331 C 
ATOM      6  O   UNL     1      -3.382  -1.405  -1.178  1.00  0.00    -0.249 OA
BRANCH   5   7
ATOM      7  C   UNL     1      -4.907  -1.607  -3.024  1.00  0.00     0.139 C 
ATOM      8  C   UNL     1      -6.369  -3.273   0.560  1.00  0.00     0.007 C 
ATOM      9  C   UNL     1      -6.419  -3.222  -0.976  1.00  0.00    -0.014 C 
ATOM     10  C   UNL     1      -5.077  -3.709  -1.556  1.00  0.00     0.006 C 
ATOM     11  C   UNL     1      -6.890  -1.827  -1.419  1.00  0.00     0.006 C 
ATOM     12  C   UNL     1      -4.682  -3.127  -2.923  1.00  0.00     0.041 C 
ATOM     13  C   UNL     1      -6.428  -1.397  -2.809  1.00  0.00     0.041 C 
BRANCH   7  14
ATOM     14  N   UNL     1      -4.537  -1.076  -4.364  1.00  0.00    -0.322 N 
ATOM     15  C   UNL     1      -3.450  -0.909  -5.116  1.00  0.00     0.316 C 
ATOM     16  H   UNL     1      -5.336  -0.749  -4.838  1.00  0.00     0.166 HD
ATOM     17  O   UNL     1      -3.650  -0.743  -6.325  1.00  0.00    -0.249 OA
ATOM     18  N   UNL     1      -2.178  -0.853  -4.724  1.00  0.00    -0.333 N 
ATOM     19  H   UNL     1      -1.566  -0.863  -5.495  1.00  0.00     0.165 HD
BRANCH  18  20
ATOM     20  C   UNL     1      -1.447  -0.782  -3.474  1.00  0.00     0.112 C 
ATOM     21  C   UNL     1      -0.804  -2.070  -3.025  1.00  0.00     0.056 C 
ATOM     22  C   UNL     1      -0.238   0.157  -3.470  1.00  0.00     0.185 C 
ATOM     23  C   UNL     1       0.126  -1.559  -1.943  1.00  0.00     0.162 C 
ATOM     24  O   UNL     1       0.624  -0.291  -2.408  1.00  0.00    -0.379 OA
ENDBRANCH  18  20
ENDBRANCH   7  14
ENDBRANCH   5   7
ENDBRANCH   4   5
ENDBRANCH   3   4
ENDBRANCH   2   3
ENDBRANCH   1   2
BRANCH   1  25
ATOM     25  C   UNL     1      -3.042   0.192   1.394  1.00  0.00     0.202 C 
BRANCH  25  26
ATOM     26  C   UNL     1      -4.560   0.421   1.343  1.00  0.00     0.261 C 
BRANCH  26  27
ATOM     27  O   UNL     1      -4.935   1.738   0.909  1.00  0.00    -0.460 OA
BRANCH  27  28
ATOM     28  C   UNL     1      -4.546   2.755   1.709  1.00  0.00     0.338 C 
ATOM     29  O   UNL     1      -4.046   2.682   2.817  1.00  0.00    -0.246 OA
BRANCH  28  30
ATOM     30  C   UNL     1      -4.584   3.977   0.889  1.00  0.00     0.060 A 
ATOM     31  C   UNL     1      -3.392   4.696   0.725  1.00  0.00     0.016 A 
ATOM     32  C   UNL     1      -5.755   4.369   0.235  1.00  0.00     0.016 A 
ATOM     33  C   UNL     1      -3.371   5.825  -0.087  1.00  0.00     0.010 A 
ATOM     34  C   UNL     1      -5.741   5.520  -0.551  1.00  0.00     0.010 A 
ATOM     35  C   UNL     1      -4.556   6.264  -0.689  1.00  0.00    -0.014 A 
BRANCH  35  36
ATOM     36  C   UNL     1      -4.607   7.627  -1.256  1.00  0.00     0.031 A 
ATOM     37  C   UNL     1      -5.041   8.740  -0.347  1.00  0.00     0.074 A 
ATOM     38  C   UNL     1      -4.256   7.871  -2.530  1.00  0.00     0.049 A 
ATOM     39  N   UNL     1      -5.204  10.011  -0.604  1.00  0.00    -0.248 NA
ATOM     40  C   UNL     1      -5.332   8.364   1.048  1.00  0.00     0.031 C 
ATOM     41  C   UNL     1      -3.778   6.872  -3.482  1.00  0.00     0.029 A 
ATOM     42  N   UNL     1      -4.257   9.044  -3.240  1.00  0.00    -0.354 N 
ATOM     43  C   UNL     1      -5.615  10.583   0.592  1.00  0.00     0.074 A 
ATOM     44  C   UNL     1      -5.706   9.522   1.569  1.00  0.00     0.031 C 
ATOM     45  C   UNL     1      -3.548   7.474  -4.663  1.00  0.00     0.029 A 
ATOM     46  C   UNL     1      -3.891   8.891  -4.553  1.00  0.00     0.049 A 
ATOM     47  H   UNL     1      -4.497   9.913  -2.845  1.00  0.00     0.167 HD
ATOM     48  C   UNL     1      -5.888  11.882   0.852  1.00  0.00     0.037 A 
ATOM     49  C   UNL     1      -3.866   9.794  -5.553  1.00  0.00     0.037 A 
ATOM     50  C   UNL     1      -5.806  12.928  -0.130  1.00  0.00     0.049 A 
ATOM     51  C   UNL     1      -4.254  11.222  -5.257  1.00  0.00     0.074 A 
ATOM     52  C   UNL     1      -6.045  14.280   0.027  1.00  0.00     0.029 A 
ATOM     53  N   UNL     1      -5.469  12.730  -1.462  1.00  0.00    -0.354 N 
ATOM     54  N   UNL     1      -4.613  11.766  -4.118  1.00  0.00    -0.248 NA
ATOM     55  C   UNL     1      -4.234  12.162  -6.386  1.00  0.00     0.031 C 
ATOM     56  C   UNL     1      -5.909  14.893  -1.222  1.00  0.00     0.029 A 
ATOM     57  C   UNL     1      -5.527  13.932  -2.146  1.00  0.00     0.049 A 
ATOM     58  H   UNL     1      -5.225  11.863  -1.861  1.00  0.00     0.167 HD
ATOM     59  C   UNL     1      -4.839  13.110  -4.387  1.00  0.00     0.074 A 
ATOM     60  C   UNL     1      -4.558  13.303  -5.795  1.00  0.00     0.031 C 
ATOM     61  C   UNL     1      -5.243  14.097  -3.549  1.00  0.00     0.037 A 
BRANCH  48  62
ATOM     62  C   UNL     1      -6.335  12.229   2.240  1.00  0.00     0.064 A 
ATOM     63  C   UNL     1      -5.453  12.196   3.331  1.00  0.00     0.173 A 
ATOM     64  C   UNL     1      -7.661  12.616   2.479  1.00  0.00     0.173 A 
ATOM     65  F   UNL     1      -4.180  11.809   3.159  1.00  0.00    -0.203 F 
ATOM     66  C   UNL     1      -5.890  12.515   4.614  1.00  0.00     0.198 A 
ATOM     67  C   UNL     1      -8.087  12.963   3.757  1.00  0.00     0.198 A 
ATOM     68  F   UNL     1      -8.545  12.659   1.470  1.00  0.00    -0.203 F 
ATOM     69  F   UNL     1      -5.043  12.429   5.649  1.00  0.00    -0.200 F 
ATOM     70  C   UNL     1      -7.204  12.906   4.824  1.00  0.00     0.200 A 
ATOM     71  F   UNL     1      -9.355  13.348   3.958  1.00  0.00    -0.200 F 
ATOM     72  F   UNL     1      -7.621  13.220   6.059  1.00  0.00    -0.200 F 
ENDBRANCH  48  62
BRANCH  49  73
ATOM     73  C   UNL     1      -3.486   9.377  -6.928  1.00  0.00     0.064 A 
ATOM     74  C   UNL     1      -2.311   9.844  -7.532  1.00  0.00     0.173 A 
ATOM     75  C   UNL     1      -4.308   8.523  -7.680  1.00  0.00     0.173 A 
ATOM     76  F   UNL     1      -1.505  10.685  -6.867  1.00  0.00    -0.203 F 
ATOM     77  C   UNL     1      -1.981   9.488  -8.839  1.00  0.00     0.198 A 
ATOM     78  C   UNL     1      -3.963   8.144  -8.976  1.00  0.00     0.198 A 
ATOM     79  F   UNL     1      -5.448   8.052  -7.153  1.00  0.00    -0.203 F 
ATOM     80  F   UNL     1      -0.876   9.989  -9.409  1.00  0.00    -0.200 F 
ATOM     81  C   UNL     1      -2.804   8.634  -9.557  1.00  0.00     0.200 A 
ATOM     82  F   UNL     1      -4.757   7.311  -9.662  1.00  0.00    -0.200 F 
ATOM     83  F   UNL     1      -2.486   8.292 -10.813  1.00  0.00    -0.200 F 
ENDBRANCH  49  73
BRANCH  61  84
ATOM     84  C   UNL     1      -5.385  15.476  -4.126  1.00  0.00     0.064 A 
ATOM     85  C   UNL     1      -6.432  15.802  -5.000  1.00  0.00     0.173 A 
ATOM     86  C   UNL     1      -4.494  16.495  -3.757  1.00  0.00     0.173 A 
ATOM     87  F   UNL     1      -7.303  14.860  -5.392  1.00  0.00    -0.203 F 
ATOM     88  C   UNL     1      -6.565  17.093  -5.505  1.00  0.00     0.198 A 
ATOM     89  C   UNL     1      -4.649  17.791  -4.238  1.00  0.00     0.198 A 
ATOM     90  F   UNL     1      -3.482  16.237  -2.915  1.00  0.00    -0.203 F 
ATOM     91  F   UNL     1      -7.545  17.372  -6.375  1.00  0.00    -0.200 F 
ATOM     92  C   UNL     1      -5.680  18.088  -5.117  1.00  0.00     0.200 A 
ATOM     93  F   UNL     1      -3.803  18.755  -3.848  1.00  0.00    -0.200 F 
ATOM     94  F   UNL     1      -5.817  19.332  -5.595  1.00  0.00    -0.200 F 
ENDBRANCH  61  84
ENDBRANCH  35  36
ENDBRANCH  28  30
ENDBRANCH  27  28
ENDBRANCH  26  27
ENDBRANCH  25  26
ENDBRANCH   1  25
TORSDOF 16
