REMARK SMILES Cc1ccc(-c2cc(Cl)cc3c2O[C@@H](C(F)(F)F)C(C(=O)OCCOCCOC(=O)c2ccc(-c4c5nc(c(-c6c(F)c(F)c(F)c(F)c6F)c6ccc([nH]6)c(-c6c(F)c(F)c(F)c(F)c6F)c6nc(c(-c7c(F)c(F)c(F)c(F)c7F)c7ccc4[nH]7)C=C6)C=C5)cc2)=C3)cc1
REMARK SMILES IDX 26 1 25 2 24 3 23 4 22 5 20 6 21 7 19 8 6 9 7 10 12 11 8 12
REMARK SMILES IDX 11 13 13 14 9 15 10 16 94 17 14 18 5 19 1 20 2 21 3 22 96 23
REMARK SMILES IDX 4 24 95 25 15 26 16 27 17 28 18 29 27 30 28 31 29 32 30 33
REMARK SMILES IDX 31 34 32 35 93 36 33 37 92 38 34 39 35 40 36 41 86 42 37 43
REMARK SMILES IDX 91 44 85 45 87 46 38 47 90 48 84 49 83 50 39 52 71 53 51 54
REMARK SMILES IDX 70 55 52 56 55 57 69 58 88 59 53 60 54 61 68 63 89 64 56 65
REMARK SMILES IDX 40 66 41 67 49 68 42 69 43 70 47 71 50 72 44 73 45 74 48 75
REMARK SMILES IDX 46 76 72 77 73 78 81 79 74 80 75 81 79 82 82 83 76 84 77 85
REMARK SMILES IDX 80 86 78 87 57 88 58 89 66 90 59 91 60 92 64 93 67 94 61 95
REMARK SMILES IDX 62 96 65 97 63 98
REMARK H PARENT 87 51 55 62
REMARK Flexibility Score: inf
ROOT
ATOM      1  C   UNL     1      -3.010  -4.832   0.658  1.00  0.00     0.202 C 
ENDROOT
BRANCH   1   2
ATOM      2  O   UNL     1      -2.843  -3.502   1.152  1.00  0.00    -0.374 OA
BRANCH   2   3
ATOM      3  C   UNL     1      -3.330  -3.302   2.470  1.00  0.00     0.202 C 
BRANCH   3   4
ATOM      4  C   UNL     1      -3.380  -1.802   2.778  1.00  0.00     0.261 C 
BRANCH   4   5
ATOM      5  O   UNL     1      -4.576  -1.403   3.471  1.00  0.00    -0.460 OA
BRANCH   5   6
ATOM      6  C   UNL     1      -5.106  -0.205   3.042  1.00  0.00     0.338 C 
ATOM      7  O   UNL     1      -4.494   0.803   2.781  1.00  0.00    -0.246 OA
BRANCH   6   8
ATOM      8  C   UNL     1      -6.551  -0.446   2.615  1.00  0.00     0.087 C 
ATOM      9  C   UNL     1      -4.413  -0.618  -0.726  1.00  0.00     0.026 A 
ATOM     10  C   UNL     1      -4.763   0.210  -1.819  1.00  0.00     0.033 A 
ATOM     11  C   UNL     1      -5.427  -0.829   0.244  1.00  0.00     0.135 A 
ATOM     12  C   UNL     1      -5.925   0.976  -1.818  1.00  0.00     0.042 A 
ATOM     13  C   UNL     1      -6.430   0.172   0.373  1.00  0.00     0.019 A 
ATOM     14  O   UNL     1      -5.520  -1.969   1.094  1.00  0.00    -0.475 OA
ATOM     15  Cl  UNL     1      -6.265   2.008  -3.149  1.00  0.00    -0.084 Cl
ATOM     16  C   UNL     1      -6.721   1.025  -0.685  1.00  0.00     0.032 A 
ATOM     17  C   UNL     1      -7.088   0.386   1.699  1.00  0.00     0.027 C 
ATOM     18  C   UNL     1      -6.642  -1.864   2.092  1.00  0.00     0.316 C 
BRANCH   9  19
ATOM     19  C   UNL     1      -2.919  -0.630  -0.523  1.00  0.00    -0.015 A 
ATOM     20  C   UNL     1       1.431  -0.062  -0.606  1.00  0.00     0.044 C 
ATOM     21  C   UNL     1      -0.065  -0.230  -0.633  1.00  0.00    -0.051 A 
ATOM     22  C   UNL     1      -0.659  -1.419  -1.076  1.00  0.00     0.004 A 
ATOM     23  C   UNL     1      -0.902   0.763  -0.129  1.00  0.00     0.004 A 
ATOM     24  C   UNL     1      -2.062  -1.607  -1.039  1.00  0.00     0.009 A 
ATOM     25  C   UNL     1      -2.292   0.557  -0.055  1.00  0.00     0.009 A 
ENDBRANCH   9  19
BRANCH  18  26
ATOM     26  C   UNL     1      -6.862  -2.827   3.314  1.00  0.00     0.430 C 
ATOM     27  F   UNL     1      -6.997  -2.142   4.485  1.00  0.00    -0.167 F 
ATOM     28  F   UNL     1      -8.035  -3.500   3.160  1.00  0.00    -0.167 F 
ATOM     29  F   UNL     1      -5.926  -3.762   3.533  1.00  0.00    -0.167 F 
ENDBRANCH  18  26
ENDBRANCH   6   8
ENDBRANCH   5   6
ENDBRANCH   4   5
ENDBRANCH   3   4
ENDBRANCH   2   3
ENDBRANCH   1   2
BRANCH   1  30
ATOM     30  C   UNL     1      -2.020  -5.819   1.284  1.00  0.00     0.261 C 
BRANCH  30  31
ATOM     31  O   UNL     1      -0.711  -5.221   1.284  1.00  0.00    -0.460 OA
BRANCH  31  32
ATOM     32  C   UNL     1      -0.060  -5.292   2.477  1.00  0.00     0.338 C 
ATOM     33  O   UNL     1       0.009  -6.287   3.178  1.00  0.00    -0.246 OA
BRANCH  32  34
ATOM     34  C   UNL     1       0.285  -3.916   2.944  1.00  0.00     0.060 A 
ATOM     35  C   UNL     1       0.539  -3.694   4.305  1.00  0.00     0.016 A 
ATOM     36  C   UNL     1       0.062  -2.826   2.113  1.00  0.00     0.016 A 
ATOM     37  C   UNL     1       0.369  -2.414   4.864  1.00  0.00     0.010 A 
ATOM     38  C   UNL     1      -0.129  -1.572   2.673  1.00  0.00     0.010 A 
ATOM     39  C   UNL     1      -0.059  -1.360   4.058  1.00  0.00    -0.014 A 
BRANCH  39  40
ATOM     40  C   UNL     1      -0.726  -0.133   4.549  1.00  0.00     0.031 A 
ATOM     41  C   UNL     1      -0.356   1.215   4.031  1.00  0.00     0.074 A 
ATOM     42  C   UNL     1      -1.918  -0.252   5.199  1.00  0.00     0.049 A 
ATOM     43  N   UNL     1      -0.886   2.308   4.463  1.00  0.00    -0.248 NA
ATOM     44  C   UNL     1       0.649   1.481   3.006  1.00  0.00     0.031 C 
ATOM     45  C   UNL     1      -2.993   0.743   5.276  1.00  0.00     0.029 A 
ATOM     46  N   UNL     1      -2.471  -1.354   5.866  1.00  0.00    -0.354 N 
ATOM     47  C   UNL     1      -0.624   3.311   3.566  1.00  0.00     0.074 A 
ATOM     48  C   UNL     1       0.454   2.787   2.768  1.00  0.00     0.031 C 
ATOM     49  C   UNL     1      -3.963   0.323   6.100  1.00  0.00     0.029 A 
ATOM     50  C   UNL     1      -3.502  -0.900   6.711  1.00  0.00     0.049 A 
ATOM     51  H   UNL     1      -2.186  -2.291   5.761  1.00  0.00     0.167 HD
ATOM     52  C   UNL     1      -1.437   4.410   3.570  1.00  0.00     0.037 A 
ATOM     53  C   UNL     1      -3.365  -1.081   8.053  1.00  0.00     0.037 A 
ATOM     54  C   UNL     1      -2.328   4.399   4.748  1.00  0.00     0.049 A 
ATOM     55  C   UNL     1      -3.026   0.222   8.733  1.00  0.00     0.074 A 
ATOM     56  C   UNL     1      -3.698   4.356   4.944  1.00  0.00     0.029 A 
ATOM     57  N   UNL     1      -1.759   4.183   6.009  1.00  0.00    -0.354 N 
ATOM     58  N   UNL     1      -2.642   1.273   8.054  1.00  0.00    -0.248 NA
ATOM     59  C   UNL     1      -3.175   0.527  10.150  1.00  0.00     0.031 C 
ATOM     60  C   UNL     1      -3.933   3.999   6.311  1.00  0.00     0.029 A 
ATOM     61  C   UNL     1      -2.711   3.868   6.958  1.00  0.00     0.049 A 
ATOM     62  H   UNL     1      -0.795   4.249   6.197  1.00  0.00     0.167 HD
ATOM     63  C   UNL     1      -2.590   2.369   8.851  1.00  0.00     0.074 A 
ATOM     64  C   UNL     1      -2.882   1.844  10.173  1.00  0.00     0.031 C 
ATOM     65  C   UNL     1      -2.331   3.615   8.351  1.00  0.00     0.037 A 
BRANCH  52  66
ATOM     66  C   UNL     1      -1.512   5.468   2.474  1.00  0.00     0.064 A 
ATOM     67  C   UNL     1      -2.272   6.647   2.657  1.00  0.00     0.173 A 
ATOM     68  C   UNL     1      -0.915   5.361   1.198  1.00  0.00     0.173 A 
ATOM     69  F   UNL     1      -2.939   6.874   3.797  1.00  0.00    -0.203 F 
ATOM     70  C   UNL     1      -2.383   7.641   1.671  1.00  0.00     0.198 A 
ATOM     71  C   UNL     1      -0.981   6.378   0.236  1.00  0.00     0.198 A 
ATOM     72  F   UNL     1      -0.288   4.250   0.799  1.00  0.00    -0.203 F 
ATOM     73  F   UNL     1      -3.145   8.722   1.894  1.00  0.00    -0.200 F 
ATOM     74  C   UNL     1      -1.716   7.518   0.470  1.00  0.00     0.200 A 
ATOM     75  F   UNL     1      -0.333   6.230  -0.930  1.00  0.00    -0.200 F 
ATOM     76  F   UNL     1      -1.796   8.478  -0.461  1.00  0.00    -0.200 F 
ENDBRANCH  52  66
BRANCH  53  77
ATOM     77  C   UNL     1      -3.071  -2.519   8.336  1.00  0.00     0.064 A 
ATOM     78  C   UNL     1      -4.174  -3.370   8.083  1.00  0.00     0.173 A 
ATOM     79  C   UNL     1      -1.794  -3.057   8.099  1.00  0.00     0.173 A 
ATOM     80  F   UNL     1      -5.420  -2.920   8.304  1.00  0.00    -0.203 F 
ATOM     81  C   UNL     1      -4.024  -4.580   7.402  1.00  0.00     0.198 A 
ATOM     82  C   UNL     1      -1.649  -4.287   7.437  1.00  0.00     0.198 A 
ATOM     83  F   UNL     1      -0.698  -2.311   8.301  1.00  0.00    -0.203 F 
ATOM     84  F   UNL     1      -5.107  -5.259   6.997  1.00  0.00    -0.200 F 
ATOM     85  C   UNL     1      -2.763  -5.012   7.035  1.00  0.00     0.200 A 
ATOM     86  F   UNL     1      -0.429  -4.715   7.081  1.00  0.00    -0.200 F 
ATOM     87  F   UNL     1      -2.627  -6.087   6.245  1.00  0.00    -0.200 F 
ENDBRANCH  53  77
BRANCH  65  88
ATOM     88  C   UNL     1      -1.735   4.736   9.165  1.00  0.00     0.064 A 
ATOM     89  C   UNL     1      -0.983   4.520  10.333  1.00  0.00     0.173 A 
ATOM     90  C   UNL     1      -1.727   6.062   8.670  1.00  0.00     0.173 A 
ATOM     91  F   UNL     1      -0.808   3.293  10.841  1.00  0.00    -0.203 F 
ATOM     92  C   UNL     1      -0.323   5.559  10.989  1.00  0.00     0.198 A 
ATOM     93  C   UNL     1      -1.009   7.082   9.289  1.00  0.00     0.198 A 
ATOM     94  F   UNL     1      -2.378   6.402   7.548  1.00  0.00    -0.203 F 
ATOM     95  F   UNL     1       0.345   5.306  12.122  1.00  0.00    -0.200 F 
ATOM     96  C   UNL     1      -0.321   6.835  10.459  1.00  0.00     0.200 A 
ATOM     97  F   UNL     1      -0.964   8.298   8.728  1.00  0.00    -0.200 F 
ATOM     98  F   UNL     1       0.362   7.816  11.060  1.00  0.00    -0.200 F 
ENDBRANCH  65  88
ENDBRANCH  39  40
ENDBRANCH  32  34
ENDBRANCH  31  32
ENDBRANCH  30  31
ENDBRANCH   1  30
TORSDOF 16
