REMARK SMILES O=C(OCCOCCOC(=O)[C@@H]1CN(C(=O)C[NH+]2CCOCC2)C[C@H]1c1ccc2c(c1)OCO2)c1ccc(-c2c3nc(c(-c4c(F)c(F)c(F)c(F)c4F)c4ccc([nH]4)c(-c4c(F)c(F)c(F)c(F)c4F)c4nc(c(-c5c(F)c(F)c(F)c(F)c5F)c5ccc2[nH]5)C=C4)C=C3)cc1
REMARK SMILES IDX 7 1 6 2 5 3 4 4 3 5 2 6 1 7 35 8 36 9 97 10 37 11 96 12
REMARK SMILES IDX 38 13 39 14 40 15 90 16 41 17 95 18 89 19 91 20 42 21 94 22
REMARK SMILES IDX 88 23 87 24 43 26 75 27 55 28 74 29 56 30 59 31 73 32 92 33
REMARK SMILES IDX 57 34 58 35 72 37 93 38 60 39 44 40 45 41 53 42 46 43 47 44
REMARK SMILES IDX 51 45 54 46 48 47 49 48 52 49 50 50 76 51 77 52 85 53 78 54
REMARK SMILES IDX 79 55 83 56 86 57 80 58 81 59 84 60 82 61 61 62 62 63 70 64
REMARK SMILES IDX 63 65 64 66 68 67 71 68 65 69 66 70 69 71 67 72 8 73 9 74
REMARK SMILES IDX 10 75 11 76 12 77 13 78 25 79 14 80 24 81 26 82 27 83 31 84
REMARK SMILES IDX 28 85 30 86 29 87 32 88 34 89 33 90 15 91 16 92 17 93 18 94
REMARK SMILES IDX 19 95 23 96 20 98 22 99 21 100
REMARK H PARENT 91 25 59 36 18 97
REMARK Flexibility Score: inf
ROOT
ATOM      1  C   UNL     1       2.715   1.601   1.027  1.00  0.00     0.202 C 
ENDROOT
BRANCH   1   2
ATOM      2  O   UNL     1       4.055   1.104   1.155  1.00  0.00    -0.374 OA
BRANCH   2   3
ATOM      3  C   UNL     1       4.718   0.717  -0.048  1.00  0.00     0.202 C 
BRANCH   3   4
ATOM      4  C   UNL     1       4.313  -0.636  -0.654  1.00  0.00     0.261 C 
BRANCH   4   5
ATOM      5  O   UNL     1       2.874  -0.760  -0.822  1.00  0.00    -0.460 OA
BRANCH   5   6
ATOM      6  C   UNL     1       2.042  -1.595  -0.128  1.00  0.00     0.338 C 
ATOM      7  O   UNL     1       0.872  -1.739  -0.433  1.00  0.00    -0.246 OA
BRANCH   6   8
ATOM      8  C   UNL     1       2.622  -2.355   0.999  1.00  0.00     0.060 A 
ATOM      9  C   UNL     1       3.388  -1.680   1.925  1.00  0.00     0.016 A 
ATOM     10  C   UNL     1       2.507  -3.739   1.094  1.00  0.00     0.016 A 
ATOM     11  C   UNL     1       4.345  -2.350   2.637  1.00  0.00     0.010 A 
ATOM     12  C   UNL     1       3.297  -4.423   2.030  1.00  0.00     0.010 A 
ATOM     13  C   UNL     1       4.290  -3.734   2.747  1.00  0.00    -0.014 A 
BRANCH  13  14
ATOM     14  C   UNL     1       5.358  -4.380   3.548  1.00  0.00     0.031 A 
ATOM     15  C   UNL     1       6.231  -5.417   2.907  1.00  0.00     0.074 A 
ATOM     16  C   UNL     1       5.659  -3.883   4.768  1.00  0.00     0.049 A 
ATOM     17  N   UNL     1       7.138  -6.179   3.457  1.00  0.00    -0.248 NA
ATOM     18  C   UNL     1       6.062  -5.641   1.461  1.00  0.00     0.031 C 
ATOM     19  C   UNL     1       4.943  -2.787   5.436  1.00  0.00     0.029 A 
ATOM     20  N   UNL     1       6.693  -4.152   5.625  1.00  0.00    -0.354 N 
ATOM     21  C   UNL     1       7.575  -7.029   2.451  1.00  0.00     0.074 A 
ATOM     22  C   UNL     1       6.860  -6.676   1.247  1.00  0.00     0.031 C 
ATOM     23  C   UNL     1       5.642  -2.380   6.502  1.00  0.00     0.029 A 
ATOM     24  C   UNL     1       6.740  -3.308   6.711  1.00  0.00     0.049 A 
ATOM     25  H   UNL     1       7.340  -4.880   5.478  1.00  0.00     0.167 HD
ATOM     26  C   UNL     1       8.480  -8.029   2.552  1.00  0.00     0.037 A 
ATOM     27  C   UNL     1       7.538  -3.326   7.793  1.00  0.00     0.037 A 
ATOM     28  C   UNL     1       9.207  -8.304   3.762  1.00  0.00     0.049 A 
ATOM     29  C   UNL     1       8.523  -4.454   7.889  1.00  0.00     0.074 A 
ATOM     30  C   UNL     1      10.061  -9.350   4.052  1.00  0.00     0.029 A 
ATOM     31  N   UNL     1       9.180  -7.482   4.884  1.00  0.00    -0.354 N 
ATOM     32  N   UNL     1       8.792  -5.387   7.006  1.00  0.00    -0.248 NA
ATOM     33  C   UNL     1       9.269  -4.573   9.144  1.00  0.00     0.031 C 
ATOM     34  C   UNL     1      10.537  -9.170   5.358  1.00  0.00     0.029 A 
ATOM     35  C   UNL     1      10.010  -7.991   5.866  1.00  0.00     0.049 A 
ATOM     36  H   UNL     1       8.648  -6.658   4.967  1.00  0.00     0.167 HD
ATOM     37  C   UNL     1       9.716  -6.223   7.607  1.00  0.00     0.074 A 
ATOM     38  C   UNL     1      10.005  -5.650   8.909  1.00  0.00     0.031 C 
ATOM     39  C   UNL     1      10.256  -7.379   7.147  1.00  0.00     0.037 A 
BRANCH  26  40
ATOM     40  C   UNL     1       8.651  -8.924   1.361  1.00  0.00     0.064 A 
ATOM     41  C   UNL     1       9.312  -8.507   0.197  1.00  0.00     0.173 A 
ATOM     42  C   UNL     1       8.101 -10.216   1.373  1.00  0.00     0.173 A 
ATOM     43  F   UNL     1       9.824  -7.269   0.119  1.00  0.00    -0.203 F 
ATOM     44  C   UNL     1       9.395  -9.339  -0.918  1.00  0.00     0.198 A 
ATOM     45  C   UNL     1       8.206 -11.055   0.265  1.00  0.00     0.198 A 
ATOM     46  F   UNL     1       7.446 -10.662   2.455  1.00  0.00    -0.203 F 
ATOM     47  F   UNL     1       9.981  -8.897  -2.040  1.00  0.00    -0.200 F 
ATOM     48  C   UNL     1       8.846 -10.613  -0.882  1.00  0.00     0.200 A 
ATOM     49  F   UNL     1       7.673 -12.284   0.303  1.00  0.00    -0.200 F 
ATOM     50  F   UNL     1       8.917 -11.407  -1.959  1.00  0.00    -0.200 F 
ENDBRANCH  26  40
BRANCH  27  51
ATOM     51  C   UNL     1       7.350  -2.337   8.893  1.00  0.00     0.064 A 
ATOM     52  C   UNL     1       8.369  -1.449   9.264  1.00  0.00     0.173 A 
ATOM     53  C   UNL     1       6.136  -2.253   9.599  1.00  0.00     0.173 A 
ATOM     54  F   UNL     1       9.559  -1.499   8.647  1.00  0.00    -0.203 F 
ATOM     55  C   UNL     1       8.183  -0.524  10.293  1.00  0.00     0.198 A 
ATOM     56  C   UNL     1       5.936  -1.300  10.594  1.00  0.00     0.198 A 
ATOM     57  F   UNL     1       5.125  -3.083   9.300  1.00  0.00    -0.203 F 
ATOM     58  F   UNL     1       9.190   0.281  10.657  1.00  0.00    -0.200 F 
ATOM     59  C   UNL     1       6.963  -0.441  10.947  1.00  0.00     0.200 A 
ATOM     60  F   UNL     1       4.746  -1.212  11.204  1.00  0.00    -0.200 F 
ATOM     61  F   UNL     1       6.780   0.458  11.924  1.00  0.00    -0.200 F 
ENDBRANCH  27  51
BRANCH  39  62
ATOM     62  C   UNL     1      11.206  -8.071   8.070  1.00  0.00     0.064 A 
ATOM     63  C   UNL     1      10.746  -8.769   9.195  1.00  0.00     0.173 A 
ATOM     64  C   UNL     1      12.584  -8.039   7.821  1.00  0.00     0.173 A 
ATOM     65  F   UNL     1       9.435  -8.804   9.479  1.00  0.00    -0.203 F 
ATOM     66  C   UNL     1      11.641  -9.389  10.059  1.00  0.00     0.198 A 
ATOM     67  C   UNL     1      13.473  -8.683   8.673  1.00  0.00     0.198 A 
ATOM     68  F   UNL     1      13.064  -7.383   6.753  1.00  0.00    -0.203 F 
ATOM     69  F   UNL     1      11.188 -10.007  11.159  1.00  0.00    -0.200 F 
ATOM     70  C   UNL     1      13.002  -9.350   9.795  1.00  0.00     0.200 A 
ATOM     71  F   UNL     1      14.788  -8.651   8.414  1.00  0.00    -0.200 F 
ATOM     72  F   UNL     1      13.863  -9.946  10.630  1.00  0.00    -0.200 F 
ENDBRANCH  39  62
ENDBRANCH  13  14
ENDBRANCH   6   8
ENDBRANCH   5   6
ENDBRANCH   4   5
ENDBRANCH   3   4
ENDBRANCH   2   3
ENDBRANCH   1   2
BRANCH   1  73
ATOM     73  C   UNL     1       2.654   3.085   1.361  1.00  0.00     0.261 C 
BRANCH  73  74
ATOM     74  O   UNL     1       3.254   3.800   0.274  1.00  0.00    -0.463 OA
BRANCH  74  75
ATOM     75  C   UNL     1       4.603   3.876   0.326  1.00  0.00     0.311 C 
ATOM     76  O   UNL     1       5.286   3.652   1.321  1.00  0.00    -0.252 OA
BRANCH  75  77
ATOM     77  C   UNL     1       5.220   4.298  -0.982  1.00  0.00     0.128 C 
ATOM     78  C   UNL     1       5.811   5.659  -0.666  1.00  0.00     0.135 C 
ATOM     79  C   UNL     1       4.277   4.484  -2.201  1.00  0.00     0.055 C 
ATOM     80  N   UNL     1       5.190   6.583  -1.579  1.00  0.00    -0.336 N 
ATOM     81  C   UNL     1       4.614   5.893  -2.716  1.00  0.00     0.129 C 
BRANCH  79  82
ATOM     82  C   UNL     1       4.366   3.336  -3.205  1.00  0.00    -0.038 A 
ATOM     83  C   UNL     1       3.568   2.180  -2.999  1.00  0.00     0.008 A 
ATOM     84  C   UNL     1       5.228   3.349  -4.314  1.00  0.00     0.054 A 
ATOM     85  C   UNL     1       3.664   1.051  -3.825  1.00  0.00     0.051 A 
ATOM     86  C   UNL     1       5.272   2.238  -5.139  1.00  0.00     0.166 A 
ATOM     87  C   UNL     1       4.527   1.113  -4.892  1.00  0.00     0.165 A 
ATOM     88  O   UNL     1       6.038   2.113  -6.258  1.00  0.00    -0.454 OA
ATOM     89  O   UNL     1       4.746   0.129  -5.803  1.00  0.00    -0.454 OA
ATOM     90  C   UNL     1       5.642   0.801  -6.713  1.00  0.00     0.468 C 
ENDBRANCH  79  82
BRANCH  80  91
ATOM     91  C   UNL     1       5.313   7.957  -1.537  1.00  0.00     0.277 C 
ATOM     92  O   UNL     1       5.018   8.652  -2.510  1.00  0.00    -0.268 OA
BRANCH  91  93
ATOM     93  C   UNL     1       5.787   8.582  -0.217  1.00  0.00     0.363 C 
BRANCH  93  94
ATOM     94  N   UNL     1       4.716   9.103   0.651  1.00  0.00    -0.323 N 
ATOM     95  C   UNL     1       3.638   8.174   1.022  1.00  0.00     0.291 C 
ATOM     96  C   UNL     1       4.154  10.391   0.211  1.00  0.00     0.291 C 
ATOM     97  H   UNL     1       5.241   9.253   1.513  1.00  0.00     0.348 HD
ATOM     98  C   UNL     1       2.446   8.132   0.049  1.00  0.00     0.221 C 
ATOM     99  C   UNL     1       2.939  10.296  -0.725  1.00  0.00     0.221 C 
ATOM    100  O   UNL     1       1.923   9.444  -0.182  1.00  0.00    -0.370 OA
ENDBRANCH  93  94
ENDBRANCH  91  93
ENDBRANCH  80  91
ENDBRANCH  75  77
ENDBRANCH  74  75
ENDBRANCH  73  74
ENDBRANCH   1  73
TORSDOF 18
