REMARK SMILES CN(C)C(=O)Nc1cccc(/C=C/C(=O)OCCOCCOC(=O)c2ccc(-c3c4nc(c(-c5c(F)c(F)c(F)c(F)c5F)c5ccc([nH]5)c(-c5c(F)c(F)c(F)c(F)c5F)c5nc(c(-c6c(F)c(F)c(F)c(F)c6F)c6ccc3[nH]6)C=C5)C=C4)cc2)n1
REMARK SMILES IDX 19 1 18 2 17 3 16 4 14 5 15 6 13 7 12 8 11 9 7 10 8 11 88 12
REMARK SMILES IDX 9 13 10 14 6 15 1 16 2 17 3 18 4 19 5 20 20 22 21 23 22 24
REMARK SMILES IDX 23 25 24 26 25 27 26 28 87 29 27 30 86 31 28 32 29 33 30 34
REMARK SMILES IDX 80 35 31 36 85 37 79 38 81 39 32 40 84 41 78 42 77 43 33 45
REMARK SMILES IDX 65 46 45 47 64 48 46 49 49 50 63 51 82 52 47 53 48 54 62 56
REMARK SMILES IDX 83 57 50 58 34 59 35 60 43 61 36 62 37 63 41 64 44 65 38 66
REMARK SMILES IDX 39 67 42 68 40 69 66 70 67 71 75 72 68 73 69 74 73 75 76 76
REMARK SMILES IDX 70 77 71 78 74 79 72 80 51 81 52 82 60 83 53 84 54 85 58 86
REMARK SMILES IDX 61 87 55 88 56 89 59 90 57 91
REMARK H PARENT 6 21 81 44 49 55
REMARK Flexibility Score: inf
ROOT
ATOM      1  O   UNL     1       0.936   3.603  11.348  1.00  0.00    -0.374 OA
ENDROOT
BRANCH   1   2
ATOM      2  C   UNL     1       0.531   4.955  11.132  1.00  0.00     0.202 C 
BRANCH   2   3
ATOM      3  C   UNL     1       1.112   5.620   9.883  1.00  0.00     0.261 C 
BRANCH   3   4
ATOM      4  O   UNL     1       0.564   5.020   8.698  1.00  0.00    -0.460 OA
BRANCH   4   5
ATOM      5  C   UNL     1       1.456   4.366   7.918  1.00  0.00     0.330 C 
ATOM      6  O   UNL     1       2.671   4.372   8.037  1.00  0.00    -0.247 OA
BRANCH   5   7
ATOM      7  C   UNL     1       0.784   3.526   6.912  1.00  0.00     0.095 C 
ATOM      8  C   UNL     1      -0.523   3.541   6.601  1.00  0.00     0.036 C 
BRANCH   8   9
ATOM      9  C   UNL     1      -1.068   2.643   5.574  1.00  0.00     0.066 A 
ATOM     10  C   UNL     1      -0.612   0.920   4.097  1.00  0.00     0.134 A 
ATOM     11  C   UNL     1      -1.848   1.050   3.485  1.00  0.00     0.047 A 
ATOM     12  N   UNL     1      -0.247   1.652   5.163  1.00  0.00    -0.231 NA
ATOM     13  C   UNL     1      -2.723   2.022   3.965  1.00  0.00     0.006 A 
ATOM     14  C   UNL     1      -2.322   2.847   5.015  1.00  0.00     0.028 A 
BRANCH  10  15
ATOM     15  N   UNL     1       0.367   0.042   3.657  1.00  0.00    -0.292 N 
ATOM     16  C   UNL     1       0.772  -0.283   0.020  1.00  0.00     0.148 C 
ATOM     17  N   UNL     1       0.441   0.315   1.302  1.00  0.00    -0.331 N 
ATOM     18  C   UNL     1       0.241   1.760   1.275  1.00  0.00     0.148 C 
ATOM     19  C   UNL     1       0.659  -0.450   2.431  1.00  0.00     0.322 C 
ATOM     20  O   UNL     1       1.229  -1.543   2.371  1.00  0.00    -0.248 OA
ATOM     21  H   UNL     1       0.961  -0.285   4.371  1.00  0.00     0.173 HD
ENDBRANCH  10  15
ENDBRANCH   8   9
ENDBRANCH   5   7
ENDBRANCH   4   5
ENDBRANCH   3   4
ENDBRANCH   2   3
ENDBRANCH   1   2
BRANCH   1  22
ATOM     22  C   UNL     1       0.221   2.592  10.634  1.00  0.00     0.202 C 
BRANCH  22  23
ATOM     23  C   UNL     1      -1.108   2.159  11.264  1.00  0.00     0.261 C 
BRANCH  23  24
ATOM     24  O   UNL     1      -2.091   3.210  11.201  1.00  0.00    -0.460 OA
BRANCH  24  25
ATOM     25  C   UNL     1      -2.391   3.783  12.390  1.00  0.00     0.338 C 
ATOM     26  O   UNL     1      -1.997   3.448  13.498  1.00  0.00    -0.246 OA
BRANCH  25  27
ATOM     27  C   UNL     1      -3.157   5.023  12.170  1.00  0.00     0.060 A 
ATOM     28  C   UNL     1      -2.711   6.182  12.818  1.00  0.00     0.016 A 
ATOM     29  C   UNL     1      -4.322   5.046  11.399  1.00  0.00     0.016 A 
ATOM     30  C   UNL     1      -3.454   7.357  12.739  1.00  0.00     0.010 A 
ATOM     31  C   UNL     1      -5.071   6.225  11.325  1.00  0.00     0.010 A 
ATOM     32  C   UNL     1      -4.658   7.376  12.022  1.00  0.00    -0.014 A 
BRANCH  32  33
ATOM     33  C   UNL     1      -5.548   8.558  12.115  1.00  0.00     0.031 A 
ATOM     34  C   UNL     1      -6.726   8.516  13.047  1.00  0.00     0.074 A 
ATOM     35  C   UNL     1      -5.302   9.662  11.389  1.00  0.00     0.049 A 
ATOM     36  N   UNL     1      -7.648   9.420  13.264  1.00  0.00    -0.248 NA
ATOM     37  C   UNL     1      -6.891   7.285  13.835  1.00  0.00     0.031 C 
ATOM     38  C   UNL     1      -4.181   9.832  10.469  1.00  0.00     0.029 A 
ATOM     39  N   UNL     1      -5.992  10.845  11.306  1.00  0.00    -0.354 N 
ATOM     40  C   UNL     1      -8.506   8.864  14.204  1.00  0.00     0.074 A 
ATOM     41  C   UNL     1      -8.013   7.534  14.493  1.00  0.00     0.031 C 
ATOM     42  C   UNL     1      -4.267  11.046   9.899  1.00  0.00     0.029 A 
ATOM     43  C   UNL     1      -5.464  11.725  10.395  1.00  0.00     0.049 A 
ATOM     44  H   UNL     1      -6.790  11.044  11.848  1.00  0.00     0.167 HD
ATOM     45  C   UNL     1      -9.601   9.417  14.779  1.00  0.00     0.037 A 
ATOM     46  C   UNL     1      -5.908  12.931   9.992  1.00  0.00     0.037 A 
ATOM     47  C   UNL     1     -10.085  10.742  14.495  1.00  0.00     0.049 A 
ATOM     48  C   UNL     1      -7.153  13.508  10.611  1.00  0.00     0.074 A 
ATOM     49  C   UNL     1     -11.156  11.410  15.061  1.00  0.00     0.029 A 
ATOM     50  N   UNL     1      -9.533  11.599  13.553  1.00  0.00    -0.354 N 
ATOM     51  N   UNL     1      -7.933  12.996  11.532  1.00  0.00    -0.248 NA
ATOM     52  C   UNL     1      -7.575  14.835  10.140  1.00  0.00     0.031 C 
ATOM     53  C   UNL     1     -11.287  12.649  14.423  1.00  0.00     0.029 A 
ATOM     54  C   UNL     1     -10.263  12.776  13.498  1.00  0.00     0.049 A 
ATOM     55  H   UNL     1      -8.739  11.400  13.005  1.00  0.00     0.167 HD
ATOM     56  C   UNL     1      -8.923  13.942  11.766  1.00  0.00     0.074 A 
ATOM     57  C   UNL     1      -8.637  15.066  10.899  1.00  0.00     0.031 C 
ATOM     58  C   UNL     1      -9.971  13.886  12.625  1.00  0.00     0.037 A 
BRANCH  45  59
ATOM     59  C   UNL     1     -10.371   8.569  15.750  1.00  0.00     0.064 A 
ATOM     60  C   UNL     1      -9.861   8.244  17.016  1.00  0.00     0.173 A 
ATOM     61  C   UNL     1     -11.645   8.088  15.412  1.00  0.00     0.173 A 
ATOM     62  F   UNL     1      -8.643   8.668  17.383  1.00  0.00    -0.203 F 
ATOM     63  C   UNL     1     -10.584   7.439  17.894  1.00  0.00     0.198 A 
ATOM     64  C   UNL     1     -12.377   7.308  16.303  1.00  0.00     0.198 A 
ATOM     65  F   UNL     1     -12.180   8.373  14.216  1.00  0.00    -0.203 F 
ATOM     66  F   UNL     1     -10.054   7.095  19.076  1.00  0.00    -0.200 F 
ATOM     67  C   UNL     1     -11.842   6.976  17.539  1.00  0.00     0.200 A 
ATOM     68  F   UNL     1     -13.597   6.871  15.963  1.00  0.00    -0.200 F 
ATOM     69  F   UNL     1     -12.536   6.202  18.384  1.00  0.00    -0.200 F 
ENDBRANCH  45  59
BRANCH  46  70
ATOM     70  C   UNL     1      -5.166  13.666   8.937  1.00  0.00     0.064 A 
ATOM     71  C   UNL     1      -4.435  14.823   9.236  1.00  0.00     0.173 A 
ATOM     72  C   UNL     1      -5.162  13.215   7.608  1.00  0.00     0.173 A 
ATOM     73  F   UNL     1      -4.430  15.307  10.486  1.00  0.00    -0.203 F 
ATOM     74  C   UNL     1      -3.732  15.505   8.244  1.00  0.00     0.198 A 
ATOM     75  C   UNL     1      -4.438  13.883   6.623  1.00  0.00     0.198 A 
ATOM     76  F   UNL     1      -5.847  12.112   7.272  1.00  0.00    -0.203 F 
ATOM     77  F   UNL     1      -3.067  16.628   8.550  1.00  0.00    -0.200 F 
ATOM     78  C   UNL     1      -3.728  15.030   6.941  1.00  0.00     0.200 A 
ATOM     79  F   UNL     1      -4.426  13.412   5.369  1.00  0.00    -0.200 F 
ATOM     80  F   UNL     1      -3.042  15.679   5.991  1.00  0.00    -0.200 F 
ENDBRANCH  46  70
BRANCH  58  81
ATOM     81  C   UNL     1     -10.878  15.081  12.688  1.00  0.00     0.064 A 
ATOM     82  C   UNL     1     -11.772  15.382  11.650  1.00  0.00     0.173 A 
ATOM     83  C   UNL     1     -10.886  15.908  13.822  1.00  0.00     0.173 A 
ATOM     84  F   UNL     1     -11.794  14.631  10.539  1.00  0.00    -0.203 F 
ATOM     85  C   UNL     1     -12.624  16.481  11.736  1.00  0.00     0.198 A 
ATOM     86  C   UNL     1     -11.759  16.988  13.917  1.00  0.00     0.198 A 
ATOM     87  F   UNL     1     -10.055  15.659  14.846  1.00  0.00    -0.203 F 
ATOM     88  F   UNL     1     -13.439  16.775  10.714  1.00  0.00    -0.200 F 
ATOM     89  C   UNL     1     -12.623  17.277  12.871  1.00  0.00     0.200 A 
ATOM     90  F   UNL     1     -11.766  17.748  15.021  1.00  0.00    -0.200 F 
ATOM     91  F   UNL     1     -13.450  18.328  12.955  1.00  0.00    -0.200 F 
ENDBRANCH  58  81
ENDBRANCH  32  33
ENDBRANCH  25  27
ENDBRANCH  24  25
ENDBRANCH  23  24
ENDBRANCH  22  23
ENDBRANCH   1  22
TORSDOF 16
