REMARK SMILES Cc1cc(Br)cc2c1O[C@H](C(F)(F)F)C(C(=O)OCCOCCOC(=O)c1ccc(-c3c4nc(c(-c5c(F)c(F)c(F)c(F)c5F)c5ccc([nH]5)c(-c5c(F)c(F)c(F)c(F)c5F)c5nc(c(-c6c(F)c(F)c(F)c(F)c6F)c6ccc3[nH]6)C=C5)C=C4)cc1)=C2
REMARK SMILES IDX 22 1 21 2 20 3 19 4 18 5 16 6 17 7 15 8 1 9 2 10 3 11 8 12
REMARK SMILES IDX 4 13 7 14 9 15 5 16 6 17 90 18 10 19 11 20 12 21 13 22 14 23
REMARK SMILES IDX 23 24 24 25 25 26 26 27 27 28 28 29 89 30 29 31 88 32 30 33
REMARK SMILES IDX 31 34 32 35 82 36 33 37 87 38 81 39 83 40 34 41 86 42 80 43
REMARK SMILES IDX 79 44 35 46 67 47 47 48 66 49 48 50 51 51 65 52 84 53 49 54
REMARK SMILES IDX 50 55 64 57 85 58 52 59 36 60 37 61 45 62 38 63 39 64 43 65
REMARK SMILES IDX 46 66 40 67 41 68 44 69 42 70 68 71 69 72 77 73 70 74 71 75
REMARK SMILES IDX 75 76 78 77 72 78 73 79 76 80 74 81 53 82 54 83 62 84 55 85
REMARK SMILES IDX 56 86 60 87 63 88 57 89 58 90 61 91 59 92
REMARK H PARENT 83 45 51 56
REMARK Flexibility Score: inf
ROOT
ATOM      1  C   UNL     1      -1.518   1.820   7.238  1.00  0.00     0.202 C 
ENDROOT
BRANCH   1   2
ATOM      2  O   UNL     1      -2.803   2.016   7.834  1.00  0.00    -0.374 OA
BRANCH   2   3
ATOM      3  C   UNL     1      -3.721   0.926   7.806  1.00  0.00     0.202 C 
BRANCH   3   4
ATOM      4  C   UNL     1      -4.472   0.701   6.491  1.00  0.00     0.261 C 
BRANCH   4   5
ATOM      5  O   UNL     1      -3.568   0.510   5.391  1.00  0.00    -0.460 OA
BRANCH   5   6
ATOM      6  C   UNL     1      -3.604   1.488   4.457  1.00  0.00     0.338 C 
ATOM      7  O   UNL     1      -4.401   2.414   4.396  1.00  0.00    -0.246 OA
BRANCH   6   8
ATOM      8  C   UNL     1      -2.450   1.360   3.549  1.00  0.00     0.087 C 
ATOM      9  C   UNL     1       1.018  -0.088   0.022  1.00  0.00     0.048 C 
ATOM     10  C   UNL     1       0.615   1.189   0.706  1.00  0.00    -0.007 A 
ATOM     11  C   UNL     1       1.190   2.393   0.265  1.00  0.00     0.023 A 
ATOM     12  C   UNL     1      -0.366   1.228   1.711  1.00  0.00     0.130 A 
ATOM     13  C   UNL     1       0.810   3.606   0.834  1.00  0.00     0.019 A 
ATOM     14  C   UNL     1      -0.762   2.455   2.257  1.00  0.00     0.019 A 
ATOM     15  O   UNL     1      -0.892   0.034   2.122  1.00  0.00    -0.475 OA
ATOM     16  Br  UNL     1       1.594   5.216   0.230  1.00  0.00    -0.051 Br
ATOM     17  C   UNL     1      -0.160   3.643   1.829  1.00  0.00     0.027 A 
ATOM     18  C   UNL     1      -1.840   2.507   3.226  1.00  0.00     0.027 C 
ATOM     19  C   UNL     1      -2.032   0.016   3.025  1.00  0.00     0.316 C 
BRANCH  19  20
ATOM     20  C   UNL     1      -3.180  -0.732   2.331  1.00  0.00     0.430 C 
ATOM     21  F   UNL     1      -2.759  -1.921   1.834  1.00  0.00    -0.167 F 
ATOM     22  F   UNL     1      -4.190  -1.011   3.189  1.00  0.00    -0.167 F 
ATOM     23  F   UNL     1      -3.702  -0.025   1.305  1.00  0.00    -0.167 F 
ENDBRANCH  19  20
ENDBRANCH   6   8
ENDBRANCH   5   6
ENDBRANCH   4   5
ENDBRANCH   3   4
ENDBRANCH   2   3
ENDBRANCH   1   2
BRANCH   1  24
ATOM     24  C   UNL     1      -0.538   0.915   7.995  1.00  0.00     0.261 C 
BRANCH  24  25
ATOM     25  O   UNL     1      -0.950  -0.465   7.962  1.00  0.00    -0.460 OA
BRANCH  25  26
ATOM     26  C   UNL     1      -1.197  -1.015   9.172  1.00  0.00     0.338 C 
ATOM     27  O   UNL     1      -1.028  -0.503  10.273  1.00  0.00    -0.246 OA
BRANCH  26  28
ATOM     28  C   UNL     1      -1.895  -2.299   9.009  1.00  0.00     0.060 A 
ATOM     29  C   UNL     1      -3.166  -2.426   9.583  1.00  0.00     0.016 A 
ATOM     30  C   UNL     1      -1.279  -3.391   8.393  1.00  0.00     0.016 A 
ATOM     31  C   UNL     1      -3.810  -3.660   9.584  1.00  0.00     0.010 A 
ATOM     32  C   UNL     1      -1.921  -4.634   8.408  1.00  0.00     0.010 A 
ATOM     33  C   UNL     1      -3.172  -4.780   9.035  1.00  0.00    -0.014 A 
BRANCH  33  34
ATOM     34  C   UNL     1      -3.747  -6.126   9.272  1.00  0.00     0.031 A 
ATOM     35  C   UNL     1      -3.234  -6.940  10.427  1.00  0.00     0.074 A 
ATOM     36  C   UNL     1      -4.751  -6.590   8.509  1.00  0.00     0.049 A 
ATOM     37  N   UNL     1      -3.598  -8.130  10.830  1.00  0.00    -0.248 NA
ATOM     38  C   UNL     1      -2.174  -6.326  11.243  1.00  0.00     0.031 C 
ATOM     39  C   UNL     1      -5.366  -5.870   7.397  1.00  0.00     0.029 A 
ATOM     40  N   UNL     1      -5.435  -7.779   8.563  1.00  0.00    -0.354 N 
ATOM     41  C   UNL     1      -2.821  -8.403  11.948  1.00  0.00     0.074 A 
ATOM     42  C   UNL     1      -1.940  -7.272  12.141  1.00  0.00     0.031 C 
ATOM     43  C   UNL     1      -6.342  -6.632   6.873  1.00  0.00     0.029 A 
ATOM     44  C   UNL     1      -6.400  -7.902   7.595  1.00  0.00     0.049 A 
ATOM     45  H   UNL     1      -5.251  -8.476   9.233  1.00  0.00     0.167 HD
ATOM     46  C   UNL     1      -2.853  -9.491  12.752  1.00  0.00     0.037 A 
ATOM     47  C   UNL     1      -7.226  -8.930   7.319  1.00  0.00     0.037 A 
ATOM     48  C   UNL     1      -3.728 -10.617  12.559  1.00  0.00     0.049 A 
ATOM     49  C   UNL     1      -7.168 -10.175   8.166  1.00  0.00     0.074 A 
ATOM     50  C   UNL     1      -3.839 -11.763  13.325  1.00  0.00     0.029 A 
ATOM     51  N   UNL     1      -4.637 -10.738  11.519  1.00  0.00    -0.354 N 
ATOM     52  N   UNL     1      -6.442 -10.419   9.229  1.00  0.00    -0.248 NA
ATOM     53  C   UNL     1      -8.042 -11.290   7.770  1.00  0.00     0.031 C 
ATOM     54  C   UNL     1      -4.783 -12.600  12.723  1.00  0.00     0.029 A 
ATOM     55  C   UNL     1      -5.292 -11.956  11.607  1.00  0.00     0.049 A 
ATOM     56  H   UNL     1      -4.794 -10.060  10.823  1.00  0.00     0.167 HD
ATOM     57  C   UNL     1      -6.779 -11.702   9.638  1.00  0.00     0.074 A 
ATOM     58  C   UNL     1      -7.790 -12.182   8.719  1.00  0.00     0.031 C 
ATOM     59  C   UNL     1      -6.293 -12.420  10.681  1.00  0.00     0.037 A 
BRANCH  46  60
ATOM     60  C   UNL     1      -1.907  -9.525  13.915  1.00  0.00     0.064 A 
ATOM     61  C   UNL     1      -2.117  -8.730  15.051  1.00  0.00     0.173 A 
ATOM     62  C   UNL     1      -0.812 -10.401  13.916  1.00  0.00     0.173 A 
ATOM     63  F   UNL     1      -3.143  -7.867  15.091  1.00  0.00    -0.203 F 
ATOM     64  C   UNL     1      -1.256  -8.802  16.143  1.00  0.00     0.198 A 
ATOM     65  C   UNL     1       0.033 -10.487  15.019  1.00  0.00     0.198 A 
ATOM     66  F   UNL     1      -0.570 -11.184  12.854  1.00  0.00    -0.203 F 
ATOM     67  F   UNL     1      -1.457  -8.011  17.206  1.00  0.00    -0.200 F 
ATOM     68  C   UNL     1      -0.187  -9.686  16.129  1.00  0.00     0.200 A 
ATOM     69  F   UNL     1       1.059 -11.349  15.009  1.00  0.00    -0.200 F 
ATOM     70  F   UNL     1       0.633  -9.762  17.186  1.00  0.00    -0.200 F 
ENDBRANCH  46  60
BRANCH  47  71
ATOM     71  C   UNL     1      -8.180  -8.827   6.185  1.00  0.00     0.064 A 
ATOM     72  C   UNL     1      -9.560  -8.735   6.409  1.00  0.00     0.173 A 
ATOM     73  C   UNL     1      -7.732  -8.818   4.855  1.00  0.00     0.173 A 
ATOM     74  F   UNL     1     -10.037  -8.766   7.662  1.00  0.00    -0.203 F 
ATOM     75  C   UNL     1     -10.457  -8.644   5.347  1.00  0.00     0.198 A 
ATOM     76  C   UNL     1      -8.628  -8.703   3.795  1.00  0.00     0.198 A 
ATOM     77  F   UNL     1      -6.421  -8.911   4.588  1.00  0.00    -0.203 F 
ATOM     78  F   UNL     1     -11.774  -8.591   5.588  1.00  0.00    -0.200 F 
ATOM     79  C   UNL     1      -9.990  -8.621   4.041  1.00  0.00     0.200 A 
ATOM     80  F   UNL     1      -8.172  -8.673   2.535  1.00  0.00    -0.200 F 
ATOM     81  F   UNL     1     -10.853  -8.526   3.020  1.00  0.00    -0.200 F 
ENDBRANCH  47  71
BRANCH  59  82
ATOM     82  C   UNL     1      -6.841 -13.800  10.893  1.00  0.00     0.064 A 
ATOM     83  C   UNL     1      -6.476 -14.865  10.056  1.00  0.00     0.173 A 
ATOM     84  C   UNL     1      -7.669 -14.079  11.991  1.00  0.00     0.173 A 
ATOM     85  F   UNL     1      -5.697 -14.646   8.987  1.00  0.00    -0.203 F 
ATOM     86  C   UNL     1      -6.928 -16.158  10.307  1.00  0.00     0.198 A 
ATOM     87  C   UNL     1      -8.097 -15.378  12.253  1.00  0.00     0.198 A 
ATOM     88  F   UNL     1      -8.039 -13.097  12.826  1.00  0.00    -0.203 F 
ATOM     89  F   UNL     1      -6.589 -17.156   9.479  1.00  0.00    -0.200 F 
ATOM     90  C   UNL     1      -7.728 -16.415  11.410  1.00  0.00     0.200 A 
ATOM     91  F   UNL     1      -8.857 -15.627  13.328  1.00  0.00    -0.200 F 
ATOM     92  F   UNL     1      -8.146 -17.664  11.660  1.00  0.00    -0.200 F 
ENDBRANCH  59  82
ENDBRANCH  33  34
ENDBRANCH  26  28
ENDBRANCH  25  26
ENDBRANCH  24  25
ENDBRANCH   1  24
TORSDOF 15
