REMARK SMILES O=C(OCCOCCOC(=O)C1(Cc2cc(F)cc(Br)c2)CCCCCC1)c1ccc(-c2c3nc(c(-c4c(F)c(F)c(F)c(F)c4F)c4ccc([nH]4)c(-c4c(F)c(F)c(F)c(F)c4F)c4nc(c(-c5c(F)c(F)c(F)c(F)c5F)c5ccc2[nH]5)C=C4)C=C3)cc1
REMARK SMILES IDX 7 1 6 2 5 3 4 4 3 5 2 6 1 7 28 8 29 9 90 10 30 11 89 12
REMARK SMILES IDX 31 13 32 14 33 15 83 16 34 17 88 18 82 19 84 20 35 21 87 22
REMARK SMILES IDX 81 23 80 24 36 26 68 27 48 28 67 29 49 30 52 31 66 32 85 33
REMARK SMILES IDX 50 34 51 35 65 37 86 38 53 39 37 40 38 41 46 42 39 43 40 44
REMARK SMILES IDX 44 45 47 46 41 47 42 48 45 49 43 50 69 51 70 52 78 53 71 54
REMARK SMILES IDX 72 55 76 56 79 57 73 58 74 59 77 60 75 61 54 62 55 63 63 64
REMARK SMILES IDX 56 65 57 66 61 67 64 68 58 69 59 70 62 71 60 72 8 73 9 74
REMARK SMILES IDX 10 75 11 76 12 77 13 78 14 79 15 80 21 81 16 82 19 83 17 84
REMARK SMILES IDX 18 85 20 86 22 87 23 88 24 89 25 90 27 92 26 93
REMARK H PARENT 84 25 52 36
REMARK Flexibility Score: 90.00
ROOT
ATOM      1  C   UNL     1       2.901   1.677  -1.236  1.00  0.00     0.202 C 
ENDROOT
BRANCH   1   2
ATOM      2  O   UNL     1       4.137   1.133  -0.781  1.00  0.00    -0.374 OA
BRANCH   2   3
ATOM      3  C   UNL     1       4.353  -0.249  -1.053  1.00  0.00     0.202 C 
BRANCH   3   4
ATOM      4  C   UNL     1       4.025  -1.243   0.064  1.00  0.00     0.261 C 
BRANCH   4   5
ATOM      5  O   UNL     1       2.627  -1.176   0.387  1.00  0.00    -0.460 OA
BRANCH   5   6
ATOM      6  C   UNL     1       2.032  -0.415   1.335  1.00  0.00     0.338 C 
ATOM      7  O   UNL     1       0.810  -0.450   1.452  1.00  0.00    -0.246 OA
BRANCH   6   8
ATOM      8  C   UNL     1       2.804   0.446   2.276  1.00  0.00     0.060 A 
ATOM      9  C   UNL     1       4.059   0.971   1.994  1.00  0.00     0.016 A 
ATOM     10  C   UNL     1       2.222   0.787   3.506  1.00  0.00     0.016 A 
ATOM     11  C   UNL     1       4.744   1.776   2.857  1.00  0.00     0.010 A 
ATOM     12  C   UNL     1       2.904   1.614   4.407  1.00  0.00     0.010 A 
ATOM     13  C   UNL     1       4.171   2.099   4.070  1.00  0.00    -0.014 A 
BRANCH  13  14
ATOM     14  C   UNL     1       5.099   2.764   4.982  1.00  0.00     0.031 A 
ATOM     15  C   UNL     1       5.801   1.899   5.976  1.00  0.00     0.074 A 
ATOM     16  C   UNL     1       5.518   4.004   4.671  1.00  0.00     0.049 A 
ATOM     17  N   UNL     1       6.688   2.222   6.871  1.00  0.00    -0.248 NA
ATOM     18  C   UNL     1       5.485   0.457   5.930  1.00  0.00     0.031 C 
ATOM     19  C   UNL     1       5.051   4.789   3.519  1.00  0.00     0.029 A 
ATOM     20  N   UNL     1       6.482   4.786   5.233  1.00  0.00    -0.354 N 
ATOM     21  C   UNL     1       6.985   1.042   7.537  1.00  0.00     0.074 A 
ATOM     22  C   UNL     1       6.215  -0.014   6.927  1.00  0.00     0.031 C 
ATOM     23  C   UNL     1       5.752   5.930   3.451  1.00  0.00     0.029 A 
ATOM     24  C   UNL     1       6.637   5.996   4.604  1.00  0.00     0.049 A 
ATOM     25  H   UNL     1       7.015   4.510   6.014  1.00  0.00     0.167 HD
ATOM     26  C   UNL     1       7.816   0.888   8.591  1.00  0.00     0.037 A 
ATOM     27  C   UNL     1       7.382   7.051   4.974  1.00  0.00     0.037 A 
ATOM     28  C   UNL     1       8.564   1.984   9.140  1.00  0.00     0.049 A 
ATOM     29  C   UNL     1       8.187   6.896   6.235  1.00  0.00     0.074 A 
ATOM     30  C   UNL     1       9.360   2.018  10.266  1.00  0.00     0.029 A 
ATOM     31  N   UNL     1       8.599   3.257   8.577  1.00  0.00    -0.354 N 
ATOM     32  N   UNL     1       8.362   5.825   6.977  1.00  0.00    -0.248 NA
ATOM     33  C   UNL     1       8.876   8.090   6.727  1.00  0.00     0.031 C 
ATOM     34  C   UNL     1       9.829   3.328  10.416  1.00  0.00     0.029 A 
ATOM     35  C   UNL     1       9.386   4.093   9.345  1.00  0.00     0.049 A 
ATOM     36  H   UNL     1       8.132   3.522   7.752  1.00  0.00     0.167 HD
ATOM     37  C   UNL     1       9.201   6.206   8.010  1.00  0.00     0.074 A 
ATOM     38  C   UNL     1       9.512   7.607   7.785  1.00  0.00     0.031 C 
ATOM     39  C   UNL     1       9.671   5.478   9.054  1.00  0.00     0.037 A 
BRANCH  26  40
ATOM     40  C   UNL     1       7.818  -0.453   9.260  1.00  0.00     0.064 A 
ATOM     41  C   UNL     1       8.369  -1.597   8.664  1.00  0.00     0.173 A 
ATOM     42  C   UNL     1       7.170  -0.607  10.495  1.00  0.00     0.173 A 
ATOM     43  F   UNL     1       8.960  -1.516   7.462  1.00  0.00    -0.203 F 
ATOM     44  C   UNL     1       8.239  -2.850   9.263  1.00  0.00     0.198 A 
ATOM     45  C   UNL     1       7.068  -1.854  11.105  1.00  0.00     0.198 A 
ATOM     46  F   UNL     1       6.606   0.450  11.100  1.00  0.00    -0.203 F 
ATOM     47  F   UNL     1       8.704  -3.941   8.639  1.00  0.00    -0.200 F 
ATOM     48  C   UNL     1       7.592  -2.976  10.484  1.00  0.00     0.200 A 
ATOM     49  F   UNL     1       6.440  -1.972  12.283  1.00  0.00    -0.200 F 
ATOM     50  F   UNL     1       7.454  -4.183  11.050  1.00  0.00    -0.200 F 
ENDBRANCH  26  40
BRANCH  27  51
ATOM     51  C   UNL     1       7.326   8.330   4.217  1.00  0.00     0.064 A 
ATOM     52  C   UNL     1       8.470   8.876   3.619  1.00  0.00     0.173 A 
ATOM     53  C   UNL     1       6.128   9.056   4.098  1.00  0.00     0.173 A 
ATOM     54  F   UNL     1       9.645   8.236   3.715  1.00  0.00    -0.203 F 
ATOM     55  C   UNL     1       8.424  10.103   2.958  1.00  0.00     0.198 A 
ATOM     56  C   UNL     1       6.076  10.265   3.408  1.00  0.00     0.198 A 
ATOM     57  F   UNL     1       4.999   8.588   4.652  1.00  0.00    -0.203 F 
ATOM     58  F   UNL     1       9.546  10.627   2.445  1.00  0.00    -0.200 F 
ATOM     59  C   UNL     1       7.227  10.794   2.849  1.00  0.00     0.200 A 
ATOM     60  F   UNL     1       4.912  10.919   3.294  1.00  0.00    -0.200 F 
ATOM     61  F   UNL     1       7.185  11.976   2.218  1.00  0.00    -0.200 F 
ENDBRANCH  27  51
BRANCH  39  62
ATOM     62  C   UNL     1      10.618   6.177   9.979  1.00  0.00     0.064 A 
ATOM     63  C   UNL     1      10.186   7.172  10.867  1.00  0.00     0.173 A 
ATOM     64  C   UNL     1      11.971   5.808  10.001  1.00  0.00     0.173 A 
ATOM     65  F   UNL     1       8.903   7.567  10.867  1.00  0.00    -0.203 F 
ATOM     66  C   UNL     1      11.085   7.797  11.723  1.00  0.00     0.198 A 
ATOM     67  C   UNL     1      12.858   6.408  10.886  1.00  0.00     0.198 A 
ATOM     68  F   UNL     1      12.426   4.854   9.174  1.00  0.00    -0.203 F 
ATOM     69  F   UNL     1      10.665   8.787  12.523  1.00  0.00    -0.200 F 
ATOM     70  C   UNL     1      12.416   7.408  11.739  1.00  0.00     0.200 A 
ATOM     71  F   UNL     1      14.139   6.017  10.914  1.00  0.00    -0.200 F 
ATOM     72  F   UNL     1      13.278   8.004  12.574  1.00  0.00    -0.200 F 
ENDBRANCH  39  62
ENDBRANCH  13  14
ENDBRANCH   6   8
ENDBRANCH   5   6
ENDBRANCH   4   5
ENDBRANCH   3   4
ENDBRANCH   2   3
ENDBRANCH   1   2
BRANCH   1  73
ATOM     73  C   UNL     1       3.152   2.481  -2.502  1.00  0.00     0.261 C 
BRANCH  73  74
ATOM     74  O   UNL     1       3.516   1.559  -3.543  1.00  0.00    -0.463 OA
BRANCH  74  75
ATOM     75  C   UNL     1       4.822   1.297  -3.759  1.00  0.00     0.312 C 
ATOM     76  O   UNL     1       5.733   1.906  -3.206  1.00  0.00    -0.252 OA
BRANCH  75  77
ATOM     77  C   UNL     1       5.018   0.106  -4.741  1.00  0.00     0.072 C 
BRANCH  77  78
ATOM     78  C   UNL     1       3.954   0.199  -5.907  1.00  0.00     0.054 C 
BRANCH  78  79
ATOM     79  C   UNL     1       2.534  -0.301  -5.610  1.00  0.00    -0.043 A 
ATOM     80  C   UNL     1       1.545   0.545  -5.083  1.00  0.00     0.043 A 
ATOM     81  C   UNL     1       2.194  -1.652  -5.788  1.00  0.00     0.019 A 
ATOM     82  C   UNL     1       0.342   0.033  -4.599  1.00  0.00     0.124 A 
ATOM     83  C   UNL     1       0.956  -2.144  -5.349  1.00  0.00     0.021 A 
ATOM     84  F   UNL     1      -0.521   0.854  -3.985  1.00  0.00    -0.207 F 
ATOM     85  C   UNL     1       0.038  -1.313  -4.717  1.00  0.00     0.055 A 
ATOM     86  Br  UNL     1       0.536  -3.971  -5.596  1.00  0.00    -0.051 Br
ENDBRANCH  78  79
ENDBRANCH  77  78
BRANCH  77  87
ATOM     87  C   UNL     1       6.471   0.288  -5.294  1.00  0.00     0.019 C 
BRANCH  87  88
ATOM     88  C   UNL     1       7.583  -0.160  -4.311  1.00  0.00     0.001 C 
BRANCH  88  89
ATOM     89  C   UNL     1       8.027  -1.613  -4.497  1.00  0.00     0.000 C 
BRANCH  89  90
ATOM     90  C   UNL     1       6.996  -2.698  -4.185  1.00  0.00     0.000 CG0
ATOM     91  G   UNL     1       5.586  -2.446  -4.722  1.00  0.00     0.000 G0
ENDBRANCH  89  90
ENDBRANCH  88  89
ENDBRANCH  87  88
ENDBRANCH  77  87
BRANCH  77  92
ATOM     92  C   UNL     1       4.934  -1.258  -4.014  1.00  0.00     0.019 C 
BRANCH  92  93
ATOM     93  C   UNL     1       5.586  -2.446  -4.722  1.00  0.00     0.001 CG0
ATOM     94  G   UNL     1       6.996  -2.698  -4.185  1.00  0.00     0.000 G0
ENDBRANCH  92  93
ENDBRANCH  77  92
ENDBRANCH  75  77
ENDBRANCH  74  75
ENDBRANCH  73  74
ENDBRANCH   1  73
TORSDOF 16
