REMARK SMILES C[NH2+]C[C@H](C)C(=O)N1[C@H](C(=O)OCCOCCOC(=O)c2ccc(-c3c4nc(c(-c5c(F)c(F)c(F)c(F)c5F)c5ccc([nH]5)c(-c5c(F)c(F)c(F)c(F)c5F)c5nc(c(-c6c(F)c(F)c(F)c(F)c6F)c6ccc3[nH]6)C=C5)C=C4)cc2)CS[C@H]1C(C)C
REMARK SMILES IDX 14 1 13 2 12 3 10 4 11 5 9 6 8 7 86 8 84 9 85 10 6 11 7 12
REMARK SMILES IDX 4 13 5 14 3 15 2 16 1 17 87 20 88 21 89 22 15 23 16 24 17 25
REMARK SMILES IDX 18 26 19 27 20 28 21 29 22 30 83 31 23 32 82 33 24 34 25 35
REMARK SMILES IDX 26 36 76 37 27 38 81 39 75 40 77 41 28 42 80 43 74 44 73 45
REMARK SMILES IDX 29 47 61 48 41 49 60 50 42 51 45 52 59 53 78 54 43 55 44 56
REMARK SMILES IDX 58 58 79 59 46 60 30 61 31 62 39 63 32 64 33 65 37 66 40 67
REMARK SMILES IDX 34 68 35 69 38 70 36 71 62 72 63 73 71 74 64 75 65 76 69 77
REMARK SMILES IDX 72 78 66 79 67 80 70 81 68 82 47 83 48 84 56 85 49 86 50 87
REMARK SMILES IDX 54 88 57 89 51 90 52 91 55 92 53 93
REMARK H PARENT 2 18 2 19 77 46 45 57
REMARK Flexibility Score: inf
ROOT
ATOM      1  C   UNL     1      -7.891   0.101   0.042  1.00  0.00     0.202 C 
ENDROOT
BRANCH   1   2
ATOM      2  C   UNL     1      -7.698  -0.015  -1.476  1.00  0.00     0.261 C 
BRANCH   2   3
ATOM      3  O   UNL     1      -6.327   0.096  -1.925  1.00  0.00    -0.462 OA
BRANCH   3   4
ATOM      4  C   UNL     1      -6.111   1.079  -2.845  1.00  0.00     0.329 C 
ATOM      5  O   UNL     1      -7.001   1.794  -3.304  1.00  0.00    -0.250 OA
BRANCH   4   6
ATOM      6  C   UNL     1      -4.670   1.178  -3.386  1.00  0.00     0.206 C 
ATOM      7  N   UNL     1      -3.522   0.468  -2.759  1.00  0.00    -0.315 N 
ATOM      8  C   UNL     1      -3.415  -0.899  -3.285  1.00  0.00     0.146 C 
ATOM      9  C   UNL     1      -4.747   0.785  -4.867  1.00  0.00     0.109 C 
ATOM     10  S   UNL     1      -3.695  -0.667  -5.077  1.00  0.00    -0.134 SA
BRANCH   7  11
ATOM     11  C   UNL     1      -2.937   1.124  -1.697  1.00  0.00     0.232 C 
ATOM     12  O   UNL     1      -3.661   1.896  -1.043  1.00  0.00    -0.274 OA
BRANCH  11  13
ATOM     13  C   UNL     1      -1.424   1.328  -1.447  1.00  0.00     0.130 C 
ATOM     14  C   UNL     1      -0.410   0.229  -1.186  1.00  0.00     0.024 C 
BRANCH  13  15
ATOM     15  C   UNL     1      -0.865   2.340  -2.469  1.00  0.00     0.273 C 
BRANCH  15  16
ATOM     16  N   UNL     1      -1.334   3.722  -2.286  1.00  0.00    -0.348 N 
ATOM     17  C   UNL     1      -0.771   4.356  -1.096  1.00  0.00     0.330 C 
ATOM     18  H   UNL     1      -1.065   4.268  -3.105  1.00  0.00     0.346 HD
ATOM     19  H   UNL     1      -2.346   3.690  -2.169  1.00  0.00     0.346 HD
ENDBRANCH  15  16
ENDBRANCH  13  15
ENDBRANCH  11  13
ENDBRANCH   7  11
BRANCH   8  20
ATOM     20  C   UNL     1      -2.206  -1.782  -2.957  1.00  0.00     0.016 C 
ATOM     21  C   UNL     1      -2.340  -2.323  -1.526  1.00  0.00     0.010 C 
ATOM     22  C   UNL     1      -1.997  -2.997  -3.877  1.00  0.00     0.010 C 
ENDBRANCH   8  20
ENDBRANCH   4   6
ENDBRANCH   3   4
ENDBRANCH   2   3
ENDBRANCH   1   2
BRANCH   1  23
ATOM     23  O   UNL     1      -7.471   1.293   0.697  1.00  0.00    -0.374 OA
BRANCH  23  24
ATOM     24  C   UNL     1      -6.080   1.600   0.661  1.00  0.00     0.202 C 
BRANCH  24  25
ATOM     25  C   UNL     1      -5.139   0.731   1.511  1.00  0.00     0.261 C 
BRANCH  25  26
ATOM     26  O   UNL     1      -5.236  -0.679   1.234  1.00  0.00    -0.460 OA
BRANCH  26  27
ATOM     27  C   UNL     1      -5.759  -1.410   2.250  1.00  0.00     0.338 C 
ATOM     28  O   UNL     1      -6.076  -1.025   3.361  1.00  0.00    -0.246 OA
BRANCH  27  29
ATOM     29  C   UNL     1      -6.069  -2.776   1.789  1.00  0.00     0.060 A 
ATOM     30  C   UNL     1      -7.390  -3.219   1.930  1.00  0.00     0.016 A 
ATOM     31  C   UNL     1      -5.072  -3.640   1.332  1.00  0.00     0.016 A 
ATOM     32  C   UNL     1      -7.712  -4.546   1.660  1.00  0.00     0.010 A 
ATOM     33  C   UNL     1      -5.396  -4.976   1.070  1.00  0.00     0.010 A 
ATOM     34  C   UNL     1      -6.709  -5.441   1.268  1.00  0.00    -0.014 A 
BRANCH  34  35
ATOM     35  C   UNL     1      -7.015  -6.891   1.214  1.00  0.00     0.031 A 
ATOM     36  C   UNL     1      -6.648  -7.758   2.386  1.00  0.00     0.074 A 
ATOM     37  C   UNL     1      -7.651  -7.416   0.153  1.00  0.00     0.049 A 
ATOM     38  N   UNL     1      -6.823  -9.044   2.557  1.00  0.00    -0.248 NA
ATOM     39  C   UNL     1      -5.997  -7.084   3.521  1.00  0.00     0.031 C 
ATOM     40  C   UNL     1      -8.087  -6.665  -1.022  1.00  0.00     0.029 A 
ATOM     41  N   UNL     1      -8.040  -8.706  -0.105  1.00  0.00    -0.354 N 
ATOM     42  C   UNL     1      -6.303  -9.332   3.812  1.00  0.00     0.074 A 
ATOM     43  C   UNL     1      -5.776  -8.095   4.347  1.00  0.00     0.031 C 
ATOM     44  C   UNL     1      -8.680  -7.511  -1.883  1.00  0.00     0.029 A 
ATOM     45  C   UNL     1      -8.641  -8.863  -1.329  1.00  0.00     0.049 A 
ATOM     46  H   UNL     1      -7.902  -9.447   0.527  1.00  0.00     0.167 HD
ATOM     47  C   UNL     1      -6.279 -10.519   4.463  1.00  0.00     0.037 A 
ATOM     48  C   UNL     1      -9.092  -9.977  -1.936  1.00  0.00     0.037 A 
ATOM     49  C   UNL     1      -6.807 -11.746   3.926  1.00  0.00     0.049 A 
ATOM     50  C   UNL     1      -8.994 -11.298  -1.218  1.00  0.00     0.074 A 
ATOM     51  C   UNL     1      -6.855 -12.997   4.515  1.00  0.00     0.029 A 
ATOM     52  N   UNL     1      -7.374 -11.875   2.667  1.00  0.00    -0.354 N 
ATOM     53  N   UNL     1      -8.531 -11.556  -0.019  1.00  0.00    -0.248 NA
ATOM     54  C   UNL     1      -9.484 -12.482  -1.938  1.00  0.00     0.031 C 
ATOM     55  C   UNL     1      -7.404 -13.894   3.592  1.00  0.00     0.029 A 
ATOM     56  C   UNL     1      -7.746 -13.191   2.447  1.00  0.00     0.049 A 
ATOM     57  H   UNL     1      -7.494 -11.139   2.023  1.00  0.00     0.167 HD
ATOM     58  C   UNL     1      -8.695 -12.922   0.169  1.00  0.00     0.074 A 
ATOM     59  C   UNL     1      -9.315 -13.437  -1.034  1.00  0.00     0.031 C 
ATOM     60  C   UNL     1      -8.362 -13.684   1.241  1.00  0.00     0.037 A 
BRANCH  47  61
ATOM     61  C   UNL     1      -5.639 -10.553   5.820  1.00  0.00     0.064 A 
ATOM     62  C   UNL     1      -6.247  -9.960   6.938  1.00  0.00     0.173 A 
ATOM     63  C   UNL     1      -4.415 -11.210   6.011  1.00  0.00     0.173 A 
ATOM     64  F   UNL     1      -7.411  -9.307   6.805  1.00  0.00    -0.203 F 
ATOM     65  C   UNL     1      -5.639 -10.002   8.190  1.00  0.00     0.198 A 
ATOM     66  C   UNL     1      -3.824 -11.274   7.271  1.00  0.00     0.198 A 
ATOM     67  F   UNL     1      -3.793 -11.796   4.977  1.00  0.00    -0.203 F 
ATOM     68  F   UNL     1      -6.215  -9.388   9.233  1.00  0.00    -0.200 F 
ATOM     69  C   UNL     1      -4.432 -10.664   8.357  1.00  0.00     0.200 A 
ATOM     70  F   UNL     1      -2.662 -11.923   7.432  1.00  0.00    -0.200 F 
ATOM     71  F   UNL     1      -3.850 -10.707   9.563  1.00  0.00    -0.200 F 
ENDBRANCH  47  61
BRANCH  48  72
ATOM     72  C   UNL     1      -9.672  -9.894  -3.302  1.00  0.00     0.064 A 
ATOM     73  C   UNL     1     -11.036 -10.121  -3.526  1.00  0.00     0.173 A 
ATOM     74  C   UNL     1      -8.870  -9.592  -4.413  1.00  0.00     0.173 A 
ATOM     75  F   UNL     1     -11.839 -10.437  -2.499  1.00  0.00    -0.203 F 
ATOM     76  C   UNL     1     -11.574 -10.066  -4.810  1.00  0.00     0.198 A 
ATOM     77  C   UNL     1      -9.414  -9.510  -5.693  1.00  0.00     0.198 A 
ATOM     78  F   UNL     1      -7.558  -9.367  -4.253  1.00  0.00    -0.203 F 
ATOM     79  F   UNL     1     -12.874 -10.329  -5.002  1.00  0.00    -0.200 F 
ATOM     80  C   UNL     1     -10.764  -9.754  -5.892  1.00  0.00     0.200 A 
ATOM     81  F   UNL     1      -8.629  -9.196  -6.733  1.00  0.00    -0.200 F 
ATOM     82  F   UNL     1     -11.283  -9.695  -7.126  1.00  0.00    -0.200 F 
ENDBRANCH  48  72
BRANCH  60  83
ATOM     83  C   UNL     1      -8.681 -15.149   1.170  1.00  0.00     0.064 A 
ATOM     84  C   UNL     1      -7.950 -16.020   0.349  1.00  0.00     0.173 A 
ATOM     85  C   UNL     1      -9.700 -15.694   1.966  1.00  0.00     0.173 A 
ATOM     86  F   UNL     1      -6.976 -15.545  -0.441  1.00  0.00    -0.203 F 
ATOM     87  C   UNL     1      -8.243 -17.381   0.310  1.00  0.00     0.198 A 
ATOM     88  C   UNL     1      -9.971 -17.059   1.946  1.00  0.00     0.198 A 
ATOM     89  F   UNL     1     -10.424 -14.905   2.773  1.00  0.00    -0.203 F 
ATOM     90  F   UNL     1      -7.562 -18.187  -0.515  1.00  0.00    -0.200 F 
ATOM     91  C   UNL     1      -9.248 -17.900   1.113  1.00  0.00     0.200 A 
ATOM     92  F   UNL     1     -10.933 -17.562   2.733  1.00  0.00    -0.200 F 
ATOM     93  F   UNL     1      -9.524 -19.211   1.080  1.00  0.00    -0.200 F 
ENDBRANCH  60  83
ENDBRANCH  34  35
ENDBRANCH  27  29
ENDBRANCH  26  27
ENDBRANCH  25  26
ENDBRANCH  24  25
ENDBRANCH  23  24
ENDBRANCH   1  23
TORSDOF 19
