REMARK SMILES Cc1cc(F)cc(N[C@H](C(=O)OCCOCCOC(=O)c2ccc(-c3c4nc(c(-c5c(F)c(F)c(F)c(F)c5F)c5ccc([nH]5)c(-c5c(F)c(F)c(F)c(F)c5F)c5nc(c(-c6c(F)c(F)c(F)c(F)c6F)c6ccc3[nH]6)C=C5)C=C4)cc2)c2cc(C)cc(C)c2)c1
REMARK SMILES IDX 15 1 14 2 13 3 12 4 10 5 11 6 9 7 8 8 7 10 1 11 2 12 3 13
REMARK SMILES IDX 92 14 4 15 5 16 6 17 84 18 85 19 91 20 86 21 89 22 87 23
REMARK SMILES IDX 88 24 90 25 16 26 17 27 18 28 19 29 20 30 21 31 22 32 83 33
REMARK SMILES IDX 23 34 82 35 24 36 25 37 26 38 76 39 27 40 81 41 75 42 77 43
REMARK SMILES IDX 28 44 80 45 74 46 73 47 29 49 61 50 41 51 60 52 42 53 45 54
REMARK SMILES IDX 59 55 78 56 43 57 44 58 58 60 79 61 46 62 30 63 31 64 39 65
REMARK SMILES IDX 32 66 33 67 37 68 40 69 34 70 35 71 38 72 36 73 62 74 63 75
REMARK SMILES IDX 71 76 64 77 65 78 69 79 72 80 66 81 67 82 70 83 68 84 47 85
REMARK SMILES IDX 48 86 56 87 49 88 50 89 54 90 57 91 51 92 52 93 55 94 53 95
REMARK H PARENT 8 9 77 48 45 59
REMARK Flexibility Score: inf
ROOT
ATOM      1  O   UNL     1       2.037  -0.886   0.869  1.00  0.00    -0.374 OA
ENDROOT
BRANCH   1   2
ATOM      2  C   UNL     1       2.842  -1.470  -0.144  1.00  0.00     0.202 C 
BRANCH   2   3
ATOM      3  C   UNL     1       2.803  -2.985  -0.416  1.00  0.00     0.261 C 
BRANCH   3   4
ATOM      4  O   UNL     1       1.498  -3.566  -0.517  1.00  0.00    -0.461 OA
BRANCH   4   5
ATOM      5  C   UNL     1       1.054  -4.086   0.666  1.00  0.00     0.333 C 
ATOM      6  O   UNL     1       1.675  -3.953   1.718  1.00  0.00    -0.249 OA
BRANCH   5   7
ATOM      7  C   UNL     1      -0.356  -4.712   0.552  1.00  0.00     0.221 C 
BRANCH   7   8
ATOM      8  N   UNL     1      -0.574  -5.508  -0.681  1.00  0.00    -0.369 N 
ATOM      9  H   UNL     1      -1.223  -5.127  -1.315  1.00  0.00     0.161 HD
BRANCH   8  10
ATOM     10  C   UNL     1      -0.004  -6.704  -1.073  1.00  0.00     0.038 A 
ATOM     11  C   UNL     1      -0.333  -9.177  -4.000  1.00  0.00     0.044 C 
ATOM     12  C   UNL     1       0.087  -8.558  -2.701  1.00  0.00    -0.046 A 
ATOM     13  C   UNL     1       0.989  -9.241  -1.886  1.00  0.00     0.042 A 
ATOM     14  C   UNL     1      -0.423  -7.314  -2.271  1.00  0.00     0.029 A 
ATOM     15  C   UNL     1       1.422  -8.645  -0.719  1.00  0.00     0.125 A 
ATOM     16  F   UNL     1       2.304  -9.281   0.064  1.00  0.00    -0.207 F 
ATOM     17  C   UNL     1       0.967  -7.385  -0.345  1.00  0.00     0.065 A 
ENDBRANCH   8  10
ENDBRANCH   7   8
BRANCH   7  18
ATOM     18  C   UNL     1      -0.798  -5.440   1.824  1.00  0.00    -0.014 A 
ATOM     19  C   UNL     1       0.122  -6.197   2.566  1.00  0.00     0.010 A 
ATOM     20  C   UNL     1      -2.112  -5.370   2.309  1.00  0.00     0.010 A 
ATOM     21  C   UNL     1      -0.241  -6.970   3.663  1.00  0.00    -0.051 A 
ATOM     22  C   UNL     1      -2.478  -6.053   3.485  1.00  0.00    -0.051 A 
ATOM     23  C   UNL     1       0.769  -7.921   4.228  1.00  0.00     0.044 C 
ATOM     24  C   UNL     1      -1.549  -6.891   4.123  1.00  0.00     0.006 A 
ATOM     25  C   UNL     1      -3.854  -5.923   4.068  1.00  0.00     0.044 C 
ENDBRANCH   7  18
ENDBRANCH   5   7
ENDBRANCH   4   5
ENDBRANCH   3   4
ENDBRANCH   2   3
ENDBRANCH   1   2
BRANCH   1  26
ATOM     26  C   UNL     1       0.614  -0.898   0.818  1.00  0.00     0.202 C 
BRANCH  26  27
ATOM     27  C   UNL     1      -0.123  -0.472  -0.450  1.00  0.00     0.261 C 
BRANCH  27  28
ATOM     28  O   UNL     1       0.172  -1.352  -1.534  1.00  0.00    -0.460 OA
BRANCH  28  29
ATOM     29  C   UNL     1       0.906  -0.759  -2.493  1.00  0.00     0.338 C 
ATOM     30  O   UNL     1       1.209   0.420  -2.586  1.00  0.00    -0.246 OA
BRANCH  29  31
ATOM     31  C   UNL     1       1.351  -1.753  -3.487  1.00  0.00     0.060 A 
ATOM     32  C   UNL     1       2.655  -1.490  -3.950  1.00  0.00     0.016 A 
ATOM     33  C   UNL     1       0.310  -2.074  -4.353  1.00  0.00     0.016 A 
ATOM     34  C   UNL     1       2.803  -1.074  -5.255  1.00  0.00     0.010 A 
ATOM     35  C   UNL     1       0.453  -1.649  -5.650  1.00  0.00     0.010 A 
ATOM     36  C   UNL     1       1.656  -1.034  -6.037  1.00  0.00    -0.014 A 
BRANCH  36  37
ATOM     37  C   UNL     1       1.567  -0.212  -7.222  1.00  0.00     0.031 A 
ATOM     38  C   UNL     1       1.856  -0.818  -8.522  1.00  0.00     0.074 A 
ATOM     39  C   UNL     1       1.113   1.050  -7.081  1.00  0.00     0.049 A 
ATOM     40  N   UNL     1       2.125  -0.160  -9.593  1.00  0.00    -0.248 NA
ATOM     41  C   UNL     1       1.942  -2.264  -8.682  1.00  0.00     0.031 C 
ATOM     42  C   UNL     1       0.553   1.913  -8.113  1.00  0.00     0.029 A 
ATOM     43  N   UNL     1       1.229   1.873  -5.953  1.00  0.00    -0.354 N 
ATOM     44  C   UNL     1       2.133  -1.062 -10.632  1.00  0.00     0.074 A 
ATOM     45  C   UNL     1       2.111  -2.362 -10.002  1.00  0.00     0.031 C 
ATOM     46  C   UNL     1       0.555   3.181  -7.668  1.00  0.00     0.029 A 
ATOM     47  C   UNL     1       1.309   3.197  -6.423  1.00  0.00     0.049 A 
ATOM     48  H   UNL     1       1.251   1.581  -5.013  1.00  0.00     0.167 HD
ATOM     49  C   UNL     1       1.988  -0.595 -11.904  1.00  0.00     0.037 A 
ATOM     50  C   UNL     1       2.443   3.937  -6.239  1.00  0.00     0.037 A 
ATOM     51  C   UNL     1       1.967   0.868 -11.914  1.00  0.00     0.049 A 
ATOM     52  C   UNL     1       3.098   4.356  -7.534  1.00  0.00     0.074 A 
ATOM     53  C   UNL     1       0.917   1.772 -11.868  1.00  0.00     0.029 A 
ATOM     54  N   UNL     1       3.119   1.582 -11.595  1.00  0.00    -0.354 N 
ATOM     55  N   UNL     1       3.003   3.688  -8.651  1.00  0.00    -0.248 NA
ATOM     56  C   UNL     1       3.930   5.550  -7.656  1.00  0.00     0.031 C 
ATOM     57  C   UNL     1       1.434   3.023 -11.454  1.00  0.00     0.029 A 
ATOM     58  C   UNL     1       2.800   2.889 -11.276  1.00  0.00     0.049 A 
ATOM     59  H   UNL     1       4.030   1.210 -11.596  1.00  0.00     0.167 HD
ATOM     60  C   UNL     1       3.731   4.327  -9.619  1.00  0.00     0.074 A 
ATOM     61  C   UNL     1       4.287   5.490  -8.950  1.00  0.00     0.031 C 
ATOM     62  C   UNL     1       3.821   3.851 -10.895  1.00  0.00     0.037 A 
BRANCH  49  63
ATOM     63  C   UNL     1       1.488  -1.456 -13.044  1.00  0.00     0.064 A 
ATOM     64  C   UNL     1       0.682  -0.899 -14.061  1.00  0.00     0.173 A 
ATOM     65  C   UNL     1       1.684  -2.845 -13.147  1.00  0.00     0.173 A 
ATOM     66  F   UNL     1       0.508   0.424 -14.171  1.00  0.00    -0.203 F 
ATOM     67  C   UNL     1       0.017  -1.683 -15.007  1.00  0.00     0.198 A 
ATOM     68  C   UNL     1       0.974  -3.638 -14.056  1.00  0.00     0.198 A 
ATOM     69  F   UNL     1       2.609  -3.474 -12.413  1.00  0.00    -0.203 F 
ATOM     70  F   UNL     1      -0.748  -1.095 -15.937  1.00  0.00    -0.200 F 
ATOM     71  C   UNL     1       0.128  -3.057 -14.976  1.00  0.00     0.200 A 
ATOM     72  F   UNL     1       1.118  -4.971 -14.029  1.00  0.00    -0.200 F 
ATOM     73  F   UNL     1      -0.551  -3.814 -15.849  1.00  0.00    -0.200 F 
ENDBRANCH  49  63
BRANCH  50  74
ATOM     74  C   UNL     1       3.209   3.570  -5.018  1.00  0.00     0.064 A 
ATOM     75  C   UNL     1       2.653   3.831  -3.753  1.00  0.00     0.173 A 
ATOM     76  C   UNL     1       4.290   2.681  -5.079  1.00  0.00     0.173 A 
ATOM     77  F   UNL     1       1.621   4.683  -3.639  1.00  0.00    -0.203 F 
ATOM     78  C   UNL     1       3.099   3.164  -2.612  1.00  0.00     0.198 A 
ATOM     79  C   UNL     1       4.729   2.009  -3.938  1.00  0.00     0.198 A 
ATOM     80  F   UNL     1       4.868   2.392  -6.254  1.00  0.00    -0.203 F 
ATOM     81  F   UNL     1       2.511   3.392  -1.429  1.00  0.00    -0.200 F 
ATOM     82  C   UNL     1       4.118   2.231  -2.712  1.00  0.00     0.200 A 
ATOM     83  F   UNL     1       5.706   1.095  -4.036  1.00  0.00    -0.200 F 
ATOM     84  F   UNL     1       4.501   1.527  -1.636  1.00  0.00    -0.200 F 
ENDBRANCH  50  74
BRANCH  62  85
ATOM     85  C   UNL     1       4.792   4.345 -11.935  1.00  0.00     0.064 A 
ATOM     86  C   UNL     1       6.061   4.863 -11.626  1.00  0.00     0.173 A 
ATOM     87  C   UNL     1       4.519   4.177 -13.313  1.00  0.00     0.173 A 
ATOM     88  F   UNL     1       6.490   4.944 -10.359  1.00  0.00    -0.203 F 
ATOM     89  C   UNL     1       6.955   5.267 -12.619  1.00  0.00     0.198 A 
ATOM     90  C   UNL     1       5.437   4.526 -14.301  1.00  0.00     0.198 A 
ATOM     91  F   UNL     1       3.363   3.646 -13.739  1.00  0.00    -0.203 F 
ATOM     92  F   UNL     1       8.132   5.805 -12.272  1.00  0.00    -0.200 F 
ATOM     93  C   UNL     1       6.646   5.092 -13.955  1.00  0.00     0.200 A 
ATOM     94  F   UNL     1       5.148   4.295 -15.589  1.00  0.00    -0.200 F 
ATOM     95  F   UNL     1       7.522   5.446 -14.905  1.00  0.00    -0.200 F 
ENDBRANCH  62  85
ENDBRANCH  36  37
ENDBRANCH  29  31
ENDBRANCH  28  29
ENDBRANCH  27  28
ENDBRANCH  26  27
ENDBRANCH   1  26
TORSDOF 17
