REMARK SMILES C[C@@]([NH2+]Cc1ccccc1Br)(C(=O)OCCOCCOC(=O)c1ccc(-c2c3nc(c(-c4c(F)c(F)c(F)c(F)c4F)c4ccc([nH]4)c(-c4c(F)c(F)c(F)c(F)c4F)c4nc(c(-c5c(F)c(F)c(F)c(F)c5F)c5ccc2[nH]5)C=C4)C=C3)cc1)C(F)(F)F
REMARK SMILES IDX 16 1 15 2 14 3 12 4 13 5 2 6 1 7 3 8 4 11 5 12 6 13 10 14
REMARK SMILES IDX 7 15 9 16 11 17 8 18 86 19 87 20 88 21 89 22 17 23 18 24
REMARK SMILES IDX 19 25 20 26 21 27 22 28 23 29 24 30 85 31 25 32 84 33 26 34
REMARK SMILES IDX 27 35 28 36 78 37 29 38 83 39 77 40 79 41 30 42 82 43 76 44
REMARK SMILES IDX 75 45 31 47 63 48 43 49 62 50 44 51 47 52 61 53 80 54 45 55
REMARK SMILES IDX 46 56 60 58 81 59 48 60 32 61 33 62 41 63 34 64 35 65 39 66
REMARK SMILES IDX 42 67 36 68 37 69 40 70 38 71 64 72 65 73 73 74 66 75 67 76
REMARK SMILES IDX 71 77 74 78 68 79 69 80 72 81 70 82 49 83 50 84 58 85 51 86
REMARK SMILES IDX 52 87 56 88 59 89 53 90 54 91 57 92 55 93
REMARK H PARENT 3 9 3 10 79 46 47 57
REMARK Flexibility Score: inf
ROOT
ATOM      1  C   UNL     1      -3.810   0.406  -0.538  1.00  0.00     0.202 C 
ENDROOT
BRANCH   1   2
ATOM      2  C   UNL     1      -3.038  -0.353  -1.622  1.00  0.00     0.261 C 
BRANCH   2   3
ATOM      3  O   UNL     1      -1.637  -0.510  -1.343  1.00  0.00    -0.458 OA
BRANCH   3   4
ATOM      4  C   UNL     1      -0.838   0.426  -1.933  1.00  0.00     0.377 C 
ATOM      5  O   UNL     1      -1.292   1.374  -2.561  1.00  0.00    -0.244 OA
BRANCH   4   6
ATOM      6  C   UNL     1       0.655   0.141  -1.774  1.00  0.00     0.287 C 
ATOM      7  C   UNL     1       0.926  -0.783  -0.562  1.00  0.00     0.103 C 
BRANCH   6   8
ATOM      8  N   UNL     1       1.204  -0.627  -2.951  1.00  0.00    -0.321 N 
ATOM      9  H   UNL     1       1.002  -1.614  -2.789  1.00  0.00     0.347 HD
ATOM     10  H   UNL     1       2.192  -0.375  -2.981  1.00  0.00     0.347 HD
BRANCH   8  11
ATOM     11  C   UNL     1       0.702  -0.293  -4.290  1.00  0.00     0.299 C 
BRANCH  11  12
ATOM     12  C   UNL     1       1.181   1.022  -4.851  1.00  0.00     0.020 A 
ATOM     13  C   UNL     1       0.255   2.070  -5.011  1.00  0.00     0.011 A 
ATOM     14  C   UNL     1       2.513   1.265  -5.222  1.00  0.00     0.026 A 
ATOM     15  C   UNL     1       0.657   3.340  -5.427  1.00  0.00     0.001 A 
ATOM     16  C   UNL     1       2.910   2.531  -5.670  1.00  0.00     0.016 A 
ATOM     17  Br  UNL     1       3.847  -0.087  -5.151  1.00  0.00    -0.050 Br
ATOM     18  C   UNL     1       1.987   3.572  -5.750  1.00  0.00     0.001 A 
ENDBRANCH  11  12
ENDBRANCH   8  11
ENDBRANCH   6   8
BRANCH   6  19
ATOM     19  C   UNL     1       1.305   1.504  -1.417  1.00  0.00     0.455 C 
ATOM     20  F   UNL     1       0.874   1.956  -0.211  1.00  0.00    -0.164 F 
ATOM     21  F   UNL     1       2.654   1.358  -1.309  1.00  0.00    -0.164 F 
ATOM     22  F   UNL     1       1.096   2.490  -2.304  1.00  0.00    -0.164 F 
ENDBRANCH   6  19
ENDBRANCH   4   6
ENDBRANCH   3   4
ENDBRANCH   2   3
ENDBRANCH   1   2
BRANCH   1  23
ATOM     23  O   UNL     1      -3.471   1.767  -0.296  1.00  0.00    -0.374 OA
BRANCH  23  24
ATOM     24  C   UNL     1      -2.288   2.053   0.449  1.00  0.00     0.202 C 
BRANCH  24  25
ATOM     25  C   UNL     1      -2.325   1.804   1.958  1.00  0.00     0.261 C 
BRANCH  25  26
ATOM     26  O   UNL     1      -2.474   0.404   2.257  1.00  0.00    -0.460 OA
BRANCH  26  27
ATOM     27  C   UNL     1      -3.652   0.084   2.835  1.00  0.00     0.338 C 
ATOM     28  O   UNL     1      -4.524   0.855   3.221  1.00  0.00    -0.246 OA
BRANCH  27  29
ATOM     29  C   UNL     1      -3.873  -1.371   2.790  1.00  0.00     0.060 A 
ATOM     30  C   UNL     1      -5.109  -1.808   2.298  1.00  0.00     0.016 A 
ATOM     31  C   UNL     1      -2.951  -2.279   3.315  1.00  0.00     0.016 A 
ATOM     32  C   UNL     1      -5.475  -3.142   2.424  1.00  0.00     0.010 A 
ATOM     33  C   UNL     1      -3.322  -3.620   3.450  1.00  0.00     0.010 A 
ATOM     34  C   UNL     1      -4.610  -4.038   3.064  1.00  0.00    -0.014 A 
BRANCH  34  35
ATOM     35  C   UNL     1      -5.164  -5.326   3.543  1.00  0.00     0.031 A 
ATOM     36  C   UNL     1      -5.639  -5.410   4.969  1.00  0.00     0.074 A 
ATOM     37  C   UNL     1      -5.324  -6.367   2.711  1.00  0.00     0.049 A 
ATOM     38  N   UNL     1      -6.201  -6.407   5.604  1.00  0.00    -0.248 NA
ATOM     39  C   UNL     1      -5.456  -4.202   5.791  1.00  0.00     0.031 C 
ATOM     40  C   UNL     1      -4.953  -6.383   1.298  1.00  0.00     0.029 A 
ATOM     41  N   UNL     1      -5.855  -7.611   2.938  1.00  0.00    -0.354 N 
ATOM     42  C   UNL     1      -6.429  -5.949   6.896  1.00  0.00     0.074 A 
ATOM     43  C   UNL     1      -5.917  -4.598   6.966  1.00  0.00     0.031 C 
ATOM     44  C   UNL     1      -5.273  -7.581   0.779  1.00  0.00     0.029 A 
ATOM     45  C   UNL     1      -5.849  -8.420   1.830  1.00  0.00     0.049 A 
ATOM     46  H   UNL     1      -6.207  -7.896   3.812  1.00  0.00     0.167 HD
ATOM     47  C   UNL     1      -7.023  -6.592   7.929  1.00  0.00     0.037 A 
ATOM     48  C   UNL     1      -6.260  -9.694   1.688  1.00  0.00     0.037 A 
ATOM     49  C   UNL     1      -7.541  -7.932   7.853  1.00  0.00     0.049 A 
ATOM     50  C   UNL     1      -6.864 -10.410   2.868  1.00  0.00     0.074 A 
ATOM     51  C   UNL     1      -8.175  -8.671   8.835  1.00  0.00     0.029 A 
ATOM     52  N   UNL     1      -7.476  -8.736   6.724  1.00  0.00    -0.354 N 
ATOM     53  N   UNL     1      -7.096  -9.965   4.079  1.00  0.00    -0.248 NA
ATOM     54  C   UNL     1      -7.270 -11.806   2.655  1.00  0.00     0.031 C 
ATOM     55  C   UNL     1      -8.451  -9.940   8.315  1.00  0.00     0.029 A 
ATOM     56  C   UNL     1      -8.039  -9.973   6.992  1.00  0.00     0.049 A 
ATOM     57  H   UNL     1      -7.088  -8.467   5.860  1.00  0.00     0.167 HD
ATOM     58  C   UNL     1      -7.708 -11.009   4.760  1.00  0.00     0.074 A 
ATOM     59  C   UNL     1      -7.815 -12.110   3.825  1.00  0.00     0.031 C 
ATOM     60  C   UNL     1      -8.149 -11.052   6.043  1.00  0.00     0.037 A 
BRANCH  47  61
ATOM     61  C   UNL     1      -7.106  -5.861   9.237  1.00  0.00     0.064 A 
ATOM     62  C   UNL     1      -7.962  -4.764   9.421  1.00  0.00     0.173 A 
ATOM     63  C   UNL     1      -6.316  -6.265  10.323  1.00  0.00     0.173 A 
ATOM     64  F   UNL     1      -8.726  -4.326   8.409  1.00  0.00    -0.203 F 
ATOM     65  C   UNL     1      -7.997  -4.078  10.633  1.00  0.00     0.198 A 
ATOM     66  C   UNL     1      -6.375  -5.595  11.543  1.00  0.00     0.198 A 
ATOM     67  F   UNL     1      -5.481  -7.308  10.201  1.00  0.00    -0.203 F 
ATOM     68  F   UNL     1      -8.779  -2.998  10.767  1.00  0.00    -0.200 F 
ATOM     69  C   UNL     1      -7.208  -4.497  11.694  1.00  0.00     0.200 A 
ATOM     70  F   UNL     1      -5.619  -6.008  12.569  1.00  0.00    -0.200 F 
ATOM     71  F   UNL     1      -7.241  -3.835  12.858  1.00  0.00    -0.200 F 
ENDBRANCH  47  61
BRANCH  48  72
ATOM     72  C   UNL     1      -6.130 -10.370   0.372  1.00  0.00     0.064 A 
ATOM     73  C   UNL     1      -7.261 -10.684  -0.393  1.00  0.00     0.173 A 
ATOM     74  C   UNL     1      -4.874 -10.717  -0.146  1.00  0.00     0.173 A 
ATOM     75  F   UNL     1      -8.485 -10.393   0.072  1.00  0.00    -0.203 F 
ATOM     76  C   UNL     1      -7.142 -11.332  -1.621  1.00  0.00     0.198 A 
ATOM     77  C   UNL     1      -4.754 -11.341  -1.386  1.00  0.00     0.198 A 
ATOM     78  F   UNL     1      -3.761 -10.438   0.548  1.00  0.00    -0.203 F 
ATOM     79  F   UNL     1      -8.242 -11.655  -2.315  1.00  0.00    -0.200 F 
ATOM     80  C   UNL     1      -5.889 -11.654  -2.119  1.00  0.00     0.200 A 
ATOM     81  F   UNL     1      -3.541 -11.641  -1.869  1.00  0.00    -0.200 F 
ATOM     82  F   UNL     1      -5.774 -12.271  -3.303  1.00  0.00    -0.200 F 
ENDBRANCH  48  72
BRANCH  60  83
ATOM     83  C   UNL     1      -8.833 -12.309   6.495  1.00  0.00     0.064 A 
ATOM     84  C   UNL     1      -8.125 -13.499   6.717  1.00  0.00     0.173 A 
ATOM     85  C   UNL     1     -10.215 -12.310   6.744  1.00  0.00     0.173 A 
ATOM     86  F   UNL     1      -6.806 -13.553   6.481  1.00  0.00    -0.203 F 
ATOM     87  C   UNL     1      -8.780 -14.651   7.143  1.00  0.00     0.198 A 
ATOM     88  C   UNL     1     -10.861 -13.455   7.199  1.00  0.00     0.198 A 
ATOM     89  F   UNL     1     -10.937 -11.195   6.556  1.00  0.00    -0.203 F 
ATOM     90  F   UNL     1      -8.092 -15.791   7.300  1.00  0.00    -0.200 F 
ATOM     91  C   UNL     1     -10.145 -14.627   7.390  1.00  0.00     0.200 A 
ATOM     92  F   UNL     1     -12.177 -13.426   7.450  1.00  0.00    -0.200 F 
ATOM     93  F   UNL     1     -10.772 -15.737   7.804  1.00  0.00    -0.200 F 
ENDBRANCH  60  83
ENDBRANCH  34  35
ENDBRANCH  27  29
ENDBRANCH  26  27
ENDBRANCH  25  26
ENDBRANCH  24  25
ENDBRANCH  23  24
ENDBRANCH   1  23
TORSDOF 18
