REMARK SMILES COc1cc(C(=O)OCCOCCOC(=O)c2ccc(-c3c4nc(c(-c5c(F)c(F)c(F)c(F)c5F)c5ccc([nH]5)c(-c5c(F)c(F)c(F)c(F)c5F)c5nc(c(-c6c(F)c(F)c(F)c(F)c6F)c6ccc3[nH]6)C=C5)C=C4)cc2)cc(OC)c1OCc1csc(C)n1
REMARK SMILES IDX 10 1 9 2 8 3 6 4 7 5 5 6 3 7 4 8 84 9 81 10 80 11 2 12 1 13
REMARK SMILES IDX 85 14 86 15 87 16 88 17 92 18 89 19 90 20 91 21 82 22 83 23
REMARK SMILES IDX 11 24 12 25 13 26 14 27 15 28 16 29 17 30 18 31 79 32 19 33
REMARK SMILES IDX 78 34 20 35 21 36 22 37 72 38 23 39 77 40 71 41 73 42 24 43
REMARK SMILES IDX 76 44 70 45 69 46 25 48 57 49 37 50 56 51 38 52 41 53 55 54
REMARK SMILES IDX 74 55 39 56 40 57 54 59 75 60 42 61 26 62 27 63 35 64 28 65
REMARK SMILES IDX 29 66 33 67 36 68 30 69 31 70 34 71 32 72 58 73 59 74 67 75
REMARK SMILES IDX 60 76 61 77 65 78 68 79 62 80 63 81 66 82 64 83 43 84 44 85
REMARK SMILES IDX 52 86 45 87 46 88 50 89 53 90 47 91 48 92 51 93 49 94
REMARK H PARENT 73 47 41 58
REMARK Flexibility Score: inf
ROOT
ATOM      1  C   UNL     1      -1.618  -6.063   5.449  1.00  0.00     0.202 C 
ENDROOT
BRANCH   1   2
ATOM      2  C   UNL     1      -1.483  -6.561   4.004  1.00  0.00     0.261 C 
BRANCH   2   3
ATOM      3  O   UNL     1      -0.423  -5.883   3.308  1.00  0.00    -0.460 OA
BRANCH   3   4
ATOM      4  C   UNL     1      -0.820  -5.036   2.326  1.00  0.00     0.338 C 
ATOM      5  O   UNL     1      -1.946  -4.903   1.875  1.00  0.00    -0.246 OA
BRANCH   4   6
ATOM      6  C   UNL     1       0.289  -4.112   2.003  1.00  0.00     0.067 A 
ATOM      7  C   UNL     1       1.026  -1.838   1.638  1.00  0.00     0.165 A 
ATOM      8  C   UNL     1       0.003  -2.744   1.919  1.00  0.00     0.066 A 
ATOM      9  C   UNL     1       2.325  -2.303   1.359  1.00  0.00     0.203 A 
ATOM     10  C   UNL     1       2.628  -3.667   1.542  1.00  0.00     0.165 A 
ATOM     11  C   UNL     1       1.601  -4.564   1.864  1.00  0.00     0.066 A 
BRANCH   7  12
ATOM     12  O   UNL     1       0.835  -0.487   1.754  1.00  0.00    -0.493 OA
ATOM     13  C   UNL     1      -0.322   0.034   1.103  1.00  0.00     0.278 C 
ENDBRANCH   7  12
BRANCH   9  14
ATOM     14  O   UNL     1       3.320  -1.498   0.871  1.00  0.00    -0.480 OA
BRANCH  14  15
ATOM     15  C   UNL     1       2.996  -0.445  -0.060  1.00  0.00     0.287 C 
BRANCH  15  16
ATOM     16  C   UNL     1       2.018  -0.743  -1.167  1.00  0.00     0.089 A 
ATOM     17  C   UNL     1       1.734  -1.956  -1.768  1.00  0.00     0.094 A 
ATOM     18  N   UNL     1       1.263   0.321  -1.655  1.00  0.00    -0.243 NA
ATOM     19  S   UNL     1       0.450  -1.778  -2.892  1.00  0.00    -0.127 S 
ATOM     20  C   UNL     1       0.387  -0.101  -2.541  1.00  0.00     0.090 A 
ATOM     21  C   UNL     1      -0.634   0.771  -3.182  1.00  0.00     0.079 C 
ENDBRANCH  15  16
ENDBRANCH  14  15
ENDBRANCH   9  14
BRANCH  10  22
ATOM     22  O   UNL     1       3.842  -4.292   1.413  1.00  0.00    -0.493 OA
ATOM     23  C   UNL     1       5.008  -3.499   1.232  1.00  0.00     0.278 C 
ENDBRANCH  10  22
ENDBRANCH   4   6
ENDBRANCH   3   4
ENDBRANCH   2   3
ENDBRANCH   1   2
BRANCH   1  24
ATOM     24  O   UNL     1      -2.010  -4.704   5.640  1.00  0.00    -0.374 OA
BRANCH  24  25
ATOM     25  C   UNL     1      -1.022  -3.697   5.426  1.00  0.00     0.202 C 
BRANCH  25  26
ATOM     26  C   UNL     1       0.002  -3.451   6.540  1.00  0.00     0.261 C 
BRANCH  26  27
ATOM     27  O   UNL     1       0.757  -4.627   6.874  1.00  0.00    -0.460 OA
BRANCH  27  28
ATOM     28  C   UNL     1       0.387  -5.207   8.041  1.00  0.00     0.338 C 
ATOM     29  O   UNL     1      -0.442  -4.805   8.840  1.00  0.00    -0.246 OA
BRANCH  28  30
ATOM     30  C   UNL     1       1.017  -6.532   8.168  1.00  0.00     0.060 A 
ATOM     31  C   UNL     1       0.172  -7.619   8.421  1.00  0.00     0.016 A 
ATOM     32  C   UNL     1       2.402  -6.705   8.119  1.00  0.00     0.016 A 
ATOM     33  C   UNL     1       0.712  -8.874   8.678  1.00  0.00     0.010 A 
ATOM     34  C   UNL     1       2.943  -7.969   8.378  1.00  0.00     0.010 A 
ATOM     35  C   UNL     1       2.102  -9.052   8.692  1.00  0.00    -0.014 A 
BRANCH  35  36
ATOM     36  C   UNL     1       2.658 -10.357   9.126  1.00  0.00     0.031 A 
ATOM     37  C   UNL     1       3.246 -10.501  10.501  1.00  0.00     0.074 A 
ATOM     38  C   UNL     1       2.595 -11.422   8.308  1.00  0.00     0.049 A 
ATOM     39  N   UNL     1       3.747 -11.561  11.085  1.00  0.00    -0.248 NA
ATOM     40  C   UNL     1       3.279  -9.286  11.327  1.00  0.00     0.031 C 
ATOM     41  C   UNL     1       2.037 -11.410   6.958  1.00  0.00     0.029 A 
ATOM     42  N   UNL     1       3.002 -12.718   8.496  1.00  0.00    -0.354 N 
ATOM     43  C   UNL     1       4.156 -11.142  12.344  1.00  0.00     0.074 A 
ATOM     44  C   UNL     1       3.885  -9.722  12.422  1.00  0.00     0.031 C 
ATOM     45  C   UNL     1       2.136 -12.643   6.436  1.00  0.00     0.029 A 
ATOM     46  C   UNL     1       2.790 -13.521   7.404  1.00  0.00     0.049 A 
ATOM     47  H   UNL     1       3.407 -13.041   9.333  1.00  0.00     0.167 HD
ATOM     48  C   UNL     1       4.696 -11.877  13.347  1.00  0.00     0.037 A 
ATOM     49  C   UNL     1       3.103 -14.815   7.202  1.00  0.00     0.037 A 
ATOM     50  C   UNL     1       4.973 -13.289  13.259  1.00  0.00     0.049 A 
ATOM     51  C   UNL     1       3.748 -15.601   8.310  1.00  0.00     0.074 A 
ATOM     52  C   UNL     1       5.485 -14.132  14.230  1.00  0.00     0.029 A 
ATOM     53  N   UNL     1       4.778 -14.065  12.124  1.00  0.00    -0.354 N 
ATOM     54  N   UNL     1       4.086 -15.212   9.516  1.00  0.00    -0.248 NA
ATOM     55  C   UNL     1       4.046 -17.013   8.031  1.00  0.00     0.031 C 
ATOM     56  C   UNL     1       5.664 -15.399  13.663  1.00  0.00     0.029 A 
ATOM     57  C   UNL     1       5.197 -15.367  12.359  1.00  0.00     0.049 A 
ATOM     58  H   UNL     1       4.398 -13.739  11.277  1.00  0.00     0.167 HD
ATOM     59  C   UNL     1       4.619 -16.329  10.145  1.00  0.00     0.074 A 
ATOM     60  C   UNL     1       4.535 -17.419   9.194  1.00  0.00     0.031 C 
ATOM     61  C   UNL     1       5.131 -16.442  11.397  1.00  0.00     0.037 A 
BRANCH  48  62
ATOM     62  C   UNL     1       5.060 -11.151  14.614  1.00  0.00     0.064 A 
ATOM     63  C   UNL     1       4.086 -10.600  15.462  1.00  0.00     0.173 A 
ATOM     64  C   UNL     1       6.405 -11.007  14.987  1.00  0.00     0.173 A 
ATOM     65  F   UNL     1       2.785 -10.699  15.150  1.00  0.00    -0.203 F 
ATOM     66  C   UNL     1       4.447  -9.893  16.607  1.00  0.00     0.198 A 
ATOM     67  C   UNL     1       6.761 -10.333  16.152  1.00  0.00     0.198 A 
ATOM     68  F   UNL     1       7.379 -11.521  14.220  1.00  0.00    -0.203 F 
ATOM     69  F   UNL     1       3.502  -9.317  17.363  1.00  0.00    -0.200 F 
ATOM     70  C   UNL     1       5.783  -9.764  16.954  1.00  0.00     0.200 A 
ATOM     71  F   UNL     1       8.052 -10.223  16.494  1.00  0.00    -0.200 F 
ATOM     72  F   UNL     1       6.129  -9.083  18.055  1.00  0.00    -0.200 F 
ENDBRANCH  48  62
BRANCH  49  73
ATOM     73  C   UNL     1       2.802 -15.439   5.888  1.00  0.00     0.064 A 
ATOM     74  C   UNL     1       1.801 -16.410   5.755  1.00  0.00     0.173 A 
ATOM     75  C   UNL     1       3.494 -15.051   4.730  1.00  0.00     0.173 A 
ATOM     76  F   UNL     1       1.128 -16.829   6.837  1.00  0.00    -0.203 F 
ATOM     77  C   UNL     1       1.506 -16.974   4.516  1.00  0.00     0.198 A 
ATOM     78  C   UNL     1       3.178 -15.593   3.487  1.00  0.00     0.198 A 
ATOM     79  F   UNL     1       4.461 -14.124   4.804  1.00  0.00    -0.203 F 
ATOM     80  F   UNL     1       0.567 -17.924   4.421  1.00  0.00    -0.200 F 
ATOM     81  C   UNL     1       2.188 -16.558   3.381  1.00  0.00     0.200 A 
ATOM     82  F   UNL     1       3.827 -15.176   2.392  1.00  0.00    -0.200 F 
ATOM     83  F   UNL     1       1.891 -17.087   2.187  1.00  0.00    -0.200 F 
ENDBRANCH  49  73
BRANCH  61  84
ATOM     84  C   UNL     1       5.630 -17.799  11.814  1.00  0.00     0.064 A 
ATOM     85  C   UNL     1       6.773 -18.376  11.238  1.00  0.00     0.173 A 
ATOM     86  C   UNL     1       4.960 -18.531  12.807  1.00  0.00     0.173 A 
ATOM     87  F   UNL     1       7.445 -17.726  10.275  1.00  0.00    -0.203 F 
ATOM     88  C   UNL     1       7.201 -19.648  11.610  1.00  0.00     0.198 A 
ATOM     89  C   UNL     1       5.413 -19.787  13.203  1.00  0.00     0.198 A 
ATOM     90  F   UNL     1       3.867 -18.027  13.399  1.00  0.00    -0.203 F 
ATOM     91  F   UNL     1       8.255 -20.204  10.997  1.00  0.00    -0.200 F 
ATOM     92  C   UNL     1       6.524 -20.350  12.596  1.00  0.00     0.200 A 
ATOM     93  F   UNL     1       4.767 -20.457  14.168  1.00  0.00    -0.200 F 
ATOM     94  F   UNL     1       6.937 -21.575  12.952  1.00  0.00    -0.200 F 
ENDBRANCH  61  84
ENDBRANCH  35  36
ENDBRANCH  28  30
ENDBRANCH  27  28
ENDBRANCH  26  27
ENDBRANCH  25  26
ENDBRANCH  24  25
ENDBRANCH   1  24
TORSDOF 19
