REMARK SMILES O=C(OCCOCCOC(=O)[C@H]1[NH2+]CC[C@H]1c1cccc(Oc2ccccc2)c1)c1ccc(-c2c3nc(c(-c4c(F)c(F)c(F)c(F)c4F)c4ccc([nH]4)c(-c4c(F)c(F)c(F)c(F)c4F)c4nc(c(-c5c(F)c(F)c(F)c(F)c5F)c5ccc2[nH]5)C=C4)C=C3)cc1
REMARK SMILES IDX 7 1 6 2 5 3 4 4 3 5 2 6 1 7 30 8 31 9 92 10 32 11 91 12
REMARK SMILES IDX 33 13 34 14 35 15 85 16 36 17 90 18 84 19 86 20 37 21 89 22
REMARK SMILES IDX 83 23 82 24 38 26 70 27 50 28 69 29 51 30 54 31 68 32 87 33
REMARK SMILES IDX 52 34 53 35 67 37 88 38 55 39 39 40 40 41 48 42 41 43 42 44
REMARK SMILES IDX 46 45 49 46 43 47 44 48 47 49 45 50 71 51 72 52 80 53 73 54
REMARK SMILES IDX 74 55 78 56 81 57 75 58 76 59 79 60 77 61 56 62 57 63 65 64
REMARK SMILES IDX 58 65 59 66 63 67 66 68 60 69 61 70 64 71 62 72 8 73 9 74
REMARK SMILES IDX 10 75 11 76 12 77 13 78 16 79 14 80 15 83 17 84 18 85 29 86
REMARK SMILES IDX 19 87 21 88 20 89 22 90 23 91 24 92 28 93 25 94 27 95 26 96
REMARK H PARENT 86 25 54 36 13 81 13 82
REMARK Flexibility Score: inf
ROOT
ATOM      1  C   UNL     1       3.441   0.702  -2.113  1.00  0.00     0.202 C 
ENDROOT
BRANCH   1   2
ATOM      2  O   UNL     1       4.794   0.508  -1.678  1.00  0.00    -0.374 OA
BRANCH   2   3
ATOM      3  C   UNL     1       5.084  -0.739  -1.033  1.00  0.00     0.202 C 
BRANCH   3   4
ATOM      4  C   UNL     1       4.739  -0.870   0.463  1.00  0.00     0.261 C 
BRANCH   4   5
ATOM      5  O   UNL     1       3.322  -0.722   0.687  1.00  0.00    -0.460 OA
BRANCH   5   6
ATOM      6  C   UNL     1       2.712   0.166   1.502  1.00  0.00     0.338 C 
ATOM      7  O   UNL     1       1.720  -0.160   2.148  1.00  0.00    -0.246 OA
BRANCH   6   8
ATOM      8  C   UNL     1       3.147   1.587   1.519  1.00  0.00     0.060 A 
ATOM      9  C   UNL     1       4.256   2.043   0.822  1.00  0.00     0.016 A 
ATOM     10  C   UNL     1       2.421   2.516   2.283  1.00  0.00     0.016 A 
ATOM     11  C   UNL     1       4.721   3.324   0.939  1.00  0.00     0.010 A 
ATOM     12  C   UNL     1       2.867   3.836   2.402  1.00  0.00     0.010 A 
ATOM     13  C   UNL     1       4.054   4.212   1.766  1.00  0.00    -0.014 A 
BRANCH  13  14
ATOM     14  C   UNL     1       4.842   5.394   2.121  1.00  0.00     0.031 A 
ATOM     15  C   UNL     1       5.597   5.340   3.414  1.00  0.00     0.074 A 
ATOM     16  C   UNL     1       5.109   6.294   1.161  1.00  0.00     0.049 A 
ATOM     17  N   UNL     1       6.410   6.213   3.938  1.00  0.00    -0.248 NA
ATOM     18  C   UNL     1       5.440   4.110   4.216  1.00  0.00     0.031 C 
ATOM     19  C   UNL     1       4.584   6.241  -0.208  1.00  0.00     0.029 A 
ATOM     20  N   UNL     1       5.946   7.370   1.157  1.00  0.00    -0.354 N 
ATOM     21  C   UNL     1       6.812   5.665   5.148  1.00  0.00     0.074 A 
ATOM     22  C   UNL     1       6.180   4.376   5.279  1.00  0.00     0.031 C 
ATOM     23  C   UNL     1       5.144   7.224  -0.929  1.00  0.00     0.029 A 
ATOM     24  C   UNL     1       5.987   8.021  -0.049  1.00  0.00     0.049 A 
ATOM     25  H   UNL     1       6.469   7.652   1.943  1.00  0.00     0.167 HD
ATOM     26  C   UNL     1       7.627   6.222   6.072  1.00  0.00     0.037 A 
ATOM     27  C   UNL     1       6.612   9.166  -0.373  1.00  0.00     0.037 A 
ATOM     28  C   UNL     1       8.239   7.507   5.876  1.00  0.00     0.049 A 
ATOM     29  C   UNL     1       7.412   9.831   0.712  1.00  0.00     0.074 A 
ATOM     30  C   UNL     1       8.996   8.257   6.752  1.00  0.00     0.029 A 
ATOM     31  N   UNL     1       8.154   8.229   4.689  1.00  0.00    -0.354 N 
ATOM     32  N   UNL     1       7.679   9.398   1.924  1.00  0.00    -0.248 NA
ATOM     33  C   UNL     1       7.974  11.148   0.405  1.00  0.00     0.031 C 
ATOM     34  C   UNL     1       9.327   9.457   6.109  1.00  0.00     0.029 A 
ATOM     35  C   UNL     1       8.828   9.429   4.813  1.00  0.00     0.049 A 
ATOM     36  H   UNL     1       7.683   7.929   3.878  1.00  0.00     0.167 HD
ATOM     37  C   UNL     1       8.451  10.378   2.523  1.00  0.00     0.074 A 
ATOM     38  C   UNL     1       8.623  11.423   1.528  1.00  0.00     0.031 C 
ATOM     39  C   UNL     1       8.969  10.424   3.777  1.00  0.00     0.037 A 
BRANCH  26  40
ATOM     40  C   UNL     1       7.762   5.499   7.381  1.00  0.00     0.064 A 
ATOM     41  C   UNL     1       8.449   4.281   7.505  1.00  0.00     0.173 A 
ATOM     42  C   UNL     1       7.103   5.994   8.517  1.00  0.00     0.173 A 
ATOM     43  F   UNL     1       9.063   3.740   6.442  1.00  0.00    -0.203 F 
ATOM     44  C   UNL     1       8.434   3.568   8.704  1.00  0.00     0.198 A 
ATOM     45  C   UNL     1       7.114   5.293   9.720  1.00  0.00     0.198 A 
ATOM     46  F   UNL     1       6.417   7.145   8.452  1.00  0.00    -0.203 F 
ATOM     47  F   UNL     1       9.028   2.368   8.776  1.00  0.00    -0.200 F 
ATOM     48  C   UNL     1       7.768   4.075   9.810  1.00  0.00     0.200 A 
ATOM     49  F   UNL     1       6.467   5.786  10.786  1.00  0.00    -0.200 F 
ATOM     50  F   UNL     1       7.735   3.377  10.954  1.00  0.00    -0.200 F 
ENDBRANCH  26  40
BRANCH  27  51
ATOM     51  C   UNL     1       6.439   9.756  -1.726  1.00  0.00     0.064 A 
ATOM     52  C   UNL     1       7.517   9.904  -2.606  1.00  0.00     0.173 A 
ATOM     53  C   UNL     1       5.172  10.163  -2.180  1.00  0.00     0.173 A 
ATOM     54  F   UNL     1       8.751   9.549  -2.219  1.00  0.00    -0.203 F 
ATOM     55  C   UNL     1       7.338  10.437  -3.883  1.00  0.00     0.198 A 
ATOM     56  C   UNL     1       4.989  10.665  -3.467  1.00  0.00     0.198 A 
ATOM     57  F   UNL     1       4.101  10.048  -1.381  1.00  0.00    -0.203 F 
ATOM     58  F   UNL     1       8.393  10.597  -4.694  1.00  0.00    -0.200 F 
ATOM     59  C   UNL     1       6.073  10.808  -4.316  1.00  0.00     0.200 A 
ATOM     60  F   UNL     1       3.761  11.004  -3.883  1.00  0.00    -0.200 F 
ATOM     61  F   UNL     1       5.901  11.307  -5.547  1.00  0.00    -0.200 F 
ENDBRANCH  27  51
BRANCH  39  62
ATOM     62  C   UNL     1       9.801  11.623   4.107  1.00  0.00     0.064 A 
ATOM     63  C   UNL     1       9.222  12.879   4.332  1.00  0.00     0.173 A 
ATOM     64  C   UNL     1      11.190  11.494   4.244  1.00  0.00     0.173 A 
ATOM     65  F   UNL     1       7.898  13.047   4.196  1.00  0.00    -0.203 F 
ATOM     66  C   UNL     1      10.013  13.974   4.659  1.00  0.00     0.198 A 
ATOM     67  C   UNL     1      11.973  12.584   4.602  1.00  0.00     0.198 A 
ATOM     68  F   UNL     1      11.783  10.306   4.045  1.00  0.00    -0.203 F 
ATOM     69  F   UNL     1       9.450  15.179   4.823  1.00  0.00    -0.200 F 
ATOM     70  C   UNL     1      11.385  13.824   4.802  1.00  0.00     0.200 A 
ATOM     71  F   UNL     1      13.296  12.434   4.755  1.00  0.00    -0.200 F 
ATOM     72  F   UNL     1      12.144  14.880   5.126  1.00  0.00    -0.200 F 
ENDBRANCH  39  62
ENDBRANCH  13  14
ENDBRANCH   6   8
ENDBRANCH   5   6
ENDBRANCH   4   5
ENDBRANCH   3   4
ENDBRANCH   2   3
ENDBRANCH   1   2
BRANCH   1  73
ATOM     73  C   UNL     1       3.268   0.524  -3.625  1.00  0.00     0.261 C 
BRANCH  73  74
ATOM     74  O   UNL     1       3.389  -0.864  -3.970  1.00  0.00    -0.459 OA
BRANCH  74  75
ATOM     75  C   UNL     1       4.666  -1.284  -4.111  1.00  0.00     0.365 C 
ATOM     76  O   UNL     1       5.629  -0.535  -4.266  1.00  0.00    -0.245 OA
BRANCH  75  77
ATOM     77  C   UNL     1       4.795  -2.802  -4.053  1.00  0.00     0.301 C 
ATOM     78  N   UNL     1       6.159  -3.175  -3.564  1.00  0.00    -0.334 N 
ATOM     79  C   UNL     1       3.782  -3.757  -3.356  1.00  0.00     0.095 C 
ATOM     80  C   UNL     1       6.045  -4.424  -2.829  1.00  0.00     0.262 C 
ATOM     81  H   UNL     1       6.518  -2.443  -2.951  1.00  0.00     0.347 HD
ATOM     82  H   UNL     1       6.800  -3.283  -4.350  1.00  0.00     0.347 HD
ATOM     83  C   UNL     1       4.697  -4.995  -3.245  1.00  0.00     0.076 C 
BRANCH  79  84
ATOM     84  C   UNL     1       3.031  -3.438  -2.049  1.00  0.00    -0.034 A 
ATOM     85  C   UNL     1       3.342  -4.048  -0.817  1.00  0.00     0.004 A 
ATOM     86  C   UNL     1       1.881  -2.611  -2.070  1.00  0.00     0.051 A 
ATOM     87  C   UNL     1       2.549  -3.865   0.321  1.00  0.00     0.004 A 
ATOM     88  C   UNL     1       1.102  -2.387  -0.918  1.00  0.00     0.127 A 
ATOM     89  C   UNL     1       1.429  -3.044   0.267  1.00  0.00     0.047 A 
BRANCH  88  90
ATOM     90  O   UNL     1      -0.048  -1.624  -0.848  1.00  0.00    -0.457 OA
BRANCH  90  91
ATOM     91  C   UNL     1      -0.120  -0.463  -1.576  1.00  0.00     0.127 A 
ATOM     92  C   UNL     1       0.067   0.765  -0.935  1.00  0.00     0.047 A 
ATOM     93  C   UNL     1      -0.545  -0.498  -2.901  1.00  0.00     0.047 A 
ATOM     94  C   UNL     1      -0.082   1.957  -1.650  1.00  0.00     0.004 A 
ATOM     95  C   UNL     1      -0.697   0.691  -3.615  1.00  0.00     0.004 A 
ATOM     96  C   UNL     1      -0.455   1.917  -2.994  1.00  0.00     0.000 A 
ENDBRANCH  90  91
ENDBRANCH  88  90
ENDBRANCH  79  84
ENDBRANCH  75  77
ENDBRANCH  74  75
ENDBRANCH  73  74
ENDBRANCH   1  73
TORSDOF 17
