REMARK SMILES CCCCN(c1ccccc1C(=O)OCCOCCOC(=O)c1ccc(-c2c3nc(c(-c4c(F)c(F)c(F)c(F)c4F)c4ccc([nH]4)c(-c4c(F)c(F)c(F)c(F)c4F)c4nc(c(-c5c(F)c(F)c(F)c(F)c5F)c5ccc2[nH]5)C=C4)C=C3)cc1)S(=O)(=O)c1ccc2c(c1)oc(=O)n2C
REMARK SMILES IDX 16 1 15 2 14 3 12 4 13 5 11 6 6 7 7 8 8 9 10 10 9 11 5 12
REMARK SMILES IDX 4 13 3 14 2 15 1 16 86 17 87 18 88 19 89 20 90 21 94 22
REMARK SMILES IDX 91 23 93 24 92 25 95 26 98 27 96 28 99 29 97 30 17 31 18 32
REMARK SMILES IDX 19 33 20 34 21 35 22 36 23 37 24 38 85 39 25 40 84 41 26 42
REMARK SMILES IDX 27 43 28 44 78 45 29 46 83 47 77 48 79 49 30 50 82 51 76 52
REMARK SMILES IDX 75 53 31 55 63 56 43 57 62 58 44 59 47 60 61 61 80 62 45 63
REMARK SMILES IDX 46 64 60 66 81 67 48 68 32 69 33 70 41 71 34 72 35 73 39 74
REMARK SMILES IDX 42 75 36 76 37 77 40 78 38 79 64 80 65 81 73 82 66 83 67 84
REMARK SMILES IDX 71 85 74 86 68 87 69 88 72 89 70 90 49 91 50 92 58 93 51 94
REMARK SMILES IDX 52 95 56 96 59 97 53 98 54 99 57 100 55 101
REMARK H PARENT 79 54 47 65
REMARK Flexibility Score: inf
ROOT
ATOM      1  C   UNL     1       2.002  -4.136  -4.123  1.00  0.00     0.202 C 
ENDROOT
BRANCH   1   2
ATOM      2  C   UNL     1       2.016  -2.629  -4.383  1.00  0.00     0.261 C 
BRANCH   2   3
ATOM      3  O   UNL     1       0.724  -2.029  -4.188  1.00  0.00    -0.460 OA
BRANCH   3   4
ATOM      4  C   UNL     1       0.318  -1.241  -5.209  1.00  0.00     0.340 C 
ATOM      5  O   UNL     1       0.960  -0.965  -6.212  1.00  0.00    -0.246 OA
BRANCH   4   6
ATOM      6  C   UNL     1      -1.088  -0.816  -5.072  1.00  0.00     0.084 A 
ATOM      7  C   UNL     1      -1.594   0.081  -4.111  1.00  0.00     0.066 A 
ATOM      8  C   UNL     1      -2.815   0.701  -4.431  1.00  0.00     0.028 A 
ATOM      9  C   UNL     1      -3.601   0.307  -5.521  1.00  0.00     0.002 A 
ATOM     10  C   UNL     1      -1.877  -1.205  -6.180  1.00  0.00     0.018 A 
ATOM     11  C   UNL     1      -3.147  -0.680  -6.378  1.00  0.00     0.001 A 
BRANCH   7  12
ATOM     12  N   UNL     1      -0.988   0.461  -2.839  1.00  0.00    -0.265 N 
BRANCH  12  13
ATOM     13  C   UNL     1       0.498   0.448  -2.678  1.00  0.00     0.136 C 
BRANCH  13  14
ATOM     14  C   UNL     1       1.116   1.624  -1.917  1.00  0.00     0.022 C 
BRANCH  14  15
ATOM     15  C   UNL     1       1.114   1.608  -0.386  1.00  0.00    -0.002 C 
ATOM     16  C   UNL     1       1.632   0.332   0.248  1.00  0.00     0.004 C 
ENDBRANCH  14  15
ENDBRANCH  13  14
ENDBRANCH  12  13
BRANCH  12  17
ATOM     17  S   UNL     1      -1.879   0.280  -1.372  1.00  0.00     0.264 S 
ATOM     18  O   UNL     1      -1.249  -0.764  -0.589  1.00  0.00    -0.201 OA
ATOM     19  O   UNL     1      -2.053   1.608  -0.818  1.00  0.00    -0.201 OA
BRANCH  17  20
ATOM     20  C   UNL     1      -3.532  -0.316  -1.686  1.00  0.00     0.091 A 
ATOM     21  C   UNL     1      -4.598   0.614  -1.784  1.00  0.00     0.025 A 
ATOM     22  C   UNL     1      -3.782  -1.692  -1.640  1.00  0.00     0.071 A 
ATOM     23  C   UNL     1      -5.915   0.178  -1.956  1.00  0.00     0.032 A 
ATOM     24  C   UNL     1      -5.096  -2.089  -1.771  1.00  0.00     0.157 A 
ATOM     25  C   UNL     1      -6.126  -1.183  -1.950  1.00  0.00     0.090 A 
ATOM     26  O   UNL     1      -5.538  -3.403  -1.745  1.00  0.00    -0.408 OA
ATOM     27  N   UNL     1      -7.266  -1.935  -2.092  1.00  0.00    -0.277 N 
ATOM     28  C   UNL     1      -6.916  -3.263  -1.963  1.00  0.00     0.419 A 
ATOM     29  C   UNL     1      -8.581  -1.462  -2.413  1.00  0.00     0.157 C 
ATOM     30  O   UNL     1      -7.679  -4.220  -2.039  1.00  0.00    -0.223 OA
ENDBRANCH  17  20
ENDBRANCH  12  17
ENDBRANCH   7  12
ENDBRANCH   4   6
ENDBRANCH   3   4
ENDBRANCH   2   3
ENDBRANCH   1   2
BRANCH   1  31
ATOM     31  O   UNL     1       1.067  -4.934  -4.840  1.00  0.00    -0.374 OA
BRANCH  31  32
ATOM     32  C   UNL     1      -0.320  -4.643  -4.713  1.00  0.00     0.202 C 
BRANCH  32  33
ATOM     33  C   UNL     1      -1.003  -4.792  -3.342  1.00  0.00     0.261 C 
BRANCH  33  34
ATOM     34  O   UNL     1      -0.347  -4.134  -2.244  1.00  0.00    -0.460 OA
BRANCH  34  35
ATOM     35  C   UNL     1       0.277  -4.981  -1.387  1.00  0.00     0.338 C 
ATOM     36  O   UNL     1       0.358  -6.195  -1.476  1.00  0.00    -0.246 OA
BRANCH  35  37
ATOM     37  C   UNL     1       1.007  -4.244  -0.340  1.00  0.00     0.060 A 
ATOM     38  C   UNL     1       2.402  -4.369  -0.299  1.00  0.00     0.016 A 
ATOM     39  C   UNL     1       0.323  -3.605   0.692  1.00  0.00     0.016 A 
ATOM     40  C   UNL     1       3.114  -3.896   0.801  1.00  0.00     0.010 A 
ATOM     41  C   UNL     1       1.041  -3.131   1.797  1.00  0.00     0.010 A 
ATOM     42  C   UNL     1       2.435  -3.311   1.877  1.00  0.00    -0.014 A 
BRANCH  42  43
ATOM     43  C   UNL     1       3.169  -3.003   3.132  1.00  0.00     0.031 A 
ATOM     44  C   UNL     1       2.972  -3.876   4.339  1.00  0.00     0.074 A 
ATOM     45  C   UNL     1       4.017  -1.962   3.194  1.00  0.00     0.049 A 
ATOM     46  N   UNL     1       3.488  -3.765   5.538  1.00  0.00    -0.248 NA
ATOM     47  C   UNL     1       2.082  -5.034   4.172  1.00  0.00     0.031 C 
ATOM     48  C   UNL     1       4.338  -1.077   2.080  1.00  0.00     0.029 A 
ATOM     49  N   UNL     1       4.745  -1.457   4.242  1.00  0.00    -0.354 N 
ATOM     50  C   UNL     1       2.980  -4.832   6.268  1.00  0.00     0.074 A 
ATOM     51  C   UNL     1       2.085  -5.556   5.389  1.00  0.00     0.031 C 
ATOM     52  C   UNL     1       5.144  -0.096   2.514  1.00  0.00     0.029 A 
ATOM     53  C   UNL     1       5.400  -0.289   3.938  1.00  0.00     0.049 A 
ATOM     54  H   UNL     1       4.793  -1.890   5.125  1.00  0.00     0.167 HD
ATOM     55  C   UNL     1       3.249  -5.182   7.549  1.00  0.00     0.037 A 
ATOM     56  C   UNL     1       6.112   0.542   4.723  1.00  0.00     0.037 A 
ATOM     57  C   UNL     1       4.143  -4.456   8.415  1.00  0.00     0.049 A 
ATOM     58  C   UNL     1       6.349   0.170   6.160  1.00  0.00     0.074 A 
ATOM     59  C   UNL     1       4.523  -4.757   9.712  1.00  0.00     0.029 A 
ATOM     60  N   UNL     1       4.782  -3.270   8.079  1.00  0.00    -0.354 N 
ATOM     61  N   UNL     1       5.915  -0.872   6.827  1.00  0.00    -0.248 NA
ATOM     62  C   UNL     1       7.199   1.073   6.946  1.00  0.00     0.031 C 
ATOM     63  C   UNL     1       5.329  -3.716  10.185  1.00  0.00     0.029 A 
ATOM     64  C   UNL     1       5.519  -2.804   9.158  1.00  0.00     0.049 A 
ATOM     65  H   UNL     1       4.722  -2.825   7.202  1.00  0.00     0.167 HD
ATOM     66  C   UNL     1       6.462  -0.769   8.098  1.00  0.00     0.074 A 
ATOM     67  C   UNL     1       7.271   0.433   8.105  1.00  0.00     0.031 C 
ATOM     68  C   UNL     1       6.314  -1.600   9.160  1.00  0.00     0.037 A 
BRANCH  55  69
ATOM     69  C   UNL     1       2.534  -6.383   8.103  1.00  0.00     0.064 A 
ATOM     70  C   UNL     1       2.791  -7.684   7.643  1.00  0.00     0.173 A 
ATOM     71  C   UNL     1       1.583  -6.228   9.125  1.00  0.00     0.173 A 
ATOM     72  F   UNL     1       3.684  -7.890   6.663  1.00  0.00    -0.203 F 
ATOM     73  C   UNL     1       2.094  -8.777   8.153  1.00  0.00     0.198 A 
ATOM     74  C   UNL     1       0.915  -7.327   9.658  1.00  0.00     0.198 A 
ATOM     75  F   UNL     1       1.304  -5.010   9.611  1.00  0.00    -0.203 F 
ATOM     76  F   UNL     1       2.311 -10.001   7.653  1.00  0.00    -0.200 F 
ATOM     77  C   UNL     1       1.161  -8.598   9.164  1.00  0.00     0.200 A 
ATOM     78  F   UNL     1       0.028  -7.154  10.647  1.00  0.00    -0.200 F 
ATOM     79  F   UNL     1       0.493  -9.651   9.655  1.00  0.00    -0.200 F 
ENDBRANCH  55  69
BRANCH  56  80
ATOM     80  C   UNL     1       6.654   1.801   4.149  1.00  0.00     0.064 A 
ATOM     81  C   UNL     1       8.027   1.975   3.939  1.00  0.00     0.173 A 
ATOM     82  C   UNL     1       5.798   2.850   3.780  1.00  0.00     0.173 A 
ATOM     83  F   UNL     1       8.886   1.007   4.292  1.00  0.00    -0.203 F 
ATOM     84  C   UNL     1       8.527   3.155   3.393  1.00  0.00     0.198 A 
ATOM     85  C   UNL     1       6.296   4.019   3.208  1.00  0.00     0.198 A 
ATOM     86  F   UNL     1       4.474   2.732   3.956  1.00  0.00    -0.203 F 
ATOM     87  F   UNL     1       9.849   3.311   3.236  1.00  0.00    -0.200 F 
ATOM     88  C   UNL     1       7.661   4.173   3.021  1.00  0.00     0.200 A 
ATOM     89  F   UNL     1       5.454   4.992   2.835  1.00  0.00    -0.200 F 
ATOM     90  F   UNL     1       8.142   5.303   2.485  1.00  0.00    -0.200 F 
ENDBRANCH  56  80
BRANCH  68  91
ATOM     91  C   UNL     1       7.069  -1.257  10.414  1.00  0.00     0.064 A 
ATOM     92  C   UNL     1       6.737  -0.141  11.198  1.00  0.00     0.173 A 
ATOM     93  C   UNL     1       8.123  -2.074  10.853  1.00  0.00     0.173 A 
ATOM     94  F   UNL     1       5.748   0.682  10.817  1.00  0.00    -0.203 F 
ATOM     95  C   UNL     1       7.454   0.163  12.353  1.00  0.00     0.198 A 
ATOM     96  C   UNL     1       8.812  -1.789  12.029  1.00  0.00     0.198 A 
ATOM     97  F   UNL     1       8.478  -3.158  10.148  1.00  0.00    -0.203 F 
ATOM     98  F   UNL     1       7.158   1.267  13.052  1.00  0.00    -0.200 F 
ATOM     99  C   UNL     1       8.485  -0.665  12.771  1.00  0.00     0.200 A 
ATOM    100  F   UNL     1       9.796  -2.600  12.440  1.00  0.00    -0.200 F 
ATOM    101  F   UNL     1       9.169  -0.375  13.887  1.00  0.00    -0.200 F 
ENDBRANCH  68  91
ENDBRANCH  42  43
ENDBRANCH  35  37
ENDBRANCH  34  35
ENDBRANCH  33  34
ENDBRANCH  32  33
ENDBRANCH  31  32
ENDBRANCH   1  31
TORSDOF 20
