REMARK SMILES C[C@](NC(=O)[C@](C)([NH3+])C(F)(F)F)(C(=O)OCCOCCOC(=O)c1ccc(-c2c3nc(c(-c4c(F)c(F)c(F)c(F)c4F)c4ccc([nH]4)c(-c4c(F)c(F)c(F)c(F)c4F)c4nc(c(-c5c(F)c(F)c(F)c(F)c5F)c5ccc2[nH]5)C=C4)C=C3)cc1)c1ccccc1
REMARK SMILES IDX 17 1 16 2 15 3 13 4 14 5 2 6 1 7 87 8 88 9 92 10 89 11 91 12
REMARK SMILES IDX 90 13 3 14 4 15 5 17 6 18 7 19 8 20 9 24 10 25 11 26 12 27
REMARK SMILES IDX 18 28 19 29 20 30 21 31 22 32 23 33 24 34 25 35 86 36 26 37
REMARK SMILES IDX 85 38 27 39 28 40 29 41 79 42 30 43 84 44 78 45 80 46 31 47
REMARK SMILES IDX 83 48 77 49 76 50 32 52 64 53 44 54 63 55 45 56 48 57 62 58
REMARK SMILES IDX 81 59 46 60 47 61 61 63 82 64 49 65 33 66 34 67 42 68 35 69
REMARK SMILES IDX 36 70 40 71 43 72 37 73 38 74 41 75 39 76 65 77 66 78 74 79
REMARK SMILES IDX 67 80 68 81 72 82 75 83 69 84 70 85 73 86 71 87 50 88 51 89
REMARK SMILES IDX 59 90 52 91 53 92 57 93 60 94 54 95 55 96 58 97 56 98
REMARK H PARENT 3 16 8 21 8 22 8 23 80 51 48 62
REMARK Flexibility Score: inf
ROOT
ATOM      1  C   UNL     1       0.336   4.114   5.074  1.00  0.00     0.202 C 
ENDROOT
BRANCH   1   2
ATOM      2  C   UNL     1      -0.953   3.891   4.220  1.00  0.00     0.261 C 
BRANCH   2   3
ATOM      3  O   UNL     1      -0.741   3.942   2.773  1.00  0.00    -0.461 OA
BRANCH   3   4
ATOM      4  C   UNL     1      -1.820   3.682   1.959  1.00  0.00     0.336 C 
ATOM      5  O   UNL     1      -2.923   3.418   2.438  1.00  0.00    -0.249 OA
BRANCH   4   6
ATOM      6  C   UNL     1      -1.581   3.863   0.307  1.00  0.00     0.161 C 
ATOM      7  C   UNL     1      -2.292   2.627  -0.325  1.00  0.00     0.053 C 
BRANCH   6   8
ATOM      8  C   UNL     1      -2.382   5.161  -0.047  1.00  0.00    -0.012 A 
ATOM      9  C   UNL     1      -1.738   6.365  -0.393  1.00  0.00     0.007 A 
ATOM     10  C   UNL     1      -3.779   5.206   0.114  1.00  0.00     0.007 A 
ATOM     11  C   UNL     1      -2.438   7.574  -0.446  1.00  0.00     0.000 A 
ATOM     12  C   UNL     1      -4.481   6.411   0.043  1.00  0.00     0.000 A 
ATOM     13  C   UNL     1      -3.805   7.600  -0.202  1.00  0.00     0.000 A 
ENDBRANCH   6   8
BRANCH   6  14
ATOM     14  N   UNL     1      -0.292   3.893  -0.521  1.00  0.00    -0.331 N 
ATOM     15  C   UNL     1       1.062   3.896  -0.319  1.00  0.00     0.291 C 
ATOM     16  H   UNL     1      -0.498   3.917  -1.483  1.00  0.00     0.165 HD
ATOM     17  O   UNL     1       1.793   3.912  -1.309  1.00  0.00    -0.267 OA
BRANCH  15  18
ATOM     18  C   UNL     1       1.590   4.022   1.084  1.00  0.00     0.267 C 
ATOM     19  C   UNL     1       1.043   5.423   1.444  1.00  0.00     0.100 C 
BRANCH  18  20
ATOM     20  N   UNL     1       3.076   4.268   1.193  1.00  0.00    -0.337 N 
ATOM     21  H   UNL     1       3.337   4.338   2.177  1.00  0.00     0.345 HD
ATOM     22  H   UNL     1       3.313   5.137   0.715  1.00  0.00     0.345 HD
ATOM     23  H   UNL     1       3.581   3.494   0.762  1.00  0.00     0.345 HD
ENDBRANCH  18  20
BRANCH  18  24
ATOM     24  C   UNL     1       1.302   2.591   1.655  1.00  0.00     0.453 C 
ATOM     25  F   UNL     1       1.478   2.514   2.991  1.00  0.00    -0.164 F 
ATOM     26  F   UNL     1       0.077   2.084   1.397  1.00  0.00    -0.164 F 
ATOM     27  F   UNL     1       2.168   1.681   1.128  1.00  0.00    -0.164 F 
ENDBRANCH  18  24
ENDBRANCH  15  18
ENDBRANCH   6  14
ENDBRANCH   4   6
ENDBRANCH   3   4
ENDBRANCH   2   3
ENDBRANCH   1   2
BRANCH   1  28
ATOM     28  O   UNL     1       0.584   5.434   5.582  1.00  0.00    -0.374 OA
BRANCH  28  29
ATOM     29  C   UNL     1       1.074   6.404   4.661  1.00  0.00     0.202 C 
BRANCH  29  30
ATOM     30  C   UNL     1       2.605   6.413   4.419  1.00  0.00     0.261 C 
BRANCH  30  31
ATOM     31  O   UNL     1       3.099   5.106   4.063  1.00  0.00    -0.460 OA
BRANCH  31  32
ATOM     32  C   UNL     1       4.306   4.772   4.573  1.00  0.00     0.338 C 
ATOM     33  O   UNL     1       5.098   5.497   5.164  1.00  0.00    -0.246 OA
BRANCH  32  34
ATOM     34  C   UNL     1       4.488   3.319   4.426  1.00  0.00     0.060 A 
ATOM     35  C   UNL     1       3.923   2.504   5.408  1.00  0.00     0.016 A 
ATOM     36  C   UNL     1       5.261   2.765   3.401  1.00  0.00     0.016 A 
ATOM     37  C   UNL     1       4.190   1.135   5.414  1.00  0.00     0.010 A 
ATOM     38  C   UNL     1       5.508   1.383   3.397  1.00  0.00     0.010 A 
ATOM     39  C   UNL     1       5.024   0.568   4.439  1.00  0.00    -0.014 A 
BRANCH  39  40
ATOM     40  C   UNL     1       5.547  -0.814   4.643  1.00  0.00     0.031 A 
ATOM     41  C   UNL     1       6.972  -0.985   5.113  1.00  0.00     0.074 A 
ATOM     42  C   UNL     1       4.765  -1.902   4.502  1.00  0.00     0.049 A 
ATOM     43  N   UNL     1       7.663  -2.082   5.307  1.00  0.00    -0.248 NA
ATOM     44  C   UNL     1       7.716   0.249   5.415  1.00  0.00     0.031 C 
ATOM     45  C   UNL     1       3.352  -1.887   4.131  1.00  0.00     0.029 A 
ATOM     46  N   UNL     1       5.057  -3.239   4.654  1.00  0.00    -0.354 N 
ATOM     47  C   UNL     1       8.923  -1.668   5.725  1.00  0.00     0.074 A 
ATOM     48  C   UNL     1       8.908  -0.223   5.749  1.00  0.00     0.031 C 
ATOM     49  C   UNL     1       2.905  -3.154   4.066  1.00  0.00     0.029 A 
ATOM     50  C   UNL     1       4.010  -4.072   4.340  1.00  0.00     0.049 A 
ATOM     51  H   UNL     1       5.934  -3.567   4.958  1.00  0.00     0.167 HD
ATOM     52  C   UNL     1       9.996  -2.424   6.062  1.00  0.00     0.037 A 
ATOM     53  C   UNL     1       3.960  -5.417   4.240  1.00  0.00     0.037 A 
ATOM     54  C   UNL     1      10.007  -3.864   6.071  1.00  0.00     0.049 A 
ATOM     55  C   UNL     1       5.199  -6.233   4.534  1.00  0.00     0.074 A 
ATOM     56  C   UNL     1      11.040  -4.713   6.431  1.00  0.00     0.029 A 
ATOM     57  N   UNL     1       8.942  -4.667   5.696  1.00  0.00    -0.354 N 
ATOM     58  N   UNL     1       6.380  -5.835   4.942  1.00  0.00    -0.248 NA
ATOM     59  C   UNL     1       5.099  -7.689   4.345  1.00  0.00     0.031 C 
ATOM     60  C   UNL     1      10.623  -6.028   6.206  1.00  0.00     0.029 A 
ATOM     61  C   UNL     1       9.308  -6.001   5.773  1.00  0.00     0.049 A 
ATOM     62  H   UNL     1       8.056  -4.338   5.417  1.00  0.00     0.167 HD
ATOM     63  C   UNL     1       7.149  -6.986   5.077  1.00  0.00     0.074 A 
ATOM     64  C   UNL     1       6.295  -8.102   4.737  1.00  0.00     0.031 C 
ATOM     65  C   UNL     1       8.449  -7.107   5.441  1.00  0.00     0.037 A 
BRANCH  52  66
ATOM     66  C   UNL     1      11.276  -1.722   6.415  1.00  0.00     0.064 A 
ATOM     67  C   UNL     1      11.440  -1.033   7.625  1.00  0.00     0.173 A 
ATOM     68  C   UNL     1      12.385  -1.817   5.559  1.00  0.00     0.173 A 
ATOM     69  F   UNL     1      10.410  -0.905   8.475  1.00  0.00    -0.203 F 
ATOM     70  C   UNL     1      12.664  -0.457   7.960  1.00  0.00     0.198 A 
ATOM     71  C   UNL     1      13.614  -1.267   5.911  1.00  0.00     0.198 A 
ATOM     72  F   UNL     1      12.285  -2.473   4.393  1.00  0.00    -0.203 F 
ATOM     73  F   UNL     1      12.791   0.221   9.109  1.00  0.00    -0.200 F 
ATOM     74  C   UNL     1      13.752  -0.584   7.109  1.00  0.00     0.200 A 
ATOM     75  F   UNL     1      14.668  -1.410   5.096  1.00  0.00    -0.200 F 
ATOM     76  F   UNL     1      14.934  -0.050   7.444  1.00  0.00    -0.200 F 
ENDBRANCH  52  66
BRANCH  53  77
ATOM     77  C   UNL     1       2.717  -6.095   3.772  1.00  0.00     0.064 A 
ATOM     78  C   UNL     1       2.023  -7.002   4.587  1.00  0.00     0.173 A 
ATOM     79  C   UNL     1       2.240  -5.905   2.465  1.00  0.00     0.173 A 
ATOM     80  F   UNL     1       2.456  -7.250   5.832  1.00  0.00    -0.203 F 
ATOM     81  C   UNL     1       0.925  -7.713   4.104  1.00  0.00     0.198 A 
ATOM     82  C   UNL     1       1.117  -6.586   1.997  1.00  0.00     0.198 A 
ATOM     83  F   UNL     1       2.870  -5.062   1.634  1.00  0.00    -0.203 F 
ATOM     84  F   UNL     1       0.329  -8.628   4.881  1.00  0.00    -0.200 F 
ATOM     85  C   UNL     1       0.469  -7.500   2.812  1.00  0.00     0.200 A 
ATOM     86  F   UNL     1       0.676  -6.369   0.751  1.00  0.00    -0.200 F 
ATOM     87  F   UNL     1      -0.583  -8.188   2.348  1.00  0.00    -0.200 F 
ENDBRANCH  53  77
BRANCH  65  88
ATOM     88  C   UNL     1       9.027  -8.493   5.518  1.00  0.00     0.064 A 
ATOM     89  C   UNL     1       9.268  -9.256   4.365  1.00  0.00     0.173 A 
ATOM     90  C   UNL     1       9.390  -9.047   6.756  1.00  0.00     0.173 A 
ATOM     91  F   UNL     1       8.929  -8.780   3.158  1.00  0.00    -0.203 F 
ATOM     92  C   UNL     1       9.825 -10.530   4.451  1.00  0.00     0.198 A 
ATOM     93  C   UNL     1       9.979 -10.306   6.835  1.00  0.00     0.198 A 
ATOM     94  F   UNL     1       9.192  -8.358   7.890  1.00  0.00    -0.203 F 
ATOM     95  F   UNL     1       9.998 -11.259   3.340  1.00  0.00    -0.200 F 
ATOM     96  C   UNL     1      10.188 -11.050   5.684  1.00  0.00     0.200 A 
ATOM     97  F   UNL     1      10.346 -10.800   8.026  1.00  0.00    -0.200 F 
ATOM     98  F   UNL     1      10.733 -12.272   5.763  1.00  0.00    -0.200 F 
ENDBRANCH  65  88
ENDBRANCH  39  40
ENDBRANCH  32  34
ENDBRANCH  31  32
ENDBRANCH  30  31
ENDBRANCH  29  30
ENDBRANCH  28  29
ENDBRANCH   1  28
TORSDOF 19
