REMARK SMILES Cc1ccc(S(=O)(=O)N2CCN(C(=O)[C@H]3CCCC[C@@H]3C(=O)OCCOCCOC(=O)c3ccc(-c4c5nc(c(-c6c(F)c(F)c(F)c(F)c6F)c6ccc([nH]6)c(-c6c(F)c(F)c(F)c(F)c6F)c6nc(c(-c7c(F)c(F)c(F)c(F)c7F)c7ccc4[nH]7)C=C6)C=C5)cc3)CC2)cc1C
REMARK SMILES IDX 25 1 24 2 23 3 21 4 22 5 20 6 15 7 16 8 17 9 19 10 18 11
REMARK SMILES IDX 13 12 9 13 10 14 96 15 11 16 95 17 12 18 14 19 6 20 7 21
REMARK SMILES IDX 8 22 5 23 1 24 2 25 3 26 98 27 4 28 97 29 99 30 26 31 27 32
REMARK SMILES IDX 28 33 29 34 30 35 31 36 32 37 33 38 94 39 34 40 93 41 35 42
REMARK SMILES IDX 36 43 37 44 87 45 38 46 92 47 86 48 88 49 39 50 91 51 85 52
REMARK SMILES IDX 84 53 40 55 72 56 52 57 71 58 53 59 56 60 70 61 89 62 54 63
REMARK SMILES IDX 55 64 69 66 90 67 57 68 41 69 42 70 50 71 43 72 44 73 48 74
REMARK SMILES IDX 51 75 45 76 46 77 49 78 47 79 73 80 74 81 82 82 75 83 76 84
REMARK SMILES IDX 80 85 83 86 77 87 78 88 81 89 79 90 58 91 59 92 67 93 60 94
REMARK SMILES IDX 61 95 65 96 68 97 62 98 63 99 66 100 64 101
REMARK H PARENT 88 54 56 65
REMARK Flexibility Score: inf
ROOT
ATOM      1  C   UNL     1      -2.491   2.048  -2.634  1.00  0.00     0.202 C 
ENDROOT
BRANCH   1   2
ATOM      2  C   UNL     1      -3.764   2.678  -3.204  1.00  0.00     0.261 C 
BRANCH   2   3
ATOM      3  O   UNL     1      -4.159   3.866  -2.517  1.00  0.00    -0.463 OA
BRANCH   3   4
ATOM      4  C   UNL     1      -5.083   3.633  -1.548  1.00  0.00     0.309 C 
ATOM      5  O   UNL     1      -5.540   2.528  -1.281  1.00  0.00    -0.252 OA
BRANCH   4   6
ATOM      6  C   UNL     1      -5.386   4.894  -0.758  1.00  0.00     0.111 C 
ATOM      7  C   UNL     1      -6.390   4.526   0.356  1.00  0.00     0.093 C 
ATOM      8  C   UNL     1      -7.786   4.254  -0.246  1.00  0.00     0.014 C 
ATOM      9  C   UNL     1      -8.275   5.362  -1.166  1.00  0.00     0.001 C 
ATOM     10  C   UNL     1      -5.895   6.029  -1.653  1.00  0.00     0.016 C 
ATOM     11  C   UNL     1      -7.263   5.717  -2.244  1.00  0.00     0.001 C 
BRANCH   7  12
ATOM     12  C   UNL     1      -6.408   5.602   1.435  1.00  0.00     0.226 C 
ATOM     13  N   UNL     1      -9.423   5.400   4.388  1.00  0.00    -0.194 NA
ATOM     14  C   UNL     1      -9.011   6.675   3.772  1.00  0.00     0.124 C 
ATOM     15  C   UNL     1      -9.202   4.196   3.559  1.00  0.00     0.124 C 
ATOM     16  C   UNL     1      -7.550   6.606   3.334  1.00  0.00     0.136 C 
ATOM     17  C   UNL     1      -7.786   4.138   2.965  1.00  0.00     0.136 C 
ATOM     18  N   UNL     1      -7.298   5.441   2.479  1.00  0.00    -0.340 N 
ATOM     19  O   UNL     1      -5.665   6.583   1.379  1.00  0.00    -0.275 OA
BRANCH  13  20
ATOM     20  S   UNL     1      -9.858   5.318   6.006  1.00  0.00     0.243 S 
ATOM     21  O   UNL     1     -10.463   4.023   6.243  1.00  0.00    -0.207 OA
ATOM     22  O   UNL     1     -10.553   6.546   6.320  1.00  0.00    -0.207 OA
BRANCH  20  23
ATOM     23  C   UNL     1      -8.342   5.342   6.939  1.00  0.00     0.082 A 
ATOM     24  C   UNL     1      -4.660   5.391   9.194  1.00  0.00     0.044 C 
ATOM     25  C   UNL     1      -5.963   5.402   8.444  1.00  0.00    -0.048 A 
ATOM     26  C   UNL     1      -5.960   4.962   7.119  1.00  0.00     0.005 A 
ATOM     27  C   UNL     1      -7.180   5.810   9.027  1.00  0.00    -0.047 A 
ATOM     28  C   UNL     1      -7.142   4.920   6.390  1.00  0.00     0.022 A 
ATOM     29  C   UNL     1      -8.363   5.795   8.258  1.00  0.00     0.025 A 
ATOM     30  C   UNL     1      -7.287   6.252  10.460  1.00  0.00     0.044 C 
ENDBRANCH  20  23
ENDBRANCH  13  20
ENDBRANCH   7  12
ENDBRANCH   4   6
ENDBRANCH   3   4
ENDBRANCH   2   3
ENDBRANCH   1   2
BRANCH   1  31
ATOM     31  O   UNL     1      -2.401   1.764  -1.243  1.00  0.00    -0.374 OA
BRANCH  31  32
ATOM     32  C   UNL     1      -2.223   2.832  -0.315  1.00  0.00     0.202 C 
BRANCH  32  33
ATOM     33  C   UNL     1      -0.923   3.648  -0.327  1.00  0.00     0.261 C 
BRANCH  33  34
ATOM     34  O   UNL     1      -0.655   4.282  -1.588  1.00  0.00    -0.460 OA
BRANCH  34  35
ATOM     35  C   UNL     1       0.384   3.736  -2.266  1.00  0.00     0.338 C 
ATOM     36  O   UNL     1       1.116   2.832  -1.899  1.00  0.00    -0.246 OA
BRANCH  35  37
ATOM     37  C   UNL     1       0.409   4.240  -3.649  1.00  0.00     0.060 A 
ATOM     38  C   UNL     1       0.327   3.289  -4.674  1.00  0.00     0.016 A 
ATOM     39  C   UNL     1       0.611   5.590  -3.939  1.00  0.00     0.016 A 
ATOM     40  C   UNL     1       0.511   3.676  -5.994  1.00  0.00     0.010 A 
ATOM     41  C   UNL     1       0.805   5.976  -5.270  1.00  0.00     0.010 A 
ATOM     42  C   UNL     1       0.800   5.013  -6.296  1.00  0.00    -0.014 A 
BRANCH  42  43
ATOM     43  C   UNL     1       1.232   5.340  -7.675  1.00  0.00     0.031 A 
ATOM     44  C   UNL     1       2.696   5.531  -7.962  1.00  0.00     0.074 A 
ATOM     45  C   UNL     1       0.335   5.363  -8.675  1.00  0.00     0.049 A 
ATOM     46  N   UNL     1       3.299   5.728  -9.107  1.00  0.00    -0.248 NA
ATOM     47  C   UNL     1       3.604   5.491  -6.804  1.00  0.00     0.031 C 
ATOM     48  C   UNL     1      -1.104   5.160  -8.517  1.00  0.00     0.029 A 
ATOM     49  N   UNL     1       0.505   5.550 -10.023  1.00  0.00    -0.354 N 
ATOM     50  C   UNL     1       4.652   5.835  -8.809  1.00  0.00     0.074 A 
ATOM     51  C   UNL     1       4.778   5.723  -7.372  1.00  0.00     0.031 C 
ATOM     52  C   UNL     1      -1.687   5.220  -9.726  1.00  0.00     0.029 A 
ATOM     53  C   UNL     1      -0.666   5.494 -10.736  1.00  0.00     0.049 A 
ATOM     54  H   UNL     1       1.383   5.708 -10.439  1.00  0.00     0.167 HD
ATOM     55  C   UNL     1       5.694   5.997  -9.659  1.00  0.00     0.037 A 
ATOM     56  C   UNL     1      -0.887   5.652 -12.054  1.00  0.00     0.037 A 
ATOM     57  C   UNL     1       5.559   6.110 -11.089  1.00  0.00     0.049 A 
ATOM     58  C   UNL     1       0.285   5.884 -12.972  1.00  0.00     0.074 A 
ATOM     59  C   UNL     1       6.552   6.262 -12.041  1.00  0.00     0.029 A 
ATOM     60  N   UNL     1       4.351   6.092 -11.774  1.00  0.00    -0.354 N 
ATOM     61  N   UNL     1       1.563   5.950 -12.686  1.00  0.00    -0.248 NA
ATOM     62  C   UNL     1      -0.019   6.047 -14.399  1.00  0.00     0.031 C 
ATOM     63  C   UNL     1       5.942   6.401 -13.293  1.00  0.00     0.029 A 
ATOM     64  C   UNL     1       4.574   6.258 -13.132  1.00  0.00     0.049 A 
ATOM     65  H   UNL     1       3.467   5.978 -11.356  1.00  0.00     0.167 HD
ATOM     66  C   UNL     1       2.218   6.127 -13.899  1.00  0.00     0.074 A 
ATOM     67  C   UNL     1       1.194   6.138 -14.923  1.00  0.00     0.031 C 
ATOM     68  C   UNL     1       3.545   6.265 -14.143  1.00  0.00     0.037 A 
BRANCH  55  69
ATOM     69  C   UNL     1       7.070   6.093  -9.064  1.00  0.00     0.064 A 
ATOM     70  C   UNL     1       7.699   4.991  -8.465  1.00  0.00     0.173 A 
ATOM     71  C   UNL     1       7.787   7.299  -9.127  1.00  0.00     0.173 A 
ATOM     72  F   UNL     1       7.056   3.818  -8.365  1.00  0.00    -0.203 F 
ATOM     73  C   UNL     1       8.980   5.100  -7.928  1.00  0.00     0.198 A 
ATOM     74  C   UNL     1       9.080   7.395  -8.620  1.00  0.00     0.198 A 
ATOM     75  F   UNL     1       7.236   8.384  -9.692  1.00  0.00    -0.203 F 
ATOM     76  F   UNL     1       9.540   4.047  -7.315  1.00  0.00    -0.200 F 
ATOM     77  C   UNL     1       9.672   6.298  -8.013  1.00  0.00     0.200 A 
ATOM     78  F   UNL     1       9.752   8.550  -8.718  1.00  0.00    -0.200 F 
ATOM     79  F   UNL     1      10.909   6.398  -7.506  1.00  0.00    -0.200 F 
ENDBRANCH  55  69
BRANCH  56  80
ATOM     80  C   UNL     1      -2.275   5.592 -12.586  1.00  0.00     0.064 A 
ATOM     81  C   UNL     1      -2.684   4.557 -13.438  1.00  0.00     0.173 A 
ATOM     82  C   UNL     1      -3.216   6.581 -12.262  1.00  0.00     0.173 A 
ATOM     83  F   UNL     1      -1.816   3.599 -13.794  1.00  0.00    -0.203 F 
ATOM     84  C   UNL     1      -3.974   4.528 -13.967  1.00  0.00     0.198 A 
ATOM     85  C   UNL     1      -4.515   6.531 -12.763  1.00  0.00     0.198 A 
ATOM     86  F   UNL     1      -2.877   7.591 -11.449  1.00  0.00    -0.203 F 
ATOM     87  F   UNL     1      -4.322   3.557 -14.822  1.00  0.00    -0.200 F 
ATOM     88  C   UNL     1      -4.889   5.511 -13.623  1.00  0.00     0.200 A 
ATOM     89  F   UNL     1      -5.401   7.474 -12.415  1.00  0.00    -0.200 F 
ATOM     90  F   UNL     1      -6.130   5.479 -14.128  1.00  0.00    -0.200 F 
ENDBRANCH  56  80
BRANCH  68  91
ATOM     91  C   UNL     1       3.969   6.388 -15.581  1.00  0.00     0.064 A 
ATOM     92  C   UNL     1       3.657   7.516 -16.355  1.00  0.00     0.173 A 
ATOM     93  C   UNL     1       4.705   5.361 -16.192  1.00  0.00     0.173 A 
ATOM     94  F   UNL     1       2.946   8.524 -15.825  1.00  0.00    -0.203 F 
ATOM     95  C   UNL     1       4.021   7.588 -17.698  1.00  0.00     0.198 A 
ATOM     96  C   UNL     1       5.103   5.454 -17.523  1.00  0.00     0.198 A 
ATOM     97  F   UNL     1       5.043   4.264 -15.496  1.00  0.00    -0.203 F 
ATOM     98  F   UNL     1       3.645   8.642 -18.436  1.00  0.00    -0.200 F 
ATOM     99  C   UNL     1       4.747   6.559 -18.279  1.00  0.00     0.200 A 
ATOM    100  F   UNL     1       5.821   4.467 -18.076  1.00  0.00    -0.200 F 
ATOM    101  F   UNL     1       5.094   6.629 -19.571  1.00  0.00    -0.200 F 
ENDBRANCH  68  91
ENDBRANCH  42  43
ENDBRANCH  35  37
ENDBRANCH  34  35
ENDBRANCH  33  34
ENDBRANCH  32  33
ENDBRANCH  31  32
ENDBRANCH   1  31
TORSDOF 17
