REMARK SMILES COC(=O)c1ccc(C)c(NC(=O)[C@H]2CC=CC[C@H]2C(=O)OCCOCCOC(=O)c2ccc(-c3c4nc(c(-c5c(F)c(F)c(F)c(F)c5F)c5ccc([nH]5)c(-c5c(F)c(F)c(F)c(F)c5F)c5nc(c(-c6c(F)c(F)c(F)c(F)c6F)c6ccc3[nH]6)C=C5)C=C4)cc2)c1
REMARK SMILES IDX 24 1 23 2 22 3 20 4 21 5 19 6 14 7 15 8 16 9 18 10 17 11
REMARK SMILES IDX 12 12 11 13 13 15 10 16 5 17 6 18 94 19 7 20 8 21 9 22 3 23
REMARK SMILES IDX 4 24 2 25 1 26 25 27 26 28 27 29 28 30 29 31 30 32 31 33
REMARK SMILES IDX 32 34 93 35 33 36 92 37 34 38 35 39 36 40 86 41 37 42 91 43
REMARK SMILES IDX 85 44 87 45 38 46 90 47 84 48 83 49 39 51 71 52 51 53 70 54
REMARK SMILES IDX 52 55 55 56 69 57 88 58 53 59 54 60 68 62 89 63 56 64 40 65
REMARK SMILES IDX 41 66 49 67 42 68 43 69 47 70 50 71 44 72 45 73 48 74 46 75
REMARK SMILES IDX 72 76 73 77 81 78 74 79 75 80 79 81 82 82 76 83 77 84 80 85
REMARK SMILES IDX 78 86 57 87 58 88 66 89 59 90 60 91 64 92 67 93 61 94 62 95
REMARK SMILES IDX 65 96 63 97
REMARK H PARENT 11 14 87 50 55 61
REMARK Flexibility Score: inf
ROOT
ATOM      1  C   UNL     1       5.245   1.136   4.215  1.00  0.00     0.202 C 
ENDROOT
BRANCH   1   2
ATOM      2  C   UNL     1       5.567   0.767   2.788  1.00  0.00     0.261 C 
BRANCH   2   3
ATOM      3  O   UNL     1       6.935   0.490   2.484  1.00  0.00    -0.463 OA
BRANCH   3   4
ATOM      4  C   UNL     1       7.753  -0.021   3.424  1.00  0.00     0.310 C 
ATOM      5  O   UNL     1       7.812   0.324   4.604  1.00  0.00    -0.252 OA
BRANCH   4   6
ATOM      6  C   UNL     1       8.695  -1.020   2.840  1.00  0.00     0.116 C 
ATOM      7  C   UNL     1       8.050  -2.072   1.902  1.00  0.00     0.097 C 
ATOM      8  C   UNL     1       9.135  -2.913   1.193  1.00  0.00     0.041 C 
ATOM      9  C   UNL     1      10.467  -2.250   0.980  1.00  0.00    -0.030 C 
ATOM     10  C   UNL     1       9.889  -0.230   2.307  1.00  0.00     0.043 C 
ATOM     11  C   UNL     1      10.805  -1.052   1.470  1.00  0.00    -0.030 C 
BRANCH   7  12
ATOM     12  C   UNL     1       7.027  -1.604   0.868  1.00  0.00     0.228 C 
ATOM     13  N   UNL     1       5.673  -1.796   0.859  1.00  0.00    -0.326 N 
ATOM     14  H   UNL     1       5.314  -1.335   0.067  1.00  0.00     0.169 HD
ATOM     15  O   UNL     1       7.433  -0.910  -0.079  1.00  0.00    -0.274 OA
BRANCH  13  16
ATOM     16  C   UNL     1       4.572  -2.398   1.541  1.00  0.00     0.044 A 
ATOM     17  C   UNL     1       2.073  -2.194   1.758  1.00  0.00     0.062 A 
ATOM     18  C   UNL     1       2.099  -3.247   2.671  1.00  0.00     0.016 A 
ATOM     19  C   UNL     1       3.300  -1.828   1.163  1.00  0.00     0.042 A 
ATOM     20  C   UNL     1       3.309  -3.809   3.066  1.00  0.00     0.006 A 
ATOM     21  C   UNL     1       4.555  -3.378   2.546  1.00  0.00    -0.027 A 
ATOM     22  C   UNL     1       5.736  -4.006   3.216  1.00  0.00     0.046 C 
BRANCH  17  23
ATOM     23  C   UNL     1       0.807  -1.372   1.786  1.00  0.00     0.337 C 
ATOM     24  O   UNL     1       0.075  -1.501   2.769  1.00  0.00    -0.246 OA
BRANCH  23  25
ATOM     25  O   UNL     1       0.481  -0.450   0.860  1.00  0.00    -0.465 OA
ATOM     26  C   UNL     1       0.969  -0.386  -0.476  1.00  0.00     0.282 C 
ENDBRANCH  23  25
ENDBRANCH  17  23
ENDBRANCH  13  16
ENDBRANCH   7  12
ENDBRANCH   4   6
ENDBRANCH   3   4
ENDBRANCH   2   3
ENDBRANCH   1   2
BRANCH   1  27
ATOM     27  O   UNL     1       5.188   0.136   5.200  1.00  0.00    -0.374 OA
BRANCH  27  28
ATOM     28  C   UNL     1       4.124  -0.789   5.212  1.00  0.00     0.202 C 
BRANCH  28  29
ATOM     29  C   UNL     1       2.848  -0.491   4.418  1.00  0.00     0.261 C 
BRANCH  29  30
ATOM     30  O   UNL     1       2.167   0.695   4.847  1.00  0.00    -0.460 OA
BRANCH  30  31
ATOM     31  C   UNL     1       1.936   1.655   3.895  1.00  0.00     0.338 C 
ATOM     32  O   UNL     1       1.926   1.480   2.688  1.00  0.00    -0.246 OA
BRANCH  31  33
ATOM     33  C   UNL     1       2.239   2.989   4.526  1.00  0.00     0.060 A 
ATOM     34  C   UNL     1       2.836   3.939   3.682  1.00  0.00     0.016 A 
ATOM     35  C   UNL     1       2.595   2.970   5.870  1.00  0.00     0.016 A 
ATOM     36  C   UNL     1       4.048   4.533   4.064  1.00  0.00     0.010 A 
ATOM     37  C   UNL     1       3.819   3.525   6.220  1.00  0.00     0.010 A 
ATOM     38  C   UNL     1       4.643   4.163   5.269  1.00  0.00    -0.014 A 
BRANCH  38  39
ATOM     39  C   UNL     1       6.121   4.168   5.481  1.00  0.00     0.031 A 
ATOM     40  C   UNL     1       6.639   4.305   6.847  1.00  0.00     0.074 A 
ATOM     41  C   UNL     1       7.080   3.896   4.558  1.00  0.00     0.049 A 
ATOM     42  N   UNL     1       7.209   5.372   7.310  1.00  0.00    -0.248 NA
ATOM     43  C   UNL     1       6.472   3.217   7.814  1.00  0.00     0.031 C 
ATOM     44  C   UNL     1       8.485   3.582   4.827  1.00  0.00     0.029 A 
ATOM     45  N   UNL     1       6.977   3.749   3.174  1.00  0.00    -0.354 N 
ATOM     46  C   UNL     1       7.646   5.001   8.563  1.00  0.00     0.074 A 
ATOM     47  C   UNL     1       6.846   3.844   8.928  1.00  0.00     0.031 C 
ATOM     48  C   UNL     1       9.156   3.491   3.667  1.00  0.00     0.029 A 
ATOM     49  C   UNL     1       8.252   3.834   2.586  1.00  0.00     0.049 A 
ATOM     50  H   UNL     1       6.137   3.607   2.681  1.00  0.00     0.167 HD
ATOM     51  C   UNL     1       8.944   5.165   8.963  1.00  0.00     0.037 A 
ATOM     52  C   UNL     1       8.462   4.736   1.586  1.00  0.00     0.037 A 
ATOM     53  C   UNL     1       9.854   5.399   7.833  1.00  0.00     0.049 A 
ATOM     54  C   UNL     1       9.161   5.950   2.142  1.00  0.00     0.074 A 
ATOM     55  C   UNL     1      10.896   4.675   7.269  1.00  0.00     0.029 A 
ATOM     56  N   UNL     1       9.592   6.405   6.921  1.00  0.00    -0.354 N 
ATOM     57  N   UNL     1       9.788   5.947   3.285  1.00  0.00    -0.248 NA
ATOM     58  C   UNL     1       9.131   7.276   1.532  1.00  0.00     0.031 C 
ATOM     59  C   UNL     1      11.313   5.332   6.073  1.00  0.00     0.029 A 
ATOM     60  C   UNL     1      10.526   6.456   5.904  1.00  0.00     0.049 A 
ATOM     61  H   UNL     1       8.825   7.019   6.990  1.00  0.00     0.167 HD
ATOM     62  C   UNL     1      10.039   7.229   3.668  1.00  0.00     0.074 A 
ATOM     63  C   UNL     1       9.676   8.026   2.507  1.00  0.00     0.031 C 
ATOM     64  C   UNL     1      10.445   7.540   4.934  1.00  0.00     0.037 A 
BRANCH  51  65
ATOM     65  C   UNL     1       9.405   4.757  10.353  1.00  0.00     0.064 A 
ATOM     66  C   UNL     1      10.772   4.648  10.670  1.00  0.00     0.173 A 
ATOM     67  C   UNL     1       8.533   4.534  11.444  1.00  0.00     0.173 A 
ATOM     68  F   UNL     1      11.722   4.998   9.794  1.00  0.00    -0.203 F 
ATOM     69  C   UNL     1      11.220   4.221  11.923  1.00  0.00     0.198 A 
ATOM     70  C   UNL     1       8.974   4.045  12.677  1.00  0.00     0.198 A 
ATOM     71  F   UNL     1       7.227   4.835  11.370  1.00  0.00    -0.203 F 
ATOM     72  F   UNL     1      12.536   4.154  12.167  1.00  0.00    -0.200 F 
ATOM     73  C   UNL     1      10.321   3.883  12.915  1.00  0.00     0.200 A 
ATOM     74  F   UNL     1       8.084   3.753  13.636  1.00  0.00    -0.200 F 
ATOM     75  F   UNL     1      10.753   3.452  14.107  1.00  0.00    -0.200 F 
ENDBRANCH  51  65
BRANCH  52  76
ATOM     76  C   UNL     1       7.356   4.673   0.582  1.00  0.00     0.064 A 
ATOM     77  C   UNL     1       7.386   3.581  -0.312  1.00  0.00     0.173 A 
ATOM     78  C   UNL     1       6.109   5.268   0.822  1.00  0.00     0.173 A 
ATOM     79  F   UNL     1       8.555   2.987  -0.597  1.00  0.00    -0.203 F 
ATOM     80  C   UNL     1       6.212   3.012  -0.807  1.00  0.00     0.198 A 
ATOM     81  C   UNL     1       4.933   4.682   0.340  1.00  0.00     0.198 A 
ATOM     82  F   UNL     1       6.008   6.303   1.669  1.00  0.00    -0.203 F 
ATOM     83  F   UNL     1       6.261   1.904  -1.560  1.00  0.00    -0.200 F 
ATOM     84  C   UNL     1       4.984   3.534  -0.438  1.00  0.00     0.200 A 
ATOM     85  F   UNL     1       3.742   5.165   0.721  1.00  0.00    -0.200 F 
ATOM     86  F   UNL     1       3.854   2.899  -0.784  1.00  0.00    -0.200 F 
ENDBRANCH  52  76
BRANCH  64  87
ATOM     87  C   UNL     1      10.755   8.946   5.358  1.00  0.00     0.064 A 
ATOM     88  C   UNL     1      11.492   9.812   4.536  1.00  0.00     0.173 A 
ATOM     89  C   UNL     1      10.416   9.444   6.635  1.00  0.00     0.173 A 
ATOM     90  F   UNL     1      11.962   9.399   3.349  1.00  0.00    -0.203 F 
ATOM     91  C   UNL     1      11.777  11.120   4.923  1.00  0.00     0.198 A 
ATOM     92  C   UNL     1      10.760  10.728   7.044  1.00  0.00     0.198 A 
ATOM     93  F   UNL     1       9.718   8.722   7.520  1.00  0.00    -0.203 F 
ATOM     94  F   UNL     1      12.407  11.940   4.071  1.00  0.00    -0.200 F 
ATOM     95  C   UNL     1      11.414  11.577   6.177  1.00  0.00     0.200 A 
ATOM     96  F   UNL     1      10.438  11.137   8.279  1.00  0.00    -0.200 F 
ATOM     97  F   UNL     1      11.692  12.832   6.550  1.00  0.00    -0.200 F 
ENDBRANCH  64  87
ENDBRANCH  38  39
ENDBRANCH  31  33
ENDBRANCH  30  31
ENDBRANCH  29  30
ENDBRANCH  28  29
ENDBRANCH  27  28
ENDBRANCH   1  27
TORSDOF 18
