REMARK SMILES Cc1cc(C(=O)OCCOCCOC(=O)c2ccc(-c3c4nc(c(-c5c(F)c(F)c(F)c(F)c5F)c5ccc([nH]5)c(-c5c(F)c(F)c(F)c(F)c5F)c5nc(c(-c6c(F)c(F)c(F)c(F)c6F)c6ccc3[nH]6)C=C5)C=C4)cc2)ccc1NS(=O)(=O)c1c(F)cccc1F
REMARK SMILES IDX 9 1 8 2 7 3 5 4 6 5 4 6 1 7 2 8 3 9 81 10 80 11 79 12 82 13
REMARK SMILES IDX 83 15 84 16 85 17 86 18 87 19 92 20 88 21 89 22 91 23 93 24
REMARK SMILES IDX 90 25 10 26 11 27 12 28 13 29 14 30 15 31 16 32 17 33 78 34
REMARK SMILES IDX 18 35 77 36 19 37 20 38 21 39 71 40 22 41 76 42 70 43 72 44
REMARK SMILES IDX 23 45 75 46 69 47 68 48 24 50 56 51 36 52 55 53 37 54 40 55
REMARK SMILES IDX 54 56 73 57 38 58 39 59 53 61 74 62 41 63 25 64 26 65 34 66
REMARK SMILES IDX 27 67 28 68 32 69 35 70 29 71 30 72 33 73 31 74 57 75 58 76
REMARK SMILES IDX 66 77 59 78 60 79 64 80 67 81 61 82 62 83 65 84 63 85 42 86
REMARK SMILES IDX 43 87 51 88 44 89 45 90 49 91 52 92 46 93 47 94 50 95 48 96
REMARK H PARENT 82 14 72 49 40 60
REMARK Flexibility Score: inf
ROOT
ATOM      1  C   UNL     1      -2.933  -2.264  -2.436  1.00  0.00     0.202 C 
ENDROOT
BRANCH   1   2
ATOM      2  C   UNL     1      -3.395  -2.052  -1.027  1.00  0.00     0.261 C 
BRANCH   2   3
ATOM      3  O   UNL     1      -2.478  -1.265  -0.235  1.00  0.00    -0.460 OA
BRANCH   3   4
ATOM      4  C   UNL     1      -1.372  -1.847   0.330  1.00  0.00     0.338 C 
ATOM      5  O   UNL     1      -1.045  -2.999   0.356  1.00  0.00    -0.246 OA
BRANCH   4   6
ATOM      6  C   UNL     1      -0.528  -0.727   0.791  1.00  0.00     0.060 A 
ATOM      7  C   UNL     1       2.878   0.498  -0.237  1.00  0.00     0.046 C 
ATOM      8  C   UNL     1       1.465   0.509   0.268  1.00  0.00    -0.026 A 
ATOM      9  C   UNL     1       0.796  -0.714   0.366  1.00  0.00     0.021 A 
ATOM     10  C   UNL     1       0.753   1.683   0.580  1.00  0.00     0.052 A 
ATOM     11  C   UNL     1      -0.402   1.597   1.358  1.00  0.00     0.028 A 
ATOM     12  C   UNL     1      -1.083   0.389   1.414  1.00  0.00     0.018 A 
BRANCH  10  13
ATOM     13  N   UNL     1       1.054   2.858  -0.171  1.00  0.00    -0.279 N 
ATOM     14  H   UNL     1       1.828   2.806  -0.777  1.00  0.00     0.180 HD
BRANCH  13  15
ATOM     15  S   UNL     1       0.231   4.315  -0.133  1.00  0.00     0.267 S 
ATOM     16  O   UNL     1       0.422   4.834   1.206  1.00  0.00    -0.201 OA
ATOM     17  O   UNL     1       0.689   5.045  -1.296  1.00  0.00    -0.201 OA
BRANCH  15  18
ATOM     18  C   UNL     1      -1.495   4.053  -0.357  1.00  0.00     0.158 A 
ATOM     19  C   UNL     1      -2.357   4.972   0.236  1.00  0.00     0.146 A 
ATOM     20  C   UNL     1      -2.032   2.917  -0.945  1.00  0.00     0.146 A 
ATOM     21  F   UNL     1      -1.899   6.126   0.738  1.00  0.00    -0.205 F 
ATOM     22  C   UNL     1      -3.725   4.721   0.330  1.00  0.00     0.041 A 
ATOM     23  C   UNL     1      -3.401   2.639  -0.832  1.00  0.00     0.041 A 
ATOM     24  F   UNL     1      -1.266   2.029  -1.593  1.00  0.00    -0.205 F 
ATOM     25  C   UNL     1      -4.247   3.533  -0.175  1.00  0.00     0.006 A 
ENDBRANCH  15  18
ENDBRANCH  13  15
ENDBRANCH  10  13
ENDBRANCH   4   6
ENDBRANCH   3   4
ENDBRANCH   2   3
ENDBRANCH   1   2
BRANCH   1  26
ATOM     26  O   UNL     1      -1.833  -3.151  -2.342  1.00  0.00    -0.374 OA
BRANCH  26  27
ATOM     27  C   UNL     1      -1.148  -3.402  -3.552  1.00  0.00     0.202 C 
BRANCH  27  28
ATOM     28  C   UNL     1      -2.029  -4.081  -4.608  1.00  0.00     0.261 C 
BRANCH  28  29
ATOM     29  O   UNL     1      -2.455  -5.374  -4.127  1.00  0.00    -0.460 OA
BRANCH  29  30
ATOM     30  C   UNL     1      -3.737  -5.449  -3.675  1.00  0.00     0.338 C 
ATOM     31  O   UNL     1      -4.722  -5.051  -4.275  1.00  0.00    -0.246 OA
BRANCH  30  32
ATOM     32  C   UNL     1      -3.738  -5.814  -2.228  1.00  0.00     0.060 A 
ATOM     33  C   UNL     1      -4.909  -5.659  -1.460  1.00  0.00     0.016 A 
ATOM     34  C   UNL     1      -2.512  -5.980  -1.591  1.00  0.00     0.016 A 
ATOM     35  C   UNL     1      -4.824  -5.497  -0.068  1.00  0.00     0.010 A 
ATOM     36  C   UNL     1      -2.427  -5.707  -0.244  1.00  0.00     0.010 A 
ATOM     37  C   UNL     1      -3.568  -5.424   0.526  1.00  0.00    -0.014 A 
BRANCH  37  38
ATOM     38  C   UNL     1      -3.269  -4.981   1.894  1.00  0.00     0.031 A 
ATOM     39  C   UNL     1      -2.506  -5.909   2.767  1.00  0.00     0.074 A 
ATOM     40  C   UNL     1      -3.384  -3.674   2.251  1.00  0.00     0.049 A 
ATOM     41  N   UNL     1      -2.205  -5.646   3.989  1.00  0.00    -0.248 NA
ATOM     42  C   UNL     1      -2.039  -7.237   2.363  1.00  0.00     0.031 C 
ATOM     43  C   UNL     1      -2.634  -2.953   3.288  1.00  0.00     0.029 A 
ATOM     44  N   UNL     1      -4.203  -2.660   1.726  1.00  0.00    -0.354 N 
ATOM     45  C   UNL     1      -1.261  -6.549   4.405  1.00  0.00     0.074 A 
ATOM     46  C   UNL     1      -1.287  -7.590   3.412  1.00  0.00     0.031 C 
ATOM     47  C   UNL     1      -3.219  -1.768   3.534  1.00  0.00     0.029 A 
ATOM     48  C   UNL     1      -4.438  -1.726   2.748  1.00  0.00     0.049 A 
ATOM     49  H   UNL     1      -4.550  -2.614   0.806  1.00  0.00     0.167 HD
ATOM     50  C   UNL     1      -0.510  -6.217   5.492  1.00  0.00     0.037 A 
ATOM     51  C   UNL     1      -5.700  -1.471   3.181  1.00  0.00     0.037 A 
ATOM     52  C   UNL     1      -1.072  -5.023   6.143  1.00  0.00     0.049 A 
ATOM     53  C   UNL     1      -5.781  -1.910   4.609  1.00  0.00     0.074 A 
ATOM     54  C   UNL     1      -0.671  -3.703   6.245  1.00  0.00     0.029 A 
ATOM     55  N   UNL     1      -2.409  -5.056   6.550  1.00  0.00    -0.354 N 
ATOM     56  N   UNL     1      -4.989  -2.829   5.094  1.00  0.00    -0.248 NA
ATOM     57  C   UNL     1      -6.610  -1.277   5.625  1.00  0.00     0.031 C 
ATOM     58  C   UNL     1      -1.815  -2.933   6.619  1.00  0.00     0.029 A 
ATOM     59  C   UNL     1      -2.898  -3.786   6.786  1.00  0.00     0.049 A 
ATOM     60  H   UNL     1      -2.936  -5.881   6.655  1.00  0.00     0.167 HD
ATOM     61  C   UNL     1      -5.087  -2.829   6.447  1.00  0.00     0.074 A 
ATOM     62  C   UNL     1      -6.156  -1.887   6.735  1.00  0.00     0.031 C 
ATOM     63  C   UNL     1      -4.274  -3.582   7.238  1.00  0.00     0.037 A 
BRANCH  50  64
ATOM     64  C   UNL     1       0.797  -6.862   5.913  1.00  0.00     0.064 A 
ATOM     65  C   UNL     1       1.433  -6.450   7.106  1.00  0.00     0.173 A 
ATOM     66  C   UNL     1       1.525  -7.816   5.168  1.00  0.00     0.173 A 
ATOM     67  F   UNL     1       0.876  -5.532   7.908  1.00  0.00    -0.203 F 
ATOM     68  C   UNL     1       2.675  -6.954   7.516  1.00  0.00     0.198 A 
ATOM     69  C   UNL     1       2.742  -8.354   5.602  1.00  0.00     0.198 A 
ATOM     70  F   UNL     1       1.130  -8.234   3.963  1.00  0.00    -0.203 F 
ATOM     71  F   UNL     1       3.245  -6.489   8.636  1.00  0.00    -0.200 F 
ATOM     72  C   UNL     1       3.322  -7.918   6.771  1.00  0.00     0.200 A 
ATOM     73  F   UNL     1       3.357  -9.287   4.859  1.00  0.00    -0.200 F 
ATOM     74  F   UNL     1       4.504  -8.410   7.167  1.00  0.00    -0.200 F 
ENDBRANCH  50  64
BRANCH  51  75
ATOM     75  C   UNL     1      -6.691  -1.574   2.071  1.00  0.00     0.064 A 
ATOM     76  C   UNL     1      -6.619  -0.565   1.082  1.00  0.00     0.173 A 
ATOM     77  C   UNL     1      -7.248  -2.803   1.685  1.00  0.00     0.173 A 
ATOM     78  F   UNL     1      -6.071   0.626   1.380  1.00  0.00    -0.203 F 
ATOM     79  C   UNL     1      -6.933  -0.824  -0.253  1.00  0.00     0.198 A 
ATOM     80  C   UNL     1      -7.565  -3.055   0.343  1.00  0.00     0.198 A 
ATOM     81  F   UNL     1      -7.333  -3.811   2.564  1.00  0.00    -0.203 F 
ATOM     82  F   UNL     1      -6.681   0.104  -1.189  1.00  0.00    -0.200 F 
ATOM     83  C   UNL     1      -7.363  -2.084  -0.627  1.00  0.00     0.200 A 
ATOM     84  F   UNL     1      -7.960  -4.281  -0.032  1.00  0.00    -0.200 F 
ATOM     85  F   UNL     1      -7.511  -2.381  -1.927  1.00  0.00    -0.200 F 
ENDBRANCH  51  75
BRANCH  63  86
ATOM     86  C   UNL     1      -4.738  -4.132   8.554  1.00  0.00     0.064 A 
ATOM     87  C   UNL     1      -6.100  -4.290   8.874  1.00  0.00     0.173 A 
ATOM     88  C   UNL     1      -3.824  -4.706   9.463  1.00  0.00     0.173 A 
ATOM     89  F   UNL     1      -7.071  -3.927   8.025  1.00  0.00    -0.203 F 
ATOM     90  C   UNL     1      -6.513  -4.889  10.059  1.00  0.00     0.198 A 
ATOM     91  C   UNL     1      -4.245  -5.373  10.609  1.00  0.00     0.198 A 
ATOM     92  F   UNL     1      -2.501  -4.678   9.246  1.00  0.00    -0.203 F 
ATOM     93  F   UNL     1      -7.821  -4.957  10.342  1.00  0.00    -0.200 F 
ATOM     94  C   UNL     1      -5.588  -5.440  10.921  1.00  0.00     0.200 A 
ATOM     95  F   UNL     1      -3.342  -5.973  11.396  1.00  0.00    -0.200 F 
ATOM     96  F   UNL     1      -5.991  -6.058  12.038  1.00  0.00    -0.200 F 
ENDBRANCH  63  86
ENDBRANCH  37  38
ENDBRANCH  30  32
ENDBRANCH  29  30
ENDBRANCH  28  29
ENDBRANCH  27  28
ENDBRANCH  26  27
ENDBRANCH   1  26
TORSDOF 17
