REMARK SMILES Cc1ccc2[nH]c3c(=O)n(CC(=O)OCCOCCOC(=O)c4ccc(-c5c6nc(c(-c7c(F)c(F)c(F)c(F)c7F)c7ccc([nH]7)c(-c7c(F)c(F)c(F)c(F)c7F)c7nc(c(-c8c(F)c(F)c(F)c(F)c8F)c8ccc5[nH]8)C=C7)C=C6)cc4)cnc3c2c1
REMARK SMILES IDX 18 1 17 2 16 3 15 4 14 5 12 6 13 7 11 8 10 9 1 10 2 11 3 12
REMARK SMILES IDX 90 13 4 14 89 15 5 16 88 17 6 18 7 19 87 20 8 22 86 23 9 24
REMARK SMILES IDX 19 25 20 26 21 27 22 28 23 29 24 30 85 31 25 32 84 33 26 34
REMARK SMILES IDX 27 35 28 36 78 37 29 38 83 39 77 40 79 41 30 42 82 43 76 44
REMARK SMILES IDX 75 45 31 47 63 48 43 49 62 50 44 51 47 52 61 53 80 54 45 55
REMARK SMILES IDX 46 56 60 58 81 59 48 60 32 61 33 62 41 63 34 64 35 65 39 66
REMARK SMILES IDX 42 67 36 68 37 69 40 70 38 71 64 72 65 73 73 74 66 75 67 76
REMARK SMILES IDX 71 77 74 78 68 79 69 80 72 81 70 82 49 83 50 84 58 85 51 86
REMARK SMILES IDX 52 87 56 88 59 89 53 90 54 91 57 92 55 93
REMARK H PARENT 6 21 79 46 47 57
REMARK Flexibility Score: inf
ROOT
ATOM      1  C   UNL     1      -1.479  -9.603  -0.516  1.00  0.00     0.202 C 
ENDROOT
BRANCH   1   2
ATOM      2  O   UNL     1      -1.835 -10.833   0.111  1.00  0.00    -0.374 OA
BRANCH   2   3
ATOM      3  C   UNL     1      -1.633 -10.914   1.512  1.00  0.00     0.202 C 
BRANCH   3   4
ATOM      4  C   UNL     1      -0.213 -10.866   2.094  1.00  0.00     0.261 C 
BRANCH   4   5
ATOM      5  O   UNL     1       0.618  -9.835   1.531  1.00  0.00    -0.462 OA
BRANCH   5   6
ATOM      6  C   UNL     1       1.661 -10.302   0.797  1.00  0.00     0.326 C 
ATOM      7  O   UNL     1       1.981 -11.486   0.727  1.00  0.00    -0.250 OA
BRANCH   6   8
ATOM      8  C   UNL     1       2.458  -9.229   0.061  1.00  0.00     0.249 C 
BRANCH   8   9
ATOM      9  N   UNL     1       1.996  -7.843   0.039  1.00  0.00    -0.286 N 
ATOM     10  C   UNL     1       1.007  -0.087   0.028  1.00  0.00     0.044 C 
ATOM     11  C   UNL     1       0.598  -1.475  -0.371  1.00  0.00    -0.050 A 
ATOM     12  C   UNL     1      -0.488  -1.668  -1.231  1.00  0.00     0.005 A 
ATOM     13  C   UNL     1       1.295  -2.587   0.138  1.00  0.00     0.016 A 
ATOM     14  C   UNL     1      -0.841  -2.942  -1.686  1.00  0.00     0.027 A 
ATOM     15  C   UNL     1       0.961  -3.882  -0.304  1.00  0.00     0.026 A 
ATOM     16  C   UNL     1      -0.069  -4.022  -1.245  1.00  0.00     0.048 A 
ATOM     17  C   UNL     1       1.420  -5.193  -0.034  1.00  0.00     0.103 A 
ATOM     18  N   UNL     1      -0.118  -5.353  -1.606  1.00  0.00    -0.349 N 
ATOM     19  C   UNL     1       0.813  -6.058  -0.897  1.00  0.00     0.132 A 
ATOM     20  N   UNL     1       2.354  -5.621   0.912  1.00  0.00    -0.236 NA
ATOM     21  H   UNL     1      -0.732  -5.736  -2.273  1.00  0.00     0.167 HD
ATOM     22  C   UNL     1       1.151  -7.433  -0.981  1.00  0.00     0.278 A 
ATOM     23  C   UNL     1       2.550  -6.907   0.903  1.00  0.00     0.203 A 
ATOM     24  O   UNL     1       0.749  -8.159  -1.894  1.00  0.00    -0.267 OA
ENDBRANCH   8   9
ENDBRANCH   6   8
ENDBRANCH   5   6
ENDBRANCH   4   5
ENDBRANCH   3   4
ENDBRANCH   2   3
ENDBRANCH   1   2
BRANCH   1  25
ATOM     25  C   UNL     1      -2.159  -8.286  -0.071  1.00  0.00     0.261 C 
BRANCH  25  26
ATOM     26  O   UNL     1      -1.956  -7.984   1.321  1.00  0.00    -0.460 OA
BRANCH  26  27
ATOM     27  C   UNL     1      -3.077  -7.584   1.990  1.00  0.00     0.338 C 
ATOM     28  O   UNL     1      -4.074  -7.070   1.515  1.00  0.00    -0.246 OA
BRANCH  27  29
ATOM     29  C   UNL     1      -3.059  -8.323   3.272  1.00  0.00     0.060 A 
ATOM     30  C   UNL     1      -1.951  -8.296   4.126  1.00  0.00     0.016 A 
ATOM     31  C   UNL     1      -4.022  -9.339   3.375  1.00  0.00     0.016 A 
ATOM     32  C   UNL     1      -1.751  -9.364   5.005  1.00  0.00     0.010 A 
ATOM     33  C   UNL     1      -3.777 -10.433   4.195  1.00  0.00     0.010 A 
ATOM     34  C   UNL     1      -2.615 -10.477   4.975  1.00  0.00    -0.014 A 
BRANCH  34  35
ATOM     35  C   UNL     1      -2.528 -11.526   6.008  1.00  0.00     0.031 A 
ATOM     36  C   UNL     1      -2.981 -10.954   7.318  1.00  0.00     0.074 A 
ATOM     37  C   UNL     1      -2.276 -12.846   5.787  1.00  0.00     0.049 A 
ATOM     38  N   UNL     1      -2.302 -10.867   8.414  1.00  0.00    -0.248 NA
ATOM     39  C   UNL     1      -4.247 -10.186   7.354  1.00  0.00     0.031 C 
ATOM     40  C   UNL     1      -1.969 -13.517   4.521  1.00  0.00     0.029 A 
ATOM     41  N   UNL     1      -2.323 -13.915   6.661  1.00  0.00    -0.354 N 
ATOM     42  C   UNL     1      -3.146 -10.238   9.327  1.00  0.00     0.074 A 
ATOM     43  C   UNL     1      -4.217  -9.653   8.574  1.00  0.00     0.031 C 
ATOM     44  C   UNL     1      -2.104 -14.860   4.649  1.00  0.00     0.029 A 
ATOM     45  C   UNL     1      -2.390 -15.180   6.032  1.00  0.00     0.049 A 
ATOM     46  H   UNL     1      -2.310 -13.806   7.639  1.00  0.00     0.167 HD
ATOM     47  C   UNL     1      -3.064 -10.514  10.655  1.00  0.00     0.037 A 
ATOM     48  C   UNL     1      -2.684 -16.384   6.616  1.00  0.00     0.037 A 
ATOM     49  C   UNL     1      -1.789 -11.090  10.975  1.00  0.00     0.049 A 
ATOM     50  C   UNL     1      -2.446 -16.221   8.070  1.00  0.00     0.074 A 
ATOM     51  C   UNL     1      -0.486 -10.639  10.930  1.00  0.00     0.029 A 
ATOM     52  N   UNL     1      -1.727 -12.458  11.006  1.00  0.00    -0.354 N 
ATOM     53  N   UNL     1      -1.260 -16.036   8.576  1.00  0.00    -0.248 NA
ATOM     54  C   UNL     1      -3.568 -15.727   8.851  1.00  0.00     0.031 C 
ATOM     55  C   UNL     1       0.276 -11.756  10.482  1.00  0.00     0.029 A 
ATOM     56  C   UNL     1      -0.573 -12.858  10.389  1.00  0.00     0.049 A 
ATOM     57  H   UNL     1      -2.401 -13.054  11.405  1.00  0.00     0.167 HD
ATOM     58  C   UNL     1      -1.445 -14.999   9.474  1.00  0.00     0.074 A 
ATOM     59  C   UNL     1      -2.896 -14.859   9.610  1.00  0.00     0.031 C 
ATOM     60  C   UNL     1      -0.421 -14.152   9.775  1.00  0.00     0.037 A 
BRANCH  47  61
ATOM     61  C   UNL     1      -4.274 -10.675  11.542  1.00  0.00     0.064 A 
ATOM     62  C   UNL     1      -4.097 -10.792  12.932  1.00  0.00     0.173 A 
ATOM     63  C   UNL     1      -5.560 -11.013  11.061  1.00  0.00     0.173 A 
ATOM     64  F   UNL     1      -2.902 -10.547  13.489  1.00  0.00    -0.203 F 
ATOM     65  C   UNL     1      -5.120 -11.249  13.769  1.00  0.00     0.198 A 
ATOM     66  C   UNL     1      -6.592 -11.416  11.903  1.00  0.00     0.198 A 
ATOM     67  F   UNL     1      -5.838 -11.084   9.754  1.00  0.00    -0.203 F 
ATOM     68  F   UNL     1      -4.874 -11.451  15.070  1.00  0.00    -0.200 F 
ATOM     69  C   UNL     1      -6.367 -11.557  13.255  1.00  0.00     0.200 A 
ATOM     70  F   UNL     1      -7.782 -11.742  11.377  1.00  0.00    -0.200 F 
ATOM     71  F   UNL     1      -7.333 -12.039  14.047  1.00  0.00    -0.200 F 
ENDBRANCH  47  61
BRANCH  48  72
ATOM     72  C   UNL     1      -3.498 -17.540   6.120  1.00  0.00     0.064 A 
ATOM     73  C   UNL     1      -3.557 -18.768   6.820  1.00  0.00     0.173 A 
ATOM     74  C   UNL     1      -4.494 -17.349   5.147  1.00  0.00     0.173 A 
ATOM     75  F   UNL     1      -2.681 -19.030   7.802  1.00  0.00    -0.203 F 
ATOM     76  C   UNL     1      -4.567 -19.715   6.584  1.00  0.00     0.198 A 
ATOM     77  C   UNL     1      -5.503 -18.292   4.916  1.00  0.00     0.198 A 
ATOM     78  F   UNL     1      -4.572 -16.195   4.472  1.00  0.00    -0.203 F 
ATOM     79  F   UNL     1      -4.625 -20.838   7.316  1.00  0.00    -0.200 F 
ATOM     80  C   UNL     1      -5.550 -19.466   5.644  1.00  0.00     0.200 A 
ATOM     81  F   UNL     1      -6.473 -18.019   4.031  1.00  0.00    -0.200 F 
ATOM     82  F   UNL     1      -6.562 -20.330   5.469  1.00  0.00    -0.200 F 
ENDBRANCH  48  72
BRANCH  60  83
ATOM     83  C   UNL     1       0.957 -14.508   9.291  1.00  0.00     0.064 A 
ATOM     84  C   UNL     1       1.347 -14.529   7.940  1.00  0.00     0.173 A 
ATOM     85  C   UNL     1       1.961 -14.654  10.256  1.00  0.00     0.173 A 
ATOM     86  F   UNL     1       0.458 -14.308   6.962  1.00  0.00    -0.203 F 
ATOM     87  C   UNL     1       2.684 -14.706   7.580  1.00  0.00     0.198 A 
ATOM     88  C   UNL     1       3.296 -14.793   9.895  1.00  0.00     0.198 A 
ATOM     89  F   UNL     1       1.649 -14.589  11.560  1.00  0.00    -0.203 F 
ATOM     90  F   UNL     1       3.039 -14.712   6.286  1.00  0.00    -0.200 F 
ATOM     91  C   UNL     1       3.658 -14.826   8.559  1.00  0.00     0.200 A 
ATOM     92  F   UNL     1       4.237 -14.851  10.847  1.00  0.00    -0.200 F 
ATOM     93  F   UNL     1       4.949 -14.941   8.216  1.00  0.00    -0.200 F 
ENDBRANCH  60  83
ENDBRANCH  34  35
ENDBRANCH  27  29
ENDBRANCH  26  27
ENDBRANCH  25  26
ENDBRANCH   1  25
TORSDOF 15
