REMARK SMILES Cc1cscc1-c1ncc(C(=O)OCCOCCOC(=O)c2ccc(-c3c4nc(c(-c5c(F)c(F)c(F)c(F)c5F)c5ccc([nH]5)c(-c5c(F)c(F)c(F)c(F)c5F)c5nc(c(-c6c(F)c(F)c(F)c(F)c6F)c6ccc3[nH]6)C=C5)C=C4)cc2)c(=O)[nH]1
REMARK SMILES IDX 17 1 16 2 15 3 14 4 13 5 11 6 12 7 10 8 7 9 8 10 87 11 9 12
REMARK SMILES IDX 85 13 86 15 6 16 1 17 2 18 3 19 4 20 5 21 18 22 19 23 20 24
REMARK SMILES IDX 21 25 22 26 23 27 84 28 24 29 83 30 25 31 26 32 27 33 77 34
REMARK SMILES IDX 28 35 82 36 76 37 78 38 29 39 81 40 75 41 74 42 30 44 62 45
REMARK SMILES IDX 42 46 61 47 43 48 46 49 60 50 79 51 44 52 45 53 59 55 80 56
REMARK SMILES IDX 47 57 31 58 32 59 40 60 33 61 34 62 38 63 41 64 35 65 36 66
REMARK SMILES IDX 39 67 37 68 63 69 64 70 72 71 65 72 66 73 70 74 73 75 67 76
REMARK SMILES IDX 68 77 71 78 69 79 48 80 49 81 57 82 50 83 51 84 55 85 58 86
REMARK SMILES IDX 52 87 53 88 56 89 54 90
REMARK H PARENT 87 14 78 43 46 54
REMARK Flexibility Score: inf
ROOT
ATOM      1  C   UNL     1       5.662   5.965   0.092  1.00  0.00     0.202 C 
ENDROOT
BRANCH   1   2
ATOM      2  O   UNL     1       5.774   7.307  -0.385  1.00  0.00    -0.374 OA
BRANCH   2   3
ATOM      3  C   UNL     1       4.972   8.291   0.269  1.00  0.00     0.202 C 
BRANCH   3   4
ATOM      4  C   UNL     1       3.526   8.377  -0.223  1.00  0.00     0.261 C 
BRANCH   4   5
ATOM      5  O   UNL     1       2.807   7.179   0.120  1.00  0.00    -0.459 OA
BRANCH   5   6
ATOM      6  C   UNL     1       2.382   6.431  -0.923  1.00  0.00     0.345 C 
ATOM      7  O   UNL     1       2.445   6.747  -2.103  1.00  0.00    -0.246 OA
BRANCH   6   8
ATOM      8  C   UNL     1       1.949   5.097  -0.481  1.00  0.00     0.143 A 
ATOM      9  C   UNL     1       1.115   2.536  -0.043  1.00  0.00     0.141 A 
ATOM     10  N   UNL     1       1.861   2.758  -1.074  1.00  0.00    -0.237 NA
ATOM     11  N   UNL     1       0.798   3.494   0.881  1.00  0.00    -0.306 N 
ATOM     12  C   UNL     1       2.244   4.060  -1.280  1.00  0.00     0.135 A 
ATOM     13  C   UNL     1       1.217   4.793   0.761  1.00  0.00     0.265 A 
ATOM     14  H   UNL     1       0.251   3.241   1.659  1.00  0.00     0.171 HD
ATOM     15  O   UNL     1       0.963   5.623   1.625  1.00  0.00    -0.269 OA
BRANCH   9  16
ATOM     16  C   UNL     1       0.526   1.220   0.135  1.00  0.00     0.031 A 
ATOM     17  C   UNL     1       2.673  -0.245  -0.085  1.00  0.00     0.046 C 
ATOM     18  C   UNL     1       1.200  -0.058   0.075  1.00  0.00    -0.029 A 
ATOM     19  C   UNL     1       0.300  -1.103   0.188  1.00  0.00     0.069 A 
ATOM     20  S   UNL     1      -1.311  -0.579   0.385  1.00  0.00    -0.151 S 
ATOM     21  C   UNL     1      -0.838   1.058   0.312  1.00  0.00     0.077 A 
ENDBRANCH   9  16
ENDBRANCH   6   8
ENDBRANCH   5   6
ENDBRANCH   4   5
ENDBRANCH   3   4
ENDBRANCH   2   3
ENDBRANCH   1   2
BRANCH   1  22
ATOM     22  C   UNL     1       6.505   5.631   1.328  1.00  0.00     0.261 C 
BRANCH  22  23
ATOM     23  O   UNL     1       6.049   6.353   2.486  1.00  0.00    -0.460 OA
BRANCH  23  24
ATOM     24  C   UNL     1       6.888   7.326   2.909  1.00  0.00     0.338 C 
ATOM     25  O   UNL     1       8.014   7.564   2.491  1.00  0.00    -0.246 OA
BRANCH  24  26
ATOM     26  C   UNL     1       6.211   8.213   3.874  1.00  0.00     0.060 A 
ATOM     27  C   UNL     1       6.372   9.591   3.689  1.00  0.00     0.016 A 
ATOM     28  C   UNL     1       5.508   7.724   4.979  1.00  0.00     0.016 A 
ATOM     29  C   UNL     1       5.899  10.484   4.646  1.00  0.00     0.010 A 
ATOM     30  C   UNL     1       5.035   8.623   5.943  1.00  0.00     0.010 A 
ATOM     31  C   UNL     1       5.271  10.003   5.803  1.00  0.00    -0.014 A 
BRANCH  31  32
ATOM     32  C   UNL     1       5.025  10.945   6.922  1.00  0.00     0.031 A 
ATOM     33  C   UNL     1       6.018  11.011   8.051  1.00  0.00     0.074 A 
ATOM     34  C   UNL     1       3.980  11.790   6.893  1.00  0.00     0.049 A 
ATOM     35  N   UNL     1       6.050  11.813   9.085  1.00  0.00    -0.248 NA
ATOM     36  C   UNL     1       7.126  10.044   8.006  1.00  0.00     0.031 C 
ATOM     37  C   UNL     1       2.968  11.844   5.841  1.00  0.00     0.029 A 
ATOM     38  N   UNL     1       3.608  12.776   7.773  1.00  0.00    -0.354 N 
ATOM     39  C   UNL     1       7.180  11.452   9.807  1.00  0.00     0.074 A 
ATOM     40  C   UNL     1       7.786  10.334   9.117  1.00  0.00     0.031 C 
ATOM     41  C   UNL     1       2.090  12.819   6.133  1.00  0.00     0.029 A 
ATOM     42  C   UNL     1       2.470  13.445   7.398  1.00  0.00     0.049 A 
ATOM     43  H   UNL     1       4.109  12.982   8.595  1.00  0.00     0.167 HD
ATOM     44  C   UNL     1       7.679  12.013  10.935  1.00  0.00     0.037 A 
ATOM     45  C   UNL     1       1.812  14.450   8.009  1.00  0.00     0.037 A 
ATOM     46  C   UNL     1       7.078  13.125  11.623  1.00  0.00     0.049 A 
ATOM     47  C   UNL     1       2.359  15.023   9.290  1.00  0.00     0.074 A 
ATOM     48  C   UNL     1       7.513  13.770  12.768  1.00  0.00     0.029 A 
ATOM     49  N   UNL     1       5.907  13.755  11.230  1.00  0.00    -0.354 N 
ATOM     50  N   UNL     1       3.447  14.700   9.945  1.00  0.00    -0.248 NA
ATOM     51  C   UNL     1       1.589  16.112   9.910  1.00  0.00     0.031 C 
ATOM     52  C   UNL     1       6.581  14.762  13.092  1.00  0.00     0.029 A 
ATOM     53  C   UNL     1       5.593  14.768  12.121  1.00  0.00     0.049 A 
ATOM     54  H   UNL     1       5.377  13.516  10.435  1.00  0.00     0.167 HD
ATOM     55  C   UNL     1       3.512  15.563  11.032  1.00  0.00     0.074 A 
ATOM     56  C   UNL     1       2.356  16.431  10.943  1.00  0.00     0.031 C 
ATOM     57  C   UNL     1       4.446  15.633  12.012  1.00  0.00     0.037 A 
BRANCH  44  58
ATOM     58  C   UNL     1       8.932  11.418  11.505  1.00  0.00     0.064 A 
ATOM     59  C   UNL     1      10.178  11.594  10.883  1.00  0.00     0.173 A 
ATOM     60  C   UNL     1       8.892  10.685  12.700  1.00  0.00     0.173 A 
ATOM     61  F   UNL     1      10.267  12.275   9.731  1.00  0.00    -0.203 F 
ATOM     62  C   UNL     1      11.334  11.037  11.425  1.00  0.00     0.198 A 
ATOM     63  C   UNL     1      10.054  10.152  13.252  1.00  0.00     0.198 A 
ATOM     64  F   UNL     1       7.727  10.489  13.335  1.00  0.00    -0.203 F 
ATOM     65  F   UNL     1      12.506  11.180  10.791  1.00  0.00    -0.200 F 
ATOM     66  C   UNL     1      11.271  10.322  12.612  1.00  0.00     0.200 A 
ATOM     67  F   UNL     1       9.993   9.469  14.404  1.00  0.00    -0.200 F 
ATOM     68  F   UNL     1      12.385   9.790  13.134  1.00  0.00    -0.200 F 
ENDBRANCH  44  58
BRANCH  45  69
ATOM     69  C   UNL     1       0.569  14.993   7.406  1.00  0.00     0.064 A 
ATOM     70  C   UNL     1       0.536  16.279   6.850  1.00  0.00     0.173 A 
ATOM     71  C   UNL     1      -0.615  14.241   7.384  1.00  0.00     0.173 A 
ATOM     72  F   UNL     1       1.636  17.046   6.870  1.00  0.00    -0.203 F 
ATOM     73  C   UNL     1      -0.639  16.799   6.309  1.00  0.00     0.198 A 
ATOM     74  C   UNL     1      -1.782  14.752   6.820  1.00  0.00     0.198 A 
ATOM     75  F   UNL     1      -0.635  13.006   7.907  1.00  0.00    -0.203 F 
ATOM     76  F   UNL     1      -0.654  18.047   5.822  1.00  0.00    -0.200 F 
ATOM     77  C   UNL     1      -1.795  16.033   6.289  1.00  0.00     0.200 A 
ATOM     78  F   UNL     1      -2.894  14.005   6.795  1.00  0.00    -0.200 F 
ATOM     79  F   UNL     1      -2.923  16.532   5.767  1.00  0.00    -0.200 F 
ENDBRANCH  45  69
BRANCH  57  80
ATOM     80  C   UNL     1       4.283  16.710  13.045  1.00  0.00     0.064 A 
ATOM     81  C   UNL     1       3.290  16.641  14.033  1.00  0.00     0.173 A 
ATOM     82  C   UNL     1       5.159  17.807  13.067  1.00  0.00     0.173 A 
ATOM     83  F   UNL     1       2.421  15.620  14.046  1.00  0.00    -0.203 F 
ATOM     84  C   UNL     1       3.163  17.645  14.990  1.00  0.00     0.198 A 
ATOM     85  C   UNL     1       5.046  18.794  14.042  1.00  0.00     0.198 A 
ATOM     86  F   UNL     1       6.131  17.915  12.149  1.00  0.00    -0.203 F 
ATOM     87  F   UNL     1       2.178  17.583  15.896  1.00  0.00    -0.200 F 
ATOM     88  C   UNL     1       4.045  18.716  14.998  1.00  0.00     0.200 A 
ATOM     89  F   UNL     1       5.906  19.822  14.056  1.00  0.00    -0.200 F 
ATOM     90  F   UNL     1       3.923  19.679  15.922  1.00  0.00    -0.200 F 
ENDBRANCH  57  80
ENDBRANCH  31  32
ENDBRANCH  24  26
ENDBRANCH  23  24
ENDBRANCH  22  23
ENDBRANCH   1  22
TORSDOF 15
