REMARK SMILES Cc1ccccc1OCC(=O)c1nc(C)c(C(=O)OCCOCCOC(=O)c2ccc(-c3c4nc(c(-c5c(F)c(F)c(F)c(F)c5F)c5ccc([nH]5)c(-c5c(F)c(F)c(F)c(F)c5F)c5nc(c(-c6c(F)c(F)c(F)c(F)c6F)c6ccc3[nH]6)C=C5)C=C4)cc2)s1
REMARK SMILES IDX 21 1 20 2 19 3 17 4 18 5 16 6 12 7 13 8 91 9 14 10 15 11
REMARK SMILES IDX 10 12 11 13 9 14 8 15 7 16 1 17 2 18 3 19 4 20 6 21 5 22
REMARK SMILES IDX 22 23 23 24 24 25 25 26 26 27 27 28 28 29 29 30 90 31 30 32
REMARK SMILES IDX 89 33 31 34 32 35 33 36 83 37 34 38 88 39 82 40 84 41 35 42
REMARK SMILES IDX 87 43 81 44 80 45 36 47 68 48 48 49 67 50 49 51 52 52 66 53
REMARK SMILES IDX 85 54 50 55 51 56 65 58 86 59 53 60 37 61 38 62 46 63 39 64
REMARK SMILES IDX 40 65 44 66 47 67 41 68 42 69 45 70 43 71 69 72 70 73 78 74
REMARK SMILES IDX 71 75 72 76 76 77 79 78 73 79 74 80 77 81 75 82 54 83 55 84
REMARK SMILES IDX 63 85 56 86 57 87 61 88 64 89 58 90 59 91 62 92 60 93
REMARK H PARENT 84 46 52 57
REMARK Flexibility Score: inf
ROOT
ATOM      1  C   UNL     1       1.710   5.742   6.401  1.00  0.00     0.202 C 
ENDROOT
BRANCH   1   2
ATOM      2  C   UNL     1       1.779   4.390   7.031  1.00  0.00     0.261 C 
BRANCH   2   3
ATOM      3  O   UNL     1       2.018   3.364   6.059  1.00  0.00    -0.459 OA
BRANCH   3   4
ATOM      4  C   UNL     1       1.188   3.094   5.009  1.00  0.00     0.350 C 
ATOM      5  O   UNL     1      -0.013   3.209   4.998  1.00  0.00    -0.245 OA
BRANCH   4   6
ATOM      6  C   UNL     1       2.045   2.672   3.929  1.00  0.00     0.136 A 
ATOM      7  C   UNL     1       2.963   2.237   1.738  1.00  0.00     0.164 A 
ATOM      8  N   UNL     1       3.906   2.141   2.651  1.00  0.00    -0.237 NA
ATOM      9  S   UNL     1       1.405   2.568   2.348  1.00  0.00    -0.103 S 
ATOM     10  C   UNL     1       3.405   2.404   3.909  1.00  0.00     0.064 A 
ATOM     11  C   UNL     1       4.411   2.425   5.010  1.00  0.00     0.068 C 
BRANCH   7  12
ATOM     12  C   UNL     1       3.296   2.089   0.330  1.00  0.00     0.228 C 
ATOM     13  O   UNL     1       4.426   1.746  -0.045  1.00  0.00    -0.288 OA
BRANCH  12  14
ATOM     14  C   UNL     1       2.281   2.473  -0.749  1.00  0.00     0.313 C 
BRANCH  14  15
ATOM     15  O   UNL     1       0.907   2.210  -0.691  1.00  0.00    -0.485 OA
BRANCH  15  16
ATOM     16  C   UNL     1       0.359   0.976  -0.514  1.00  0.00     0.122 A 
ATOM     17  C   UNL     1       2.393  -0.632  -0.670  1.00  0.00     0.048 C 
ATOM     18  C   UNL     1       0.943  -0.297  -0.474  1.00  0.00    -0.009 A 
ATOM     19  C   UNL     1       0.110  -1.401  -0.176  1.00  0.00     0.007 A 
ATOM     20  C   UNL     1      -1.262  -1.262   0.028  1.00  0.00     0.001 A 
ATOM     21  C   UNL     1      -1.032   1.095  -0.319  1.00  0.00     0.047 A 
ATOM     22  C   UNL     1      -1.839  -0.007  -0.053  1.00  0.00     0.004 A 
ENDBRANCH  15  16
ENDBRANCH  14  15
ENDBRANCH  12  14
ENDBRANCH   7  12
ENDBRANCH   4   6
ENDBRANCH   3   4
ENDBRANCH   2   3
ENDBRANCH   1   2
BRANCH   1  23
ATOM     23  O   UNL     1       0.502   5.754   5.668  1.00  0.00    -0.374 OA
BRANCH  23  24
ATOM     24  C   UNL     1       0.272   6.910   4.891  1.00  0.00     0.202 C 
BRANCH  24  25
ATOM     25  C   UNL     1       0.197   8.177   5.750  1.00  0.00     0.261 C 
BRANCH  25  26
ATOM     26  O   UNL     1      -0.912   8.083   6.675  1.00  0.00    -0.460 OA
BRANCH  26  27
ATOM     27  C   UNL     1      -0.612   7.687   7.946  1.00  0.00     0.338 C 
ATOM     28  O   UNL     1       0.247   8.185   8.654  1.00  0.00    -0.246 OA
BRANCH  27  29
ATOM     29  C   UNL     1      -1.264   6.372   8.234  1.00  0.00     0.060 A 
ATOM     30  C   UNL     1      -0.862   5.603   9.347  1.00  0.00     0.016 A 
ATOM     31  C   UNL     1      -1.978   5.774   7.204  1.00  0.00     0.016 A 
ATOM     32  C   UNL     1      -1.036   4.207   9.343  1.00  0.00     0.010 A 
ATOM     33  C   UNL     1      -1.997   4.400   7.136  1.00  0.00     0.010 A 
ATOM     34  C   UNL     1      -1.530   3.600   8.190  1.00  0.00    -0.014 A 
BRANCH  34  35
ATOM     35  C   UNL     1      -1.591   2.164   7.909  1.00  0.00     0.031 A 
ATOM     36  C   UNL     1      -2.935   1.566   7.734  1.00  0.00     0.074 A 
ATOM     37  C   UNL     1      -0.493   1.435   7.586  1.00  0.00     0.049 A 
ATOM     38  N   UNL     1      -3.172   0.310   7.879  1.00  0.00    -0.248 NA
ATOM     39  C   UNL     1      -4.145   2.335   7.434  1.00  0.00     0.031 C 
ATOM     40  C   UNL     1      -0.443   0.211   6.783  1.00  0.00     0.029 A 
ATOM     41  N   UNL     1       0.854   1.674   7.880  1.00  0.00    -0.354 N 
ATOM     42  C   UNL     1      -4.442   0.071   7.411  1.00  0.00     0.074 A 
ATOM     43  C   UNL     1      -5.042   1.367   7.235  1.00  0.00     0.031 C 
ATOM     44  C   UNL     1       0.798  -0.307   6.822  1.00  0.00     0.029 A 
ATOM     45  C   UNL     1       1.580   0.482   7.758  1.00  0.00     0.049 A 
ATOM     46  H   UNL     1       1.233   2.547   8.133  1.00  0.00     0.167 HD
ATOM     47  C   UNL     1      -4.795  -1.199   7.075  1.00  0.00     0.037 A 
ATOM     48  C   UNL     1       2.356   0.027   8.779  1.00  0.00     0.037 A 
ATOM     49  C   UNL     1      -3.640  -2.092   7.197  1.00  0.00     0.049 A 
ATOM     50  C   UNL     1       1.741  -1.228   9.316  1.00  0.00     0.074 A 
ATOM     51  C   UNL     1      -2.735  -2.558   6.257  1.00  0.00     0.029 A 
ATOM     52  N   UNL     1      -3.049  -2.298   8.442  1.00  0.00    -0.354 N 
ATOM     53  N   UNL     1       0.490  -1.522   9.095  1.00  0.00    -0.248 NA
ATOM     54  C   UNL     1       2.439  -2.261  10.068  1.00  0.00     0.031 C 
ATOM     55  C   UNL     1      -1.589  -3.034   6.947  1.00  0.00     0.029 A 
ATOM     56  C   UNL     1      -1.801  -2.880   8.308  1.00  0.00     0.049 A 
ATOM     57  H   UNL     1      -3.463  -2.060   9.303  1.00  0.00     0.167 HD
ATOM     58  C   UNL     1       0.214  -2.748   9.600  1.00  0.00     0.074 A 
ATOM     59  C   UNL     1       1.456  -3.167  10.225  1.00  0.00     0.031 C 
ATOM     60  C   UNL     1      -1.026  -3.294   9.472  1.00  0.00     0.037 A 
BRANCH  47  61
ATOM     61  C   UNL     1      -6.075  -1.548   6.352  1.00  0.00     0.064 A 
ATOM     62  C   UNL     1      -6.141  -2.665   5.493  1.00  0.00     0.173 A 
ATOM     63  C   UNL     1      -7.276  -0.818   6.463  1.00  0.00     0.173 A 
ATOM     64  F   UNL     1      -5.108  -3.505   5.357  1.00  0.00    -0.203 F 
ATOM     65  C   UNL     1      -7.279  -2.966   4.739  1.00  0.00     0.198 A 
ATOM     66  C   UNL     1      -8.394  -1.083   5.665  1.00  0.00     0.198 A 
ATOM     67  F   UNL     1      -7.427   0.139   7.388  1.00  0.00    -0.203 F 
ATOM     68  F   UNL     1      -7.282  -4.048   3.947  1.00  0.00    -0.200 F 
ATOM     69  C   UNL     1      -8.394  -2.157   4.800  1.00  0.00     0.200 A 
ATOM     70  F   UNL     1      -9.476  -0.295   5.749  1.00  0.00    -0.200 F 
ATOM     71  F   UNL     1      -9.473  -2.429   4.053  1.00  0.00    -0.200 F 
ENDBRANCH  47  61
BRANCH  48  72
ATOM     72  C   UNL     1       3.029   1.122   9.536  1.00  0.00     0.064 A 
ATOM     73  C   UNL     1       4.169   1.705   8.946  1.00  0.00     0.173 A 
ATOM     74  C   UNL     1       2.331   1.894  10.479  1.00  0.00     0.173 A 
ATOM     75  F   UNL     1       4.857   1.031   8.011  1.00  0.00    -0.203 F 
ATOM     76  C   UNL     1       4.519   3.035   9.190  1.00  0.00     0.198 A 
ATOM     77  C   UNL     1       2.667   3.235  10.699  1.00  0.00     0.198 A 
ATOM     78  F   UNL     1       1.226   1.410  11.062  1.00  0.00    -0.203 F 
ATOM     79  F   UNL     1       5.506   3.607   8.485  1.00  0.00    -0.200 F 
ATOM     80  C   UNL     1       3.743   3.809  10.038  1.00  0.00     0.200 A 
ATOM     81  F   UNL     1       1.872   4.008  11.454  1.00  0.00    -0.200 F 
ATOM     82  F   UNL     1       3.961   5.130  10.121  1.00  0.00    -0.200 F 
ENDBRANCH  48  72
BRANCH  60  83
ATOM     83  C   UNL     1      -1.568  -4.339  10.396  1.00  0.00     0.064 A 
ATOM     84  C   UNL     1      -1.103  -4.506  11.711  1.00  0.00     0.173 A 
ATOM     85  C   UNL     1      -2.714  -5.086  10.046  1.00  0.00     0.173 A 
ATOM     86  F   UNL     1      -0.116  -3.751  12.211  1.00  0.00    -0.203 F 
ATOM     87  C   UNL     1      -1.687  -5.420  12.584  1.00  0.00     0.198 A 
ATOM     88  C   UNL     1      -3.343  -5.937  10.947  1.00  0.00     0.198 A 
ATOM     89  F   UNL     1      -3.281  -4.987   8.835  1.00  0.00    -0.203 F 
ATOM     90  F   UNL     1      -1.166  -5.588  13.807  1.00  0.00    -0.200 F 
ATOM     91  C   UNL     1      -2.813  -6.124  12.207  1.00  0.00     0.200 A 
ATOM     92  F   UNL     1      -4.478  -6.554  10.594  1.00  0.00    -0.200 F 
ATOM     93  F   UNL     1      -3.402  -6.965  13.066  1.00  0.00    -0.200 F 
ENDBRANCH  60  83
ENDBRANCH  34  35
ENDBRANCH  27  29
ENDBRANCH  26  27
ENDBRANCH  25  26
ENDBRANCH  24  25
ENDBRANCH  23  24
ENDBRANCH   1  23
TORSDOF 18
