REMARK SMILES C[N@@H+](CC(C)(C)C(=O)OCCOCCOC(=O)c1ccc(-c2c3nc(c(-c4c(F)c(F)c(F)c(F)c4F)c4ccc([nH]4)c(-c4c(F)c(F)c(F)c(F)c4F)c4nc(c(-c5c(F)c(F)c(F)c(F)c5F)c5ccc2[nH]5)C=C4)C=C3)cc1)[C@@H]1CCCC[C@@H]1C[NH3+]
REMARK SMILES IDX 10 1 9 2 7 3 8 4 4 5 5 6 6 7 3 8 2 9 1 10 81 12 82 13 86 14
REMARK SMILES IDX 83 15 85 16 84 17 87 18 88 19 11 23 12 24 13 25 14 26 15 27
REMARK SMILES IDX 16 28 17 29 18 30 19 31 80 32 20 33 79 34 21 35 22 36 23 37
REMARK SMILES IDX 73 38 24 39 78 40 72 41 74 42 25 43 77 44 71 45 70 46 26 48
REMARK SMILES IDX 58 49 38 50 57 51 39 52 42 53 56 54 75 55 40 56 41 57 55 59
REMARK SMILES IDX 76 60 43 61 27 62 28 63 36 64 29 65 30 66 34 67 37 68 31 69
REMARK SMILES IDX 32 70 35 71 33 72 59 73 60 74 68 75 61 76 62 77 66 78 69 79
REMARK SMILES IDX 63 80 64 81 67 82 65 83 44 84 45 85 53 86 46 87 47 88 51 89
REMARK SMILES IDX 54 90 48 91 49 92 52 93 50 94
REMARK H PARENT 2 11 88 20 88 21 88 22 74 47 42 58
REMARK Flexibility Score: inf
ROOT
ATOM      1  C   UNL     1      -1.219   3.451   1.170  1.00  0.00     0.261 C 
ENDROOT
BRANCH   1   2
ATOM      2  O   UNL     1      -1.847   2.581   0.216  1.00  0.00    -0.463 OA
BRANCH   2   3
ATOM      3  C   UNL     1      -0.960   1.698  -0.318  1.00  0.00     0.317 C 
ATOM      4  O   UNL     1       0.199   1.670   0.068  1.00  0.00    -0.251 OA
BRANCH   3   5
ATOM      5  C   UNL     1      -1.543   0.790  -1.403  1.00  0.00     0.111 C 
ATOM      6  C   UNL     1      -1.613   1.518  -2.757  1.00  0.00     0.029 C 
ATOM      7  C   UNL     1      -3.016   0.426  -1.066  1.00  0.00     0.029 C 
BRANCH   5   8
ATOM      8  C   UNL     1      -0.720  -0.544  -1.461  1.00  0.00     0.280 C 
BRANCH   8   9
ATOM      9  N   UNL     1       0.751  -0.634  -1.520  1.00  0.00    -0.334 N 
ATOM     10  C   UNL     1       1.422  -0.942  -0.267  1.00  0.00     0.333 C 
ATOM     11  H   UNL     1       0.826  -1.519  -2.021  1.00  0.00     0.348 HD
BRANCH   9  12
ATOM     12  C   UNL     1       1.496   0.071  -2.567  1.00  0.00     0.192 C 
ATOM     13  C   UNL     1       2.793  -0.665  -2.966  1.00  0.00     0.065 C 
ATOM     14  C   UNL     1       1.826   1.595  -2.404  1.00  0.00     0.102 C 
ATOM     15  C   UNL     1       3.332  -0.130  -4.296  1.00  0.00     0.006 C 
ATOM     16  C   UNL     1       2.249   2.126  -3.791  1.00  0.00     0.015 C 
ATOM     17  C   UNL     1       3.467   1.392  -4.348  1.00  0.00     0.001 C 
BRANCH  14  18
ATOM     18  C   UNL     1       2.897   1.973  -1.344  1.00  0.00     0.268 C 
BRANCH  18  19
ATOM     19  N   UNL     1       2.456   3.065  -0.467  1.00  0.00    -0.357 N 
ATOM     20  H   UNL     1       2.285   3.902  -1.025  1.00  0.00     0.344 HD
ATOM     21  H   UNL     1       3.180   3.260   0.224  1.00  0.00     0.344 HD
ATOM     22  H   UNL     1       1.596   2.793   0.010  1.00  0.00     0.344 HD
ENDBRANCH  18  19
ENDBRANCH  14  18
ENDBRANCH   9  12
ENDBRANCH   8   9
ENDBRANCH   5   8
ENDBRANCH   3   5
ENDBRANCH   2   3
ENDBRANCH   1   2
BRANCH   1  23
ATOM     23  C   UNL     1      -0.960   2.885   2.588  1.00  0.00     0.202 C 
BRANCH  23  24
ATOM     24  O   UNL     1      -0.852   1.493   2.834  1.00  0.00    -0.374 OA
BRANCH  24  25
ATOM     25  C   UNL     1      -1.923   0.618   2.514  1.00  0.00     0.202 C 
BRANCH  25  26
ATOM     26  C   UNL     1      -3.354   0.957   2.943  1.00  0.00     0.261 C 
BRANCH  26  27
ATOM     27  O   UNL     1      -3.800   2.240   2.474  1.00  0.00    -0.460 OA
BRANCH  27  28
ATOM     28  C   UNL     1      -4.145   3.106   3.458  1.00  0.00     0.338 C 
ATOM     29  O   UNL     1      -4.188   2.890   4.656  1.00  0.00    -0.246 OA
BRANCH  28  30
ATOM     30  C   UNL     1      -4.281   4.465   2.908  1.00  0.00     0.060 A 
ATOM     31  C   UNL     1      -3.458   5.464   3.445  1.00  0.00     0.016 A 
ATOM     32  C   UNL     1      -5.257   4.774   1.960  1.00  0.00     0.016 A 
ATOM     33  C   UNL     1      -3.639   6.791   3.072  1.00  0.00     0.010 A 
ATOM     34  C   UNL     1      -5.455   6.112   1.605  1.00  0.00     0.010 A 
ATOM     35  C   UNL     1      -4.674   7.125   2.192  1.00  0.00    -0.014 A 
BRANCH  35  36
ATOM     36  C   UNL     1      -5.063   8.546   2.052  1.00  0.00     0.031 A 
ATOM     37  C   UNL     1      -6.200   9.062   2.890  1.00  0.00     0.074 A 
ATOM     38  C   UNL     1      -4.389   9.369   1.233  1.00  0.00     0.049 A 
ATOM     39  N   UNL     1      -6.741  10.253   2.917  1.00  0.00    -0.248 NA
ATOM     40  C   UNL     1      -6.809   8.102   3.825  1.00  0.00     0.031 C 
ATOM     41  C   UNL     1      -3.236   8.991   0.419  1.00  0.00     0.029 A 
ATOM     42  N   UNL     1      -4.584  10.697   0.950  1.00  0.00    -0.354 N 
ATOM     43  C   UNL     1      -7.755  10.182   3.863  1.00  0.00     0.074 A 
ATOM     44  C   UNL     1      -7.776   8.827   4.367  1.00  0.00     0.031 C 
ATOM     45  C   UNL     1      -2.833  10.061  -0.287  1.00  0.00     0.029 A 
ATOM     46  C   UNL     1      -3.721  11.187   0.002  1.00  0.00     0.049 A 
ATOM     47  H   UNL     1      -5.277  11.245   1.384  1.00  0.00     0.167 HD
ATOM     48  C   UNL     1      -8.590  11.165   4.277  1.00  0.00     0.037 A 
ATOM     49  C   UNL     1      -3.674  12.400  -0.580  1.00  0.00     0.037 A 
ATOM     50  C   UNL     1      -8.562  12.511   3.769  1.00  0.00     0.049 A 
ATOM     51  C   UNL     1      -4.664  13.455  -0.158  1.00  0.00     0.074 A 
ATOM     52  C   UNL     1      -9.354  13.586   4.129  1.00  0.00     0.029 A 
ATOM     53  N   UNL     1      -7.697  12.962   2.782  1.00  0.00    -0.354 N 
ATOM     54  N   UNL     1      -5.611  13.389   0.747  1.00  0.00    -0.248 NA
ATOM     55  C   UNL     1      -4.577  14.755  -0.837  1.00  0.00     0.031 C 
ATOM     56  C   UNL     1      -9.006  14.673   3.320  1.00  0.00     0.029 A 
ATOM     57  C   UNL     1      -7.956  14.293   2.500  1.00  0.00     0.049 A 
ATOM     58  H   UNL     1      -7.002  12.416   2.347  1.00  0.00     0.167 HD
ATOM     59  C   UNL     1      -6.210  14.643   0.769  1.00  0.00     0.074 A 
ATOM     60  C   UNL     1      -5.511  15.453  -0.207  1.00  0.00     0.031 C 
ATOM     61  C   UNL     1      -7.243  15.085   1.529  1.00  0.00     0.037 A 
BRANCH  48  62
ATOM     62  C   UNL     1      -9.625  10.808   5.304  1.00  0.00     0.064 A 
ATOM     63  C   UNL     1      -9.282  10.528   6.636  1.00  0.00     0.173 A 
ATOM     64  C   UNL     1     -10.983  10.769   4.955  1.00  0.00     0.173 A 
ATOM     65  F   UNL     1      -7.996  10.536   7.018  1.00  0.00    -0.203 F 
ATOM     66  C   UNL     1     -10.258  10.196   7.572  1.00  0.00     0.198 A 
ATOM     67  C   UNL     1     -11.959  10.466   5.901  1.00  0.00     0.198 A 
ATOM     68  F   UNL     1     -11.366  11.029   3.696  1.00  0.00    -0.203 F 
ATOM     69  F   UNL     1      -9.903   9.883   8.826  1.00  0.00    -0.200 F 
ATOM     70  C   UNL     1     -11.596  10.172   7.206  1.00  0.00     0.200 A 
ATOM     71  F   UNL     1     -13.252  10.455   5.547  1.00  0.00    -0.200 F 
ATOM     72  F   UNL     1     -12.534   9.858   8.110  1.00  0.00    -0.200 F 
ENDBRANCH  48  62
BRANCH  49  73
ATOM     73  C   UNL     1      -2.664  12.678  -1.634  1.00  0.00     0.064 A 
ATOM     74  C   UNL     1      -1.621  13.588  -1.417  1.00  0.00     0.173 A 
ATOM     75  C   UNL     1      -2.729  12.047  -2.885  1.00  0.00     0.173 A 
ATOM     76  F   UNL     1      -1.530  14.237  -0.247  1.00  0.00    -0.203 F 
ATOM     77  C   UNL     1      -0.691  13.869  -2.417  1.00  0.00     0.198 A 
ATOM     78  C   UNL     1      -1.782  12.306  -3.873  1.00  0.00     0.198 A 
ATOM     79  F   UNL     1      -3.708  11.168  -3.144  1.00  0.00    -0.203 F 
ATOM     80  F   UNL     1       0.269  14.778  -2.200  1.00  0.00    -0.200 F 
ATOM     81  C   UNL     1      -0.768  13.223  -3.642  1.00  0.00     0.200 A 
ATOM     82  F   UNL     1      -1.854  11.669  -5.050  1.00  0.00    -0.200 F 
ATOM     83  F   UNL     1       0.128  13.490  -4.601  1.00  0.00    -0.200 F 
ENDBRANCH  49  73
BRANCH  61  84
ATOM     84  C   UNL     1      -7.654  16.520   1.367  1.00  0.00     0.064 A 
ATOM     85  C   UNL     1      -8.316  16.974   0.217  1.00  0.00     0.173 A 
ATOM     86  C   UNL     1      -7.421  17.444   2.399  1.00  0.00     0.173 A 
ATOM     87  F   UNL     1      -8.551  16.135  -0.803  1.00  0.00    -0.203 F 
ATOM     88  C   UNL     1      -8.707  18.305   0.095  1.00  0.00     0.198 A 
ATOM     89  C   UNL     1      -7.842  18.765   2.287  1.00  0.00     0.198 A 
ATOM     90  F   UNL     1      -6.800  17.059   3.523  1.00  0.00    -0.203 F 
ATOM     91  F   UNL     1      -9.295  18.728  -1.032  1.00  0.00    -0.200 F 
ATOM     92  C   UNL     1      -8.477  19.197   1.132  1.00  0.00     0.200 A 
ATOM     93  F   UNL     1      -7.634  19.621   3.297  1.00  0.00    -0.200 F 
ATOM     94  F   UNL     1      -8.862  20.476   1.016  1.00  0.00    -0.200 F 
ENDBRANCH  61  84
ENDBRANCH  35  36
ENDBRANCH  28  30
ENDBRANCH  27  28
ENDBRANCH  26  27
ENDBRANCH  25  26
ENDBRANCH  24  25
ENDBRANCH  23  24
ENDBRANCH   1  23
TORSDOF 19
