REMARK SMILES O=C(OCCOCCOC(=O)[C@@H]1[C@@H](C(=O)Nc2cccc([N+](=O)[O-])c2)[C@@H]2C=C[C@H]1O2)c1ccc(-c2c3nc(c(-c4c(F)c(F)c(F)c(F)c4F)c4ccc([nH]4)c(-c4c(F)c(F)c(F)c(F)c4F)c4nc(c(-c5c(F)c(F)c(F)c(F)c5F)c5ccc2[nH]5)C=C4)C=C3)cc1
REMARK SMILES IDX 7 1 6 2 5 3 4 4 3 5 2 6 1 7 31 8 32 9 93 10 33 11 92 12
REMARK SMILES IDX 34 13 35 14 36 15 86 16 37 17 91 18 85 19 87 20 38 21 90 22
REMARK SMILES IDX 84 23 83 24 39 26 71 27 51 28 70 29 52 30 55 31 69 32 88 33
REMARK SMILES IDX 53 34 54 35 68 37 89 38 56 39 40 40 41 41 49 42 42 43 43 44
REMARK SMILES IDX 47 45 50 46 44 47 45 48 48 49 46 50 72 51 73 52 81 53 74 54
REMARK SMILES IDX 75 55 79 56 82 57 76 58 77 59 80 60 78 61 57 62 58 63 66 64
REMARK SMILES IDX 59 65 60 66 64 67 67 68 61 69 62 70 65 71 63 72 8 73 9 74
REMARK SMILES IDX 10 75 11 76 12 77 13 78 29 79 26 80 28 81 30 82 27 83 14 84
REMARK SMILES IDX 15 85 16 86 17 88 18 89 25 90 19 91 21 92 20 93 22 94 23 95
REMARK SMILES IDX 24 96
REMARK H PARENT 87 25 55 36 16 87
REMARK Flexibility Score: inf
ROOT
ATOM      1  C   UNL     1       3.349   2.227  -1.040  1.00  0.00     0.202 C 
ENDROOT
BRANCH   1   2
ATOM      2  O   UNL     1       4.627   1.686  -0.685  1.00  0.00    -0.374 OA
BRANCH   2   3
ATOM      3  C   UNL     1       4.849   0.318  -1.035  1.00  0.00     0.202 C 
BRANCH   3   4
ATOM      4  C   UNL     1       4.143  -0.840  -0.284  1.00  0.00     0.261 C 
BRANCH   4   5
ATOM      5  O   UNL     1       2.711  -0.665  -0.144  1.00  0.00    -0.460 OA
BRANCH   5   6
ATOM      6  C   UNL     1       2.066  -0.754   1.062  1.00  0.00     0.338 C 
ATOM      7  O   UNL     1       0.984  -1.315   1.154  1.00  0.00    -0.246 OA
BRANCH   6   8
ATOM      8  C   UNL     1       2.682  -0.088   2.245  1.00  0.00     0.060 A 
ATOM      9  C   UNL     1       3.742   0.775   2.061  1.00  0.00     0.016 A 
ATOM     10  C   UNL     1       2.247  -0.293   3.553  1.00  0.00     0.016 A 
ATOM     11  C   UNL     1       4.531   1.236   3.071  1.00  0.00     0.010 A 
ATOM     12  C   UNL     1       2.943   0.310   4.619  1.00  0.00     0.010 A 
ATOM     13  C   UNL     1       4.117   1.044   4.371  1.00  0.00    -0.014 A 
BRANCH  13  14
ATOM     14  C   UNL     1       5.058   1.531   5.389  1.00  0.00     0.031 A 
ATOM     15  C   UNL     1       5.824   0.513   6.169  1.00  0.00     0.074 A 
ATOM     16  C   UNL     1       5.397   2.837   5.400  1.00  0.00     0.049 A 
ATOM     17  N   UNL     1       6.674   0.685   7.142  1.00  0.00    -0.248 NA
ATOM     18  C   UNL     1       5.618  -0.896   5.788  1.00  0.00     0.031 C 
ATOM     19  C   UNL     1       4.857   3.862   4.494  1.00  0.00     0.029 A 
ATOM     20  N   UNL     1       6.324   3.517   6.140  1.00  0.00    -0.354 N 
ATOM     21  C   UNL     1       7.046  -0.591   7.537  1.00  0.00     0.074 A 
ATOM     22  C   UNL     1       6.354  -1.530   6.686  1.00  0.00     0.031 C 
ATOM     23  C   UNL     1       5.499   5.020   4.699  1.00  0.00     0.029 A 
ATOM     24  C   UNL     1       6.400   4.853   5.828  1.00  0.00     0.049 A 
ATOM     25  H   UNL     1       6.882   3.090   6.829  1.00  0.00     0.167 HD
ATOM     26  C   UNL     1       7.877  -0.928   8.548  1.00  0.00     0.037 A 
ATOM     27  C   UNL     1       7.083   5.837   6.439  1.00  0.00     0.037 A 
ATOM     28  C   UNL     1       8.559   0.052   9.348  1.00  0.00     0.049 A 
ATOM     29  C   UNL     1       7.900   5.450   7.640  1.00  0.00     0.074 A 
ATOM     30  C   UNL     1       9.355  -0.131  10.460  1.00  0.00     0.029 A 
ATOM     31  N   UNL     1       8.519   1.421   9.098  1.00  0.00    -0.354 N 
ATOM     32  N   UNL     1       8.144   4.253   8.122  1.00  0.00    -0.248 NA
ATOM     33  C   UNL     1       8.507   6.544   8.403  1.00  0.00     0.031 C 
ATOM     34  C   UNL     1       9.756   1.132  10.913  1.00  0.00     0.029 A 
ATOM     35  C   UNL     1       9.260   2.099  10.048  1.00  0.00     0.049 A 
ATOM     36  H   UNL     1       8.034   1.845   8.353  1.00  0.00     0.167 HD
ATOM     37  C   UNL     1       8.948   4.443   9.233  1.00  0.00     0.074 A 
ATOM     38  C   UNL     1       9.166   5.875   9.339  1.00  0.00     0.031 C 
ATOM     39  C   UNL     1       9.457   3.527  10.095  1.00  0.00     0.037 A 
BRANCH  26  40
ATOM     40  C   UNL     1       7.967  -2.384   8.893  1.00  0.00     0.064 A 
ATOM     41  C   UNL     1       8.599  -3.321   8.062  1.00  0.00     0.173 A 
ATOM     42  C   UNL     1       7.327  -2.862  10.048  1.00  0.00     0.173 A 
ATOM     43  F   UNL     1       9.190  -2.925   6.924  1.00  0.00    -0.203 F 
ATOM     44  C   UNL     1       8.552  -4.684   8.352  1.00  0.00     0.198 A 
ATOM     45  C   UNL     1       7.308  -4.220  10.351  1.00  0.00     0.198 A 
ATOM     46  F   UNL     1       6.694  -2.012  10.870  1.00  0.00    -0.203 F 
ATOM     47  F   UNL     1       9.093  -5.568   7.502  1.00  0.00    -0.200 F 
ATOM     48  C   UNL     1       7.909  -5.132   9.497  1.00  0.00     0.200 A 
ATOM     49  F   UNL     1       6.684  -4.649  11.457  1.00  0.00    -0.200 F 
ATOM     50  F   UNL     1       7.847  -6.443   9.764  1.00  0.00    -0.200 F 
ENDBRANCH  26  40
BRANCH  27  51
ATOM     51  C   UNL     1       6.953   7.251   5.992  1.00  0.00     0.064 A 
ATOM     52  C   UNL     1       8.060   7.974   5.529  1.00  0.00     0.173 A 
ATOM     53  C   UNL     1       5.718   7.921   6.037  1.00  0.00     0.173 A 
ATOM     54  F   UNL     1       9.268   7.393   5.486  1.00  0.00    -0.203 F 
ATOM     55  C   UNL     1       7.942   9.310   5.146  1.00  0.00     0.198 A 
ATOM     56  C   UNL     1       5.594   9.246   5.621  1.00  0.00     0.198 A 
ATOM     57  F   UNL     1       4.622   7.286   6.477  1.00  0.00    -0.203 F 
ATOM     58  F   UNL     1       9.029   9.991   4.755  1.00  0.00    -0.200 F 
ATOM     59  C   UNL     1       6.709   9.943   5.186  1.00  0.00     0.200 A 
ATOM     60  F   UNL     1       4.396   9.845   5.649  1.00  0.00    -0.200 F 
ATOM     61  F   UNL     1       6.597  11.226   4.817  1.00  0.00    -0.200 F 
ENDBRANCH  27  51
BRANCH  39  62
ATOM     62  C   UNL     1      10.338   4.055  11.184  1.00  0.00     0.064 A 
ATOM     63  C   UNL     1       9.817   4.769  12.272  1.00  0.00     0.173 A 
ATOM     64  C   UNL     1      11.717   3.805  11.150  1.00  0.00     0.173 A 
ATOM     65  F   UNL     1       8.506   5.047  12.333  1.00  0.00    -0.203 F 
ATOM     66  C   UNL     1      10.654   5.238  13.278  1.00  0.00     0.198 A 
ATOM     67  C   UNL     1      12.545   4.245  12.176  1.00  0.00     0.198 A 
ATOM     68  F   UNL     1      12.256   3.120  10.130  1.00  0.00    -0.203 F 
ATOM     69  F   UNL     1      10.147   5.964  14.283  1.00  0.00    -0.200 F 
ATOM     70  C   UNL     1      12.015   4.968  13.234  1.00  0.00     0.200 A 
ATOM     71  F   UNL     1      13.856   3.970  12.140  1.00  0.00    -0.200 F 
ATOM     72  F   UNL     1      12.818   5.412  14.210  1.00  0.00    -0.200 F 
ENDBRANCH  39  62
ENDBRANCH  13  14
ENDBRANCH   6   8
ENDBRANCH   5   6
ENDBRANCH   4   5
ENDBRANCH   3   4
ENDBRANCH   2   3
ENDBRANCH   1   2
BRANCH   1  73
ATOM     73  C   UNL     1       3.435   3.173  -2.232  1.00  0.00     0.261 C 
BRANCH  73  74
ATOM     74  O   UNL     1       3.721   2.402  -3.411  1.00  0.00    -0.463 OA
BRANCH  74  75
ATOM     75  C   UNL     1       5.040   2.255  -3.713  1.00  0.00     0.312 C 
ATOM     76  O   UNL     1       5.956   2.880  -3.204  1.00  0.00    -0.252 OA
BRANCH  75  77
ATOM     77  C   UNL     1       5.204   1.228  -4.796  1.00  0.00     0.147 C 
ATOM     78  C   UNL     1       4.324  -0.054  -4.659  1.00  0.00     0.129 C 
ATOM     79  C   UNL     1       6.622   0.635  -4.788  1.00  0.00     0.157 C 
ATOM     80  C   UNL     1       5.398  -1.164  -4.806  1.00  0.00     0.155 C 
ATOM     81  C   UNL     1       6.967  -0.129  -3.537  1.00  0.00     0.004 C 
ATOM     82  O   UNL     1       6.379  -0.505  -5.656  1.00  0.00    -0.365 OA
ATOM     83  C   UNL     1       6.231  -1.249  -3.561  1.00  0.00     0.004 C 
BRANCH  78  84
ATOM     84  C   UNL     1       3.313  -0.222  -5.771  1.00  0.00     0.231 C 
ATOM     85  O   UNL     1       3.577   0.080  -6.936  1.00  0.00    -0.274 OA
ATOM     86  N   UNL     1       2.147  -0.902  -5.535  1.00  0.00    -0.325 N 
ATOM     87  H   UNL     1       1.834  -1.412  -6.316  1.00  0.00     0.169 HD
BRANCH  86  88
ATOM     88  C   UNL     1       1.300  -1.031  -4.416  1.00  0.00     0.048 A 
ATOM     89  C   UNL     1       0.444  -2.142  -4.406  1.00  0.00     0.026 A 
ATOM     90  C   UNL     1       1.140  -0.053  -3.431  1.00  0.00     0.111 A 
ATOM     91  C   UNL     1      -0.517  -2.316  -3.404  1.00  0.00     0.009 A 
ATOM     92  C   UNL     1       0.129  -0.206  -2.453  1.00  0.00     0.271 A 
ATOM     93  C   UNL     1      -0.678  -1.347  -2.420  1.00  0.00     0.086 A 
BRANCH  92  94
ATOM     94  N   UNL     1      -0.168   0.887  -1.514  1.00  0.00     0.062 N 
ATOM     95  O   UNL     1      -0.925   0.656  -0.564  1.00  0.00    -0.258 OA
ATOM     96  O   UNL     1       0.334   1.997  -1.750  1.00  0.00    -0.258 OA
ENDBRANCH  92  94
ENDBRANCH  86  88
ENDBRANCH  78  84
ENDBRANCH  75  77
ENDBRANCH  74  75
ENDBRANCH  73  74
ENDBRANCH   1  73
TORSDOF 17
