REMARK SMILES Cc1ccc([N+](=O)[O-])c(NCc2ccc(C(=O)OCCOCCOC(=O)c3ccc(-c4c5nc(c(-c6c(F)c(F)c(F)c(F)c6F)c6ccc([nH]6)c(-c6c(F)c(F)c(F)c(F)c6F)c6nc(c(-c7c(F)c(F)c(F)c(F)c7F)c7ccc4[nH]7)C=C6)C=C5)cc3)cc2)c1
REMARK SMILES IDX 20 1 19 2 18 3 16 4 17 5 15 6 12 7 13 8 91 9 14 10 90 11
REMARK SMILES IDX 11 12 10 13 9 15 1 16 2 17 3 18 92 19 4 20 5 21 6 22 7 23
REMARK SMILES IDX 8 24 21 25 22 26 23 27 24 28 25 29 26 30 27 31 28 32 89 33
REMARK SMILES IDX 29 34 88 35 30 36 31 37 32 38 82 39 33 40 87 41 81 42 83 43
REMARK SMILES IDX 34 44 86 45 80 46 79 47 35 49 67 50 47 51 66 52 48 53 51 54
REMARK SMILES IDX 65 55 84 56 49 57 50 58 64 60 85 61 52 62 36 63 37 64 45 65
REMARK SMILES IDX 38 66 39 67 43 68 46 69 40 70 41 71 44 72 42 73 68 74 69 75
REMARK SMILES IDX 77 76 70 77 71 78 75 79 78 80 72 81 73 82 76 83 74 84 53 85
REMARK SMILES IDX 54 86 62 87 55 88 56 89 60 90 63 91 57 92 58 93 61 94 59 95
REMARK H PARENT 10 14 83 48 51 59
REMARK Flexibility Score: inf
ROOT
ATOM      1  C   UNL     1      -4.061   8.806  -2.120  1.00  0.00     0.202 C 
ENDROOT
BRANCH   1   2
ATOM      2  C   UNL     1      -3.651   9.289  -0.761  1.00  0.00     0.261 C 
BRANCH   2   3
ATOM      3  O   UNL     1      -3.653   8.231   0.208  1.00  0.00    -0.460 OA
BRANCH   3   4
ATOM      4  C   UNL     1      -4.791   7.525   0.466  1.00  0.00     0.338 C 
ATOM      5  O   UNL     1      -5.926   7.916   0.589  1.00  0.00    -0.246 OA
BRANCH   4   6
ATOM      6  C   UNL     1      -4.393   6.112   0.436  1.00  0.00     0.060 A 
ATOM      7  C   UNL     1      -3.646   3.480   0.010  1.00  0.00    -0.029 A 
ATOM      8  C   UNL     1      -5.004   3.817   0.171  1.00  0.00     0.006 A 
ATOM      9  C   UNL     1      -2.677   4.486   0.021  1.00  0.00     0.006 A 
ATOM     10  C   UNL     1      -5.383   5.135   0.380  1.00  0.00     0.016 A 
ATOM     11  C   UNL     1      -3.042   5.783   0.292  1.00  0.00     0.016 A 
BRANCH   7  12
ATOM     12  C   UNL     1      -3.311   2.024  -0.178  1.00  0.00     0.149 C 
BRANCH  12  13
ATOM     13  N   UNL     1      -1.906   1.747  -0.002  1.00  0.00    -0.375 N 
ATOM     14  H   UNL     1      -1.343   2.538   0.163  1.00  0.00     0.161 HD
BRANCH  13  15
ATOM     15  C   UNL     1      -1.233   0.545  -0.029  1.00  0.00     0.114 A 
ATOM     16  C   UNL     1       2.567  -0.098  -0.006  1.00  0.00     0.044 C 
ATOM     17  C   UNL     1       1.089  -0.347  -0.021  1.00  0.00    -0.049 A 
ATOM     18  C   UNL     1       0.591  -1.641  -0.025  1.00  0.00     0.010 A 
ATOM     19  C   UNL     1       0.180   0.715  -0.033  1.00  0.00     0.036 A 
ATOM     20  C   UNL     1      -0.785  -1.856  -0.067  1.00  0.00     0.088 A 
ATOM     21  C   UNL     1      -1.703  -0.780  -0.086  1.00  0.00     0.292 A 
BRANCH  21  22
ATOM     22  N   UNL     1      -3.119  -1.196  -0.103  1.00  0.00     0.064 N 
ATOM     23  O   UNL     1      -3.390  -2.304   0.386  1.00  0.00    -0.258 OA
ATOM     24  O   UNL     1      -3.965  -0.481  -0.650  1.00  0.00    -0.258 OA
ENDBRANCH  21  22
ENDBRANCH  13  15
ENDBRANCH  12  13
ENDBRANCH   7  12
ENDBRANCH   4   6
ENDBRANCH   3   4
ENDBRANCH   2   3
ENDBRANCH   1   2
BRANCH   1  25
ATOM     25  O   UNL     1      -5.438   8.496  -2.021  1.00  0.00    -0.374 OA
BRANCH  25  26
ATOM     26  C   UNL     1      -6.041   7.973  -3.185  1.00  0.00     0.202 C 
BRANCH  26  27
ATOM     27  C   UNL     1      -5.990   8.971  -4.347  1.00  0.00     0.261 C 
BRANCH  27  28
ATOM     28  O   UNL     1      -6.717  10.171  -3.989  1.00  0.00    -0.460 OA
BRANCH  28  29
ATOM     29  C   UNL     1      -5.973  11.227  -3.549  1.00  0.00     0.338 C 
ATOM     30  O   UNL     1      -5.001  11.691  -4.123  1.00  0.00    -0.246 OA
BRANCH  29  31
ATOM     31  C   UNL     1      -6.333  11.556  -2.134  1.00  0.00     0.060 A 
ATOM     32  C   UNL     1      -5.519  12.417  -1.366  1.00  0.00     0.016 A 
ATOM     33  C   UNL     1      -7.256  10.739  -1.494  1.00  0.00     0.016 A 
ATOM     34  C   UNL     1      -5.503  12.321   0.039  1.00  0.00     0.010 A 
ATOM     35  C   UNL     1      -7.140  10.560  -0.133  1.00  0.00     0.010 A 
ATOM     36  C   UNL     1      -6.239  11.310   0.649  1.00  0.00    -0.014 A 
BRANCH  36  37
ATOM     37  C   UNL     1      -6.149  10.850   2.046  1.00  0.00     0.031 A 
ATOM     38  C   UNL     1      -7.416  10.839   2.817  1.00  0.00     0.074 A 
ATOM     39  C   UNL     1      -5.101  10.105   2.489  1.00  0.00     0.049 A 
ATOM     40  N   UNL     1      -7.530  10.382   4.012  1.00  0.00    -0.248 NA
ATOM     41  C   UNL     1      -8.679  11.381   2.313  1.00  0.00     0.031 C 
ATOM     42  C   UNL     1      -5.139   8.989   3.449  1.00  0.00     0.029 A 
ATOM     43  N   UNL     1      -3.751  10.126   2.114  1.00  0.00    -0.354 N 
ATOM     44  C   UNL     1      -8.867  10.230   4.281  1.00  0.00     0.074 A 
ATOM     45  C   UNL     1      -9.536  10.990   3.261  1.00  0.00     0.031 C 
ATOM     46  C   UNL     1      -3.890   8.620   3.781  1.00  0.00     0.029 A 
ATOM     47  C   UNL     1      -2.993   9.578   3.170  1.00  0.00     0.049 A 
ATOM     48  H   UNL     1      -3.393  10.464   1.261  1.00  0.00     0.167 HD
ATOM     49  C   UNL     1      -9.213   9.367   5.277  1.00  0.00     0.037 A 
ATOM     50  C   UNL     1      -2.027  10.314   3.782  1.00  0.00     0.037 A 
ATOM     51  C   UNL     1      -8.013   8.967   6.030  1.00  0.00     0.049 A 
ATOM     52  C   UNL     1      -2.458  10.555   5.198  1.00  0.00     0.074 A 
ATOM     53  C   UNL     1      -7.278   7.799   6.122  1.00  0.00     0.029 A 
ATOM     54  N   UNL     1      -7.216   9.971   6.589  1.00  0.00    -0.354 N 
ATOM     55  N   UNL     1      -3.710  10.481   5.564  1.00  0.00    -0.248 NA
ATOM     56  C   UNL     1      -1.555  10.767   6.320  1.00  0.00     0.031 C 
ATOM     57  C   UNL     1      -5.998   8.134   6.663  1.00  0.00     0.029 A 
ATOM     58  C   UNL     1      -5.969   9.495   6.941  1.00  0.00     0.049 A 
ATOM     59  H   UNL     1      -7.509  10.903   6.716  1.00  0.00     0.167 HD
ATOM     60  C   UNL     1      -3.792  10.527   6.917  1.00  0.00     0.074 A 
ATOM     61  C   UNL     1      -2.422  10.751   7.349  1.00  0.00     0.031 C 
ATOM     62  C   UNL     1      -4.978  10.370   7.571  1.00  0.00     0.037 A 
BRANCH  49  63
ATOM     63  C   UNL     1     -10.588   8.764   5.502  1.00  0.00     0.064 A 
ATOM     64  C   UNL     1     -10.806   7.900   6.598  1.00  0.00     0.173 A 
ATOM     65  C   UNL     1     -11.707   8.911   4.651  1.00  0.00     0.173 A 
ATOM     66  F   UNL     1      -9.833   7.642   7.483  1.00  0.00    -0.203 F 
ATOM     67  C   UNL     1     -12.029   7.253   6.822  1.00  0.00     0.198 A 
ATOM     68  C   UNL     1     -12.942   8.301   4.902  1.00  0.00     0.198 A 
ATOM     69  F   UNL     1     -11.657   9.604   3.512  1.00  0.00    -0.203 F 
ATOM     70  F   UNL     1     -12.157   6.412   7.858  1.00  0.00    -0.200 F 
ATOM     71  C   UNL     1     -13.102   7.465   5.982  1.00  0.00     0.200 A 
ATOM     72  F   UNL     1     -13.969   8.519   4.066  1.00  0.00    -0.200 F 
ATOM     73  F   UNL     1     -14.275   6.855   6.200  1.00  0.00    -0.200 F 
ENDBRANCH  49  63
BRANCH  50  74
ATOM     74  C   UNL     1      -1.366  11.230   2.802  1.00  0.00     0.064 A 
ATOM     75  C   UNL     1      -0.582  10.593   1.810  1.00  0.00     0.173 A 
ATOM     76  C   UNL     1      -1.958  12.456   2.460  1.00  0.00     0.173 A 
ATOM     77  F   UNL     1      -0.001   9.411   2.075  1.00  0.00    -0.203 F 
ATOM     78  C   UNL     1      -0.564  11.053   0.494  1.00  0.00     0.198 A 
ATOM     79  C   UNL     1      -1.932  12.912   1.136  1.00  0.00     0.198 A 
ATOM     80  F   UNL     1      -2.718  13.109   3.350  1.00  0.00    -0.203 F 
ATOM     81  F   UNL     1       0.023  10.318  -0.464  1.00  0.00    -0.200 F 
ATOM     82  C   UNL     1      -1.283  12.183   0.149  1.00  0.00     0.200 A 
ATOM     83  F   UNL     1      -2.641  13.996   0.788  1.00  0.00    -0.200 F 
ATOM     84  F   UNL     1      -1.417  12.523  -1.142  1.00  0.00    -0.200 F 
ENDBRANCH  50  74
BRANCH  62  85
ATOM     85  C   UNL     1      -5.257  10.988   8.915  1.00  0.00     0.064 A 
ATOM     86  C   UNL     1      -4.502  12.050   9.446  1.00  0.00     0.173 A 
ATOM     87  C   UNL     1      -6.420  10.647   9.643  1.00  0.00     0.173 A 
ATOM     88  F   UNL     1      -3.474  12.591   8.779  1.00  0.00    -0.203 F 
ATOM     89  C   UNL     1      -4.818  12.645  10.664  1.00  0.00     0.198 A 
ATOM     90  C   UNL     1      -6.780  11.305  10.816  1.00  0.00     0.198 A 
ATOM     91  F   UNL     1      -7.268   9.698   9.224  1.00  0.00    -0.203 F 
ATOM     92  F   UNL     1      -4.019  13.601  11.157  1.00  0.00    -0.200 F 
ATOM     93  C   UNL     1      -5.962  12.281  11.344  1.00  0.00     0.200 A 
ATOM     94  F   UNL     1      -7.938  11.000  11.417  1.00  0.00    -0.200 F 
ATOM     95  F   UNL     1      -6.289  12.889  12.491  1.00  0.00    -0.200 F 
ENDBRANCH  62  85
ENDBRANCH  36  37
ENDBRANCH  29  31
ENDBRANCH  28  29
ENDBRANCH  27  28
ENDBRANCH  26  27
ENDBRANCH  25  26
ENDBRANCH   1  25
TORSDOF 18
