REMARK SMILES CC[C@@H](NC(=O)N1CCO[C@H](CC(=O)OCCOCCOC(=O)c2ccc(-c3c4nc(c(-c5c(F)c(F)c(F)c(F)c5F)c5ccc([nH]5)c(-c5c(F)c(F)c(F)c(F)c5F)c5nc(c(-c6c(F)c(F)c(F)c(F)c6F)c6ccc3[nH]6)C=C5)C=C4)cc2)C1)c1cccs1
REMARK SMILES IDX 17 1 16 2 15 3 13 4 14 5 12 6 11 7 7 8 8 9 87 10 9 11 10 12
REMARK SMILES IDX 5 13 4 14 6 16 3 17 2 18 1 19 88 20 89 21 92 22 90 23 91 24
REMARK SMILES IDX 18 25 19 26 20 27 21 28 22 29 23 30 24 31 25 32 86 33 26 34
REMARK SMILES IDX 85 35 27 36 28 37 29 38 79 39 30 40 84 41 78 42 80 43 31 44
REMARK SMILES IDX 83 45 77 46 76 47 32 49 64 50 44 51 63 52 45 53 48 54 62 55
REMARK SMILES IDX 81 56 46 57 47 58 61 60 82 61 49 62 33 63 34 64 42 65 35 66
REMARK SMILES IDX 36 67 40 68 43 69 37 70 38 71 41 72 39 73 65 74 66 75 74 76
REMARK SMILES IDX 67 77 68 78 72 79 75 80 69 81 70 82 73 83 71 84 50 85 51 86
REMARK SMILES IDX 59 87 52 88 53 89 57 90 60 91 54 92 55 93 58 94 56 95
REMARK H PARENT 4 15 80 48 48 59
REMARK Flexibility Score: inf
ROOT
ATOM      1  C   UNL     1      -1.166   3.281  -5.294  1.00  0.00     0.202 C 
ENDROOT
BRANCH   1   2
ATOM      2  C   UNL     1      -1.002   2.838  -3.836  1.00  0.00     0.261 C 
BRANCH   2   3
ATOM      3  O   UNL     1      -1.330   1.445  -3.667  1.00  0.00    -0.463 OA
BRANCH   3   4
ATOM      4  C   UNL     1      -2.528   1.165  -3.094  1.00  0.00     0.308 C 
ATOM      5  O   UNL     1      -3.296   2.002  -2.638  1.00  0.00    -0.252 OA
BRANCH   4   6
ATOM      6  C   UNL     1      -2.776  -0.313  -2.972  1.00  0.00     0.156 C 
BRANCH   6   7
ATOM      7  C   UNL     1      -2.932  -1.212  -4.208  1.00  0.00     0.149 C 
ATOM      8  N   UNL     1      -1.087  -2.750  -3.756  1.00  0.00    -0.320 N 
ATOM      9  C   UNL     1      -0.505  -2.502  -5.059  1.00  0.00     0.150 C 
ATOM     10  C   UNL     1      -2.549  -2.662  -3.816  1.00  0.00     0.154 C 
ATOM     11  C   UNL     1      -0.852  -1.077  -5.472  1.00  0.00     0.182 C 
ATOM     12  O   UNL     1      -2.267  -0.823  -5.425  1.00  0.00    -0.374 OA
BRANCH   8  13
ATOM     13  C   UNL     1      -0.451  -2.944  -2.566  1.00  0.00     0.318 C 
ATOM     14  N   UNL     1       0.866  -2.659  -2.399  1.00  0.00    -0.330 N 
ATOM     15  H   UNL     1       1.454  -3.444  -2.317  1.00  0.00     0.166 HD
ATOM     16  O   UNL     1      -1.037  -3.437  -1.599  1.00  0.00    -0.249 OA
BRANCH  14  17
ATOM     17  C   UNL     1       1.560  -1.343  -2.320  1.00  0.00     0.124 C 
BRANCH  17  18
ATOM     18  C   UNL     1       0.804  -0.288  -1.476  1.00  0.00     0.027 C 
ATOM     19  C   UNL     1       1.109  -0.368   0.014  1.00  0.00     0.006 C 
ENDBRANCH  17  18
BRANCH  17  20
ATOM     20  C   UNL     1       2.066  -0.888  -3.674  1.00  0.00     0.027 A 
ATOM     21  C   UNL     1       2.642  -1.656  -4.678  1.00  0.00     0.017 A 
ATOM     22  S   UNL     1       2.166   0.774  -4.118  1.00  0.00    -0.147 S 
ATOM     23  C   UNL     1       2.774  -0.940  -5.904  1.00  0.00     0.012 A 
ATOM     24  C   UNL     1       2.454   0.385  -5.745  1.00  0.00     0.065 A 
ENDBRANCH  17  20
ENDBRANCH  14  17
ENDBRANCH   8  13
ENDBRANCH   6   7
ENDBRANCH   4   6
ENDBRANCH   3   4
ENDBRANCH   2   3
ENDBRANCH   1   2
BRANCH   1  25
ATOM     25  O   UNL     1      -2.518   3.430  -5.733  1.00  0.00    -0.374 OA
BRANCH  25  26
ATOM     26  C   UNL     1      -3.178   2.225  -6.115  1.00  0.00     0.202 C 
BRANCH  26  27
ATOM     27  C   UNL     1      -3.026   1.827  -7.585  1.00  0.00     0.261 C 
BRANCH  27  28
ATOM     28  O   UNL     1      -1.654   1.589  -7.949  1.00  0.00    -0.460 OA
BRANCH  28  29
ATOM     29  C   UNL     1      -1.052   2.634  -8.565  1.00  0.00     0.338 C 
ATOM     30  O   UNL     1      -1.554   3.696  -8.883  1.00  0.00    -0.246 OA
BRANCH  29  31
ATOM     31  C   UNL     1       0.397   2.376  -8.707  1.00  0.00     0.060 A 
ATOM     32  C   UNL     1       1.266   3.427  -8.394  1.00  0.00     0.016 A 
ATOM     33  C   UNL     1       0.898   1.171  -9.208  1.00  0.00     0.016 A 
ATOM     34  C   UNL     1       2.633   3.300  -8.637  1.00  0.00     0.010 A 
ATOM     35  C   UNL     1       2.274   1.043  -9.445  1.00  0.00     0.010 A 
ATOM     36  C   UNL     1       3.146   2.121  -9.195  1.00  0.00    -0.014 A 
BRANCH  36  37
ATOM     37  C   UNL     1       4.571   2.078  -9.620  1.00  0.00     0.031 A 
ATOM     38  C   UNL     1       4.909   2.161 -11.083  1.00  0.00     0.074 A 
ATOM     39  C   UNL     1       5.564   2.018  -8.713  1.00  0.00     0.049 A 
ATOM     40  N   UNL     1       6.082   2.199 -11.664  1.00  0.00    -0.248 NA
ATOM     41  C   UNL     1       3.774   2.209 -12.017  1.00  0.00     0.031 C 
ATOM     42  C   UNL     1       5.382   1.964  -7.267  1.00  0.00     0.029 A 
ATOM     43  N   UNL     1       6.928   1.995  -8.876  1.00  0.00    -0.354 N 
ATOM     44  C   UNL     1       5.827   2.280 -13.026  1.00  0.00     0.074 A 
ATOM     45  C   UNL     1       4.389   2.231 -13.189  1.00  0.00     0.031 C 
ATOM     46  C   UNL     1       6.582   1.895  -6.670  1.00  0.00     0.029 A 
ATOM     47  C   UNL     1       7.622   1.902  -7.694  1.00  0.00     0.049 A 
ATOM     48  H   UNL     1       7.366   2.042  -9.756  1.00  0.00     0.167 HD
ATOM     49  C   UNL     1       6.708   2.404 -14.048  1.00  0.00     0.037 A 
ATOM     50  C   UNL     1       8.946   1.834  -7.458  1.00  0.00     0.037 A 
ATOM     51  C   UNL     1       8.139   2.451 -13.886  1.00  0.00     0.049 A 
ATOM     52  C   UNL     1       9.907   1.919  -8.612  1.00  0.00     0.074 A 
ATOM     53  C   UNL     1       9.112   2.610 -14.858  1.00  0.00     0.029 A 
ATOM     54  N   UNL     1       8.805   2.321 -12.675  1.00  0.00    -0.354 N 
ATOM     55  N   UNL     1       9.655   2.054  -9.892  1.00  0.00    -0.248 NA
ATOM     56  C   UNL     1      11.338   1.863  -8.286  1.00  0.00     0.031 C 
ATOM     57  C   UNL     1      10.366   2.506 -14.245  1.00  0.00     0.029 A 
ATOM     58  C   UNL     1      10.176   2.359 -12.881  1.00  0.00     0.049 A 
ATOM     59  H   UNL     1       8.368   2.217 -11.799  1.00  0.00     0.167 HD
ATOM     60  C   UNL     1      10.891   2.130 -10.519  1.00  0.00     0.074 A 
ATOM     61  C   UNL     1      11.892   2.042  -9.476  1.00  0.00     0.031 C 
ATOM     62  C   UNL     1      11.170   2.264 -11.840  1.00  0.00     0.037 A 
BRANCH  49  63
ATOM     63  C   UNL     1       6.145   2.469 -15.440  1.00  0.00     0.064 A 
ATOM     64  C   UNL     1       5.396   3.568 -15.888  1.00  0.00     0.173 A 
ATOM     65  C   UNL     1       6.374   1.422 -16.346  1.00  0.00     0.173 A 
ATOM     66  F   UNL     1       5.137   4.592 -15.061  1.00  0.00    -0.203 F 
ATOM     67  C   UNL     1       4.863   3.597 -17.175  1.00  0.00     0.198 A 
ATOM     68  C   UNL     1       5.872   1.471 -17.643  1.00  0.00     0.198 A 
ATOM     69  F   UNL     1       7.089   0.349 -15.973  1.00  0.00    -0.203 F 
ATOM     70  F   UNL     1       4.097   4.628 -17.559  1.00  0.00    -0.200 F 
ATOM     71  C   UNL     1       5.107   2.552 -18.053  1.00  0.00     0.200 A 
ATOM     72  F   UNL     1       6.122   0.467 -18.495  1.00  0.00    -0.200 F 
ATOM     73  F   UNL     1       4.597   2.582 -19.292  1.00  0.00    -0.200 F 
ENDBRANCH  49  63
BRANCH  50  74
ATOM     74  C   UNL     1       9.439   1.698  -6.062  1.00  0.00     0.064 A 
ATOM     75  C   UNL     1      10.130   2.740  -5.429  1.00  0.00     0.173 A 
ATOM     76  C   UNL     1       9.225   0.519  -5.331  1.00  0.00     0.173 A 
ATOM     77  F   UNL     1      10.378   3.878  -6.093  1.00  0.00    -0.203 F 
ATOM     78  C   UNL     1      10.605   2.602  -4.126  1.00  0.00     0.198 A 
ATOM     79  C   UNL     1       9.673   0.394  -4.018  1.00  0.00     0.198 A 
ATOM     80  F   UNL     1       8.566  -0.507  -5.889  1.00  0.00    -0.203 F 
ATOM     81  F   UNL     1      11.303   3.596  -3.561  1.00  0.00    -0.200 F 
ATOM     82  C   UNL     1      10.370   1.432  -3.419  1.00  0.00     0.200 A 
ATOM     83  F   UNL     1       9.429  -0.733  -3.334  1.00  0.00    -0.200 F 
ATOM     84  F   UNL     1      10.820   1.302  -2.164  1.00  0.00    -0.200 F 
ENDBRANCH  50  74
BRANCH  62  85
ATOM     85  C   UNL     1      12.618   2.361 -12.234  1.00  0.00     0.064 A 
ATOM     86  C   UNL     1      13.494   1.270 -12.118  1.00  0.00     0.173 A 
ATOM     87  C   UNL     1      13.133   3.558 -12.756  1.00  0.00     0.173 A 
ATOM     88  F   UNL     1      13.059   0.105 -11.614  1.00  0.00    -0.203 F 
ATOM     89  C   UNL     1      14.836   1.386 -12.473  1.00  0.00     0.198 A 
ATOM     90  C   UNL     1      14.466   3.659 -13.146  1.00  0.00     0.198 A 
ATOM     91  F   UNL     1      12.341   4.631 -12.898  1.00  0.00    -0.203 F 
ATOM     92  F   UNL     1      15.666   0.349 -12.293  1.00  0.00    -0.200 F 
ATOM     93  C   UNL     1      15.319   2.577 -12.993  1.00  0.00     0.200 A 
ATOM     94  F   UNL     1      14.926   4.806 -13.665  1.00  0.00    -0.200 F 
ATOM     95  F   UNL     1      16.610   2.686 -13.337  1.00  0.00    -0.200 F 
ENDBRANCH  62  85
ENDBRANCH  36  37
ENDBRANCH  29  31
ENDBRANCH  28  29
ENDBRANCH  27  28
ENDBRANCH  26  27
ENDBRANCH  25  26
ENDBRANCH   1  25
TORSDOF 19
