REMARK SMILES C=CCN(CC(=O)OCCOCCOC(=O)c1ccc(-c2c3nc(c(-c4c(F)c(F)c(F)c(F)c4F)c4ccc([nH]4)c(-c4c(F)c(F)c(F)c(F)c4F)c4nc(c(-c5c(F)c(F)c(F)c(F)c5F)c5ccc2[nH]5)C=C4)C=C3)cc1)C(=O)N(C)[C@H]1CCC[N@H+](C)C1
REMARK SMILES IDX 10 1 9 2 8 3 6 4 7 5 5 6 4 7 3 8 2 9 1 10 80 11 81 12 82 13
REMARK SMILES IDX 83 14 84 15 85 16 90 17 86 18 88 19 87 20 89 21 11 23 12 24
REMARK SMILES IDX 13 25 14 26 15 27 16 28 17 29 18 30 79 31 19 32 78 33 20 34
REMARK SMILES IDX 21 35 22 36 72 37 23 38 77 39 71 40 73 41 24 42 76 43 70 44
REMARK SMILES IDX 69 45 25 47 57 48 37 49 56 50 38 51 41 52 55 53 74 54 39 55
REMARK SMILES IDX 40 56 54 58 75 59 42 60 26 61 27 62 35 63 28 64 29 65 33 66
REMARK SMILES IDX 36 67 30 68 31 69 34 70 32 71 58 72 59 73 67 74 60 75 61 76
REMARK SMILES IDX 65 77 68 78 62 79 63 80 66 81 64 82 43 83 44 84 52 85 45 86
REMARK SMILES IDX 46 87 50 88 53 89 47 90 48 91 51 92 49 93
REMARK H PARENT 88 22 73 46 41 57
REMARK Flexibility Score: inf
ROOT
ATOM      1  C   UNL     1      -2.310   2.984  10.988  1.00  0.00     0.202 C 
ENDROOT
BRANCH   1   2
ATOM      2  C   UNL     1      -3.683   3.562  10.621  1.00  0.00     0.261 C 
BRANCH   2   3
ATOM      3  O   UNL     1      -4.109   3.284   9.262  1.00  0.00    -0.462 OA
BRANCH   3   4
ATOM      4  C   UNL     1      -4.488   4.359   8.518  1.00  0.00     0.325 C 
ATOM      5  O   UNL     1      -4.534   5.506   8.957  1.00  0.00    -0.250 OA
BRANCH   4   6
ATOM      6  C   UNL     1      -4.981   4.045   7.088  1.00  0.00     0.244 C 
BRANCH   6   7
ATOM      7  N   UNL     1      -4.788   2.757   6.387  1.00  0.00    -0.310 N 
BRANCH   7   8
ATOM      8  C   UNL     1      -5.875   1.799   6.634  1.00  0.00     0.149 C 
BRANCH   8   9
ATOM      9  C   UNL     1      -6.913   1.900   5.545  1.00  0.00    -0.013 C 
ATOM     10  C   UNL     1      -7.347   0.848   4.834  1.00  0.00     0.006 C 
ENDBRANCH   8   9
ENDBRANCH   7   8
BRANCH   7  11
ATOM     11  C   UNL     1      -3.864   2.338   5.430  1.00  0.00     0.321 C 
ATOM     12  O   UNL     1      -4.181   1.395   4.695  1.00  0.00    -0.248 OA
BRANCH  11  13
ATOM     13  N   UNL     1      -2.575   2.867   5.304  1.00  0.00    -0.319 N 
ATOM     14  C   UNL     1      -2.264   4.274   5.502  1.00  0.00     0.149 C 
BRANCH  13  15
ATOM     15  C   UNL     1      -1.616   2.105   4.390  1.00  0.00     0.141 C 
ATOM     16  C   UNL     1      -0.127   2.574   4.372  1.00  0.00     0.037 C 
ATOM     17  C   UNL     1      -1.560   0.537   4.527  1.00  0.00     0.287 C 
ATOM     18  C   UNL     1       0.757   1.974   5.473  1.00  0.00     0.064 C 
ATOM     19  N   UNL     1      -0.806   0.052   5.697  1.00  0.00    -0.336 N 
ATOM     20  C   UNL     1       0.601   0.457   5.609  1.00  0.00     0.262 C 
ATOM     21  C   UNL     1      -0.914  -1.404   5.809  1.00  0.00     0.332 C 
ATOM     22  H   UNL     1      -1.209   0.471   6.535  1.00  0.00     0.347 HD
ENDBRANCH  13  15
ENDBRANCH  11  13
ENDBRANCH   7  11
ENDBRANCH   6   7
ENDBRANCH   4   6
ENDBRANCH   3   4
ENDBRANCH   2   3
ENDBRANCH   1   2
BRANCH   1  23
ATOM     23  O   UNL     1      -1.180   3.463  10.277  1.00  0.00    -0.374 OA
BRANCH  23  24
ATOM     24  C   UNL     1      -1.171   3.380   8.862  1.00  0.00     0.202 C 
BRANCH  24  25
ATOM     25  C   UNL     1      -1.716   2.135   8.169  1.00  0.00     0.261 C 
BRANCH  25  26
ATOM     26  O   UNL     1      -1.984   0.992   8.946  1.00  0.00    -0.460 OA
BRANCH  26  27
ATOM     27  C   UNL     1      -0.919   0.234   9.257  1.00  0.00     0.338 C 
ATOM     28  O   UNL     1       0.259   0.442   9.077  1.00  0.00    -0.246 OA
BRANCH  27  29
ATOM     29  C   UNL     1      -1.510  -0.866  10.024  1.00  0.00     0.060 A 
ATOM     30  C   UNL     1      -1.122  -1.012  11.354  1.00  0.00     0.016 A 
ATOM     31  C   UNL     1      -2.516  -1.659   9.454  1.00  0.00     0.016 A 
ATOM     32  C   UNL     1      -1.730  -1.991  12.125  1.00  0.00     0.010 A 
ATOM     33  C   UNL     1      -3.127  -2.634  10.228  1.00  0.00     0.010 A 
ATOM     34  C   UNL     1      -2.714  -2.814  11.557  1.00  0.00    -0.014 A 
BRANCH  34  35
ATOM     35  C   UNL     1      -3.224  -3.959  12.328  1.00  0.00     0.031 A 
ATOM     36  C   UNL     1      -2.631  -5.308  12.068  1.00  0.00     0.074 A 
ATOM     37  C   UNL     1      -4.178  -3.769  13.253  1.00  0.00     0.049 A 
ATOM     38  N   UNL     1      -2.896  -6.454  12.636  1.00  0.00    -0.248 NA
ATOM     39  C   UNL     1      -1.598  -5.374  11.021  1.00  0.00     0.031 C 
ATOM     40  C   UNL     1      -4.791  -2.482  13.576  1.00  0.00     0.029 A 
ATOM     41  N   UNL     1      -4.794  -4.659  14.090  1.00  0.00    -0.354 N 
ATOM     42  C   UNL     1      -2.065  -7.375  12.016  1.00  0.00     0.074 A 
ATOM     43  C   UNL     1      -1.316  -6.667  11.002  1.00  0.00     0.031 C 
ATOM     44  C   UNL     1      -5.692  -2.663  14.556  1.00  0.00     0.029 A 
ATOM     45  C   UNL     1      -5.736  -4.082  14.902  1.00  0.00     0.049 A 
ATOM     46  H   UNL     1      -4.581  -5.620  14.108  1.00  0.00     0.167 HD
ATOM     47  C   UNL     1      -1.938  -8.695  12.283  1.00  0.00     0.037 A 
ATOM     48  C   UNL     1      -6.543  -4.650  15.817  1.00  0.00     0.037 A 
ATOM     49  C   UNL     1      -2.709  -9.376  13.288  1.00  0.00     0.049 A 
ATOM     50  C   UNL     1      -6.426  -6.131  16.055  1.00  0.00     0.074 A 
ATOM     51  C   UNL     1      -2.666 -10.706  13.659  1.00  0.00     0.029 A 
ATOM     52  N   UNL     1      -3.681  -8.768  14.073  1.00  0.00    -0.354 N 
ATOM     53  N   UNL     1      -5.613  -6.997  15.496  1.00  0.00    -0.248 NA
ATOM     54  C   UNL     1      -7.333  -6.716  17.050  1.00  0.00     0.031 C 
ATOM     55  C   UNL     1      -3.651 -10.915  14.632  1.00  0.00     0.029 A 
ATOM     56  C   UNL     1      -4.265  -9.703  14.911  1.00  0.00     0.049 A 
ATOM     57  H   UNL     1      -3.920  -7.814  14.039  1.00  0.00     0.167 HD
ATOM     58  C   UNL     1      -5.882  -8.219  16.094  1.00  0.00     0.074 A 
ATOM     59  C   UNL     1      -6.938  -7.982  17.060  1.00  0.00     0.031 C 
ATOM     60  C   UNL     1      -5.305  -9.427  15.872  1.00  0.00     0.037 A 
BRANCH  47  61
ATOM     61  C   UNL     1      -0.966  -9.474  11.444  1.00  0.00     0.064 A 
ATOM     62  C   UNL     1       0.420  -9.270  11.533  1.00  0.00     0.173 A 
ATOM     63  C   UNL     1      -1.430 -10.420  10.518  1.00  0.00     0.173 A 
ATOM     64  F   UNL     1       0.916  -8.364  12.389  1.00  0.00    -0.203 F 
ATOM     65  C   UNL     1       1.301  -9.952  10.696  1.00  0.00     0.198 A 
ATOM     66  C   UNL     1      -0.544 -11.123   9.706  1.00  0.00     0.198 A 
ATOM     67  F   UNL     1      -2.744 -10.654  10.390  1.00  0.00    -0.203 F 
ATOM     68  F   UNL     1       2.614  -9.690  10.752  1.00  0.00    -0.200 F 
ATOM     69  C   UNL     1       0.819 -10.880   9.786  1.00  0.00     0.200 A 
ATOM     70  F   UNL     1      -1.012 -12.027   8.833  1.00  0.00    -0.200 F 
ATOM     71  F   UNL     1       1.666 -11.530   8.977  1.00  0.00    -0.200 F 
ENDBRANCH  47  61
BRANCH  48  72
ATOM     72  C   UNL     1      -7.496  -3.806  16.582  1.00  0.00     0.064 A 
ATOM     73  C   UNL     1      -7.300  -3.554  17.947  1.00  0.00     0.173 A 
ATOM     74  C   UNL     1      -8.598  -3.202  15.959  1.00  0.00     0.173 A 
ATOM     75  F   UNL     1      -6.269  -4.121  18.591  1.00  0.00    -0.203 F 
ATOM     76  C   UNL     1      -8.172  -2.733  18.660  1.00  0.00     0.198 A 
ATOM     77  C   UNL     1      -9.455  -2.362  16.667  1.00  0.00     0.198 A 
ATOM     78  F   UNL     1      -8.827  -3.407  14.654  1.00  0.00    -0.203 F 
ATOM     79  F   UNL     1      -7.976  -2.529  19.969  1.00  0.00    -0.200 F 
ATOM     80  C   UNL     1      -9.244  -2.131  18.018  1.00  0.00     0.200 A 
ATOM     81  F   UNL     1     -10.480  -1.770  16.039  1.00  0.00    -0.200 F 
ATOM     82  F   UNL     1     -10.073  -1.330  18.701  1.00  0.00    -0.200 F 
ENDBRANCH  48  72
BRANCH  60  83
ATOM     83  C   UNL     1      -5.764 -10.573  16.724  1.00  0.00     0.064 A 
ATOM     84  C   UNL     1      -7.010 -11.185  16.529  1.00  0.00     0.173 A 
ATOM     85  C   UNL     1      -4.910 -11.107  17.700  1.00  0.00     0.173 A 
ATOM     86  F   UNL     1      -7.866 -10.700  15.617  1.00  0.00    -0.203 F 
ATOM     87  C   UNL     1      -7.390 -12.285  17.293  1.00  0.00     0.198 A 
ATOM     88  C   UNL     1      -5.281 -12.224  18.441  1.00  0.00     0.198 A 
ATOM     89  F   UNL     1      -3.705 -10.560  17.918  1.00  0.00    -0.203 F 
ATOM     90  F   UNL     1      -8.600 -12.834  17.117  1.00  0.00    -0.200 F 
ATOM     91  C   UNL     1      -6.522 -12.809  18.241  1.00  0.00     0.200 A 
ATOM     92  F   UNL     1      -4.435 -12.739  19.344  1.00  0.00    -0.200 F 
ATOM     93  F   UNL     1      -6.884 -13.878  18.963  1.00  0.00    -0.200 F 
ENDBRANCH  60  83
ENDBRANCH  34  35
ENDBRANCH  27  29
ENDBRANCH  26  27
ENDBRANCH  25  26
ENDBRANCH  24  25
ENDBRANCH  23  24
ENDBRANCH   1  23
TORSDOF 20
