REMARK SMILES COC[C@@H](C)[C@@](O)(C(=O)OCCOCCOC(=O)c1ccc(-c2c3nc(c(-c4c(F)c(F)c(F)c(F)c4F)c4ccc([nH]4)c(-c4c(F)c(F)c(F)c(F)c4F)c4nc(c(-c5c(F)c(F)c(F)c(F)c5F)c5ccc2[nH]5)C=C4)C=C3)cc1)C(C)C
REMARK SMILES IDX 12 1 11 2 10 3 8 4 9 5 6 6 4 7 5 8 3 9 2 10 1 11 7 12 82 14
REMARK SMILES IDX 83 15 84 16 13 17 14 18 15 19 16 20 17 21 18 22 19 23 20 24
REMARK SMILES IDX 81 25 21 26 80 27 22 28 23 29 24 30 74 31 25 32 79 33 73 34
REMARK SMILES IDX 75 35 26 36 78 37 72 38 71 39 27 41 59 42 39 43 58 44 40 45
REMARK SMILES IDX 43 46 57 47 76 48 41 49 42 50 56 52 77 53 44 54 28 55 29 56
REMARK SMILES IDX 37 57 30 58 31 59 35 60 38 61 32 62 33 63 36 64 34 65 60 66
REMARK SMILES IDX 61 67 69 68 62 69 63 70 67 71 70 72 64 73 65 74 68 75 66 76
REMARK SMILES IDX 45 77 46 78 54 79 47 80 48 81 52 82 55 83 49 84 50 85 53 86
REMARK SMILES IDX 51 87
REMARK H PARENT 7 13 75 40 43 51
REMARK Flexibility Score: inf
ROOT
ATOM      1  C   UNL     1      -0.946  -5.981  -3.226  1.00  0.00     0.202 C 
ENDROOT
BRANCH   1   2
ATOM      2  C   UNL     1      -0.813  -6.398  -1.759  1.00  0.00     0.261 C 
BRANCH   2   3
ATOM      3  O   UNL     1      -0.412  -5.304  -0.905  1.00  0.00    -0.461 OA
BRANCH   3   4
ATOM      4  C   UNL     1       0.799  -5.452  -0.301  1.00  0.00     0.338 C 
ATOM      5  O   UNL     1       1.520  -6.430  -0.491  1.00  0.00    -0.249 OA
BRANCH   4   6
ATOM      6  C   UNL     1       1.184  -4.286   0.677  1.00  0.00     0.168 C 
BRANCH   6   7
ATOM      7  C   UNL     1       0.383  -2.941   0.491  1.00  0.00     0.055 C 
ATOM      8  C   UNL     1       0.353  -2.350  -0.917  1.00  0.00     0.014 C 
BRANCH   7   9
ATOM      9  C   UNL     1       0.775  -1.850   1.512  1.00  0.00     0.166 C 
BRANCH   9  10
ATOM     10  O   UNL     1       0.034  -0.636   1.367  1.00  0.00    -0.384 OA
ATOM     11  C   UNL     1       0.740   0.407   0.698  1.00  0.00     0.194 C 
ENDBRANCH   9  10
ENDBRANCH   7   9
ENDBRANCH   6   7
BRANCH   6  12
ATOM     12  O   UNL     1       0.736  -4.846   1.944  1.00  0.00    -0.378 OA
ATOM     13  H   UNL     1      -0.234  -4.877   1.958  1.00  0.00     0.212 HD
ENDBRANCH   6  12
BRANCH   6  14
ATOM     14  C   UNL     1       2.766  -4.252   0.694  1.00  0.00     0.026 C 
ATOM     15  C   UNL     1       3.400  -3.742  -0.604  1.00  0.00     0.011 C 
ATOM     16  C   UNL     1       3.471  -3.595   1.888  1.00  0.00     0.011 C 
ENDBRANCH   6  14
ENDBRANCH   4   6
ENDBRANCH   3   4
ENDBRANCH   2   3
ENDBRANCH   1   2
BRANCH   1  17
ATOM     17  O   UNL     1       0.266  -5.788  -3.957  1.00  0.00    -0.374 OA
BRANCH  17  18
ATOM     18  C   UNL     1       0.972  -4.571  -3.733  1.00  0.00     0.202 C 
BRANCH  18  19
ATOM     19  C   UNL     1       0.410  -3.329  -4.446  1.00  0.00     0.261 C 
BRANCH  19  20
ATOM     20  O   UNL     1      -0.948  -3.049  -4.056  1.00  0.00    -0.460 OA
BRANCH  20  21
ATOM     21  C   UNL     1      -1.855  -3.140  -5.053  1.00  0.00     0.338 C 
ATOM     22  O   UNL     1      -1.630  -3.237  -6.253  1.00  0.00    -0.246 OA
BRANCH  21  23
ATOM     23  C   UNL     1      -3.214  -3.307  -4.502  1.00  0.00     0.060 A 
ATOM     24  C   UNL     1      -3.937  -4.425  -4.936  1.00  0.00     0.016 A 
ATOM     25  C   UNL     1      -3.804  -2.369  -3.651  1.00  0.00     0.016 A 
ATOM     26  C   UNL     1      -5.276  -4.571  -4.584  1.00  0.00     0.010 A 
ATOM     27  C   UNL     1      -5.155  -2.515  -3.303  1.00  0.00     0.010 A 
ATOM     28  C   UNL     1      -5.909  -3.591  -3.808  1.00  0.00    -0.014 A 
BRANCH  28  29
ATOM     29  C   UNL     1      -7.391  -3.618  -3.701  1.00  0.00     0.031 A 
ATOM     30  C   UNL     1      -8.202  -2.738  -4.616  1.00  0.00     0.074 A 
ATOM     31  C   UNL     1      -8.014  -4.477  -2.875  1.00  0.00     0.049 A 
ATOM     32  N   UNL     1      -9.502  -2.636  -4.739  1.00  0.00    -0.248 NA
ATOM     33  C   UNL     1      -7.443  -1.859  -5.520  1.00  0.00     0.031 C 
ATOM     34  C   UNL     1      -7.349  -5.413  -1.973  1.00  0.00     0.029 A 
ATOM     35  N   UNL     1      -9.354  -4.704  -2.670  1.00  0.00    -0.354 N 
ATOM     36  C   UNL     1      -9.714  -1.690  -5.733  1.00  0.00     0.074 A 
ATOM     37  C   UNL     1      -8.413  -1.218  -6.155  1.00  0.00     0.031 C 
ATOM     38  C   UNL     1      -8.283  -6.115  -1.308  1.00  0.00     0.029 A 
ATOM     39  C   UNL     1      -9.611  -5.660  -1.719  1.00  0.00     0.049 A 
ATOM     40  H   UNL     1     -10.062  -4.226  -3.159  1.00  0.00     0.167 HD
ATOM     41  C   UNL     1     -10.887  -1.263  -6.260  1.00  0.00     0.037 A 
ATOM     42  C   UNL     1     -10.784  -6.108  -1.229  1.00  0.00     0.037 A 
ATOM     43  C   UNL     1     -12.184  -1.730  -5.846  1.00  0.00     0.049 A 
ATOM     44  C   UNL     1     -12.077  -5.563  -1.780  1.00  0.00     0.074 A 
ATOM     45  C   UNL     1     -13.428  -1.361  -6.327  1.00  0.00     0.029 A 
ATOM     46  N   UNL     1     -12.403  -2.664  -4.845  1.00  0.00    -0.354 N 
ATOM     47  N   UNL     1     -12.267  -4.686  -2.736  1.00  0.00    -0.248 NA
ATOM     48  C   UNL     1     -13.320  -6.076  -1.186  1.00  0.00     0.031 C 
ATOM     49  C   UNL     1     -14.402  -2.036  -5.584  1.00  0.00     0.029 A 
ATOM     50  C   UNL     1     -13.764  -2.865  -4.676  1.00  0.00     0.049 A 
ATOM     51  H   UNL     1     -11.696  -3.118  -4.331  1.00  0.00     0.167 HD
ATOM     52  C   UNL     1     -13.644  -4.562  -2.875  1.00  0.00     0.074 A 
ATOM     53  C   UNL     1     -14.243  -5.465  -1.916  1.00  0.00     0.031 C 
ATOM     54  C   UNL     1     -14.348  -3.772  -3.722  1.00  0.00     0.037 A 
BRANCH  41  55
ATOM     55  C   UNL     1     -10.821  -0.219  -7.336  1.00  0.00     0.064 A 
ATOM     56  C   UNL     1     -10.367  -0.521  -8.629  1.00  0.00     0.173 A 
ATOM     57  C   UNL     1     -11.250   1.092  -7.080  1.00  0.00     0.173 A 
ATOM     58  F   UNL     1      -9.933  -1.756  -8.920  1.00  0.00    -0.203 F 
ATOM     59  C   UNL     1     -10.323   0.458  -9.618  1.00  0.00     0.198 A 
ATOM     60  C   UNL     1     -11.230   2.061  -8.079  1.00  0.00     0.198 A 
ATOM     61  F   UNL     1     -11.697   1.431  -5.861  1.00  0.00    -0.203 F 
ATOM     62  F   UNL     1      -9.845   0.158 -10.834  1.00  0.00    -0.200 F 
ATOM     63  C   UNL     1     -10.761   1.745  -9.345  1.00  0.00     0.200 A 
ATOM     64  F   UNL     1     -11.665   3.301  -7.816  1.00  0.00    -0.200 F 
ATOM     65  F   UNL     1     -10.725   2.684 -10.300  1.00  0.00    -0.200 F 
ENDBRANCH  41  55
BRANCH  42  66
ATOM     66  C   UNL     1     -10.793  -7.122  -0.142  1.00  0.00     0.064 A 
ATOM     67  C   UNL     1     -11.264  -8.423  -0.362  1.00  0.00     0.173 A 
ATOM     68  C   UNL     1     -10.353  -6.798   1.150  1.00  0.00     0.173 A 
ATOM     69  F   UNL     1     -11.723  -8.773  -1.573  1.00  0.00    -0.203 F 
ATOM     70  C   UNL     1     -11.310  -9.357   0.672  1.00  0.00     0.198 A 
ATOM     71  C   UNL     1     -10.373  -7.740   2.176  1.00  0.00     0.198 A 
ATOM     72  F   UNL     1      -9.899  -5.564   1.415  1.00  0.00    -0.203 F 
ATOM     73  F   UNL     1     -11.810 -10.579   0.446  1.00  0.00    -0.200 F 
ATOM     74  C   UNL     1     -10.859  -9.016   1.938  1.00  0.00     0.200 A 
ATOM     75  F   UNL     1      -9.927  -7.409   3.396  1.00  0.00    -0.200 F 
ATOM     76  F   UNL     1     -10.902  -9.914   2.931  1.00  0.00    -0.200 F 
ENDBRANCH  42  66
BRANCH  54  77
ATOM     77  C   UNL     1     -15.846  -3.866  -3.675  1.00  0.00     0.064 A 
ATOM     78  C   UNL     1     -16.584  -3.344  -2.603  1.00  0.00     0.173 A 
ATOM     79  C   UNL     1     -16.555  -4.447  -4.738  1.00  0.00     0.173 A 
ATOM     80  F   UNL     1     -15.954  -2.790  -1.556  1.00  0.00    -0.203 F 
ATOM     81  C   UNL     1     -17.974  -3.421  -2.585  1.00  0.00     0.198 A 
ATOM     82  C   UNL     1     -17.946  -4.496  -4.731  1.00  0.00     0.198 A 
ATOM     83  F   UNL     1     -15.898  -4.954  -5.792  1.00  0.00    -0.203 F 
ATOM     84  F   UNL     1     -18.656  -2.955  -1.530  1.00  0.00    -0.200 F 
ATOM     85  C   UNL     1     -18.654  -3.990  -3.652  1.00  0.00     0.200 A 
ATOM     86  F   UNL     1     -18.602  -5.033  -5.769  1.00  0.00    -0.200 F 
ATOM     87  F   UNL     1     -19.993  -4.055  -3.637  1.00  0.00    -0.200 F 
ENDBRANCH  54  77
ENDBRANCH  28  29
ENDBRANCH  21  23
ENDBRANCH  20  21
ENDBRANCH  19  20
ENDBRANCH  18  19
ENDBRANCH  17  18
ENDBRANCH   1  17
TORSDOF 19
