REMARK SMILES C[C@@H](C(=O)OCCOCCOC(=O)c1ccc(-c2c3nc(c(-c4c(F)c(F)c(F)c(F)c4F)c4ccc([nH]4)c(-c4c(F)c(F)c(F)c(F)c4F)c4nc(c(-c5c(F)c(F)c(F)c(F)c5F)c5ccc2[nH]5)C=C4)C=C3)cc1)c1ccc(C[C@@H]2CCC[C@@H]2O)cc1Br
REMARK SMILES IDX 7 1 6 2 5 3 3 4 4 5 2 6 1 7 77 8 78 9 89 10 79 11 88 12
REMARK SMILES IDX 90 13 80 14 81 15 82 16 83 17 86 18 84 19 85 20 87 21 8 23
REMARK SMILES IDX 9 24 10 25 11 26 12 27 13 28 14 29 15 30 76 31 16 32 75 33
REMARK SMILES IDX 17 34 18 35 19 36 69 37 20 38 74 39 68 40 70 41 21 42 73 43
REMARK SMILES IDX 67 44 66 45 22 47 54 48 34 49 53 50 35 51 38 52 52 53 71 54
REMARK SMILES IDX 36 55 37 56 51 58 72 59 39 60 23 61 24 62 32 63 25 64 26 65
REMARK SMILES IDX 30 66 33 67 27 68 28 69 31 70 29 71 55 72 56 73 64 74 57 75
REMARK SMILES IDX 58 76 62 77 65 78 59 79 60 80 63 81 61 82 40 83 41 84 49 85
REMARK SMILES IDX 42 86 43 87 47 88 50 89 44 90 45 91 48 92 46 93
REMARK H PARENT 87 22 70 46 38 57
REMARK Flexibility Score: inf
ROOT
ATOM      1  C   UNL     1      -6.748   3.715   9.825  1.00  0.00     0.202 C 
ENDROOT
BRANCH   1   2
ATOM      2  C   UNL     1      -7.842   4.399   9.002  1.00  0.00     0.261 C 
BRANCH   2   3
ATOM      3  O   UNL     1      -8.894   3.474   8.664  1.00  0.00    -0.463 OA
BRANCH   3   4
ATOM      4  C   UNL     1      -9.189   3.397   7.336  1.00  0.00     0.313 C 
ATOM      5  O   UNL     1      -8.727   4.165   6.499  1.00  0.00    -0.252 OA
BRANCH   4   6
ATOM      6  C   UNL     1     -10.144   2.237   6.993  1.00  0.00     0.127 C 
ATOM      7  C   UNL     1     -10.564   1.387   8.202  1.00  0.00     0.025 C 
BRANCH   6   8
ATOM      8  C   UNL     1      -9.561   1.430   5.827  1.00  0.00    -0.020 A 
ATOM      9  C   UNL     1      -8.808   0.261   6.058  1.00  0.00     0.006 A 
ATOM     10  C   UNL     1      -9.638   1.892   4.499  1.00  0.00     0.022 A 
ATOM     11  C   UNL     1      -8.112  -0.379   5.024  1.00  0.00     0.004 A 
ATOM     12  C   UNL     1      -8.913   1.267   3.476  1.00  0.00     0.019 A 
ATOM     13  Br  UNL     1     -10.712   3.377   3.975  1.00  0.00    -0.050 Br
ATOM     14  C   UNL     1      -8.116   0.145   3.731  1.00  0.00    -0.047 A 
BRANCH  14  15
ATOM     15  C   UNL     1      -7.297  -0.463   2.619  1.00  0.00     0.041 C 
BRANCH  15  16
ATOM     16  C   UNL     1      -5.773  -0.203   2.583  1.00  0.00     0.022 C 
ATOM     17  C   UNL     1      -4.981  -0.877   3.710  1.00  0.00     0.007 C 
ATOM     18  C   UNL     1      -5.290   1.250   2.650  1.00  0.00     0.117 C 
ATOM     19  C   UNL     1      -4.650   0.212   4.733  1.00  0.00     0.003 C 
ATOM     20  C   UNL     1      -5.123   1.534   4.136  1.00  0.00     0.032 C 
BRANCH  18  21
ATOM     21  O   UNL     1      -6.157   2.172   2.027  1.00  0.00    -0.393 OA
ATOM     22  H   UNL     1      -7.026   2.141   2.458  1.00  0.00     0.210 HD
ENDBRANCH  18  21
ENDBRANCH  15  16
ENDBRANCH  14  15
ENDBRANCH   6   8
ENDBRANCH   4   6
ENDBRANCH   3   4
ENDBRANCH   2   3
ENDBRANCH   1   2
BRANCH   1  23
ATOM     23  O   UNL     1      -5.996   2.699   9.162  1.00  0.00    -0.374 OA
BRANCH  23  24
ATOM     24  C   UNL     1      -6.640   1.446   8.941  1.00  0.00     0.202 C 
BRANCH  24  25
ATOM     25  C   UNL     1      -6.750   0.517  10.158  1.00  0.00     0.261 C 
BRANCH  25  26
ATOM     26  O   UNL     1      -7.574   1.075  11.199  1.00  0.00    -0.460 OA
BRANCH  26  27
ATOM     27  C   UNL     1      -6.915   1.373  12.343  1.00  0.00     0.338 C 
ATOM     28  O   UNL     1      -5.749   1.121  12.616  1.00  0.00    -0.246 OA
BRANCH  27  29
ATOM     29  C   UNL     1      -7.748   2.227  13.210  1.00  0.00     0.060 A 
ATOM     30  C   UNL     1      -7.192   3.436  13.648  1.00  0.00     0.016 A 
ATOM     31  C   UNL     1      -9.008   1.823  13.657  1.00  0.00     0.016 A 
ATOM     32  C   UNL     1      -7.869   4.221  14.577  1.00  0.00     0.010 A 
ATOM     33  C   UNL     1      -9.683   2.610  14.600  1.00  0.00     0.010 A 
ATOM     34  C   UNL     1      -9.099   3.792  15.091  1.00  0.00    -0.014 A 
BRANCH  34  35
ATOM     35  C   UNL     1      -9.687   4.503  16.253  1.00  0.00     0.031 A 
ATOM     36  C   UNL     1      -9.457   3.954  17.635  1.00  0.00     0.074 A 
ATOM     37  C   UNL     1     -10.375   5.646  16.088  1.00  0.00     0.049 A 
ATOM     38  N   UNL     1      -9.877   4.406  18.790  1.00  0.00    -0.248 NA
ATOM     39  C   UNL     1      -8.642   2.733  17.726  1.00  0.00     0.031 C 
ATOM     40  C   UNL     1     -10.629   6.299  14.806  1.00  0.00     0.029 A 
ATOM     41  N   UNL     1     -10.986   6.459  17.009  1.00  0.00    -0.354 N 
ATOM     42  C   UNL     1      -9.377   3.527  19.742  1.00  0.00     0.074 A 
ATOM     43  C   UNL     1      -8.651   2.498  19.030  1.00  0.00     0.031 C 
ATOM     44  C   UNL     1     -11.354   7.410  15.021  1.00  0.00     0.029 A 
ATOM     45  C   UNL     1     -11.635   7.531  16.451  1.00  0.00     0.049 A 
ATOM     46  H   UNL     1     -10.961   6.289  17.979  1.00  0.00     0.167 HD
ATOM     47  C   UNL     1      -9.503   3.579  21.089  1.00  0.00     0.037 A 
ATOM     48  C   UNL     1     -12.385   8.490  17.029  1.00  0.00     0.037 A 
ATOM     49  C   UNL     1     -10.226   4.601  21.799  1.00  0.00     0.049 A 
ATOM     50  C   UNL     1     -12.568   8.488  18.524  1.00  0.00     0.074 A 
ATOM     51  C   UNL     1     -10.402   4.746  23.164  1.00  0.00     0.029 A 
ATOM     52  N   UNL     1     -10.900   5.652  21.195  1.00  0.00    -0.354 N 
ATOM     53  N   UNL     1     -12.076   7.665  19.418  1.00  0.00    -0.248 NA
ATOM     54  C   UNL     1     -13.410   9.552  19.091  1.00  0.00     0.031 C 
ATOM     55  C   UNL     1     -11.219   5.860  23.384  1.00  0.00     0.029 A 
ATOM     56  C   UNL     1     -11.513   6.437  22.159  1.00  0.00     0.049 A 
ATOM     57  H   UNL     1     -10.938   5.817  20.225  1.00  0.00     0.167 HD
ATOM     58  C   UNL     1     -12.524   8.124  20.650  1.00  0.00     0.074 A 
ATOM     59  C   UNL     1     -13.320   9.306  20.390  1.00  0.00     0.031 C 
ATOM     60  C   UNL     1     -12.297   7.614  21.885  1.00  0.00     0.037 A 
BRANCH  47  61
ATOM     61  C   UNL     1      -8.859   2.484  21.886  1.00  0.00     0.064 A 
ATOM     62  C   UNL     1      -7.467   2.409  22.042  1.00  0.00     0.173 A 
ATOM     63  C   UNL     1      -9.645   1.514  22.526  1.00  0.00     0.173 A 
ATOM     64  F   UNL     1      -6.671   3.304  21.437  1.00  0.00    -0.203 F 
ATOM     65  C   UNL     1      -6.885   1.391  22.792  1.00  0.00     0.198 A 
ATOM     66  C   UNL     1      -9.061   0.513  23.297  1.00  0.00     0.198 A 
ATOM     67  F   UNL     1     -10.982   1.543  22.410  1.00  0.00    -0.203 F 
ATOM     68  F   UNL     1      -5.550   1.314  22.893  1.00  0.00    -0.200 F 
ATOM     69  C   UNL     1      -7.682   0.448  23.424  1.00  0.00     0.200 A 
ATOM     70  F   UNL     1      -9.833  -0.392  23.914  1.00  0.00    -0.200 F 
ATOM     71  F   UNL     1      -7.120  -0.529  24.150  1.00  0.00    -0.200 F 
ENDBRANCH  47  61
BRANCH  48  72
ATOM     72  C   UNL     1     -13.031   9.530  16.188  1.00  0.00     0.064 A 
ATOM     73  C   UNL     1     -12.611  10.866  16.236  1.00  0.00     0.173 A 
ATOM     74  C   UNL     1     -14.094   9.211  15.330  1.00  0.00     0.173 A 
ATOM     75  F   UNL     1     -11.617  11.226  17.062  1.00  0.00    -0.203 F 
ATOM     76  C   UNL     1     -13.239  11.846  15.469  1.00  0.00     0.198 A 
ATOM     77  C   UNL     1     -14.704  10.186  14.544  1.00  0.00     0.198 A 
ATOM     78  F   UNL     1     -14.536   7.947  15.251  1.00  0.00    -0.203 F 
ATOM     79  F   UNL     1     -12.846  13.123  15.566  1.00  0.00    -0.200 F 
ATOM     80  C   UNL     1     -14.280  11.504  14.619  1.00  0.00     0.200 A 
ATOM     81  F   UNL     1     -15.703   9.849  13.718  1.00  0.00    -0.200 F 
ATOM     82  F   UNL     1     -14.882  12.446  13.880  1.00  0.00    -0.200 F 
ENDBRANCH  48  72
BRANCH  60  83
ATOM     83  C   UNL     1     -12.889   8.345  23.054  1.00  0.00     0.064 A 
ATOM     84  C   UNL     1     -14.264   8.304  23.328  1.00  0.00     0.173 A 
ATOM     85  C   UNL     1     -12.063   9.058  23.938  1.00  0.00     0.173 A 
ATOM     86  F   UNL     1     -15.096   7.648  22.505  1.00  0.00    -0.203 F 
ATOM     87  C   UNL     1     -14.793   8.969  24.430  1.00  0.00     0.198 A 
ATOM     88  C   UNL     1     -12.593   9.699  25.054  1.00  0.00     0.198 A 
ATOM     89  F   UNL     1     -10.740   9.121  23.724  1.00  0.00    -0.203 F 
ATOM     90  F   UNL     1     -16.116   8.952  24.649  1.00  0.00    -0.200 F 
ATOM     91  C   UNL     1     -13.958   9.659  25.296  1.00  0.00     0.200 A 
ATOM     92  F   UNL     1     -11.783  10.355  25.896  1.00  0.00    -0.200 F 
ATOM     93  F   UNL     1     -14.469  10.293  26.361  1.00  0.00    -0.200 F 
ENDBRANCH  60  83
ENDBRANCH  34  35
ENDBRANCH  27  29
ENDBRANCH  26  27
ENDBRANCH  25  26
ENDBRANCH  24  25
ENDBRANCH  23  24
ENDBRANCH   1  23
TORSDOF 18
