REMARK SMILES Cc1cc(=O)c(Oc2ccc(C(=O)OCCOCCOC(=O)c3ccc(-c4c5nc(c(-c6c(F)c(F)c(F)c(F)c6F)c6ccc([nH]6)c(-c6c(F)c(F)c(F)c(F)c6F)c6nc(c(-c7c(F)c(F)c(F)c(F)c7F)c7ccc4[nH]7)C=C6)C=C5)cc3)cc2)c(-c2ccc(S(C)(=O)=O)cc2)o1
REMARK SMILES IDX 16 1 15 2 14 3 12 4 13 5 11 6 8 7 9 8 87 9 10 10 86 11 7 12
REMARK SMILES IDX 6 13 1 14 2 15 3 16 99 17 4 18 88 19 5 20 89 21 90 22 98 23
REMARK SMILES IDX 91 24 97 25 92 26 93 27 94 28 95 29 96 30 17 31 18 32 19 33
REMARK SMILES IDX 20 34 21 35 22 36 23 37 24 38 85 39 25 40 84 41 26 42 27 43
REMARK SMILES IDX 28 44 78 45 29 46 83 47 77 48 79 49 30 50 82 51 76 52 75 53
REMARK SMILES IDX 31 55 63 56 43 57 62 58 44 59 47 60 61 61 80 62 45 63 46 64
REMARK SMILES IDX 60 66 81 67 48 68 32 69 33 70 41 71 34 72 35 73 39 74 42 75
REMARK SMILES IDX 36 76 37 77 40 78 38 79 64 80 65 81 73 82 66 83 67 84 71 85
REMARK SMILES IDX 74 86 68 87 69 88 72 89 70 90 49 91 50 92 58 93 51 94 52 95
REMARK SMILES IDX 56 96 59 97 53 98 54 99 57 100 55 101
REMARK H PARENT 79 54 47 65
REMARK Flexibility Score: inf
ROOT
ATOM      1  C   UNL     1       0.085  11.706  -2.457  1.00  0.00     0.202 C 
ENDROOT
BRANCH   1   2
ATOM      2  C   UNL     1       0.319  11.445  -3.951  1.00  0.00     0.261 C 
BRANCH   2   3
ATOM      3  O   UNL     1       0.011  10.083  -4.298  1.00  0.00    -0.460 OA
BRANCH   3   4
ATOM      4  C   UNL     1       1.083   9.299  -4.583  1.00  0.00     0.338 C 
ATOM      5  O   UNL     1       2.221   9.681  -4.801  1.00  0.00    -0.246 OA
BRANCH   4   6
ATOM      6  C   UNL     1       0.719   7.857  -4.485  1.00  0.00     0.060 A 
ATOM      7  C   UNL     1       0.168   5.132  -4.104  1.00  0.00     0.127 A 
ATOM      8  C   UNL     1       1.483   5.554  -4.262  1.00  0.00     0.048 A 
ATOM      9  C   UNL     1      -0.877   6.056  -4.218  1.00  0.00     0.048 A 
ATOM     10  C   UNL     1       1.760   6.917  -4.420  1.00  0.00     0.019 A 
ATOM     11  C   UNL     1      -0.607   7.415  -4.406  1.00  0.00     0.019 A 
BRANCH   7  12
ATOM     12  O   UNL     1      -0.191   3.819  -4.013  1.00  0.00    -0.449 OA
BRANCH  12  13
ATOM     13  C   UNL     1       0.232   2.929  -3.040  1.00  0.00     0.217 A 
ATOM     14  C   UNL     1       1.034  -0.144  -0.104  1.00  0.00     0.088 C 
ATOM     15  C   UNL     1       0.720   0.810  -1.210  1.00  0.00     0.105 A 
ATOM     16  C   UNL     1       0.006   0.491  -2.290  1.00  0.00     0.098 A 
ATOM     17  O   UNL     1       1.235   2.067  -1.015  1.00  0.00    -0.457 OA
ATOM     18  C   UNL     1      -0.259   1.532  -3.296  1.00  0.00     0.228 A 
ATOM     19  C   UNL     1       0.952   3.099  -1.903  1.00  0.00     0.180 A 
ATOM     20  O   UNL     1      -0.892   1.235  -4.307  1.00  0.00    -0.285 OA
BRANCH  19  21
ATOM     21  C   UNL     1       1.551   4.329  -1.369  1.00  0.00     0.021 A 
ATOM     22  C   UNL     1       2.953   4.434  -1.295  1.00  0.00     0.013 A 
ATOM     23  C   UNL     1       0.762   5.318  -0.783  1.00  0.00     0.013 A 
ATOM     24  C   UNL     1       3.564   5.546  -0.712  1.00  0.00     0.021 A 
ATOM     25  C   UNL     1       1.379   6.398  -0.151  1.00  0.00     0.021 A 
ATOM     26  C   UNL     1       2.768   6.533  -0.147  1.00  0.00     0.067 A 
BRANCH  26  27
ATOM     27  S   UNL     1       3.505   8.028   0.476  1.00  0.00     0.175 S 
ATOM     28  C   UNL     1       3.417   7.873   2.235  1.00  0.00     0.163 C 
ATOM     29  O   UNL     1       4.902   8.024   0.089  1.00  0.00    -0.224 OA
ATOM     30  O   UNL     1       2.632   9.112   0.085  1.00  0.00    -0.224 OA
ENDBRANCH  26  27
ENDBRANCH  19  21
ENDBRANCH  12  13
ENDBRANCH   7  12
ENDBRANCH   4   6
ENDBRANCH   3   4
ENDBRANCH   2   3
ENDBRANCH   1   2
BRANCH   1  31
ATOM     31  O   UNL     1       0.683  10.752  -1.587  1.00  0.00    -0.374 OA
BRANCH  31  32
ATOM     32  C   UNL     1      -0.035   9.526  -1.457  1.00  0.00     0.202 C 
BRANCH  32  33
ATOM     33  C   UNL     1      -0.474   9.268  -0.018  1.00  0.00     0.261 C 
BRANCH  33  34
ATOM     34  O   UNL     1      -1.636  10.022   0.266  1.00  0.00    -0.460 OA
BRANCH  34  35
ATOM     35  C   UNL     1      -1.457  11.253   0.791  1.00  0.00     0.338 C 
ATOM     36  O   UNL     1      -0.497  11.723   1.345  1.00  0.00    -0.246 OA
BRANCH  35  37
ATOM     37  C   UNL     1      -2.644  11.970   0.300  1.00  0.00     0.060 A 
ATOM     38  C   UNL     1      -3.841  11.261   0.119  1.00  0.00     0.016 A 
ATOM     39  C   UNL     1      -2.490  13.281  -0.152  1.00  0.00     0.016 A 
ATOM     40  C   UNL     1      -4.872  11.844  -0.581  1.00  0.00     0.010 A 
ATOM     41  C   UNL     1      -3.557  13.895  -0.792  1.00  0.00     0.010 A 
ATOM     42  C   UNL     1      -4.744  13.176  -0.995  1.00  0.00    -0.014 A 
BRANCH  42  43
ATOM     43  C   UNL     1      -5.955  13.853  -1.468  1.00  0.00     0.031 A 
ATOM     44  C   UNL     1      -6.133  14.192  -2.905  1.00  0.00     0.074 A 
ATOM     45  C   UNL     1      -6.890  14.097  -0.534  1.00  0.00     0.049 A 
ATOM     46  N   UNL     1      -7.154  14.763  -3.482  1.00  0.00    -0.248 NA
ATOM     47  C   UNL     1      -5.028  13.855  -3.816  1.00  0.00     0.031 C 
ATOM     48  C   UNL     1      -6.755  13.762   0.890  1.00  0.00     0.029 A 
ATOM     49  N   UNL     1      -8.133  14.647  -0.629  1.00  0.00    -0.354 N 
ATOM     50  C   UNL     1      -6.820  14.858  -4.822  1.00  0.00     0.074 A 
ATOM     51  C   UNL     1      -5.487  14.315  -4.973  1.00  0.00     0.031 C 
ATOM     52  C   UNL     1      -7.893  14.067   1.523  1.00  0.00     0.029 A 
ATOM     53  C   UNL     1      -8.802  14.683   0.568  1.00  0.00     0.049 A 
ATOM     54  H   UNL     1      -8.514  14.985  -1.472  1.00  0.00     0.167 HD
ATOM     55  C   UNL     1      -7.583  15.353  -5.823  1.00  0.00     0.037 A 
ATOM     56  C   UNL     1     -10.014  15.179   0.859  1.00  0.00     0.037 A 
ATOM     57  C   UNL     1      -8.902  15.894  -5.615  1.00  0.00     0.049 A 
ATOM     58  C   UNL     1     -10.806  15.773  -0.266  1.00  0.00     0.074 A 
ATOM     59  C   UNL     1      -9.773  16.428  -6.547  1.00  0.00     0.029 A 
ATOM     60  N   UNL     1      -9.538  15.972  -4.380  1.00  0.00    -0.354 N 
ATOM     61  N   UNL     1     -10.495  15.848  -1.539  1.00  0.00    -0.248 NA
ATOM     62  C   UNL     1     -12.105  16.353   0.078  1.00  0.00     0.031 C 
ATOM     63  C   UNL     1     -10.910  16.878  -5.869  1.00  0.00     0.029 A 
ATOM     64  C   UNL     1     -10.780  16.569  -4.523  1.00  0.00     0.049 A 
ATOM     65  H   UNL     1      -9.161  15.650  -3.530  1.00  0.00     0.167 HD
ATOM     66  C   UNL     1     -11.566  16.473  -2.155  1.00  0.00     0.074 A 
ATOM     67  C   UNL     1     -12.545  16.731  -1.114  1.00  0.00     0.031 C 
ATOM     68  C   UNL     1     -11.725  16.809  -3.458  1.00  0.00     0.037 A 
BRANCH  55  69
ATOM     69  C   UNL     1      -7.013  15.349  -7.211  1.00  0.00     0.064 A 
ATOM     70  C   UNL     1      -6.832  14.157  -7.928  1.00  0.00     0.173 A 
ATOM     71  C   UNL     1      -6.698  16.555  -7.856  1.00  0.00     0.173 A 
ATOM     72  F   UNL     1      -7.101  12.975  -7.353  1.00  0.00    -0.203 F 
ATOM     73  C   UNL     1      -6.348  14.171  -9.234  1.00  0.00     0.198 A 
ATOM     74  C   UNL     1      -6.240  16.568  -9.171  1.00  0.00     0.198 A 
ATOM     75  F   UNL     1      -6.849  17.724  -7.215  1.00  0.00    -0.203 F 
ATOM     76  F   UNL     1      -6.152  13.017  -9.887  1.00  0.00    -0.200 F 
ATOM     77  C   UNL     1      -6.063  15.377  -9.858  1.00  0.00     0.200 A 
ATOM     78  F   UNL     1      -5.976  17.734  -9.776  1.00  0.00    -0.200 F 
ATOM     79  F   UNL     1      -5.614  15.390 -11.120  1.00  0.00    -0.200 F 
ENDBRANCH  55  69
BRANCH  56  80
ATOM     80  C   UNL     1     -10.521  15.106   2.250  1.00  0.00     0.064 A 
ATOM     81  C   UNL     1     -11.597  14.272   2.579  1.00  0.00     0.173 A 
ATOM     82  C   UNL     1      -9.899  15.812   3.293  1.00  0.00     0.173 A 
ATOM     83  F   UNL     1     -12.224  13.579   1.618  1.00  0.00    -0.203 F 
ATOM     84  C   UNL     1     -12.038  14.154   3.895  1.00  0.00     0.198 A 
ATOM     85  C   UNL     1     -10.320  15.668   4.612  1.00  0.00     0.198 A 
ATOM     86  F   UNL     1      -8.852  16.609   3.035  1.00  0.00    -0.203 F 
ATOM     87  F   UNL     1     -13.086  13.369   4.178  1.00  0.00    -0.200 F 
ATOM     88  C   UNL     1     -11.394  14.844   4.912  1.00  0.00     0.200 A 
ATOM     89  F   UNL     1      -9.677  16.314   5.594  1.00  0.00    -0.200 F 
ATOM     90  F   UNL     1     -11.807  14.712   6.179  1.00  0.00    -0.200 F 
ENDBRANCH  56  80
BRANCH  68  91
ATOM     91  C   UNL     1     -13.013  17.479  -3.829  1.00  0.00     0.064 A 
ATOM     92  C   UNL     1     -13.282  18.803  -3.454  1.00  0.00     0.173 A 
ATOM     93  C   UNL     1     -13.957  16.810  -4.621  1.00  0.00     0.173 A 
ATOM     94  F   UNL     1     -12.416  19.476  -2.680  1.00  0.00    -0.203 F 
ATOM     95  C   UNL     1     -14.461  19.428  -3.846  1.00  0.00     0.198 A 
ATOM     96  C   UNL     1     -15.118  17.451  -5.042  1.00  0.00     0.198 A 
ATOM     97  F   UNL     1     -13.741  15.544  -5.009  1.00  0.00    -0.203 F 
ATOM     98  F   UNL     1     -14.720  20.679  -3.440  1.00  0.00    -0.200 F 
ATOM     99  C   UNL     1     -15.371  18.757  -4.649  1.00  0.00     0.200 A 
ATOM    100  F   UNL     1     -15.987  16.807  -5.832  1.00  0.00    -0.200 F 
ATOM    101  F   UNL     1     -16.497  19.368  -5.042  1.00  0.00    -0.200 F 
ENDBRANCH  68  91
ENDBRANCH  42  43
ENDBRANCH  35  37
ENDBRANCH  34  35
ENDBRANCH  33  34
ENDBRANCH  32  33
ENDBRANCH  31  32
ENDBRANCH   1  31
TORSDOF 18
