REMARK SMILES COc1ccc2c(CC(=O)OCCOCCOC(=O)c3ccc(-c4c5nc(c(-c6c(F)c(F)c(F)c(F)c6F)c6ccc([nH]6)c(-c6c(F)c(F)c(F)c(F)c6F)c6nc(c(-c7c(F)c(F)c(F)c(F)c7F)c7ccc4[nH]7)C=C6)C=C5)cc3)c(C(=O)c3cc(C)ccn3)[nH]c2c1
REMARK SMILES IDX 13 1 12 2 11 3 9 4 10 5 8 6 7 7 3 8 4 9 95 10 5 11 94 12
REMARK SMILES IDX 6 13 93 14 83 15 2 17 1 18 84 19 85 20 86 21 87 22 92 23
REMARK SMILES IDX 88 24 91 25 89 26 90 27 14 28 15 29 16 30 17 31 18 32 19 33
REMARK SMILES IDX 20 34 21 35 82 36 22 37 81 38 23 39 24 40 25 41 75 42 26 43
REMARK SMILES IDX 80 44 74 45 76 46 27 47 79 48 73 49 72 50 28 52 60 53 40 54
REMARK SMILES IDX 59 55 41 56 44 57 58 58 77 59 42 60 43 61 57 63 78 64 45 65
REMARK SMILES IDX 29 66 30 67 38 68 31 69 32 70 36 71 39 72 33 73 34 74 37 75
REMARK SMILES IDX 35 76 61 77 62 78 70 79 63 80 64 81 68 82 71 83 65 84 66 85
REMARK SMILES IDX 69 86 67 87 46 88 47 89 55 90 48 91 49 92 53 93 56 94 50 95
REMARK SMILES IDX 51 96 54 97 52 98
REMARK H PARENT 93 16 76 51 44 62
REMARK Flexibility Score: inf
ROOT
ATOM      1  C   UNL     1       3.635  -2.657   9.975  1.00  0.00     0.202 C 
ENDROOT
BRANCH   1   2
ATOM      2  C   UNL     1       4.279  -2.700   8.580  1.00  0.00     0.261 C 
BRANCH   2   3
ATOM      3  O   UNL     1       3.360  -3.013   7.512  1.00  0.00    -0.463 OA
BRANCH   3   4
ATOM      4  C   UNL     1       3.818  -3.926   6.610  1.00  0.00     0.310 C 
ATOM      5  O   UNL     1       4.971  -4.355   6.601  1.00  0.00    -0.252 OA
BRANCH   4   6
ATOM      6  C   UNL     1       2.777  -4.485   5.661  1.00  0.00     0.161 C 
BRANCH   6   7
ATOM      7  C   UNL     1       1.585  -3.631   5.318  1.00  0.00     0.000 A 
ATOM      8  C   UNL     1       0.931  -0.633   2.429  1.00  0.00     0.120 A 
ATOM      9  C   UNL     1       2.251  -1.059   2.554  1.00  0.00     0.047 A 
ATOM     10  C   UNL     1      -0.056  -1.104   3.300  1.00  0.00     0.073 A 
ATOM     11  C   UNL     1       2.601  -2.019   3.515  1.00  0.00     0.014 A 
ATOM     12  C   UNL     1       0.306  -2.089   4.229  1.00  0.00     0.050 A 
ATOM     13  C   UNL     1       1.604  -2.571   4.348  1.00  0.00     0.004 A 
ATOM     14  N   UNL     1      -0.460  -2.769   5.144  1.00  0.00    -0.351 N 
ATOM     15  C   UNL     1       0.248  -3.816   5.701  1.00  0.00     0.093 A 
ATOM     16  H   UNL     1      -1.390  -2.540   5.373  1.00  0.00     0.167 HD
BRANCH   8  17
ATOM     17  O   UNL     1       0.513   0.286   1.500  1.00  0.00    -0.497 OA
ATOM     18  C   UNL     1       1.064   0.086   0.199  1.00  0.00     0.278 C 
ENDBRANCH   8  17
BRANCH  15  19
ATOM     19  C   UNL     1      -0.343  -4.886   6.511  1.00  0.00     0.227 C 
ATOM     20  O   UNL     1       0.278  -5.888   6.857  1.00  0.00    -0.285 OA
BRANCH  19  21
ATOM     21  C   UNL     1      -1.752  -4.755   6.997  1.00  0.00     0.113 A 
ATOM     22  C   UNL     1      -2.838  -4.876   6.141  1.00  0.00     0.036 A 
ATOM     23  N   UNL     1      -1.876  -4.496   8.323  1.00  0.00    -0.253 NA
ATOM     24  C   UNL     1      -4.119  -4.695   6.678  1.00  0.00    -0.047 A 
ATOM     25  C   UNL     1      -3.113  -4.311   8.815  1.00  0.00     0.112 A 
ATOM     26  C   UNL     1      -5.353  -4.833   5.839  1.00  0.00     0.044 C 
ATOM     27  C   UNL     1      -4.252  -4.395   8.039  1.00  0.00     0.023 A 
ENDBRANCH  19  21
ENDBRANCH  15  19
ENDBRANCH   6   7
ENDBRANCH   4   6
ENDBRANCH   3   4
ENDBRANCH   2   3
ENDBRANCH   1   2
BRANCH   1  28
ATOM     28  O   UNL     1       2.874  -3.789  10.390  1.00  0.00    -0.374 OA
BRANCH  28  29
ATOM     29  C   UNL     1       1.735  -4.132   9.606  1.00  0.00     0.202 C 
BRANCH  29  30
ATOM     30  C   UNL     1       0.595  -3.112   9.554  1.00  0.00     0.261 C 
BRANCH  30  31
ATOM     31  O   UNL     1       1.003  -1.759   9.359  1.00  0.00    -0.460 OA
BRANCH  31  32
ATOM     32  C   UNL     1       0.344  -0.862  10.118  1.00  0.00     0.338 C 
ATOM     33  O   UNL     1      -0.583  -1.042  10.893  1.00  0.00    -0.246 OA
BRANCH  32  34
ATOM     34  C   UNL     1       0.974   0.441   9.918  1.00  0.00     0.060 A 
ATOM     35  C   UNL     1       1.864   0.906  10.889  1.00  0.00     0.016 A 
ATOM     36  C   UNL     1       0.609   1.224   8.822  1.00  0.00     0.016 A 
ATOM     37  C   UNL     1       2.358   2.201  10.789  1.00  0.00     0.010 A 
ATOM     38  C   UNL     1       1.110   2.519   8.721  1.00  0.00     0.010 A 
ATOM     39  C   UNL     1       1.953   3.023   9.726  1.00  0.00    -0.014 A 
BRANCH  39  40
ATOM     40  C   UNL     1       2.307   4.457   9.749  1.00  0.00     0.031 A 
ATOM     41  C   UNL     1       1.292   5.447  10.241  1.00  0.00     0.074 A 
ATOM     42  C   UNL     1       3.534   4.852   9.370  1.00  0.00     0.049 A 
ATOM     43  N   UNL     1       1.394   6.744  10.374  1.00  0.00    -0.248 NA
ATOM     44  C   UNL     1      -0.018   4.903  10.636  1.00  0.00     0.031 C 
ATOM     45  C   UNL     1       4.592   3.964   8.893  1.00  0.00     0.029 A 
ATOM     46  N   UNL     1       4.094   6.101   9.330  1.00  0.00    -0.354 N 
ATOM     47  C   UNL     1       0.168   7.168  10.870  1.00  0.00     0.074 A 
ATOM     48  C   UNL     1      -0.677   6.000  10.978  1.00  0.00     0.031 C 
ATOM     49  C   UNL     1       5.681   4.698   8.610  1.00  0.00     0.029 A 
ATOM     50  C   UNL     1       5.384   6.106   8.863  1.00  0.00     0.049 A 
ATOM     51  H   UNL     1       3.618   6.916   9.609  1.00  0.00     0.167 HD
ATOM     52  C   UNL     1      -0.209   8.422  11.216  1.00  0.00     0.037 A 
ATOM     53  C   UNL     1       6.223   7.139   8.656  1.00  0.00     0.037 A 
ATOM     54  C   UNL     1       0.642   9.576  11.099  1.00  0.00     0.049 A 
ATOM     55  C   UNL     1       5.761   8.529   9.002  1.00  0.00     0.074 A 
ATOM     56  C   UNL     1       0.372  10.889  11.438  1.00  0.00     0.029 A 
ATOM     57  N   UNL     1       1.935   9.549  10.594  1.00  0.00    -0.354 N 
ATOM     58  N   UNL     1       4.615   8.919   9.508  1.00  0.00    -0.248 NA
ATOM     59  C   UNL     1       6.709   9.623   8.752  1.00  0.00     0.031 C 
ATOM     60  C   UNL     1       1.484  11.665  11.095  1.00  0.00     0.029 A 
ATOM     61  C   UNL     1       2.466  10.828  10.587  1.00  0.00     0.049 A 
ATOM     62  H   UNL     1       2.405   8.741  10.286  1.00  0.00     0.167 HD
ATOM     63  C   UNL     1       4.711  10.295   9.658  1.00  0.00     0.074 A 
ATOM     64  C   UNL     1       6.035  10.671   9.204  1.00  0.00     0.031 C 
ATOM     65  C   UNL     1       3.788  11.172  10.128  1.00  0.00     0.037 A 
BRANCH  52  66
ATOM     66  C   UNL     1      -1.606   8.607  11.730  1.00  0.00     0.064 A 
ATOM     67  C   UNL     1      -1.992   8.143  12.997  1.00  0.00     0.173 A 
ATOM     68  C   UNL     1      -2.567   9.275  10.956  1.00  0.00     0.173 A 
ATOM     69  F   UNL     1      -1.117   7.485  13.771  1.00  0.00    -0.203 F 
ATOM     70  C   UNL     1      -3.295   8.319  13.459  1.00  0.00     0.198 A 
ATOM     71  C   UNL     1      -3.861   9.472  11.431  1.00  0.00     0.198 A 
ATOM     72  F   UNL     1      -2.250   9.739   9.738  1.00  0.00    -0.203 F 
ATOM     73  F   UNL     1      -3.654   7.826  14.652  1.00  0.00    -0.200 F 
ATOM     74  C   UNL     1      -4.226   8.988  12.678  1.00  0.00     0.200 A 
ATOM     75  F   UNL     1      -4.757  10.126  10.679  1.00  0.00    -0.200 F 
ATOM     76  F   UNL     1      -5.478   9.158  13.124  1.00  0.00    -0.200 F 
ENDBRANCH  52  66
BRANCH  53  77
ATOM     77  C   UNL     1       7.579   6.891   8.103  1.00  0.00     0.064 A 
ATOM     78  C   UNL     1       8.725   7.073   8.887  1.00  0.00     0.173 A 
ATOM     79  C   UNL     1       7.754   6.462   6.779  1.00  0.00     0.173 A 
ATOM     80  F   UNL     1       8.610   7.502  10.153  1.00  0.00    -0.203 F 
ATOM     81  C   UNL     1       9.998   6.848   8.365  1.00  0.00     0.198 A 
ATOM     82  C   UNL     1       9.025   6.212   6.266  1.00  0.00     0.198 A 
ATOM     83  F   UNL     1       6.689   6.273   5.987  1.00  0.00    -0.203 F 
ATOM     84  F   UNL     1      11.080   7.067   9.124  1.00  0.00    -0.200 F 
ATOM     85  C   UNL     1      10.146   6.411   7.056  1.00  0.00     0.200 A 
ATOM     86  F   UNL     1       9.162   5.779   5.005  1.00  0.00    -0.200 F 
ATOM     87  F   UNL     1      11.369   6.190   6.556  1.00  0.00    -0.200 F 
ENDBRANCH  53  77
BRANCH  65  88
ATOM     88  C   UNL     1       4.189  12.616  10.191  1.00  0.00     0.064 A 
ATOM     89  C   UNL     1       4.303  13.396   9.032  1.00  0.00     0.173 A 
ATOM     90  C   UNL     1       4.419  13.236  11.429  1.00  0.00     0.173 A 
ATOM     91  F   UNL     1       4.107  12.844   7.825  1.00  0.00    -0.203 F 
ATOM     92  C   UNL     1       4.655  14.741   9.108  1.00  0.00     0.198 A 
ATOM     93  C   UNL     1       4.742  14.587  11.503  1.00  0.00     0.198 A 
ATOM     94  F   UNL     1       4.315  12.533  12.567  1.00  0.00    -0.203 F 
ATOM     95  F   UNL     1       4.801  15.457   7.985  1.00  0.00    -0.200 F 
ATOM     96  C   UNL     1       4.867  15.336  10.343  1.00  0.00     0.200 A 
ATOM     97  F   UNL     1       4.934  15.164  12.697  1.00  0.00    -0.200 F 
ATOM     98  F   UNL     1       5.198  16.633  10.414  1.00  0.00    -0.200 F 
ENDBRANCH  65  88
ENDBRANCH  39  40
ENDBRANCH  32  34
ENDBRANCH  31  32
ENDBRANCH  30  31
ENDBRANCH  29  30
ENDBRANCH  28  29
ENDBRANCH   1  28
TORSDOF 18
