REMARK SMILES CCOc1ccc(-c2cc(Cl)cc3c2O[C@@H](C(F)(F)F)C(C(=O)OCCOCCOC(=O)c2ccc(-c4c5nc(c(-c6c(F)c(F)c(F)c(F)c6F)c6ccc([nH]6)c(-c6c(F)c(F)c(F)c(F)c6F)c6nc(c(-c7c(F)c(F)c(F)c(F)c7F)c7ccc4[nH]7)C=C6)C=C5)cc2)=C3)cc1
REMARK SMILES IDX 26 1 25 2 24 3 22 4 23 5 21 6 8 7 9 8 14 9 10 10 13 11 15 12
REMARK SMILES IDX 11 13 12 14 96 15 16 16 7 17 4 18 5 19 98 20 6 21 97 22 3 23
REMARK SMILES IDX 2 24 1 25 17 26 18 27 19 28 20 29 27 30 28 31 29 32 30 33
REMARK SMILES IDX 31 34 32 35 33 36 34 37 95 38 35 39 94 40 36 41 37 42 38 43
REMARK SMILES IDX 88 44 39 45 93 46 87 47 89 48 40 49 92 50 86 51 85 52 41 54
REMARK SMILES IDX 73 55 53 56 72 57 54 58 57 59 71 60 90 61 55 62 56 63 70 65
REMARK SMILES IDX 91 66 58 67 42 68 43 69 51 70 44 71 45 72 49 73 52 74 46 75
REMARK SMILES IDX 47 76 50 77 48 78 74 79 75 80 83 81 76 82 77 83 81 84 84 85
REMARK SMILES IDX 78 86 79 87 82 88 80 89 59 90 60 91 68 92 61 93 62 94 66 95
REMARK SMILES IDX 69 96 63 97 64 98 67 99 65 100
REMARK H PARENT 89 53 57 64
REMARK Flexibility Score: inf
ROOT
ATOM      1  C   UNL     1      12.402   5.400   1.905  1.00  0.00     0.202 C 
ENDROOT
BRANCH   1   2
ATOM      2  C   UNL     1      12.825   4.474   0.753  1.00  0.00     0.261 C 
BRANCH   2   3
ATOM      3  O   UNL     1      11.806   4.308  -0.244  1.00  0.00    -0.460 OA
BRANCH   3   4
ATOM      4  C   UNL     1      11.739   3.090  -0.814  1.00  0.00     0.338 C 
ATOM      5  O   UNL     1      12.557   2.193  -0.662  1.00  0.00    -0.246 OA
BRANCH   4   6
ATOM      6  C   UNL     1      10.461   2.871  -1.533  1.00  0.00     0.087 C 
ATOM      7  C   UNL     1       6.981   3.932   0.486  1.00  0.00     0.026 A 
ATOM      8  C   UNL     1       7.356   3.937   1.847  1.00  0.00     0.033 A 
ATOM      9  C   UNL     1       7.987   3.493  -0.405  1.00  0.00     0.135 A 
ATOM     10  C   UNL     1       8.444   3.184   2.289  1.00  0.00     0.042 A 
ATOM     11  C   UNL     1       8.907   2.530   0.039  1.00  0.00     0.019 A 
ATOM     12  O   UNL     1       8.425   4.355  -1.436  1.00  0.00    -0.475 OA
ATOM     13  Cl  UNL     1       8.829   3.147   3.963  1.00  0.00    -0.084 Cl
ATOM     14  C   UNL     1       9.155   2.392   1.399  1.00  0.00     0.032 A 
ATOM     15  C   UNL     1       9.776   1.869  -0.957  1.00  0.00     0.027 C 
ATOM     16  C   UNL     1       9.601   3.905  -2.231  1.00  0.00     0.316 C 
BRANCH   7  17
ATOM     17  C   UNL     1       5.505   3.645   0.288  1.00  0.00    -0.014 A 
ATOM     18  C   UNL     1       2.810   2.673   0.488  1.00  0.00     0.119 A 
ATOM     19  C   UNL     1       3.190   3.851   1.125  1.00  0.00     0.047 A 
ATOM     20  C   UNL     1       3.745   2.007  -0.294  1.00  0.00     0.047 A 
ATOM     21  C   UNL     1       4.512   4.332   1.022  1.00  0.00     0.013 A 
ATOM     22  C   UNL     1       5.071   2.486  -0.392  1.00  0.00     0.013 A 
BRANCH  18  23
ATOM     23  O   UNL     1       1.488   2.327   0.539  1.00  0.00    -0.494 OA
BRANCH  23  24
ATOM     24  C   UNL     1       1.178   1.036   1.080  1.00  0.00     0.226 C 
ATOM     25  C   UNL     1       1.007  -0.013  -0.009  1.00  0.00     0.049 C 
ENDBRANCH  23  24
ENDBRANCH  18  23
ENDBRANCH   7  17
BRANCH  16  26
ATOM     26  C   UNL     1      10.393   4.998  -2.986  1.00  0.00     0.430 C 
ATOM     27  F   UNL     1      11.049   4.427  -4.035  1.00  0.00    -0.167 F 
ATOM     28  F   UNL     1       9.579   5.940  -3.514  1.00  0.00    -0.167 F 
ATOM     29  F   UNL     1      11.323   5.641  -2.256  1.00  0.00    -0.167 F 
ENDBRANCH  16  26
ENDBRANCH   4   6
ENDBRANCH   3   4
ENDBRANCH   2   3
ENDBRANCH   1   2
BRANCH   1  30
ATOM     30  O   UNL     1      11.016   5.599   2.146  1.00  0.00    -0.374 OA
BRANCH  30  31
ATOM     31  C   UNL     1      10.247   6.277   1.155  1.00  0.00     0.202 C 
BRANCH  31  32
ATOM     32  C   UNL     1      10.533   7.756   0.884  1.00  0.00     0.261 C 
BRANCH  32  33
ATOM     33  O   UNL     1      11.874   8.012   0.441  1.00  0.00    -0.460 OA
BRANCH  33  34
ATOM     34  C   UNL     1      12.626   8.729   1.306  1.00  0.00     0.338 C 
ATOM     35  O   UNL     1      12.295   9.171   2.401  1.00  0.00    -0.246 OA
BRANCH  34  36
ATOM     36  C   UNL     1      14.010   8.799   0.823  1.00  0.00     0.060 A 
ATOM     37  C   UNL     1      15.021   8.258   1.627  1.00  0.00     0.016 A 
ATOM     38  C   UNL     1      14.319   9.483  -0.354  1.00  0.00     0.016 A 
ATOM     39  C   UNL     1      16.356   8.432   1.274  1.00  0.00     0.010 A 
ATOM     40  C   UNL     1      15.658   9.663  -0.703  1.00  0.00     0.010 A 
ATOM     41  C   UNL     1      16.681   9.168   0.127  1.00  0.00    -0.014 A 
BRANCH  41  42
ATOM     42  C   UNL     1      18.090   9.543  -0.132  1.00  0.00     0.031 A 
ATOM     43  C   UNL     1      18.545  10.936   0.196  1.00  0.00     0.074 A 
ATOM     44  C   UNL     1      18.950   8.647  -0.644  1.00  0.00     0.049 A 
ATOM     45  N   UNL     1      19.710  11.499   0.004  1.00  0.00    -0.248 NA
ATOM     46  C   UNL     1      17.545  11.817   0.820  1.00  0.00     0.031 C 
ATOM     47  C   UNL     1      18.631   7.256  -0.958  1.00  0.00     0.029 A 
ATOM     48  N   UNL     1      20.269   8.780  -0.996  1.00  0.00    -0.354 N 
ATOM     49  C   UNL     1      19.580  12.802   0.470  1.00  0.00     0.074 A 
ATOM     50  C   UNL     1      18.214  12.956   0.920  1.00  0.00     0.031 C 
ATOM     51  C   UNL     1      19.727   6.661  -1.456  1.00  0.00     0.029 A 
ATOM     52  C   UNL     1      20.809   7.640  -1.534  1.00  0.00     0.049 A 
ATOM     53  H   UNL     1      20.779   9.614  -0.874  1.00  0.00     0.167 HD
ATOM     54  C   UNL     1      20.520  13.777   0.522  1.00  0.00     0.037 A 
ATOM     55  C   UNL     1      22.034   7.423  -2.049  1.00  0.00     0.037 A 
ATOM     56  C   UNL     1      21.876  13.611   0.066  1.00  0.00     0.049 A 
ATOM     57  C   UNL     1      23.034   8.550  -2.062  1.00  0.00     0.074 A 
ATOM     58  C   UNL     1      22.915  14.524   0.096  1.00  0.00     0.029 A 
ATOM     59  N   UNL     1      22.376  12.456  -0.519  1.00  0.00    -0.354 N 
ATOM     60  N   UNL     1      22.918   9.769  -1.593  1.00  0.00    -0.248 NA
ATOM     61  C   UNL     1      24.337   8.268  -2.680  1.00  0.00     0.031 C 
ATOM     62  C   UNL     1      24.023  13.944  -0.531  1.00  0.00     0.029 A 
ATOM     63  C   UNL     1      23.698  12.645  -0.888  1.00  0.00     0.049 A 
ATOM     64  H   UNL     1      21.866  11.624  -0.652  1.00  0.00     0.167 HD
ATOM     65  C   UNL     1      24.142  10.386  -1.822  1.00  0.00     0.074 A 
ATOM     66  C   UNL     1      24.988   9.403  -2.466  1.00  0.00     0.031 C 
ATOM     67  C   UNL     1      24.531  11.651  -1.522  1.00  0.00     0.037 A 
BRANCH  54  68
ATOM     68  C   UNL     1      20.095  15.118   1.050  1.00  0.00     0.064 A 
ATOM     69  C   UNL     1      19.744  15.312   2.395  1.00  0.00     0.173 A 
ATOM     70  C   UNL     1      20.038  16.230   0.195  1.00  0.00     0.173 A 
ATOM     71  F   UNL     1      19.769  14.282   3.255  1.00  0.00    -0.203 F 
ATOM     72  C   UNL     1      19.310  16.555   2.853  1.00  0.00     0.198 A 
ATOM     73  C   UNL     1      19.640  17.479   0.663  1.00  0.00     0.198 A 
ATOM     74  F   UNL     1      20.368  16.106  -1.100  1.00  0.00    -0.203 F 
ATOM     75  F   UNL     1      18.916  16.698   4.126  1.00  0.00    -0.200 F 
ATOM     76  C   UNL     1      19.264  17.638   1.988  1.00  0.00     0.200 A 
ATOM     77  F   UNL     1      19.610  18.528  -0.171  1.00  0.00    -0.200 F 
ATOM     78  F   UNL     1      18.845  18.832   2.429  1.00  0.00    -0.200 F 
ENDBRANCH  54  68
BRANCH  55  79
ATOM     79  C   UNL     1      22.389   6.082  -2.583  1.00  0.00     0.064 A 
ATOM     80  C   UNL     1      23.347   5.285  -1.942  1.00  0.00     0.173 A 
ATOM     81  C   UNL     1      21.788   5.572  -3.744  1.00  0.00     0.173 A 
ATOM     82  F   UNL     1      23.968   5.740  -0.843  1.00  0.00    -0.203 F 
ATOM     83  C   UNL     1      23.703   4.037  -2.449  1.00  0.00     0.198 A 
ATOM     84  C   UNL     1      22.122   4.311  -4.233  1.00  0.00     0.198 A 
ATOM     85  F   UNL     1      20.866   6.295  -4.397  1.00  0.00    -0.203 F 
ATOM     86  F   UNL     1      24.655   3.317  -1.841  1.00  0.00    -0.200 F 
ATOM     87  C   UNL     1      23.085   3.548  -3.590  1.00  0.00     0.200 A 
ATOM     88  F   UNL     1      21.513   3.837  -5.328  1.00  0.00    -0.200 F 
ATOM     89  F   UNL     1      23.423   2.345  -4.074  1.00  0.00    -0.200 F 
ENDBRANCH  55  79
BRANCH  67  90
ATOM     90  C   UNL     1      25.950  12.030  -1.840  1.00  0.00     0.064 A 
ATOM     91  C   UNL     1      26.397  12.192  -3.160  1.00  0.00     0.173 A 
ATOM     92  C   UNL     1      26.866  12.272  -0.804  1.00  0.00     0.173 A 
ATOM     93  F   UNL     1      25.567  11.959  -4.188  1.00  0.00    -0.203 F 
ATOM     94  C   UNL     1      27.715  12.553  -3.430  1.00  0.00     0.198 A 
ATOM     95  C   UNL     1      28.173  12.668  -1.077  1.00  0.00     0.198 A 
ATOM     96  F   UNL     1      26.490  12.140   0.477  1.00  0.00    -0.203 F 
ATOM     97  F   UNL     1      28.135  12.647  -4.700  1.00  0.00    -0.200 F 
ATOM     98  C   UNL     1      28.599  12.799  -2.390  1.00  0.00     0.200 A 
ATOM     99  F   UNL     1      29.019  12.922  -0.070  1.00  0.00    -0.200 F 
ATOM    100  F   UNL     1      29.864  13.155  -2.653  1.00  0.00    -0.200 F 
ENDBRANCH  67  90
ENDBRANCH  41  42
ENDBRANCH  34  36
ENDBRANCH  33  34
ENDBRANCH  32  33
ENDBRANCH  31  32
ENDBRANCH  30  31
ENDBRANCH   1  30
TORSDOF 18
