REMARK SMILES O=C(CC[NH+]1CCN(C(=O)c2n[nH]c3ccccc23)CC1)OCCOCCOC(=O)c1ccc(-c2c3nc(c(-c4c(F)c(F)c(F)c(F)c4F)c4ccc([nH]4)c(-c4c(F)c(F)c(F)c(F)c4F)c4nc(c(-c5c(F)c(F)c(F)c(F)c5F)c5ccc2[nH]5)C=C4)C=C3)cc1
REMARK SMILES IDX 24 1 23 2 22 3 2 4 1 5 3 6 4 7 5 8 6 9 21 10 7 12 20 13 8 14
REMARK SMILES IDX 9 15 10 16 11 17 12 18 19 19 13 20 14 21 18 22 15 24 17 25
REMARK SMILES IDX 16 26 25 27 26 28 27 29 28 30 29 31 30 32 31 33 32 34 93 35
REMARK SMILES IDX 33 36 92 37 34 38 35 39 36 40 86 41 37 42 91 43 85 44 87 45
REMARK SMILES IDX 38 46 90 47 84 48 83 49 39 51 71 52 51 53 70 54 52 55 55 56
REMARK SMILES IDX 69 57 88 58 53 59 54 60 68 62 89 63 56 64 40 65 41 66 49 67
REMARK SMILES IDX 42 68 43 69 47 70 50 71 44 72 45 73 48 74 46 75 72 76 73 77
REMARK SMILES IDX 81 78 74 79 75 80 79 81 82 82 76 83 77 84 80 85 78 86 57 87
REMARK SMILES IDX 58 88 66 89 59 90 60 91 64 92 67 93 61 94 62 95 65 96 63 97
REMARK H PARENT 5 11 13 23 87 50 55 61
REMARK Flexibility Score: inf
ROOT
ATOM      1  C   UNL     1       5.707   0.444  -0.738  1.00  0.00     0.202 C 
ENDROOT
BRANCH   1   2
ATOM      2  C   UNL     1       4.661  -0.108   0.358  1.00  0.00     0.261 C 
BRANCH   2   3
ATOM      3  O   UNL     1       2.775   0.198   0.636  1.00  0.00    -0.463 OA
BRANCH   3   4
ATOM      4  C   UNL     1       1.528   0.858   0.865  1.00  0.00     0.311 C 
ATOM      5  O   UNL     1       0.490   0.213   0.993  1.00  0.00    -0.252 OA
BRANCH   4   6
ATOM      6  C   UNL     1       1.502   2.389   0.918  1.00  0.00     0.184 C 
BRANCH   6   7
ATOM      7  C   UNL     1       2.873   3.008   0.902  1.00  0.00     0.274 C 
BRANCH   7   8
ATOM      8  N   UNL     1       3.814   1.928   0.664  1.00  0.00    -0.332 N 
ATOM      9  C   UNL     1       3.643   0.881   2.218  1.00  0.00     0.284 C 
ATOM     10  C   UNL     1       3.226   1.136  -0.954  1.00  0.00     0.284 C 
ATOM     11  H   UNL     1       4.802   2.146   0.536  1.00  0.00     0.348 HD
ATOM     12  C   UNL     1       3.202  -1.019   2.096  1.00  0.00     0.181 C 
ATOM     13  C   UNL     1       2.779  -0.781  -1.043  1.00  0.00     0.181 C 
ATOM     14  N   UNL     1       2.946  -1.820   0.453  1.00  0.00    -0.326 N 
ATOM     15  C   UNL     1       2.769  -3.260   0.571  1.00  0.00     0.275 C 
ATOM     16  O   UNL     1       2.450  -3.632   1.714  1.00  0.00    -0.267 OA
BRANCH  15  17
ATOM     17  C   UNL     1       2.996  -4.416  -0.453  1.00  0.00     0.157 A 
ATOM     18  N   UNL     1       1.887  -5.159  -0.710  1.00  0.00    -0.169 NA
ATOM     19  C   UNL     1       4.182  -5.289  -0.831  1.00  0.00     0.033 A 
ATOM     20  N   UNL     1       2.317  -6.404  -0.969  1.00  0.00    -0.277 N 
ATOM     21  C   UNL     1       3.659  -6.548  -1.134  1.00  0.00     0.066 A 
ATOM     22  C   UNL     1       5.603  -5.294  -0.920  1.00  0.00     0.013 A 
ATOM     23  H   UNL     1       1.698  -7.166  -1.034  1.00  0.00     0.190 HD
ATOM     24  C   UNL     1       4.431  -7.694  -1.471  1.00  0.00     0.028 A 
ATOM     25  C   UNL     1       6.409  -6.384  -1.295  1.00  0.00     0.001 A 
ATOM     26  C   UNL     1       5.819  -7.591  -1.565  1.00  0.00     0.002 A 
ENDBRANCH  15  17
ENDBRANCH   7   8
ENDBRANCH   6   7
ENDBRANCH   4   6
ENDBRANCH   3   4
ENDBRANCH   2   3
ENDBRANCH   1   2
BRANCH   1  27
ATOM     27  O   UNL     1       5.597   0.263  -2.138  1.00  0.00    -0.374 OA
BRANCH  27  28
ATOM     28  C   UNL     1       5.462  -0.941  -2.850  1.00  0.00     0.202 C 
BRANCH  28  29
ATOM     29  C   UNL     1       5.588  -2.326  -2.237  1.00  0.00     0.261 C 
BRANCH  29  30
ATOM     30  O   UNL     1       5.691  -2.400  -0.816  1.00  0.00    -0.460 OA
BRANCH  30  31
ATOM     31  C   UNL     1       6.919  -2.333  -0.264  1.00  0.00     0.338 C 
ATOM     32  O   UNL     1       7.932  -1.949  -0.867  1.00  0.00    -0.246 OA
BRANCH  31  33
ATOM     33  C   UNL     1       6.971  -3.024   1.062  1.00  0.00     0.060 A 
ATOM     34  C   UNL     1       8.233  -3.381   1.508  1.00  0.00     0.016 A 
ATOM     35  C   UNL     1       5.854  -3.609   1.679  1.00  0.00     0.016 A 
ATOM     36  C   UNL     1       8.372  -4.437   2.399  1.00  0.00     0.010 A 
ATOM     37  C   UNL     1       5.974  -4.693   2.544  1.00  0.00     0.010 A 
ATOM     38  C   UNL     1       7.249  -5.141   2.863  1.00  0.00    -0.014 A 
BRANCH  38  39
ATOM     39  C   UNL     1       7.457  -6.217   3.836  1.00  0.00     0.031 A 
ATOM     40  C   UNL     1       7.715  -7.624   3.418  1.00  0.00     0.074 A 
ATOM     41  C   UNL     1       7.509  -5.835   5.119  1.00  0.00     0.049 A 
ATOM     42  N   UNL     1       8.348  -8.564   4.068  1.00  0.00    -0.248 NA
ATOM     43  C   UNL     1       7.187  -8.040   2.113  1.00  0.00     0.031 C 
ATOM     44  C   UNL     1       7.148  -4.503   5.606  1.00  0.00     0.029 A 
ATOM     45  N   UNL     1       7.916  -6.511   6.229  1.00  0.00    -0.354 N 
ATOM     46  C   UNL     1       8.350  -9.669   3.228  1.00  0.00     0.074 A 
ATOM     47  C   UNL     1       7.597  -9.303   2.046  1.00  0.00     0.031 C 
ATOM     48  C   UNL     1       7.375  -4.447   6.923  1.00  0.00     0.029 A 
ATOM     49  C   UNL     1       7.936  -5.724   7.348  1.00  0.00     0.049 A 
ATOM     50  H   UNL     1       8.169  -7.463   6.226  1.00  0.00     0.167 HD
ATOM     51  C   UNL     1       8.948 -10.865   3.449  1.00  0.00     0.037 A 
ATOM     52  C   UNL     1       8.420  -5.987   8.571  1.00  0.00     0.037 A 
ATOM     53  C   UNL     1       9.627 -11.187   4.684  1.00  0.00     0.049 A 
ATOM     54  C   UNL     1       9.170  -7.267   8.760  1.00  0.00     0.074 A 
ATOM     55  C   UNL     1      10.329 -12.329   5.024  1.00  0.00     0.029 A 
ATOM     56  N   UNL     1       9.654 -10.358   5.800  1.00  0.00    -0.354 N 
ATOM     57  N   UNL     1       9.346  -8.252   7.910  1.00  0.00    -0.248 NA
ATOM     58  C   UNL     1       9.842  -7.445  10.048  1.00  0.00     0.031 C 
ATOM     59  C   UNL     1      10.736 -12.211   6.360  1.00  0.00     0.029 A 
ATOM     60  C   UNL     1      10.335 -10.973   6.838  1.00  0.00     0.049 A 
ATOM     61  H   UNL     1       9.247  -9.462   5.846  1.00  0.00     0.167 HD
ATOM     62  C   UNL     1      10.145  -9.176   8.560  1.00  0.00     0.074 A 
ATOM     63  C   UNL     1      10.458  -8.604   9.858  1.00  0.00     0.031 C 
ATOM     64  C   UNL     1      10.577 -10.390   8.134  1.00  0.00     0.037 A 
BRANCH  51  65
ATOM     65  C   UNL     1       8.923 -11.896   2.355  1.00  0.00     0.064 A 
ATOM     66  C   UNL     1       9.653 -11.719   1.168  1.00  0.00     0.173 A 
ATOM     67  C   UNL     1       8.255 -13.118   2.528  1.00  0.00     0.173 A 
ATOM     68  F   UNL     1      10.310 -10.571   0.944  1.00  0.00    -0.203 F 
ATOM     69  C   UNL     1       9.711 -12.720   0.199  1.00  0.00     0.198 A 
ATOM     70  C   UNL     1       8.333 -14.127   1.567  1.00  0.00     0.198 A 
ATOM     71  F   UNL     1       7.544 -13.349   3.642  1.00  0.00    -0.203 F 
ATOM     72  F   UNL     1      10.401 -12.518  -0.932  1.00  0.00    -0.200 F 
ATOM     73  C   UNL     1       9.060 -13.927   0.404  1.00  0.00     0.200 A 
ATOM     74  F   UNL     1       7.714 -15.297   1.774  1.00  0.00    -0.200 F 
ATOM     75  F   UNL     1       9.135 -14.897  -0.518  1.00  0.00    -0.200 F 
ENDBRANCH  51  65
BRANCH  52  76
ATOM     76  C   UNL     1       8.292  -4.945   9.613  1.00  0.00     0.064 A 
ATOM     77  C   UNL     1       9.386  -4.158   9.992  1.00  0.00     0.173 A 
ATOM     78  C   UNL     1       7.032  -4.621  10.139  1.00  0.00     0.173 A 
ATOM     79  F   UNL     1      10.605  -4.421   9.499  1.00  0.00    -0.203 F 
ATOM     80  C   UNL     1       9.226  -3.086  10.866  1.00  0.00     0.198 A 
ATOM     81  C   UNL     1       6.870  -3.534  10.992  1.00  0.00     0.198 A 
ATOM     82  F   UNL     1       5.951  -5.324   9.772  1.00  0.00    -0.203 F 
ATOM     83  F   UNL     1      10.287  -2.349  11.219  1.00  0.00    -0.200 F 
ATOM     84  C   UNL     1       7.967  -2.769  11.357  1.00  0.00     0.200 A 
ATOM     85  F   UNL     1       5.647  -3.209  11.434  1.00  0.00    -0.200 F 
ATOM     86  F   UNL     1       7.809  -1.716  12.171  1.00  0.00    -0.200 F 
ENDBRANCH  52  76
BRANCH  64  87
ATOM     87  C   UNL     1      11.386 -11.175   9.121  1.00  0.00     0.064 A 
ATOM     88  C   UNL     1      10.793 -11.725  10.268  1.00  0.00     0.173 A 
ATOM     89  C   UNL     1      12.765 -11.347   8.941  1.00  0.00     0.173 A 
ATOM     90  F   UNL     1       9.478 -11.570  10.488  1.00  0.00    -0.203 F 
ATOM     91  C   UNL     1      11.562 -12.375  11.226  1.00  0.00     0.198 A 
ATOM     92  C   UNL     1      13.527 -12.025   9.888  1.00  0.00     0.198 A 
ATOM     93  F   UNL     1      13.375 -10.844   7.857  1.00  0.00    -0.203 F 
ATOM     94  F   UNL     1      10.988 -12.825  12.350  1.00  0.00    -0.200 F 
ATOM     95  C   UNL     1      12.928 -12.524  11.035  1.00  0.00     0.200 A 
ATOM     96  F   UNL     1      14.845 -12.177   9.700  1.00  0.00    -0.200 F 
ATOM     97  F   UNL     1      13.671 -13.135  11.968  1.00  0.00    -0.200 F 
ENDBRANCH  64  87
ENDBRANCH  38  39
ENDBRANCH  31  33
ENDBRANCH  30  31
ENDBRANCH  29  30
ENDBRANCH  28  29
ENDBRANCH  27  28
ENDBRANCH   1  27
TORSDOF 17
