REMARK SMILES CO[C@@H]1C[C@@H](C(=O)OCCOCCOC(=O)c2ccc(-c3c4nc(c(-c5c(F)c(F)c(F)c(F)c5F)c5ccc([nH]5)c(-c5c(F)c(F)c(F)c(F)c5F)c5nc(c(-c6c(F)c(F)c(F)c(F)c6F)c6ccc3[nH]6)C=C5)C=C4)cc2)N(S(=O)(=O)c2ccc(Cl)cc2F)C1
REMARK SMILES IDX 11 1 10 2 9 3 8 4 6 5 7 6 5 7 3 8 4 9 92 10 80 11 2 12 1 13
REMARK SMILES IDX 81 14 82 15 83 16 84 17 85 18 90 19 86 20 89 21 91 22 87 23
REMARK SMILES IDX 88 24 12 25 13 26 14 27 15 28 16 29 17 30 18 31 79 32 19 33
REMARK SMILES IDX 78 34 20 35 21 36 22 37 72 38 23 39 77 40 71 41 73 42 24 43
REMARK SMILES IDX 76 44 70 45 69 46 25 48 57 49 37 50 56 51 38 52 41 53 55 54
REMARK SMILES IDX 74 55 39 56 40 57 54 59 75 60 42 61 26 62 27 63 35 64 28 65
REMARK SMILES IDX 29 66 33 67 36 68 30 69 31 70 34 71 32 72 58 73 59 74 67 75
REMARK SMILES IDX 60 76 61 77 65 78 68 79 62 80 63 81 66 82 64 83 43 84 44 85
REMARK SMILES IDX 52 86 45 87 46 88 50 89 53 90 47 91 48 92 51 93 49 94
REMARK H PARENT 73 47 41 58
REMARK Flexibility Score: inf
ROOT
ATOM      1  O   UNL     1       6.368   2.532   3.680  1.00  0.00    -0.374 OA
ENDROOT
BRANCH   1   2
ATOM      2  C   UNL     1       7.041   2.243   2.455  1.00  0.00     0.202 C 
BRANCH   2   3
ATOM      3  C   UNL     1       6.891   0.868   1.780  1.00  0.00     0.261 C 
BRANCH   3   4
ATOM      4  O   UNL     1       5.582   0.573   1.259  1.00  0.00    -0.462 OA
BRANCH   4   5
ATOM      5  C   UNL     1       4.748   0.179   2.247  1.00  0.00     0.324 C 
ATOM      6  O   UNL     1       5.014   0.314   3.420  1.00  0.00    -0.250 OA
BRANCH   5   7
ATOM      7  C   UNL     1       3.443  -0.378   1.819  1.00  0.00     0.185 C 
ATOM      8  C   UNL     1       1.068  -0.111   2.103  1.00  0.00     0.135 C 
ATOM      9  C   UNL     1       2.364   0.673   2.067  1.00  0.00     0.065 C 
ATOM     10  C   UNL     1       1.464  -1.578   2.368  1.00  0.00     0.135 C 
ATOM     11  N   UNL     1       2.981  -1.623   2.533  1.00  0.00    -0.181 NA
BRANCH   8  12
ATOM     12  O   UNL     1       0.242   0.154   0.968  1.00  0.00    -0.380 OA
ATOM     13  C   UNL     1       0.672  -0.310  -0.299  1.00  0.00     0.195 C 
ENDBRANCH   8  12
BRANCH  11  14
ATOM     14  S   UNL     1       3.401  -1.942   4.212  1.00  0.00     0.246 S 
ATOM     15  O   UNL     1       2.931  -0.803   4.969  1.00  0.00    -0.207 OA
ATOM     16  O   UNL     1       2.835  -3.253   4.483  1.00  0.00    -0.207 OA
BRANCH  14  17
ATOM     17  C   UNL     1       5.165  -2.169   4.414  1.00  0.00     0.118 A 
ATOM     18  C   UNL     1       5.784  -3.328   3.932  1.00  0.00     0.026 A 
ATOM     19  C   UNL     1       5.938  -1.262   5.150  1.00  0.00     0.144 A 
ATOM     20  C   UNL     1       7.174  -3.488   4.066  1.00  0.00     0.022 A 
ATOM     21  C   UNL     1       7.331  -1.361   5.187  1.00  0.00     0.061 A 
ATOM     22  F   UNL     1       5.388  -0.225   5.797  1.00  0.00    -0.205 F 
ATOM     23  C   UNL     1       7.946  -2.476   4.638  1.00  0.00     0.044 A 
ATOM     24  Cl  UNL     1       9.661  -2.614   4.676  1.00  0.00    -0.084 Cl
ENDBRANCH  14  17
ENDBRANCH  11  14
ENDBRANCH   5   7
ENDBRANCH   4   5
ENDBRANCH   3   4
ENDBRANCH   2   3
ENDBRANCH   1   2
BRANCH   1  25
ATOM     25  C   UNL     1       5.023   3.022   3.589  1.00  0.00     0.202 C 
BRANCH  25  26
ATOM     26  C   UNL     1       4.867   4.534   3.442  1.00  0.00     0.261 C 
BRANCH  26  27
ATOM     27  O   UNL     1       5.498   4.977   2.233  1.00  0.00    -0.460 OA
BRANCH  27  28
ATOM     28  C   UNL     1       6.754   5.450   2.416  1.00  0.00     0.338 C 
ATOM     29  O   UNL     1       7.287   5.755   3.468  1.00  0.00    -0.246 OA
BRANCH  28  30
ATOM     30  C   UNL     1       7.499   5.328   1.146  1.00  0.00     0.060 A 
ATOM     31  C   UNL     1       8.812   4.842   1.225  1.00  0.00     0.016 A 
ATOM     32  C   UNL     1       6.925   5.634  -0.090  1.00  0.00     0.016 A 
ATOM     33  C   UNL     1       9.588   4.740   0.078  1.00  0.00     0.010 A 
ATOM     34  C   UNL     1       7.709   5.550  -1.240  1.00  0.00     0.010 A 
ATOM     35  C   UNL     1       9.057   5.159  -1.146  1.00  0.00    -0.014 A 
BRANCH  35  36
ATOM     36  C   UNL     1       9.981   5.440  -2.265  1.00  0.00     0.031 A 
ATOM     37  C   UNL     1      10.405   6.867  -2.475  1.00  0.00     0.074 A 
ATOM     38  C   UNL     1      10.457   4.455  -3.042  1.00  0.00     0.049 A 
ATOM     39  N   UNL     1      11.150   7.385  -3.415  1.00  0.00    -0.248 NA
ATOM     40  C   UNL     1       9.911   7.846  -1.490  1.00  0.00     0.031 C 
ATOM     41  C   UNL     1      10.157   3.035  -2.886  1.00  0.00     0.029 A 
ATOM     42  N   UNL     1      11.293   4.510  -4.127  1.00  0.00    -0.354 N 
ATOM     43  C   UNL     1      11.202   8.746  -3.142  1.00  0.00     0.074 A 
ATOM     44  C   UNL     1      10.386   8.982  -1.973  1.00  0.00     0.031 C 
ATOM     45  C   UNL     1      10.789   2.350  -3.855  1.00  0.00     0.029 A 
ATOM     46  C   UNL     1      11.504   3.290  -4.717  1.00  0.00     0.049 A 
ATOM     47  H   UNL     1      11.703   5.345  -4.451  1.00  0.00     0.167 HD
ATOM     48  C   UNL     1      11.879   9.711  -3.806  1.00  0.00     0.037 A 
ATOM     49  C   UNL     1      12.176   2.982  -5.842  1.00  0.00     0.037 A 
ATOM     50  C   UNL     1      12.690   9.460  -4.967  1.00  0.00     0.049 A 
ATOM     51  C   UNL     1      12.857   4.086  -6.611  1.00  0.00     0.074 A 
ATOM     52  C   UNL     1      13.433  10.358  -5.711  1.00  0.00     0.029 A 
ATOM     53  N   UNL     1      12.855   8.215  -5.557  1.00  0.00    -0.354 N 
ATOM     54  N   UNL     1      12.918   5.369  -6.344  1.00  0.00    -0.248 NA
ATOM     55  C   UNL     1      13.566   3.698  -7.838  1.00  0.00     0.031 C 
ATOM     56  C   UNL     1      13.994   9.668  -6.789  1.00  0.00     0.029 A 
ATOM     57  C   UNL     1      13.663   8.327  -6.676  1.00  0.00     0.049 A 
ATOM     58  H   UNL     1      12.457   7.377  -5.229  1.00  0.00     0.167 HD
ATOM     59  C   UNL     1      13.698   5.934  -7.345  1.00  0.00     0.074 A 
ATOM     60  C   UNL     1      14.097   4.851  -8.219  1.00  0.00     0.031 C 
ATOM     61  C   UNL     1      14.054   7.231  -7.527  1.00  0.00     0.037 A 
BRANCH  48  62
ATOM     62  C   UNL     1      11.740  11.123  -3.316  1.00  0.00     0.064 A 
ATOM     63  C   UNL     1      12.283  11.543  -2.092  1.00  0.00     0.173 A 
ATOM     64  C   UNL     1      11.068  12.077  -4.095  1.00  0.00     0.173 A 
ATOM     65  F   UNL     1      12.918  10.667  -1.298  1.00  0.00    -0.203 F 
ATOM     66  C   UNL     1      12.135  12.857  -1.655  1.00  0.00     0.198 A 
ATOM     67  C   UNL     1      10.953  13.399  -3.672  1.00  0.00     0.198 A 
ATOM     68  F   UNL     1      10.527  11.730  -5.273  1.00  0.00    -0.203 F 
ATOM     69  F   UNL     1      12.615  13.222  -0.458  1.00  0.00    -0.200 F 
ATOM     70  C   UNL     1      11.479  13.786  -2.449  1.00  0.00     0.200 A 
ATOM     71  F   UNL     1      10.330  14.296  -4.448  1.00  0.00    -0.200 F 
ATOM     72  F   UNL     1      11.347  15.052  -2.033  1.00  0.00    -0.200 F 
ENDBRANCH  48  62
BRANCH  49  73
ATOM     73  C   UNL     1      12.224   1.574  -6.318  1.00  0.00     0.064 A 
ATOM     74  C   UNL     1      13.428   0.857  -6.341  1.00  0.00     0.173 A 
ATOM     75  C   UNL     1      11.069   0.921  -6.774  1.00  0.00     0.173 A 
ATOM     76  F   UNL     1      14.564   1.444  -5.936  1.00  0.00    -0.203 F 
ATOM     77  C   UNL     1      13.479  -0.450  -6.821  1.00  0.00     0.198 A 
ATOM     78  C   UNL     1      11.115  -0.397  -7.223  1.00  0.00     0.198 A 
ATOM     79  F   UNL     1       9.890   1.560  -6.773  1.00  0.00    -0.203 F 
ATOM     80  F   UNL     1      14.653  -1.094  -6.879  1.00  0.00    -0.200 F 
ATOM     81  C   UNL     1      12.322  -1.078  -7.256  1.00  0.00     0.200 A 
ATOM     82  F   UNL     1       9.991  -1.005  -7.626  1.00  0.00    -0.200 F 
ATOM     83  F   UNL     1      12.371  -2.337  -7.712  1.00  0.00    -0.200 F 
ENDBRANCH  49  73
BRANCH  61  84
ATOM     84  C   UNL     1      14.958   7.544  -8.686  1.00  0.00     0.064 A 
ATOM     85  C   UNL     1      14.513   7.469 -10.014  1.00  0.00     0.173 A 
ATOM     86  C   UNL     1      16.275   7.973  -8.458  1.00  0.00     0.173 A 
ATOM     87  F   UNL     1      13.267   7.053 -10.287  1.00  0.00    -0.203 F 
ATOM     88  C   UNL     1      15.363   7.782 -11.071  1.00  0.00     0.198 A 
ATOM     89  C   UNL     1      17.110   8.321  -9.516  1.00  0.00     0.198 A 
ATOM     90  F   UNL     1      16.748   8.073  -7.207  1.00  0.00    -0.203 F 
ATOM     91  F   UNL     1      14.934   7.649 -12.334  1.00  0.00    -0.200 F 
ATOM     92  C   UNL     1      16.657   8.216 -10.822  1.00  0.00     0.200 A 
ATOM     93  F   UNL     1      18.352   8.759  -9.271  1.00  0.00    -0.200 F 
ATOM     94  F   UNL     1      17.469   8.526 -11.841  1.00  0.00    -0.200 F 
ENDBRANCH  61  84
ENDBRANCH  35  36
ENDBRANCH  28  30
ENDBRANCH  27  28
ENDBRANCH  26  27
ENDBRANCH  25  26
ENDBRANCH   1  25
TORSDOF 17
