REMARK SMILES CC1(C)CCCC[C@H]1NC(=O)Nc1ccccc1C(=O)OCCOCCOC(=O)c1ccc(-c2c3nc(c(-c4c(F)c(F)c(F)c(F)c4F)c4ccc([nH]4)c(-c4c(F)c(F)c(F)c(F)c4F)c4nc(c(-c5c(F)c(F)c(F)c(F)c5F)c5ccc2[nH]5)C=C4)C=C3)cc1
REMARK SMILES IDX 24 1 23 2 22 3 21 4 19 5 20 6 18 7 13 8 14 9 15 10 17 11
REMARK SMILES IDX 16 12 12 13 9 14 10 15 11 17 8 19 1 20 2 21 3 22 4 23 5 24
REMARK SMILES IDX 7 25 6 26 25 27 26 28 27 29 28 30 29 31 30 32 31 33 92 34
REMARK SMILES IDX 32 35 91 36 33 37 34 38 35 39 85 40 36 41 90 42 84 43 86 44
REMARK SMILES IDX 37 45 89 46 83 47 82 48 38 50 70 51 50 52 69 53 51 54 54 55
REMARK SMILES IDX 68 56 87 57 52 58 53 59 67 61 88 62 55 63 39 64 40 65 48 66
REMARK SMILES IDX 41 67 42 68 46 69 49 70 43 71 44 72 47 73 45 74 71 75 72 76
REMARK SMILES IDX 80 77 73 78 74 79 78 80 81 81 75 82 76 83 79 84 77 85 56 86
REMARK SMILES IDX 57 87 65 88 58 89 59 90 63 91 66 92 60 93 61 94 64 95 62 96
REMARK H PARENT 9 16 12 18 86 49 54 60
REMARK Flexibility Score: inf
ROOT
ATOM      1  O   UNL     1      -0.131  -3.952   5.354  1.00  0.00    -0.374 OA
ENDROOT
BRANCH   1   2
ATOM      2  C   UNL     1      -0.326  -2.562   5.226  1.00  0.00     0.202 C 
BRANCH   2   3
ATOM      3  C   UNL     1      -0.915  -1.899   3.974  1.00  0.00     0.261 C 
BRANCH   3   4
ATOM      4  O   UNL     1      -1.771  -2.629   3.091  1.00  0.00    -0.460 OA
BRANCH   4   5
ATOM      5  C   UNL     1      -1.126  -3.377   2.170  1.00  0.00     0.340 C 
ATOM      6  O   UNL     1      -0.020  -3.884   2.296  1.00  0.00    -0.246 OA
BRANCH   5   7
ATOM      7  C   UNL     1      -1.928  -3.581   0.950  1.00  0.00     0.083 A 
ATOM      8  C   UNL     1      -2.649  -2.575   0.286  1.00  0.00     0.057 A 
ATOM      9  C   UNL     1      -3.448  -2.943  -0.812  1.00  0.00     0.027 A 
ATOM     10  C   UNL     1      -3.413  -4.240  -1.330  1.00  0.00     0.002 A 
ATOM     11  C   UNL     1      -1.889  -4.883   0.414  1.00  0.00     0.018 A 
ATOM     12  C   UNL     1      -2.612  -5.204  -0.733  1.00  0.00     0.001 A 
BRANCH   8  13
ATOM     13  N   UNL     1      -2.661  -1.201   0.584  1.00  0.00    -0.307 N 
ATOM     14  N   UNL     1      -0.434  -0.462   0.983  1.00  0.00    -0.335 N 
ATOM     15  C   UNL     1      -1.768  -0.330   1.089  1.00  0.00     0.319 C 
ATOM     16  H   UNL     1       0.058   0.190   1.534  1.00  0.00     0.165 HD
ATOM     17  O   UNL     1      -2.193   0.713   1.596  1.00  0.00    -0.248 OA
ATOM     18  H   UNL     1      -3.525  -0.777   0.374  1.00  0.00     0.171 HD
BRANCH  14  19
ATOM     19  C   UNL     1       0.452  -1.355   0.234  1.00  0.00     0.089 C 
ATOM     20  C   UNL     1       1.790   0.497  -0.952  1.00  0.00     0.013 C 
ATOM     21  C   UNL     1       0.947  -0.786  -1.129  1.00  0.00    -0.015 C 
ATOM     22  C   UNL     1      -0.248  -0.460  -2.045  1.00  0.00     0.013 C 
ATOM     23  C   UNL     1       1.795  -1.900  -1.817  1.00  0.00     0.008 C 
ATOM     24  C   UNL     1       2.902  -2.503  -0.940  1.00  0.00     0.001 C 
ATOM     25  C   UNL     1       1.663  -1.748   1.098  1.00  0.00     0.025 C 
ATOM     26  C   UNL     1       2.407  -2.902   0.443  1.00  0.00     0.002 C 
ENDBRANCH  14  19
ENDBRANCH   8  13
ENDBRANCH   5   7
ENDBRANCH   4   5
ENDBRANCH   3   4
ENDBRANCH   2   3
ENDBRANCH   1   2
BRANCH   1  27
ATOM     27  C   UNL     1      -1.152  -4.883   5.053  1.00  0.00     0.202 C 
BRANCH  27  28
ATOM     28  C   UNL     1      -2.618  -4.685   5.467  1.00  0.00     0.261 C 
BRANCH  28  29
ATOM     29  O   UNL     1      -3.078  -3.339   5.591  1.00  0.00    -0.460 OA
BRANCH  29  30
ATOM     30  C   UNL     1      -3.091  -2.869   6.856  1.00  0.00     0.338 C 
ATOM     31  O   UNL     1      -2.733  -3.456   7.872  1.00  0.00    -0.246 OA
BRANCH  30  32
ATOM     32  C   UNL     1      -3.472  -1.449   6.854  1.00  0.00     0.060 A 
ATOM     33  C   UNL     1      -2.635  -0.548   7.523  1.00  0.00     0.016 A 
ATOM     34  C   UNL     1      -4.672  -1.020   6.280  1.00  0.00     0.016 A 
ATOM     35  C   UNL     1      -3.026   0.776   7.676  1.00  0.00     0.010 A 
ATOM     36  C   UNL     1      -5.072   0.309   6.448  1.00  0.00     0.010 A 
ATOM     37  C   UNL     1      -4.270   1.196   7.186  1.00  0.00    -0.014 A 
BRANCH  37  38
ATOM     38  C   UNL     1      -4.782   2.516   7.613  1.00  0.00     0.031 A 
ATOM     39  C   UNL     1      -5.695   2.587   8.804  1.00  0.00     0.074 A 
ATOM     40  C   UNL     1      -4.374   3.637   6.998  1.00  0.00     0.049 A 
ATOM     41  N   UNL     1      -6.192   3.635   9.410  1.00  0.00    -0.248 NA
ATOM     42  C   UNL     1      -6.102   1.302   9.393  1.00  0.00     0.031 C 
ATOM     43  C   UNL     1      -3.476   3.686   5.847  1.00  0.00     0.029 A 
ATOM     44  N   UNL     1      -4.658   4.951   7.266  1.00  0.00    -0.354 N 
ATOM     45  C   UNL     1      -6.965   3.136  10.450  1.00  0.00     0.074 A 
ATOM     46  C   UNL     1      -6.902   1.693  10.373  1.00  0.00     0.031 C 
ATOM     47  C   UNL     1      -3.280   4.970   5.505  1.00  0.00     0.029 A 
ATOM     48  C   UNL     1      -4.053   5.828   6.402  1.00  0.00     0.049 A 
ATOM     49  H   UNL     1      -5.240   5.238   8.006  1.00  0.00     0.167 HD
ATOM     50  C   UNL     1      -7.657   3.823  11.391  1.00  0.00     0.037 A 
ATOM     51  C   UNL     1      -4.123   7.171   6.343  1.00  0.00     0.037 A 
ATOM     52  C   UNL     1      -7.719   5.259  11.458  1.00  0.00     0.049 A 
ATOM     53  C   UNL     1      -4.928   7.912   7.377  1.00  0.00     0.074 A 
ATOM     54  C   UNL     1      -8.363   6.054  12.390  1.00  0.00     0.029 A 
ATOM     55  N   UNL     1      -7.124   6.117  10.544  1.00  0.00    -0.354 N 
ATOM     56  N   UNL     1      -5.618   7.438   8.386  1.00  0.00    -0.248 NA
ATOM     57  C   UNL     1      -4.952   9.377   7.269  1.00  0.00     0.031 C 
ATOM     58  C   UNL     1      -8.203   7.392  12.007  1.00  0.00     0.029 A 
ATOM     59  C   UNL     1      -7.413   7.433  10.869  1.00  0.00     0.049 A 
ATOM     60  H   UNL     1      -6.576   5.832   9.777  1.00  0.00     0.167 HD
ATOM     61  C   UNL     1      -6.149   8.541   9.040  1.00  0.00     0.074 A 
ATOM     62  C   UNL     1      -5.679   9.711   8.326  1.00  0.00     0.031 C 
ATOM     63  C   UNL     1      -6.954   8.584  10.132  1.00  0.00     0.037 A 
BRANCH  50  64
ATOM     64  C   UNL     1      -8.431   3.021  12.397  1.00  0.00     0.064 A 
ATOM     65  C   UNL     1      -7.792   2.270  13.396  1.00  0.00     0.173 A 
ATOM     66  C   UNL     1      -9.833   3.005  12.361  1.00  0.00     0.173 A 
ATOM     67  F   UNL     1      -6.453   2.238  13.466  1.00  0.00    -0.203 F 
ATOM     68  C   UNL     1      -8.528   1.508  14.301  1.00  0.00     0.198 A 
ATOM     69  C   UNL     1     -10.566   2.265  13.284  1.00  0.00     0.198 A 
ATOM     70  F   UNL     1     -10.493   3.706  11.427  1.00  0.00    -0.203 F 
ATOM     71  F   UNL     1      -7.896   0.755  15.211  1.00  0.00    -0.200 F 
ATOM     72  C   UNL     1      -9.914   1.510  14.247  1.00  0.00     0.200 A 
ATOM     73  F   UNL     1     -11.906   2.276  13.237  1.00  0.00    -0.200 F 
ATOM     74  F   UNL     1     -10.621   0.775  15.116  1.00  0.00    -0.200 F 
ENDBRANCH  50  64
BRANCH  51  75
ATOM     75  C   UNL     1      -3.404   7.891   5.262  1.00  0.00     0.064 A 
ATOM     76  C   UNL     1      -2.274   8.672   5.533  1.00  0.00     0.173 A 
ATOM     77  C   UNL     1      -3.826   7.791   3.927  1.00  0.00     0.173 A 
ATOM     78  F   UNL     1      -1.849   8.819   6.797  1.00  0.00    -0.203 F 
ATOM     79  C   UNL     1      -1.595   9.332   4.511  1.00  0.00     0.198 A 
ATOM     80  C   UNL     1      -3.131   8.429   2.903  1.00  0.00     0.198 A 
ATOM     81  F   UNL     1      -4.905   7.058   3.617  1.00  0.00    -0.203 F 
ATOM     82  F   UNL     1      -0.536  10.101   4.800  1.00  0.00    -0.200 F 
ATOM     83  C   UNL     1      -2.018   9.202   3.196  1.00  0.00     0.200 A 
ATOM     84  F   UNL     1      -3.537   8.293   1.634  1.00  0.00    -0.200 F 
ATOM     85  F   UNL     1      -1.357   9.827   2.212  1.00  0.00    -0.200 F 
ENDBRANCH  51  75
BRANCH  63  86
ATOM     86  C   UNL     1      -7.372   9.943  10.618  1.00  0.00     0.064 A 
ATOM     87  C   UNL     1      -8.282  10.732   9.897  1.00  0.00     0.173 A 
ATOM     88  C   UNL     1      -6.872  10.454  11.825  1.00  0.00     0.173 A 
ATOM     89  F   UNL     1      -8.778  10.294   8.730  1.00  0.00    -0.203 F 
ATOM     90  C   UNL     1      -8.648  11.996  10.350  1.00  0.00     0.198 A 
ATOM     91  C   UNL     1      -7.265  11.706  12.290  1.00  0.00     0.198 A 
ATOM     92  F   UNL     1      -6.006   9.738  12.557  1.00  0.00    -0.203 F 
ATOM     93  F   UNL     1      -9.473  12.755   9.616  1.00  0.00    -0.200 F 
ATOM     94  C   UNL     1      -8.143  12.480  11.547  1.00  0.00     0.200 A 
ATOM     95  F   UNL     1      -6.787  12.167  13.454  1.00  0.00    -0.200 F 
ATOM     96  F   UNL     1      -8.496  13.698  11.981  1.00  0.00    -0.200 F 
ENDBRANCH  63  86
ENDBRANCH  37  38
ENDBRANCH  30  32
ENDBRANCH  29  30
ENDBRANCH  28  29
ENDBRANCH  27  28
ENDBRANCH   1  27
TORSDOF 16
