REMARK SMILES COc1cccc([C@@]([NH3+])(C(=O)OCCOCCOC(=O)c2ccc(-c3c4nc(c(-c5c(F)c(F)c(F)c(F)c5F)c5ccc([nH]5)c(-c5c(F)c(F)c(F)c(F)c5F)c5nc(c(-c6c(F)c(F)c(F)c(F)c6F)c6ccc3[nH]6)C=C5)C=C4)cc2)C(F)(F)F)c1
REMARK SMILES IDX 15 1 14 2 13 3 12 4 10 5 11 6 8 7 7 8 3 9 4 10 88 11 5 12
REMARK SMILES IDX 6 13 2 14 1 15 9 16 84 20 85 21 86 22 87 23 16 24 17 25
REMARK SMILES IDX 18 26 19 27 20 28 21 29 22 30 83 31 23 32 82 33 24 34 25 35
REMARK SMILES IDX 26 36 76 37 27 38 81 39 75 40 77 41 28 42 80 43 74 44 73 45
REMARK SMILES IDX 29 47 61 48 41 49 60 50 42 51 45 52 59 53 78 54 43 55 44 56
REMARK SMILES IDX 58 58 79 59 46 60 30 61 31 62 39 63 32 64 33 65 37 66 40 67
REMARK SMILES IDX 34 68 35 69 38 70 36 71 62 72 63 73 71 74 64 75 65 76 69 77
REMARK SMILES IDX 72 78 66 79 67 80 70 81 68 82 47 83 48 84 56 85 49 86 50 87
REMARK SMILES IDX 54 88 57 89 51 90 52 91 55 92 53 93
REMARK H PARENT 9 17 9 18 9 19 77 46 45 57
REMARK Flexibility Score: inf
ROOT
ATOM      1  O   UNL     1       3.742  -6.501   1.601  1.00  0.00    -0.374 OA
ENDROOT
BRANCH   1   2
ATOM      2  C   UNL     1       3.661  -6.906   2.967  1.00  0.00     0.202 C 
BRANCH   2   3
ATOM      3  C   UNL     1       4.429  -6.038   3.964  1.00  0.00     0.261 C 
BRANCH   3   4
ATOM      4  O   UNL     1       3.944  -4.686   3.930  1.00  0.00    -0.458 OA
BRANCH   4   5
ATOM      5  C   UNL     1       4.894  -3.714   3.966  1.00  0.00     0.382 C 
ATOM      6  O   UNL     1       6.077  -3.947   4.205  1.00  0.00    -0.244 OA
BRANCH   5   7
ATOM      7  C   UNL     1       4.359  -2.281   3.727  1.00  0.00     0.314 C 
BRANCH   7   8
ATOM      8  C   UNL     1       2.824  -2.150   3.519  1.00  0.00     0.037 A 
ATOM      9  C   UNL     1       0.868  -1.271   2.313  1.00  0.00     0.119 A 
ATOM     10  C   UNL     1       0.035  -1.725   3.332  1.00  0.00     0.046 A 
ATOM     11  C   UNL     1       2.248  -1.494   2.403  1.00  0.00     0.057 A 
ATOM     12  C   UNL     1       0.565  -2.399   4.427  1.00  0.00     0.004 A 
ATOM     13  C   UNL     1       1.944  -2.599   4.524  1.00  0.00     0.011 A 
BRANCH   9  14
ATOM     14  O   UNL     1       0.222  -0.593   1.316  1.00  0.00    -0.497 OA
ATOM     15  C   UNL     1       0.959  -0.281   0.140  1.00  0.00     0.278 C 
ENDBRANCH   9  14
ENDBRANCH   7   8
BRANCH   7  16
ATOM     16  N   UNL     1       4.702  -1.487   4.973  1.00  0.00    -0.332 N 
ATOM     17  H   UNL     1       4.131  -1.815   5.753  1.00  0.00     0.346 HD
ATOM     18  H   UNL     1       4.516  -0.498   4.808  1.00  0.00     0.346 HD
ATOM     19  H   UNL     1       5.689  -1.615   5.197  1.00  0.00     0.346 HD
ENDBRANCH   7  16
BRANCH   7  20
ATOM     20  C   UNL     1       5.195  -1.836   2.482  1.00  0.00     0.460 C 
ATOM     21  F   UNL     1       4.904  -2.556   1.373  1.00  0.00    -0.164 F 
ATOM     22  F   UNL     1       4.952  -0.529   2.183  1.00  0.00    -0.164 F 
ATOM     23  F   UNL     1       6.531  -1.908   2.682  1.00  0.00    -0.164 F 
ENDBRANCH   7  20
ENDBRANCH   5   7
ENDBRANCH   4   5
ENDBRANCH   3   4
ENDBRANCH   2   3
ENDBRANCH   1   2
BRANCH   1  24
ATOM     24  C   UNL     1       3.021  -5.332   1.208  1.00  0.00     0.202 C 
BRANCH  24  25
ATOM     25  C   UNL     1       1.498  -5.465   1.089  1.00  0.00     0.261 C 
BRANCH  25  26
ATOM     26  O   UNL     1       0.868  -5.787   2.342  1.00  0.00    -0.460 OA
BRANCH  26  27
ATOM     27  C   UNL     1       0.289  -7.008   2.381  1.00  0.00     0.338 C 
ATOM     28  O   UNL     1       0.186  -7.811   1.460  1.00  0.00    -0.246 OA
BRANCH  27  29
ATOM     29  C   UNL     1      -0.093  -7.367   3.758  1.00  0.00     0.060 A 
ATOM     30  C   UNL     1       0.323  -8.619   4.230  1.00  0.00     0.016 A 
ATOM     31  C   UNL     1      -0.936  -6.563   4.530  1.00  0.00     0.016 A 
ATOM     32  C   UNL     1      -0.166  -9.108   5.437  1.00  0.00     0.010 A 
ATOM     33  C   UNL     1      -1.433  -7.060   5.742  1.00  0.00     0.010 A 
ATOM     34  C   UNL     1      -1.091  -8.355   6.172  1.00  0.00    -0.014 A 
BRANCH  34  35
ATOM     35  C   UNL     1      -1.834  -9.021   7.271  1.00  0.00     0.031 A 
ATOM     36  C   UNL     1      -3.197  -9.591   6.981  1.00  0.00     0.074 A 
ATOM     37  C   UNL     1      -1.277  -9.191   8.483  1.00  0.00     0.049 A 
ATOM     38  N   UNL     1      -4.006 -10.257   7.766  1.00  0.00    -0.248 NA
ATOM     39  C   UNL     1      -3.717  -9.384   5.620  1.00  0.00     0.031 C 
ATOM     40  C   UNL     1       0.049  -8.721   8.875  1.00  0.00     0.029 A 
ATOM     41  N   UNL     1      -1.761  -9.815   9.605  1.00  0.00    -0.354 N 
ATOM     42  C   UNL     1      -5.125 -10.548   6.996  1.00  0.00     0.074 A 
ATOM     43  C   UNL     1      -4.909  -9.958   5.693  1.00  0.00     0.031 C 
ATOM     44  C   UNL     1       0.275  -9.073  10.153  1.00  0.00     0.029 A 
ATOM     45  C   UNL     1      -0.898  -9.777  10.671  1.00  0.00     0.049 A 
ATOM     46  H   UNL     1      -2.644 -10.249   9.642  1.00  0.00     0.167 HD
ATOM     47  C   UNL     1      -6.228 -11.256   7.338  1.00  0.00     0.037 A 
ATOM     48  C   UNL     1      -1.043 -10.252  11.923  1.00  0.00     0.037 A 
ATOM     49  C   UNL     1      -6.445 -11.847   8.631  1.00  0.00     0.049 A 
ATOM     50  C   UNL     1      -2.300 -10.997  12.293  1.00  0.00     0.074 A 
ATOM     51  C   UNL     1      -7.530 -12.584   9.074  1.00  0.00     0.029 A 
ATOM     52  N   UNL     1      -5.556 -11.767   9.692  1.00  0.00    -0.354 N 
ATOM     53  N   UNL     1      -3.341 -11.286  11.551  1.00  0.00    -0.248 NA
ATOM     54  C   UNL     1      -2.394 -11.492  13.674  1.00  0.00     0.031 C 
ATOM     55  C   UNL     1      -7.314 -12.916  10.416  1.00  0.00     0.029 A 
ATOM     56  C   UNL     1      -6.074 -12.428  10.794  1.00  0.00     0.049 A 
ATOM     57  H   UNL     1      -4.685 -11.308   9.666  1.00  0.00     0.167 HD
ATOM     58  C   UNL     1      -4.196 -12.024  12.361  1.00  0.00     0.074 A 
ATOM     59  C   UNL     1      -3.547 -12.145  13.650  1.00  0.00     0.031 C 
ATOM     60  C   UNL     1      -5.407 -12.555  12.064  1.00  0.00     0.037 A 
BRANCH  47  61
ATOM     61  C   UNL     1      -7.298 -11.411   6.297  1.00  0.00     0.064 A 
ATOM     62  C   UNL     1      -7.130 -12.255   5.189  1.00  0.00     0.173 A 
ATOM     63  C   UNL     1      -8.517 -10.728   6.425  1.00  0.00     0.173 A 
ATOM     64  F   UNL     1      -5.976 -12.917   5.014  1.00  0.00    -0.203 F 
ATOM     65  C   UNL     1      -8.134 -12.392   4.235  1.00  0.00     0.198 A 
ATOM     66  C   UNL     1      -9.529 -10.888   5.482  1.00  0.00     0.198 A 
ATOM     67  F   UNL     1      -8.728  -9.911   7.467  1.00  0.00    -0.203 F 
ATOM     68  F   UNL     1      -7.936 -13.170   3.162  1.00  0.00    -0.200 F 
ATOM     69  C   UNL     1      -9.335 -11.713   4.386  1.00  0.00     0.200 A 
ATOM     70  F   UNL     1     -10.692 -10.239   5.635  1.00  0.00    -0.200 F 
ATOM     71  F   UNL     1     -10.303 -11.850   3.469  1.00  0.00    -0.200 F 
ENDBRANCH  47  61
BRANCH  48  72
ATOM     72  C   UNL     1       0.036 -10.048  12.924  1.00  0.00     0.064 A 
ATOM     73  C   UNL     1       0.801 -11.124  13.396  1.00  0.00     0.173 A 
ATOM     74  C   UNL     1       0.309  -8.775  13.445  1.00  0.00     0.173 A 
ATOM     75  F   UNL     1       0.560 -12.364  12.948  1.00  0.00    -0.203 F 
ATOM     76  C   UNL     1       1.784 -10.936  14.367  1.00  0.00     0.198 A 
ATOM     77  C   UNL     1       1.309  -8.584  14.395  1.00  0.00     0.198 A 
ATOM     78  F   UNL     1      -0.397  -7.713  13.027  1.00  0.00    -0.203 F 
ATOM     79  F   UNL     1       2.467 -11.989  14.836  1.00  0.00    -0.200 F 
ATOM     80  C   UNL     1       2.040  -9.666  14.861  1.00  0.00     0.200 A 
ATOM     81  F   UNL     1       1.560  -7.354  14.863  1.00  0.00    -0.200 F 
ATOM     82  F   UNL     1       2.985  -9.487  15.794  1.00  0.00    -0.200 F 
ENDBRANCH  48  72
BRANCH  60  83
ATOM     83  C   UNL     1      -6.089 -13.358  13.133  1.00  0.00     0.064 A 
ATOM     84  C   UNL     1      -6.657 -12.752  14.263  1.00  0.00     0.173 A 
ATOM     85  C   UNL     1      -6.203 -14.751  13.007  1.00  0.00     0.173 A 
ATOM     86  F   UNL     1      -6.564 -11.425  14.436  1.00  0.00    -0.203 F 
ATOM     87  C   UNL     1      -7.289 -13.515  15.242  1.00  0.00     0.198 A 
ATOM     88  C   UNL     1      -6.859 -15.507  13.974  1.00  0.00     0.198 A 
ATOM     89  F   UNL     1      -5.684 -15.378  11.941  1.00  0.00    -0.203 F 
ATOM     90  F   UNL     1      -7.782 -12.920  16.338  1.00  0.00    -0.200 F 
ATOM     91  C   UNL     1      -7.394 -14.890  15.094  1.00  0.00     0.200 A 
ATOM     92  F   UNL     1      -6.971 -16.834  13.823  1.00  0.00    -0.200 F 
ATOM     93  F   UNL     1      -8.005 -15.621  16.037  1.00  0.00    -0.200 F 
ENDBRANCH  60  83
ENDBRANCH  34  35
ENDBRANCH  27  29
ENDBRANCH  26  27
ENDBRANCH  25  26
ENDBRANCH  24  25
ENDBRANCH   1  24
TORSDOF 18
