REMARK SMILES O=C(OCCOCCOCCOC(=O)c1ccccc1C(=O)N1CCS[C@H]1c1ccccc1)c1ccc(-c2c3nc(c(-c4c(F)c(F)c(F)c(F)c4F)c4ccc([nH]4)c(-c4c(F)c(F)c(F)c(F)c4F)c4nc(c(-c5c(F)c(F)c(F)c(F)c5F)c5ccc2[nH]5)C=C4)C=C3)cc1
REMARK SMILES IDX 8 1 7 2 6 3 5 4 4 5 3 6 2 7 1 8 34 9 35 10 96 11 36 12 95 13
REMARK SMILES IDX 37 14 38 15 39 16 89 17 40 18 94 19 88 20 90 21 41 22 93 23
REMARK SMILES IDX 87 24 86 25 42 27 74 28 54 29 73 30 55 31 58 32 72 33 91 34
REMARK SMILES IDX 56 35 57 36 71 38 92 39 59 40 43 41 44 42 52 43 45 44 46 45
REMARK SMILES IDX 50 46 53 47 47 48 48 49 51 50 49 51 75 52 76 53 84 54 77 55
REMARK SMILES IDX 78 56 82 57 85 58 79 59 80 60 83 61 81 62 60 63 61 64 69 65
REMARK SMILES IDX 62 66 63 67 67 68 70 69 64 70 65 71 68 72 66 73 9 74 10 75
REMARK SMILES IDX 11 76 12 77 13 78 14 79 15 80 16 81 20 82 17 83 19 84 18 85
REMARK SMILES IDX 21 86 22 87 23 88 24 89 27 90 25 91 26 92 28 93 29 94 33 95
REMARK SMILES IDX 30 96 32 97 31 98
REMARK H PARENT 90 26 58 37
REMARK Flexibility Score: inf
ROOT
ATOM      1  C   UNL     1       1.751  -0.051  -2.599  1.00  0.00     0.188 C 
ENDROOT
BRANCH   1   2
ATOM      2  C   UNL     1       2.229  -1.120  -1.617  1.00  0.00     0.188 C 
BRANCH   2   3
ATOM      3  O   UNL     1       3.469  -0.699  -1.024  1.00  0.00    -0.376 OA
BRANCH   3   4
ATOM      4  C   UNL     1       4.284  -1.779  -0.571  1.00  0.00     0.202 C 
BRANCH   4   5
ATOM      5  C   UNL     1       4.244  -1.933   0.948  1.00  0.00     0.261 C 
BRANCH   5   6
ATOM      6  O   UNL     1       2.909  -1.758   1.453  1.00  0.00    -0.460 OA
BRANCH   6   7
ATOM      7  C   UNL     1       2.273  -0.581   1.688  1.00  0.00     0.338 C 
ATOM      8  O   UNL     1       1.047  -0.576   1.795  1.00  0.00    -0.246 OA
BRANCH   7   9
ATOM      9  C   UNL     1       3.004   0.682   2.010  1.00  0.00     0.060 A 
ATOM     10  C   UNL     1       4.191   1.118   1.415  1.00  0.00     0.016 A 
ATOM     11  C   UNL     1       2.424   1.493   3.001  1.00  0.00     0.016 A 
ATOM     12  C   UNL     1       4.885   2.215   1.928  1.00  0.00     0.010 A 
ATOM     13  C   UNL     1       3.083   2.628   3.480  1.00  0.00     0.010 A 
ATOM     14  C   UNL     1       4.361   2.937   3.003  1.00  0.00    -0.014 A 
BRANCH  14  15
ATOM     15  C   UNL     1       5.243   3.855   3.758  1.00  0.00     0.031 A 
ATOM     16  C   UNL     1       5.826   3.368   5.056  1.00  0.00     0.074 A 
ATOM     17  C   UNL     1       5.594   5.051   3.258  1.00  0.00     0.049 A 
ATOM     18  N   UNL     1       6.640   3.972   5.883  1.00  0.00    -0.248 NA
ATOM     19  C   UNL     1       5.449   2.006   5.474  1.00  0.00     0.031 C 
ATOM     20  C   UNL     1       5.146   5.587   1.977  1.00  0.00     0.029 A 
ATOM     21  N   UNL     1       6.425   6.019   3.757  1.00  0.00    -0.354 N 
ATOM     22  C   UNL     1       6.859   3.072   6.917  1.00  0.00     0.074 A 
ATOM     23  C   UNL     1       6.080   1.889   6.631  1.00  0.00     0.031 C 
ATOM     24  C   UNL     1       5.720   6.785   1.778  1.00  0.00     0.029 A 
ATOM     25  C   UNL     1       6.553   7.109   2.933  1.00  0.00     0.049 A 
ATOM     26  H   UNL     1       6.886   5.941   4.624  1.00  0.00     0.167 HD
ATOM     27  C   UNL     1       7.649   3.215   8.006  1.00  0.00     0.037 A 
ATOM     28  C   UNL     1       7.266   8.239   3.102  1.00  0.00     0.037 A 
ATOM     29  C   UNL     1       8.422   4.390   8.288  1.00  0.00     0.049 A 
ATOM     30  C   UNL     1       8.095   8.397   4.349  1.00  0.00     0.074 A 
ATOM     31  C   UNL     1       9.213   4.665   9.388  1.00  0.00     0.029 A 
ATOM     32  N   UNL     1       8.499   5.491   7.448  1.00  0.00    -0.354 N 
ATOM     33  N   UNL     1       8.276   7.551   5.335  1.00  0.00    -0.248 NA
ATOM     34  C   UNL     1       8.818   9.666   4.508  1.00  0.00     0.031 C 
ATOM     35  C   UNL     1       9.754   5.947   9.222  1.00  0.00     0.029 A 
ATOM     36  C   UNL     1       9.322   6.453   8.006  1.00  0.00     0.049 A 
ATOM     37  H   UNL     1       8.037   5.576   6.582  1.00  0.00     0.167 HD
ATOM     38  C   UNL     1       9.147   8.173   6.218  1.00  0.00     0.074 A 
ATOM     39  C   UNL     1       9.469   9.464   5.646  1.00  0.00     0.031 C 
ATOM     40  C   UNL     1       9.635   7.721   7.399  1.00  0.00     0.037 A 
BRANCH  27  41
ATOM     41  C   UNL     1       7.671   2.075   8.976  1.00  0.00     0.064 A 
ATOM     42  C   UNL     1       8.369   0.890   8.700  1.00  0.00     0.173 A 
ATOM     43  C   UNL     1       6.952   2.152  10.178  1.00  0.00     0.173 A 
ATOM     44  F   UNL     1       9.044   0.758   7.548  1.00  0.00    -0.203 F 
ATOM     45  C   UNL     1       8.323  -0.188   9.580  1.00  0.00     0.198 A 
ATOM     46  C   UNL     1       6.925   1.080  11.065  1.00  0.00     0.198 A 
ATOM     47  F   UNL     1       6.260   3.261  10.480  1.00  0.00    -0.203 F 
ATOM     48  F   UNL     1       8.952  -1.331   9.271  1.00  0.00    -0.200 F 
ATOM     49  C   UNL     1       7.604  -0.091  10.762  1.00  0.00     0.200 A 
ATOM     50  F   UNL     1       6.226   1.173  12.205  1.00  0.00    -0.200 F 
ATOM     51  F   UNL     1       7.550  -1.135  11.602  1.00  0.00    -0.200 F 
ENDBRANCH  27  41
BRANCH  28  52
ATOM     52  C   UNL     1       7.237   9.297   2.060  1.00  0.00     0.064 A 
ATOM     53  C   UNL     1       8.364   9.561   1.269  1.00  0.00     0.173 A 
ATOM     54  C   UNL     1       6.088  10.068   1.836  1.00  0.00     0.173 A 
ATOM     55  F   UNL     1       9.494   8.864   1.462  1.00  0.00    -0.203 F 
ATOM     56  C   UNL     1       8.346  10.565   0.303  1.00  0.00     0.198 A 
ATOM     57  C   UNL     1       6.064  11.057   0.854  1.00  0.00     0.198 A 
ATOM     58  F   UNL     1       4.984   9.857   2.568  1.00  0.00    -0.203 F 
ATOM     59  F   UNL     1       9.451  10.823  -0.411  1.00  0.00    -0.200 F 
ATOM     60  C   UNL     1       7.195  11.309   0.093  1.00  0.00     0.200 A 
ATOM     61  F   UNL     1       4.948  11.771   0.653  1.00  0.00    -0.200 F 
ATOM     62  F   UNL     1       7.181  12.278  -0.833  1.00  0.00    -0.200 F 
ENDBRANCH  28  52
BRANCH  40  63
ATOM     63  C   UNL     1      10.587   8.614   8.131  1.00  0.00     0.064 A 
ATOM     64  C   UNL     1      10.134   9.724   8.857  1.00  0.00     0.173 A 
ATOM     65  C   UNL     1      11.959   8.323   8.151  1.00  0.00     0.173 A 
ATOM     66  F   UNL     1       8.831  10.044   8.855  1.00  0.00    -0.203 F 
ATOM     67  C   UNL     1      11.025  10.523   9.567  1.00  0.00     0.198 A 
ATOM     68  C   UNL     1      12.844   9.113   8.878  1.00  0.00     0.198 A 
ATOM     69  F   UNL     1      12.436   7.266   7.476  1.00  0.00    -0.203 F 
ATOM     70  F   UNL     1      10.576  11.597  10.230  1.00  0.00    -0.200 F 
ATOM     71  C   UNL     1      12.377  10.213   9.582  1.00  0.00     0.200 A 
ATOM     72  F   UNL     1      14.149   8.809   8.898  1.00  0.00    -0.200 F 
ATOM     73  F   UNL     1      13.233  10.980  10.271  1.00  0.00    -0.200 F 
ENDBRANCH  40  63
ENDBRANCH  14  15
ENDBRANCH   7   9
ENDBRANCH   6   7
ENDBRANCH   5   6
ENDBRANCH   4   5
ENDBRANCH   3   4
ENDBRANCH   2   3
ENDBRANCH   1   2
BRANCH   1  74
ATOM     74  O   UNL     1       2.478  -0.027  -3.829  1.00  0.00    -0.376 OA
BRANCH  74  75
ATOM     75  C   UNL     1       3.880   0.181  -3.744  1.00  0.00     0.202 C 
BRANCH  75  76
ATOM     76  C   UNL     1       4.372   1.615  -3.542  1.00  0.00     0.261 C 
BRANCH  76  77
ATOM     77  O   UNL     1       3.979   2.353  -2.373  1.00  0.00    -0.460 OA
BRANCH  77  78
ATOM     78  C   UNL     1       2.915   3.163  -2.592  1.00  0.00     0.339 C 
ATOM     79  O   UNL     1       2.062   3.029  -3.451  1.00  0.00    -0.246 OA
BRANCH  78  80
ATOM     80  C   UNL     1       2.789   4.219  -1.583  1.00  0.00     0.072 A 
ATOM     81  C   UNL     1       1.787   3.995  -0.617  1.00  0.00     0.016 A 
ATOM     82  C   UNL     1       3.394   5.478  -1.694  1.00  0.00     0.054 A 
ATOM     83  C   UNL     1       1.370   5.020   0.232  1.00  0.00     0.001 A 
ATOM     84  C   UNL     1       2.939   6.503  -0.833  1.00  0.00     0.015 A 
ATOM     85  C   UNL     1       1.937   6.282   0.114  1.00  0.00     0.001 A 
BRANCH  82  86
ATOM     86  C   UNL     1       4.455   5.905  -2.659  1.00  0.00     0.255 C 
ATOM     87  O   UNL     1       4.844   7.075  -2.650  1.00  0.00    -0.269 OA
BRANCH  86  88
ATOM     88  N   UNL     1       5.043   4.985  -3.524  1.00  0.00    -0.322 N 
ATOM     89  C   UNL     1       6.426   4.676  -3.188  1.00  0.00     0.132 C 
ATOM     90  C   UNL     1       4.914   5.303  -4.952  1.00  0.00     0.174 C 
ATOM     91  C   UNL     1       7.086   3.885  -4.299  1.00  0.00     0.093 C 
ATOM     92  S   UNL     1       6.229   4.370  -5.810  1.00  0.00    -0.130 SA
BRANCH  90  93
ATOM     93  C   UNL     1       3.500   5.106  -5.482  1.00  0.00    -0.015 A 
ATOM     94  C   UNL     1       3.072   3.967  -6.185  1.00  0.00     0.007 A 
ATOM     95  C   UNL     1       2.530   6.083  -5.178  1.00  0.00     0.007 A 
ATOM     96  C   UNL     1       1.722   3.780  -6.504  1.00  0.00     0.000 A 
ATOM     97  C   UNL     1       1.182   5.895  -5.494  1.00  0.00     0.000 A 
ATOM     98  C   UNL     1       0.776   4.735  -6.144  1.00  0.00     0.000 A 
ENDBRANCH  90  93
ENDBRANCH  86  88
ENDBRANCH  82  86
ENDBRANCH  78  80
ENDBRANCH  77  78
ENDBRANCH  76  77
ENDBRANCH  75  76
ENDBRANCH  74  75
ENDBRANCH   1  74
TORSDOF 20
