REMARK SMILES CC1(C)CCN(c2nc3c(cc2C(=O)OCCOCCOCCOC(=O)c2ccc(-c4c5nc(c(-c6c(F)c(F)c(F)c(F)c6F)c6ccc([nH]6)c(-c6c(F)c(F)c(F)c(F)c6F)c6nc(c(-c7c(F)c(F)c(F)c(F)c7F)c7ccc4[nH]7)C=C6)C=C5)cc2)CCC3)C1
REMARK SMILES IDX 20 1 19 2 18 3 17 4 16 5 15 6 13 7 14 8 12 9 7 10 8 11 9 12
REMARK SMILES IDX 11 13 10 14 92 15 90 16 91 17 6 18 1 19 2 20 3 21 4 22 93 23
REMARK SMILES IDX 5 24 21 25 22 26 23 27 24 28 25 29 26 30 27 31 28 32 89 33
REMARK SMILES IDX 29 34 88 35 30 36 31 37 32 38 82 39 33 40 87 41 81 42 83 43
REMARK SMILES IDX 34 44 86 45 80 46 79 47 35 49 67 50 47 51 66 52 48 53 51 54
REMARK SMILES IDX 65 55 84 56 49 57 50 58 64 60 85 61 52 62 36 63 37 64 45 65
REMARK SMILES IDX 38 66 39 67 43 68 46 69 40 70 41 71 44 72 42 73 68 74 69 75
REMARK SMILES IDX 77 76 70 77 71 78 75 79 78 80 72 81 73 82 76 83 74 84 53 85
REMARK SMILES IDX 54 86 62 87 55 88 56 89 60 90 63 91 57 92 58 93 61 94 59 95
REMARK H PARENT 83 48 51 59
REMARK Flexibility Score: inf
ROOT
ATOM      1  C   UNL     1       3.745   1.221   2.926  1.00  0.00     0.188 C 
ENDROOT
BRANCH   1   2
ATOM      2  C   UNL     1       3.690   2.610   3.605  1.00  0.00     0.188 C 
BRANCH   2   3
ATOM      3  O   UNL     1       2.857   2.826   4.729  1.00  0.00    -0.376 OA
BRANCH   3   4
ATOM      4  C   UNL     1       1.453   2.657   4.596  1.00  0.00     0.202 C 
BRANCH   4   5
ATOM      5  C   UNL     1       0.728   3.091   3.318  1.00  0.00     0.261 C 
BRANCH   5   6
ATOM      6  O   UNL     1       1.375   2.642   2.122  1.00  0.00    -0.460 OA
BRANCH   6   7
ATOM      7  C   UNL     1       1.585   3.564   1.153  1.00  0.00     0.342 C 
ATOM      8  O   UNL     1       1.266   4.742   1.200  1.00  0.00    -0.246 OA
BRANCH   7   9
ATOM      9  C   UNL     1       2.446   3.023   0.080  1.00  0.00     0.102 A 
ATOM     10  C   UNL     1       2.251   1.777  -0.553  1.00  0.00     0.143 A 
ATOM     11  N   UNL     1       3.088   1.377  -1.552  1.00  0.00    -0.235 NA
ATOM     12  C   UNL     1       4.105   2.189  -1.885  1.00  0.00     0.046 A 
ATOM     13  C   UNL     1       3.567   3.812  -0.247  1.00  0.00     0.025 A 
ATOM     14  C   UNL     1       4.415   3.368  -1.237  1.00  0.00    -0.025 A 
ATOM     15  C   UNL     1       4.965   2.011  -3.103  1.00  0.00     0.057 C 
ATOM     16  C   UNL     1       5.628   4.016  -1.813  1.00  0.00     0.038 C 
ATOM     17  C   UNL     1       6.147   2.933  -2.776  1.00  0.00     0.011 C 
BRANCH  10  18
ATOM     18  N   UNL     1       1.266   0.889  -0.219  1.00  0.00    -0.355 N 
ATOM     19  C   UNL     1      -1.231  -0.287  -1.743  1.00  0.00     0.013 C 
ATOM     20  C   UNL     1      -0.872  -0.114  -0.260  1.00  0.00    -0.016 C 
ATOM     21  C   UNL     1      -2.139  -0.192   0.595  1.00  0.00     0.013 C 
ATOM     22  C   UNL     1       0.180  -1.143   0.187  1.00  0.00     0.030 C 
ATOM     23  C   UNL     1      -0.137   1.222  -0.037  1.00  0.00     0.124 C 
ATOM     24  C   UNL     1       1.500  -0.546  -0.302  1.00  0.00     0.119 C 
ENDBRANCH  10  18
ENDBRANCH   7   9
ENDBRANCH   6   7
ENDBRANCH   5   6
ENDBRANCH   4   5
ENDBRANCH   3   4
ENDBRANCH   2   3
ENDBRANCH   1   2
BRANCH   1  25
ATOM     25  O   UNL     1       2.847   0.213   3.325  1.00  0.00    -0.376 OA
BRANCH  25  26
ATOM     26  C   UNL     1       2.997  -0.419   4.584  1.00  0.00     0.202 C 
BRANCH  26  27
ATOM     27  C   UNL     1       4.299  -0.452   5.406  1.00  0.00     0.261 C 
BRANCH  27  28
ATOM     28  O   UNL     1       5.195   0.656   5.268  1.00  0.00    -0.460 OA
BRANCH  28  29
ATOM     29  C   UNL     1       6.369   0.383   4.642  1.00  0.00     0.338 C 
ATOM     30  O   UNL     1       6.744  -0.679   4.186  1.00  0.00    -0.246 OA
BRANCH  29  31
ATOM     31  C   UNL     1       7.094   1.651   4.436  1.00  0.00     0.060 A 
ATOM     32  C   UNL     1       7.173   2.192   3.144  1.00  0.00     0.016 A 
ATOM     33  C   UNL     1       7.712   2.283   5.513  1.00  0.00     0.016 A 
ATOM     34  C   UNL     1       7.864   3.382   2.927  1.00  0.00     0.010 A 
ATOM     35  C   UNL     1       8.446   3.449   5.287  1.00  0.00     0.010 A 
ATOM     36  C   UNL     1       8.542   3.989   3.991  1.00  0.00    -0.014 A 
BRANCH  36  37
ATOM     37  C   UNL     1       9.541   5.045   3.713  1.00  0.00     0.031 A 
ATOM     38  C   UNL     1      10.956   4.618   3.446  1.00  0.00     0.074 A 
ATOM     39  C   UNL     1       9.207   6.347   3.694  1.00  0.00     0.049 A 
ATOM     40  N   UNL     1      12.021   5.349   3.239  1.00  0.00    -0.248 NA
ATOM     41  C   UNL     1      11.203   3.167   3.409  1.00  0.00     0.031 C 
ATOM     42  C   UNL     1       7.860   6.877   3.884  1.00  0.00     0.029 A 
ATOM     43  N   UNL     1       9.989   7.460   3.514  1.00  0.00    -0.354 N 
ATOM     44  C   UNL     1      13.057   4.448   3.041  1.00  0.00     0.074 A 
ATOM     45  C   UNL     1      12.507   3.119   3.185  1.00  0.00     0.031 C 
ATOM     46  C   UNL     1       7.912   8.220   3.828  1.00  0.00     0.029 A 
ATOM     47  C   UNL     1       9.299   8.642   3.630  1.00  0.00     0.049 A 
ATOM     48  H   UNL     1      10.954   7.416   3.321  1.00  0.00     0.167 HD
ATOM     49  C   UNL     1      14.354   4.708   2.755  1.00  0.00     0.037 A 
ATOM     50  C   UNL     1       9.746   9.913   3.601  1.00  0.00     0.037 A 
ATOM     51  C   UNL     1      14.903   6.031   2.634  1.00  0.00     0.049 A 
ATOM     52  C   UNL     1      11.218  10.177   3.389  1.00  0.00     0.074 A 
ATOM     53  C   UNL     1      16.205   6.397   2.346  1.00  0.00     0.029 A 
ATOM     54  N   UNL     1      14.184   7.203   2.810  1.00  0.00    -0.354 N 
ATOM     55  N   UNL     1      12.191   9.324   3.176  1.00  0.00    -0.248 NA
ATOM     56  C   UNL     1      11.652  11.582   3.414  1.00  0.00     0.031 C 
ATOM     57  C   UNL     1      16.288   7.791   2.406  1.00  0.00     0.029 A 
ATOM     58  C   UNL     1      15.023   8.296   2.666  1.00  0.00     0.049 A 
ATOM     59  H   UNL     1      13.220   7.252   3.006  1.00  0.00     0.167 HD
ATOM     60  C   UNL     1      13.342  10.086   3.015  1.00  0.00     0.074 A 
ATOM     61  C   UNL     1      12.945  11.472   3.140  1.00  0.00     0.031 C 
ATOM     62  C   UNL     1      14.614   9.673   2.785  1.00  0.00     0.037 A 
BRANCH  49  63
ATOM     63  C   UNL     1      15.273   3.538   2.569  1.00  0.00     0.064 A 
ATOM     64  C   UNL     1      15.189   2.711   1.439  1.00  0.00     0.173 A 
ATOM     65  C   UNL     1      16.287   3.276   3.502  1.00  0.00     0.173 A 
ATOM     66  F   UNL     1      14.225   2.910   0.527  1.00  0.00    -0.203 F 
ATOM     67  C   UNL     1      16.079   1.657   1.256  1.00  0.00     0.198 A 
ATOM     68  C   UNL     1      17.195   2.240   3.300  1.00  0.00     0.198 A 
ATOM     69  F   UNL     1      16.410   4.036   4.601  1.00  0.00    -0.203 F 
ATOM     70  F   UNL     1      15.958   0.859   0.187  1.00  0.00    -0.200 F 
ATOM     71  C   UNL     1      17.088   1.430   2.180  1.00  0.00     0.200 A 
ATOM     72  F   UNL     1      18.178   2.030   4.187  1.00  0.00    -0.200 F 
ATOM     73  F   UNL     1      17.957   0.428   1.992  1.00  0.00    -0.200 F 
ENDBRANCH  49  63
BRANCH  50  74
ATOM     74  C   UNL     1       8.790  11.039   3.774  1.00  0.00     0.064 A 
ATOM     75  C   UNL     1       8.508  11.913   2.716  1.00  0.00     0.173 A 
ATOM     76  C   UNL     1       8.141  11.267   4.997  1.00  0.00     0.173 A 
ATOM     77  F   UNL     1       9.126  11.756   1.536  1.00  0.00    -0.203 F 
ATOM     78  C   UNL     1       7.621  12.976   2.875  1.00  0.00     0.198 A 
ATOM     79  C   UNL     1       7.232  12.312   5.147  1.00  0.00     0.198 A 
ATOM     80  F   UNL     1       8.382  10.466   6.045  1.00  0.00    -0.203 F 
ATOM     81  F   UNL     1       7.401  13.820   1.858  1.00  0.00    -0.200 F 
ATOM     82  C   UNL     1       6.976  13.169   4.087  1.00  0.00     0.200 A 
ATOM     83  F   UNL     1       6.605  12.490   6.318  1.00  0.00    -0.200 F 
ATOM     84  F   UNL     1       6.116  14.185   4.237  1.00  0.00    -0.200 F 
ENDBRANCH  50  74
BRANCH  62  85
ATOM     85  C   UNL     1      15.679  10.722   2.627  1.00  0.00     0.064 A 
ATOM     86  C   UNL     1      16.137  11.473   3.718  1.00  0.00     0.173 A 
ATOM     87  C   UNL     1      16.313  10.910   1.388  1.00  0.00     0.173 A 
ATOM     88  F   UNL     1      15.560  11.339   4.922  1.00  0.00    -0.203 F 
ATOM     89  C   UNL     1      17.181  12.384   3.572  1.00  0.00     0.198 A 
ATOM     90  C   UNL     1      17.378  11.796   1.254  1.00  0.00     0.198 A 
ATOM     91  F   UNL     1      15.922  10.207   0.314  1.00  0.00    -0.203 F 
ATOM     92  F   UNL     1      17.580  13.116   4.622  1.00  0.00    -0.200 F 
ATOM     93  C   UNL     1      17.808  12.535   2.345  1.00  0.00     0.200 A 
ATOM     94  F   UNL     1      17.997  11.923   0.072  1.00  0.00    -0.200 F 
ATOM     95  F   UNL     1      18.828  13.395   2.212  1.00  0.00    -0.200 F 
ENDBRANCH  62  85
ENDBRANCH  36  37
ENDBRANCH  29  31
ENDBRANCH  28  29
ENDBRANCH  27  28
ENDBRANCH  26  27
ENDBRANCH  25  26
ENDBRANCH   1  25
TORSDOF 18
