REMARK SMILES O=C1C[C@H](c2cn[nH]c2C(=O)OCCOCCOCCOC(=O)c2ccc(-c3c4nc(c(-c5c(F)c(F)c(F)c(F)c5F)c5ccc([nH]5)c(-c5c(F)c(F)c(F)c(F)c5F)c5nc(c(-c6c(F)c(F)c(F)c(F)c6F)c6ccc3[nH]6)C=C5)C=C4)cc2)c2c(-c3cccs3)n[nH]c2N1
REMARK SMILES IDX 16 1 15 2 14 3 13 4 12 5 10 6 11 7 9 8 5 9 6 10 7 11 8 12
REMARK SMILES IDX 4 14 1 15 2 16 3 17 97 18 96 19 87 21 95 22 88 23 94 24
REMARK SMILES IDX 89 26 90 27 93 28 91 29 92 30 17 31 18 32 19 33 20 34 21 35
REMARK SMILES IDX 22 36 23 37 24 38 25 39 86 40 26 41 85 42 27 43 28 44 29 45
REMARK SMILES IDX 79 46 30 47 84 48 78 49 80 50 31 51 83 52 77 53 76 54 32 56
REMARK SMILES IDX 64 57 44 58 63 59 45 60 48 61 62 62 81 63 46 64 47 65 61 67
REMARK SMILES IDX 82 68 49 69 33 70 34 71 42 72 35 73 36 74 40 75 43 76 37 77
REMARK SMILES IDX 38 78 41 79 39 80 65 81 66 82 74 83 67 84 68 85 72 86 75 87
REMARK SMILES IDX 69 88 70 89 73 90 71 91 50 92 51 93 59 94 52 95 53 96 57 97
REMARK SMILES IDX 60 98 54 99 55 100 58 101 56 102
REMARK H PARENT 8 13 97 20 95 25 80 55 48 66
REMARK Flexibility Score: inf
ROOT
ATOM      1  C   UNL     1       4.935  -1.640  -4.098  1.00  0.00     0.188 C 
ENDROOT
BRANCH   1   2
ATOM      2  O   UNL     1       5.637  -2.858  -3.976  1.00  0.00    -0.376 OA
BRANCH   2   3
ATOM      3  C   UNL     1       6.465  -3.093  -2.849  1.00  0.00     0.202 C 
BRANCH   3   4
ATOM      4  C   UNL     1       7.141  -1.966  -2.051  1.00  0.00     0.261 C 
BRANCH   4   5
ATOM      5  O   UNL     1       6.319  -0.823  -1.768  1.00  0.00    -0.459 OA
BRANCH   5   6
ATOM      6  C   UNL     1       6.761   0.358  -2.288  1.00  0.00     0.356 C 
ATOM      7  O   UNL     1       7.755   0.476  -2.972  1.00  0.00    -0.244 OA
BRANCH   6   8
ATOM      8  C   UNL     1       5.798   1.426  -2.121  1.00  0.00     0.147 A 
ATOM      9  C   UNL     1       4.850   1.864  -1.191  1.00  0.00     0.013 A 
ATOM     10  C   UNL     1       4.329   3.049  -1.800  1.00  0.00     0.140 A 
ATOM     11  N   UNL     1       4.849   3.310  -2.993  1.00  0.00    -0.183 NA
ATOM     12  N   UNL     1       5.753   2.343  -3.146  1.00  0.00    -0.271 N 
ATOM     13  H   UNL     1       6.343   2.289  -3.932  1.00  0.00     0.190 HD
BRANCH   9  14
ATOM     14  C   UNL     1       4.409   1.438   0.205  1.00  0.00     0.069 C 
ATOM     15  O   UNL     1       1.092  -0.320   0.279  1.00  0.00    -0.275 OA
ATOM     16  C   UNL     1       2.288  -0.101   0.483  1.00  0.00     0.226 C 
ATOM     17  C   UNL     1       2.869   1.300   0.334  1.00  0.00     0.114 C 
ATOM     18  N   UNL     1       3.086  -1.097   0.980  1.00  0.00    -0.311 N 
ATOM     19  C   UNL     1       4.429  -0.893   1.095  1.00  0.00     0.132 A 
ATOM     20  H   UNL     1       2.692  -1.957   1.253  1.00  0.00     0.171 HD
ATOM     21  C   UNL     1       5.094   0.261   0.789  1.00  0.00     0.031 A 
ATOM     22  N   UNL     1       5.370  -1.812   1.438  1.00  0.00    -0.262 N 
ATOM     23  C   UNL     1       6.446  -0.017   1.104  1.00  0.00     0.108 A 
ATOM     24  N   UNL     1       6.624  -1.313   1.415  1.00  0.00    -0.173 NA
ATOM     25  H   UNL     1       5.159  -2.743   1.679  1.00  0.00     0.192 HD
BRANCH  23  26
ATOM     26  C   UNL     1       7.576   0.950   0.959  1.00  0.00     0.055 A 
ATOM     27  C   UNL     1       8.750   0.670   0.295  1.00  0.00     0.022 A 
ATOM     28  S   UNL     1       7.520   2.565   1.510  1.00  0.00    -0.142 S 
ATOM     29  C   UNL     1       9.550   1.840   0.125  1.00  0.00     0.012 A 
ATOM     30  C   UNL     1       9.024   2.926   0.788  1.00  0.00     0.065 A 
ENDBRANCH  23  26
ENDBRANCH   9  14
ENDBRANCH   6   8
ENDBRANCH   5   6
ENDBRANCH   4   5
ENDBRANCH   3   4
ENDBRANCH   2   3
ENDBRANCH   1   2
BRANCH   1  31
ATOM     31  C   UNL     1       3.795  -1.287  -3.116  1.00  0.00     0.188 C 
BRANCH  31  32
ATOM     32  O   UNL     1       3.720  -1.854  -1.827  1.00  0.00    -0.376 OA
BRANCH  32  33
ATOM     33  C   UNL     1       3.397  -3.199  -1.534  1.00  0.00     0.202 C 
BRANCH  33  34
ATOM     34  C   UNL     1       2.650  -4.147  -2.450  1.00  0.00     0.261 C 
BRANCH  34  35
ATOM     35  O   UNL     1       2.866  -3.894  -3.812  1.00  0.00    -0.460 OA
BRANCH  35  36
ATOM     36  C   UNL     1       1.871  -3.190  -4.382  1.00  0.00     0.338 C 
ATOM     37  O   UNL     1       0.922  -2.654  -3.837  1.00  0.00    -0.246 OA
BRANCH  36  38
ATOM     38  C   UNL     1       2.062  -3.246  -5.825  1.00  0.00     0.060 A 
ATOM     39  C   UNL     1       1.195  -2.464  -6.585  1.00  0.00     0.016 A 
ATOM     40  C   UNL     1       2.777  -4.333  -6.348  1.00  0.00     0.016 A 
ATOM     41  C   UNL     1       0.804  -2.969  -7.795  1.00  0.00     0.010 A 
ATOM     42  C   UNL     1       2.365  -4.850  -7.542  1.00  0.00     0.010 A 
ATOM     43  C   UNL     1       1.309  -4.217  -8.183  1.00  0.00    -0.014 A 
BRANCH  43  44
ATOM     44  C   UNL     1       0.738  -4.835  -9.348  1.00  0.00     0.031 A 
ATOM     45  C   UNL     1       1.211  -4.196 -10.584  1.00  0.00     0.074 A 
ATOM     46  C   UNL     1      -0.078  -5.899  -9.273  1.00  0.00     0.049 A 
ATOM     47  N   UNL     1       0.536  -3.415 -11.355  1.00  0.00    -0.248 NA
ATOM     48  C   UNL     1       2.652  -4.251 -10.876  1.00  0.00     0.031 C 
ATOM     49  C   UNL     1      -0.388  -6.747  -8.120  1.00  0.00     0.029 A 
ATOM     50  N   UNL     1      -0.761  -6.493 -10.282  1.00  0.00    -0.354 N 
ATOM     51  C   UNL     1       1.419  -3.042 -12.356  1.00  0.00     0.074 A 
ATOM     52  C   UNL     1       2.736  -3.406 -11.904  1.00  0.00     0.031 C 
ATOM     53  C   UNL     1      -1.014  -7.869  -8.551  1.00  0.00     0.029 A 
ATOM     54  C   UNL     1      -1.269  -7.747  -9.976  1.00  0.00     0.049 A 
ATOM     55  H   UNL     1      -0.886  -6.069 -11.162  1.00  0.00     0.167 HD
ATOM     56  C   UNL     1       0.955  -2.731 -13.593  1.00  0.00     0.037 A 
ATOM     57  C   UNL     1      -1.782  -8.622 -10.877  1.00  0.00     0.037 A 
ATOM     58  C   UNL     1      -0.453  -2.425 -13.561  1.00  0.00     0.049 A 
ATOM     59  C   UNL     1      -2.152  -7.838 -12.089  1.00  0.00     0.074 A 
ATOM     60  C   UNL     1      -1.218  -1.460 -12.934  1.00  0.00     0.029 A 
ATOM     61  N   UNL     1      -1.328  -3.419 -13.926  1.00  0.00    -0.354 N 
ATOM     62  N   UNL     1      -3.126  -6.971 -12.118  1.00  0.00    -0.248 NA
ATOM     63  C   UNL     1      -1.138  -7.670 -13.120  1.00  0.00     0.031 C 
ATOM     64  C   UNL     1      -2.420  -2.126 -12.550  1.00  0.00     0.029 A 
ATOM     65  C   UNL     1      -2.354  -3.440 -13.015  1.00  0.00     0.049 A 
ATOM     66  H   UNL     1      -1.235  -4.014 -14.705  1.00  0.00     0.167 HD
ATOM     67  C   UNL     1      -2.635  -5.912 -12.867  1.00  0.00     0.074 A 
ATOM     68  C   UNL     1      -1.439  -6.433 -13.526  1.00  0.00     0.031 C 
ATOM     69  C   UNL     1      -3.074  -4.637 -12.648  1.00  0.00     0.037 A 
BRANCH  56  70
ATOM     70  C   UNL     1       1.678  -3.110 -14.855  1.00  0.00     0.064 A 
ATOM     71  C   UNL     1       1.219  -2.596 -16.080  1.00  0.00     0.173 A 
ATOM     72  C   UNL     1       2.602  -4.176 -14.943  1.00  0.00     0.173 A 
ATOM     73  F   UNL     1       0.316  -1.605 -16.108  1.00  0.00    -0.203 F 
ATOM     74  C   UNL     1       1.607  -3.155 -17.299  1.00  0.00     0.198 A 
ATOM     75  C   UNL     1       3.032  -4.690 -16.161  1.00  0.00     0.198 A 
ATOM     76  F   UNL     1       3.035  -4.843 -13.866  1.00  0.00    -0.203 F 
ATOM     77  F   UNL     1       1.048  -2.719 -18.436  1.00  0.00    -0.200 F 
ATOM     78  C   UNL     1       2.511  -4.202 -17.339  1.00  0.00     0.200 A 
ATOM     79  F   UNL     1       3.889  -5.720 -16.174  1.00  0.00    -0.200 F 
ATOM     80  F   UNL     1       2.838  -4.776 -18.503  1.00  0.00    -0.200 F 
ENDBRANCH  56  70
BRANCH  57  81
ATOM     81  C   UNL     1      -1.632 -10.096 -10.910  1.00  0.00     0.064 A 
ATOM     82  C   UNL     1      -2.430 -10.881 -11.760  1.00  0.00     0.173 A 
ATOM     83  C   UNL     1      -0.513 -10.733 -10.338  1.00  0.00     0.173 A 
ATOM     84  F   UNL     1      -3.487 -10.340 -12.382  1.00  0.00    -0.203 F 
ATOM     85  C   UNL     1      -2.109 -12.213 -12.045  1.00  0.00     0.198 A 
ATOM     86  C   UNL     1      -0.198 -12.063 -10.620  1.00  0.00     0.198 A 
ATOM     87  F   UNL     1       0.352 -10.051  -9.576  1.00  0.00    -0.203 F 
ATOM     88  F   UNL     1      -2.855 -12.909 -12.914  1.00  0.00    -0.200 F 
ATOM     89  C   UNL     1      -0.987 -12.799 -11.484  1.00  0.00     0.200 A 
ATOM     90  F   UNL     1       0.913 -12.606 -10.101  1.00  0.00    -0.200 F 
ATOM     91  F   UNL     1      -0.641 -14.053 -11.809  1.00  0.00    -0.200 F 
ENDBRANCH  57  81
BRANCH  69  92
ATOM     92  C   UNL     1      -4.288  -4.462 -11.777  1.00  0.00     0.064 A 
ATOM     93  C   UNL     1      -4.348  -4.821 -10.418  1.00  0.00     0.173 A 
ATOM     94  C   UNL     1      -5.392  -3.784 -12.311  1.00  0.00     0.173 A 
ATOM     95  F   UNL     1      -3.298  -5.383  -9.806  1.00  0.00    -0.203 F 
ATOM     96  C   UNL     1      -5.481  -4.556  -9.649  1.00  0.00     0.198 A 
ATOM     97  C   UNL     1      -6.505  -3.486 -11.531  1.00  0.00     0.198 A 
ATOM     98  F   UNL     1      -5.371  -3.369 -13.587  1.00  0.00    -0.203 F 
ATOM     99  F   UNL     1      -5.522  -4.925  -8.360  1.00  0.00    -0.200 F 
ATOM    100  C   UNL     1      -6.556  -3.882 -10.205  1.00  0.00     0.200 A 
ATOM    101  F   UNL     1      -7.521  -2.790 -12.061  1.00  0.00    -0.200 F 
ATOM    102  F   UNL     1      -7.630  -3.592  -9.457  1.00  0.00    -0.200 F 
ENDBRANCH  69  92
ENDBRANCH  43  44
ENDBRANCH  36  38
ENDBRANCH  35  36
ENDBRANCH  34  35
ENDBRANCH  33  34
ENDBRANCH  32  33
ENDBRANCH  31  32
ENDBRANCH   1  31
TORSDOF 19
