REMARK SMILES O=C(OCCOCCOCCOC(=O)c1ccc(C[N@H+]2CC[N@H+]3CCCC[C@@H]3C2)c(F)c1)c1ccc(-c2c3nc(c(-c4c(F)c(F)c(F)c(F)c4F)c4ccc([nH]4)c(-c4c(F)c(F)c(F)c(F)c4F)c4nc(c(-c5c(F)c(F)c(F)c(F)c5F)c5ccc2[nH]5)C=C4)C=C3)cc1
REMARK SMILES IDX 7 1 6 2 5 3 4 4 3 5 2 6 1 7 33 8 34 9 95 10 35 11 94 12
REMARK SMILES IDX 36 13 37 14 38 15 88 16 39 17 93 18 87 19 89 20 40 21 92 22
REMARK SMILES IDX 86 23 85 24 41 26 73 27 53 28 72 29 54 30 57 31 71 32 90 33
REMARK SMILES IDX 55 34 56 35 70 37 91 38 58 39 42 40 43 41 51 42 44 43 45 44
REMARK SMILES IDX 49 45 52 46 46 47 47 48 50 49 48 50 74 51 75 52 83 53 76 54
REMARK SMILES IDX 77 55 81 56 84 57 78 58 79 59 82 60 80 61 59 62 60 63 68 64
REMARK SMILES IDX 61 65 62 66 66 67 69 68 63 69 64 70 67 71 65 72 8 73 9 74
REMARK SMILES IDX 10 75 11 76 12 77 13 78 14 79 15 80 16 81 32 82 17 83 30 84
REMARK SMILES IDX 18 85 31 86 19 87 20 88 21 89 29 90 22 92 28 93 23 94 27 95
REMARK SMILES IDX 24 96 26 98 25 99
REMARK H PARENT 89 25 57 36 20 91 23 97
REMARK Flexibility Score: inf
ROOT
ATOM      1  C   UNL     1       2.727   0.145   1.656  1.00  0.00     0.188 C 
ENDROOT
BRANCH   1   2
ATOM      2  O   UNL     1       4.100  -0.241   1.603  1.00  0.00    -0.376 OA
BRANCH   2   3
ATOM      3  C   UNL     1       4.973   0.793   1.128  1.00  0.00     0.202 C 
BRANCH   3   4
ATOM      4  C   UNL     1       4.631   1.476  -0.220  1.00  0.00     0.261 C 
BRANCH   4   5
ATOM      5  O   UNL     1       3.353   1.153  -0.806  1.00  0.00    -0.460 OA
BRANCH   5   6
ATOM      6  C   UNL     1       2.928   0.134  -1.583  1.00  0.00     0.338 C 
ATOM      7  O   UNL     1       1.762   0.149  -1.976  1.00  0.00    -0.246 OA
BRANCH   6   8
ATOM      8  C   UNL     1       3.781  -1.022  -1.986  1.00  0.00     0.060 A 
ATOM      9  C   UNL     1       4.949  -1.422  -1.342  1.00  0.00     0.016 A 
ATOM     10  C   UNL     1       3.330  -1.817  -3.046  1.00  0.00     0.016 A 
ATOM     11  C   UNL     1       5.714  -2.510  -1.778  1.00  0.00     0.010 A 
ATOM     12  C   UNL     1       4.050  -2.953  -3.439  1.00  0.00     0.010 A 
ATOM     13  C   UNL     1       5.275  -3.305  -2.824  1.00  0.00    -0.014 A 
BRANCH  13  14
ATOM     14  C   UNL     1       6.013  -4.500  -3.330  1.00  0.00     0.031 A 
ATOM     15  C   UNL     1       6.393  -4.494  -4.767  1.00  0.00     0.074 A 
ATOM     16  C   UNL     1       6.470  -5.550  -2.604  1.00  0.00     0.049 A 
ATOM     17  N   UNL     1       6.890  -5.471  -5.466  1.00  0.00    -0.248 NA
ATOM     18  C   UNL     1       6.351  -3.196  -5.466  1.00  0.00     0.031 C 
ATOM     19  C   UNL     1       6.784  -5.572  -1.189  1.00  0.00     0.029 A 
ATOM     20  N   UNL     1       6.665  -6.872  -2.969  1.00  0.00    -0.354 N 
ATOM     21  C   UNL     1       7.378  -4.874  -6.606  1.00  0.00     0.074 A 
ATOM     22  C   UNL     1       6.944  -3.496  -6.611  1.00  0.00     0.031 C 
ATOM     23  C   UNL     1       6.894  -6.844  -0.764  1.00  0.00     0.029 A 
ATOM     24  C   UNL     1       6.665  -7.733  -1.874  1.00  0.00     0.049 A 
ATOM     25  H   UNL     1       6.790  -7.171  -3.898  1.00  0.00     0.167 HD
ATOM     26  C   UNL     1       8.242  -5.423  -7.478  1.00  0.00     0.037 A 
ATOM     27  C   UNL     1       6.453  -9.068  -1.816  1.00  0.00     0.037 A 
ATOM     28  C   UNL     1       8.669  -6.792  -7.416  1.00  0.00     0.049 A 
ATOM     29  C   UNL     1       6.789  -9.780  -3.078  1.00  0.00     0.074 A 
ATOM     30  C   UNL     1       9.546  -7.455  -8.249  1.00  0.00     0.029 A 
ATOM     31  N   UNL     1       8.228  -7.714  -6.473  1.00  0.00    -0.354 N 
ATOM     32  N   UNL     1       7.157  -9.248  -4.211  1.00  0.00    -0.248 NA
ATOM     33  C   UNL     1       6.897 -11.241  -3.012  1.00  0.00     0.031 C 
ATOM     34  C   UNL     1       9.561  -8.801  -7.873  1.00  0.00     0.029 A 
ATOM     35  C   UNL     1       8.736  -8.967  -6.773  1.00  0.00     0.049 A 
ATOM     36  H   UNL     1       7.645  -7.507  -5.708  1.00  0.00     0.167 HD
ATOM     37  C   UNL     1       7.705 -10.279  -4.932  1.00  0.00     0.074 A 
ATOM     38  C   UNL     1       7.490 -11.494  -4.169  1.00  0.00     0.031 C 
ATOM     39  C   UNL     1       8.437 -10.182  -6.061  1.00  0.00     0.037 A 
BRANCH  26  40
ATOM     40  C   UNL     1       8.780  -4.528  -8.536  1.00  0.00     0.064 A 
ATOM     41  C   UNL     1       8.302  -4.631  -9.845  1.00  0.00     0.173 A 
ATOM     42  C   UNL     1       9.768  -3.572  -8.255  1.00  0.00     0.173 A 
ATOM     43  F   UNL     1       7.335  -5.511 -10.143  1.00  0.00    -0.203 F 
ATOM     44  C   UNL     1       8.814  -3.821 -10.851  1.00  0.00     0.198 A 
ATOM     45  C   UNL     1      10.266  -2.751  -9.260  1.00  0.00     0.198 A 
ATOM     46  F   UNL     1      10.221  -3.411  -7.001  1.00  0.00    -0.203 F 
ATOM     47  F   UNL     1       8.353  -3.942 -12.102  1.00  0.00    -0.200 F 
ATOM     48  C   UNL     1       9.796  -2.884 -10.559  1.00  0.00     0.200 A 
ATOM     49  F   UNL     1      11.190  -1.824  -8.972  1.00  0.00    -0.200 F 
ATOM     50  F   UNL     1      10.282  -2.099 -11.530  1.00  0.00    -0.200 F 
ENDBRANCH  26  40
BRANCH  27  51
ATOM     51  C   UNL     1       6.024  -9.877  -0.634  1.00  0.00     0.064 A 
ATOM     52  C   UNL     1       4.762 -10.513  -0.678  1.00  0.00     0.173 A 
ATOM     53  C   UNL     1       6.806 -10.125   0.497  1.00  0.00     0.173 A 
ATOM     54  F   UNL     1       3.989 -10.380  -1.767  1.00  0.00    -0.203 F 
ATOM     55  C   UNL     1       4.268 -11.266   0.388  1.00  0.00     0.198 A 
ATOM     56  C   UNL     1       6.321 -10.903   1.559  1.00  0.00     0.198 A 
ATOM     57  F   UNL     1       8.043  -9.618   0.581  1.00  0.00    -0.203 F 
ATOM     58  F   UNL     1       3.035 -11.790   0.328  1.00  0.00    -0.200 F 
ATOM     59  C   UNL     1       5.046 -11.453   1.514  1.00  0.00     0.200 A 
ATOM     60  F   UNL     1       7.089 -11.116   2.636  1.00  0.00    -0.200 F 
ATOM     61  F   UNL     1       4.574 -12.163   2.548  1.00  0.00    -0.200 F 
ENDBRANCH  27  51
BRANCH  39  62
ATOM     62  C   UNL     1       9.056 -11.448  -6.533  1.00  0.00     0.064 A 
ATOM     63  C   UNL     1      10.438 -11.642  -6.407  1.00  0.00     0.173 A 
ATOM     64  C   UNL     1       8.280 -12.463  -7.102  1.00  0.00     0.173 A 
ATOM     65  F   UNL     1      11.209 -10.703  -5.838  1.00  0.00    -0.203 F 
ATOM     66  C   UNL     1      11.030 -12.806  -6.875  1.00  0.00     0.198 A 
ATOM     67  C   UNL     1       8.871 -13.641  -7.532  1.00  0.00     0.198 A 
ATOM     68  F   UNL     1       6.947 -12.329  -7.182  1.00  0.00    -0.203 F 
ATOM     69  F   UNL     1      12.357 -12.963  -6.782  1.00  0.00    -0.200 F 
ATOM     70  C   UNL     1      10.246 -13.805  -7.434  1.00  0.00     0.200 A 
ATOM     71  F   UNL     1       8.108 -14.626  -8.024  1.00  0.00    -0.200 F 
ATOM     72  F   UNL     1      10.816 -14.936  -7.869  1.00  0.00    -0.200 F 
ENDBRANCH  39  62
ENDBRANCH  13  14
ENDBRANCH   6   8
ENDBRANCH   5   6
ENDBRANCH   4   5
ENDBRANCH   3   4
ENDBRANCH   2   3
ENDBRANCH   1   2
BRANCH   1  73
ATOM     73  C   UNL     1       1.934  -0.224   2.908  1.00  0.00     0.188 C 
BRANCH  73  74
ATOM     74  O   UNL     1       2.524  -0.032   4.179  1.00  0.00    -0.376 OA
BRANCH  74  75
ATOM     75  C   UNL     1       3.776  -0.643   4.445  1.00  0.00     0.202 C 
BRANCH  75  76
ATOM     76  C   UNL     1       4.021  -2.127   4.109  1.00  0.00     0.261 C 
BRANCH  76  77
ATOM     77  O   UNL     1       3.019  -2.779   3.317  1.00  0.00    -0.460 OA
BRANCH  77  78
ATOM     78  C   UNL     1       2.133  -3.569   3.971  1.00  0.00     0.338 C 
ATOM     79  O   UNL     1       2.077  -3.747   5.180  1.00  0.00    -0.246 OA
BRANCH  78  80
ATOM     80  C   UNL     1       1.345  -4.362   2.987  1.00  0.00     0.063 A 
ATOM     81  C   UNL     1       1.086  -5.704   3.297  1.00  0.00     0.016 A 
ATOM     82  C   UNL     1       0.995  -3.871   1.725  1.00  0.00     0.055 A 
ATOM     83  C   UNL     1       0.655  -6.586   2.297  1.00  0.00     0.013 A 
ATOM     84  C   UNL     1       0.540  -4.752   0.746  1.00  0.00     0.132 A 
ATOM     85  C   UNL     1       0.502  -6.127   0.979  1.00  0.00     0.042 A 
ATOM     86  F   UNL     1       0.323  -4.279  -0.490  1.00  0.00    -0.206 F 
BRANCH  85  87
ATOM     87  C   UNL     1       0.535  -7.097  -0.180  1.00  0.00     0.302 C 
BRANCH  87  88
ATOM     88  N   UNL     1       1.860  -7.409  -0.743  1.00  0.00    -0.322 N 
ATOM     89  C   UNL     1       2.469  -6.360  -1.566  1.00  0.00     0.324 C 
ATOM     90  C   UNL     1       2.875  -7.930   0.180  1.00  0.00     0.328 C 
ATOM     91  H   UNL     1       1.580  -8.181  -1.348  1.00  0.00     0.348 HD
ATOM     92  C   UNL     1       3.313  -5.316  -0.800  1.00  0.00     0.324 C 
ATOM     93  C   UNL     1       3.635  -6.894   1.043  1.00  0.00     0.239 C 
ATOM     94  N   UNL     1       4.208  -5.808   0.255  1.00  0.00    -0.323 N 
ATOM     95  C   UNL     1       4.736  -7.527   1.897  1.00  0.00     0.071 C 
ATOM     96  C   UNL     1       4.694  -4.729   1.119  1.00  0.00     0.262 C 
ATOM     97  H   UNL     1       5.011  -6.199  -0.237  1.00  0.00     0.348 HD
ATOM     98  C   UNL     1       5.370  -6.498   2.833  1.00  0.00     0.012 C 
ATOM     99  C   UNL     1       5.755  -5.207   2.115  1.00  0.00     0.062 C 
ENDBRANCH  87  88
ENDBRANCH  85  87
ENDBRANCH  78  80
ENDBRANCH  77  78
ENDBRANCH  76  77
ENDBRANCH  75  76
ENDBRANCH  74  75
ENDBRANCH  73  74
ENDBRANCH   1  73
TORSDOF 19
