REMARK SMILES O=C(OCCOCCOCCOC(=O)c1nccnc1C(=O)Nc1ccc2c(c1)OCO2)c1ccc(-c2c3nc(c(-c4c(F)c(F)c(F)c(F)c4F)c4ccc([nH]4)c(-c4c(F)c(F)c(F)c(F)c4F)c4nc(c(-c5c(F)c(F)c(F)c(F)c5F)c5ccc2[nH]5)C=C4)C=C3)cc1
REMARK SMILES IDX 7 1 6 2 5 3 4 4 3 5 2 6 1 7 33 8 34 9 95 10 35 11 94 12
REMARK SMILES IDX 36 13 37 14 38 15 88 16 39 17 93 18 87 19 89 20 40 21 92 22
REMARK SMILES IDX 86 23 85 24 41 26 73 27 53 28 72 29 54 30 57 31 71 32 90 33
REMARK SMILES IDX 55 34 56 35 70 37 91 38 58 39 42 40 43 41 51 42 44 43 45 44
REMARK SMILES IDX 49 45 52 46 46 47 47 48 50 49 48 50 74 51 75 52 83 53 76 54
REMARK SMILES IDX 77 55 81 56 84 57 78 58 79 59 82 60 80 61 59 62 60 63 68 64
REMARK SMILES IDX 61 65 62 66 66 67 69 68 63 69 64 70 67 71 65 72 8 73 9 74
REMARK SMILES IDX 10 75 11 76 12 77 13 78 14 79 15 80 16 81 20 82 17 83 19 84
REMARK SMILES IDX 18 85 21 86 22 87 23 88 24 90 25 91 29 92 26 93 28 94 27 95
REMARK SMILES IDX 30 96 32 97 31 98
REMARK H PARENT 89 25 57 36 23 89
REMARK Flexibility Score: inf
ROOT
ATOM      1  C   UNL     1       3.234   0.553  -1.363  1.00  0.00     0.188 C 
ENDROOT
BRANCH   1   2
ATOM      2  O   UNL     1       4.570   0.260  -0.947  1.00  0.00    -0.376 OA
BRANCH   2   3
ATOM      3  C   UNL     1       5.025  -1.063  -1.203  1.00  0.00     0.202 C 
BRANCH   3   4
ATOM      4  C   UNL     1       4.565  -2.117  -0.186  1.00  0.00     0.261 C 
BRANCH   4   5
ATOM      5  O   UNL     1       3.179  -2.015   0.182  1.00  0.00    -0.460 OA
BRANCH   5   6
ATOM      6  C   UNL     1       2.635  -1.439   1.286  1.00  0.00     0.338 C 
ATOM      7  O   UNL     1       1.513  -1.806   1.631  1.00  0.00    -0.246 OA
BRANCH   6   8
ATOM      8  C   UNL     1       3.281  -0.328   2.069  1.00  0.00     0.060 A 
ATOM      9  C   UNL     1       4.577   0.149   1.881  1.00  0.00     0.016 A 
ATOM     10  C   UNL     1       2.516   0.279   3.088  1.00  0.00     0.016 A 
ATOM     11  C   UNL     1       5.113   1.162   2.662  1.00  0.00     0.010 A 
ATOM     12  C   UNL     1       3.060   1.268   3.921  1.00  0.00     0.010 A 
ATOM     13  C   UNL     1       4.382   1.674   3.727  1.00  0.00    -0.014 A 
BRANCH  13  14
ATOM     14  C   UNL     1       5.180   2.360   4.760  1.00  0.00     0.031 A 
ATOM     15  C   UNL     1       5.781   1.497   5.829  1.00  0.00     0.074 A 
ATOM     16  C   UNL     1       5.575   3.631   4.585  1.00  0.00     0.049 A 
ATOM     17  N   UNL     1       6.655   1.801   6.749  1.00  0.00    -0.248 NA
ATOM     18  C   UNL     1       5.388   0.076   5.816  1.00  0.00     0.031 C 
ATOM     19  C   UNL     1       5.202   4.461   3.447  1.00  0.00     0.029 A 
ATOM     20  N   UNL     1       6.418   4.422   5.316  1.00  0.00    -0.354 N 
ATOM     21  C   UNL     1       6.916   0.613   7.417  1.00  0.00     0.074 A 
ATOM     22  C   UNL     1       6.110  -0.417   6.807  1.00  0.00     0.031 C 
ATOM     23  C   UNL     1       5.819   5.650   3.547  1.00  0.00     0.029 A 
ATOM     24  C   UNL     1       6.588   5.677   4.784  1.00  0.00     0.049 A 
ATOM     25  H   UNL     1       6.860   4.121   6.143  1.00  0.00     0.167 HD
ATOM     26  C   UNL     1       7.754   0.411   8.458  1.00  0.00     0.037 A 
ATOM     27  C   UNL     1       7.277   6.728   5.264  1.00  0.00     0.037 A 
ATOM     28  C   UNL     1       8.516   1.466   9.065  1.00  0.00     0.049 A 
ATOM     29  C   UNL     1       8.062   6.521   6.533  1.00  0.00     0.074 A 
ATOM     30  C   UNL     1       9.327   1.417  10.181  1.00  0.00     0.029 A 
ATOM     31  N   UNL     1       8.541   2.777   8.602  1.00  0.00    -0.354 N 
ATOM     32  N   UNL     1       8.256   5.414   7.212  1.00  0.00    -0.248 NA
ATOM     33  C   UNL     1       8.726   7.699   7.103  1.00  0.00     0.031 C 
ATOM     34  C   UNL     1       9.786   2.714  10.435  1.00  0.00     0.029 A 
ATOM     35  C   UNL     1       9.325   3.557   9.433  1.00  0.00     0.049 A 
ATOM     36  H   UNL     1       8.069   3.102   7.801  1.00  0.00     0.167 HD
ATOM     37  C   UNL     1       9.093   5.750   8.265  1.00  0.00     0.074 A 
ATOM     38  C   UNL     1       9.377   7.166   8.127  1.00  0.00     0.031 C 
ATOM     39  C   UNL     1       9.589   4.964   9.253  1.00  0.00     0.037 A 
BRANCH  26  40
ATOM     40  C   UNL     1       7.775  -0.967   9.050  1.00  0.00     0.064 A 
ATOM     41  C   UNL     1       8.337  -2.065   8.379  1.00  0.00     0.173 A 
ATOM     42  C   UNL     1       7.154  -1.202  10.285  1.00  0.00     0.173 A 
ATOM     43  F   UNL     1       8.909  -1.901   7.176  1.00  0.00    -0.203 F 
ATOM     44  C   UNL     1       8.242  -3.351   8.907  1.00  0.00     0.198 A 
ATOM     45  C   UNL     1       7.088  -2.484  10.824  1.00  0.00     0.198 A 
ATOM     46  F   UNL     1       6.588  -0.191  10.960  1.00  0.00    -0.203 F 
ATOM     47  F   UNL     1       8.719  -4.395   8.215  1.00  0.00    -0.200 F 
ATOM     48  C   UNL     1       7.620  -3.559  10.129  1.00  0.00     0.200 A 
ATOM     49  F   UNL     1       6.487  -2.681  12.005  1.00  0.00    -0.200 F 
ATOM     50  F   UNL     1       7.517  -4.798  10.629  1.00  0.00    -0.200 F 
ENDBRANCH  26  40
BRANCH  27  51
ATOM     51  C   UNL     1       7.221   8.051   4.584  1.00  0.00     0.064 A 
ATOM     52  C   UNL     1       8.369   8.662   4.060  1.00  0.00     0.173 A 
ATOM     53  C   UNL     1       6.011   8.759   4.481  1.00  0.00     0.173 A 
ATOM     54  F   UNL     1       9.555   8.043   4.148  1.00  0.00    -0.203 F 
ATOM     55  C   UNL     1       8.316   9.934   3.490  1.00  0.00     0.198 A 
ATOM     56  C   UNL     1       5.954  10.018   3.884  1.00  0.00     0.198 A 
ATOM     57  F   UNL     1       4.875   8.230   4.962  1.00  0.00    -0.203 F 
ATOM     58  F   UNL     1       9.441  10.518   3.053  1.00  0.00    -0.200 F 
ATOM     59  C   UNL     1       7.108  10.610   3.401  1.00  0.00     0.200 A 
ATOM     60  F   UNL     1       4.780  10.659   3.793  1.00  0.00    -0.200 F 
ATOM     61  F   UNL     1       7.060  11.838   2.865  1.00  0.00    -0.200 F 
ENDBRANCH  27  51
BRANCH  39  62
ATOM     62  C   UNL     1      10.529   5.611  10.226  1.00  0.00     0.064 A 
ATOM     63  C   UNL     1      10.087   6.546  11.173  1.00  0.00     0.173 A 
ATOM     64  C   UNL     1      11.885   5.252  10.236  1.00  0.00     0.173 A 
ATOM     65  F   UNL     1       8.801   6.930  11.194  1.00  0.00    -0.203 F 
ATOM     66  C   UNL     1      10.977   7.123  12.072  1.00  0.00     0.198 A 
ATOM     67  C   UNL     1      12.764   5.801  11.162  1.00  0.00     0.198 A 
ATOM     68  F   UNL     1      12.354   4.353   9.356  1.00  0.00    -0.203 F 
ATOM     69  F   UNL     1      10.546   8.059  12.930  1.00  0.00    -0.200 F 
ATOM     70  C   UNL     1      12.312   6.744  12.072  1.00  0.00     0.200 A 
ATOM     71  F   UNL     1      14.048   5.418  11.173  1.00  0.00    -0.200 F 
ATOM     72  F   UNL     1      13.165   7.294  12.947  1.00  0.00    -0.200 F 
ENDBRANCH  39  62
ENDBRANCH  13  14
ENDBRANCH   6   8
ENDBRANCH   5   6
ENDBRANCH   4   5
ENDBRANCH   3   4
ENDBRANCH   2   3
ENDBRANCH   1   2
BRANCH   1  73
ATOM     73  C   UNL     1       3.073   0.641  -2.874  1.00  0.00     0.188 C 
BRANCH  73  74
ATOM     74  O   UNL     1       3.654   1.798  -3.467  1.00  0.00    -0.376 OA
BRANCH  74  75
ATOM     75  C   UNL     1       5.030   2.004  -3.208  1.00  0.00     0.202 C 
BRANCH  75  76
ATOM     76  C   UNL     1       5.293   3.139  -2.207  1.00  0.00     0.261 C 
BRANCH  76  77
ATOM     77  O   UNL     1       4.202   3.428  -1.302  1.00  0.00    -0.458 OA
BRANCH  77  78
ATOM     78  C   UNL     1       4.326   4.645  -0.713  1.00  0.00     0.359 C 
ATOM     79  O   UNL     1       5.279   5.390  -0.902  1.00  0.00    -0.244 OA
BRANCH  78  80
ATOM     80  C   UNL     1       3.218   5.056   0.211  1.00  0.00     0.179 A 
ATOM     81  N   UNL     1       3.609   6.117   1.004  1.00  0.00    -0.245 NA
ATOM     82  C   UNL     1       1.929   4.555   0.321  1.00  0.00     0.161 A 
ATOM     83  C   UNL     1       2.743   6.571   1.935  1.00  0.00     0.132 A 
ATOM     84  N   UNL     1       1.060   5.039   1.279  1.00  0.00    -0.247 NA
ATOM     85  C   UNL     1       1.496   6.024   2.087  1.00  0.00     0.132 A 
BRANCH  82  86
ATOM     86  C   UNL     1       1.308   3.415  -0.379  1.00  0.00     0.276 C 
ATOM     87  O   UNL     1       0.992   2.441   0.317  1.00  0.00    -0.267 OA
ATOM     88  N   UNL     1       0.911   3.382  -1.697  1.00  0.00    -0.320 N 
ATOM     89  H   UNL     1       0.147   2.780  -1.851  1.00  0.00     0.170 HD
BRANCH  88  90
ATOM     90  C   UNL     1       1.353   4.015  -2.869  1.00  0.00     0.045 A 
ATOM     91  C   UNL     1       2.175   5.146  -2.907  1.00  0.00     0.030 A 
ATOM     92  C   UNL     1       1.115   3.296  -4.054  1.00  0.00     0.076 A 
ATOM     93  C   UNL     1       2.986   5.393  -4.023  1.00  0.00     0.053 A 
ATOM     94  C   UNL     1       1.922   3.559  -5.139  1.00  0.00     0.167 A 
ATOM     95  C   UNL     1       2.875   4.545  -5.102  1.00  0.00     0.165 A 
ATOM     96  O   UNL     1       1.988   2.812  -6.274  1.00  0.00    -0.454 OA
ATOM     97  O   UNL     1       3.683   4.527  -6.195  1.00  0.00    -0.454 OA
ATOM     98  C   UNL     1       3.181   3.356  -6.876  1.00  0.00     0.468 C 
ENDBRANCH  88  90
ENDBRANCH  82  86
ENDBRANCH  78  80
ENDBRANCH  77  78
ENDBRANCH  76  77
ENDBRANCH  75  76
ENDBRANCH  74  75
ENDBRANCH  73  74
ENDBRANCH   1  73
TORSDOF 19
