REMARK SMILES CCC(=O)Nc1cc(NC(=O)/C=C/C(=O)OCCOCCOCCOC(=O)c2ccc(-c3c4nc(c(-c5c(F)c(F)c(F)c(F)c5F)c5ccc([nH]5)c(-c5c(F)c(F)c(F)c(F)c5F)c5nc(c(-c6c(F)c(F)c(F)c(F)c6F)c6ccc3[nH]6)C=C5)C=C4)cc2)ccc1C
REMARK SMILES IDX 20 1 19 2 18 3 17 4 16 5 14 6 15 7 13 8 12 9 10 10 9 11
REMARK SMILES IDX 11 13 8 14 6 15 7 16 93 17 92 18 94 19 91 20 5 21 3 22 4 23
REMARK SMILES IDX 2 25 1 26 21 27 22 28 23 29 24 30 25 31 26 32 27 33 28 34
REMARK SMILES IDX 29 35 90 36 30 37 89 38 31 39 32 40 33 41 83 42 34 43 88 44
REMARK SMILES IDX 82 45 84 46 35 47 87 48 81 49 80 50 36 52 68 53 48 54 67 55
REMARK SMILES IDX 49 56 52 57 66 58 85 59 50 60 51 61 65 63 86 64 53 65 37 66
REMARK SMILES IDX 38 67 46 68 39 69 40 70 44 71 47 72 41 73 42 74 45 75 43 76
REMARK SMILES IDX 69 77 70 78 78 79 71 80 72 81 76 82 79 83 73 84 74 85 77 86
REMARK SMILES IDX 75 87 54 88 55 89 63 90 56 91 57 92 61 93 64 94 58 95 59 96
REMARK SMILES IDX 62 97 60 98
REMARK H PARENT 9 12 5 24 84 51 52 62
REMARK Flexibility Score: inf
ROOT
ATOM      1  C   UNL     1       2.572  -6.170   4.494  1.00  0.00     0.188 C 
ENDROOT
BRANCH   1   2
ATOM      2  O   UNL     1       2.901  -7.111   3.461  1.00  0.00    -0.376 OA
BRANCH   2   3
ATOM      3  C   UNL     1       3.881  -8.146   3.357  1.00  0.00     0.202 C 
BRANCH   3   4
ATOM      4  C   UNL     1       5.409  -8.214   2.481  1.00  0.00     0.261 C 
BRANCH   4   5
ATOM      5  O   UNL     1       6.230  -7.317   1.350  1.00  0.00    -0.460 OA
BRANCH   5   6
ATOM      6  C   UNL     1       6.131  -6.358   0.361  1.00  0.00     0.331 C 
ATOM      7  O   UNL     1       5.133  -5.827  -0.101  1.00  0.00    -0.247 OA
BRANCH   6   8
ATOM      8  C   UNL     1       7.287  -5.761  -0.318  1.00  0.00     0.099 C 
ATOM      9  C   UNL     1       7.173  -4.401  -0.344  1.00  0.00     0.079 C 
BRANCH   9  10
ATOM     10  C   UNL     1       7.568  -3.581  -1.516  1.00  0.00     0.248 C 
ATOM     11  N   UNL     1       7.119  -2.289  -1.653  1.00  0.00    -0.322 N 
ATOM     12  H   UNL     1       7.681  -1.768  -2.269  1.00  0.00     0.170 HD
ATOM     13  O   UNL     1       8.409  -4.005  -2.309  1.00  0.00    -0.270 OA
BRANCH  11  14
ATOM     14  C   UNL     1       6.051  -1.519  -1.131  1.00  0.00     0.043 A 
ATOM     15  C   UNL     1       3.705  -1.013  -0.554  1.00  0.00     0.046 A 
ATOM     16  C   UNL     1       4.720  -1.936  -0.973  1.00  0.00     0.052 A 
ATOM     17  C   UNL     1       4.086   0.255  -0.082  1.00  0.00    -0.027 A 
ATOM     18  C   UNL     1       5.387   0.689  -0.361  1.00  0.00     0.008 A 
ATOM     19  C   UNL     1       3.219   1.211   0.689  1.00  0.00     0.046 C 
ATOM     20  C   UNL     1       6.333  -0.166  -0.926  1.00  0.00     0.026 A 
BRANCH  15  21
ATOM     21  N   UNL     1       2.353  -1.363  -0.837  1.00  0.00    -0.326 N 
ATOM     22  C   UNL     1       1.218  -0.606  -0.610  1.00  0.00     0.224 C 
ATOM     23  O   UNL     1       0.851  -0.141   0.467  1.00  0.00    -0.275 OA
ATOM     24  H   UNL     1       2.210  -2.249  -1.243  1.00  0.00     0.169 HD
BRANCH  22  25
ATOM     25  C   UNL     1       0.351  -0.378  -1.824  1.00  0.00     0.097 C 
ATOM     26  C   UNL     1       0.132   1.124  -1.966  1.00  0.00     0.014 C 
ENDBRANCH  22  25
ENDBRANCH  15  21
ENDBRANCH  11  14
ENDBRANCH   9  10
ENDBRANCH   6   8
ENDBRANCH   5   6
ENDBRANCH   4   5
ENDBRANCH   3   4
ENDBRANCH   2   3
ENDBRANCH   1   2
BRANCH   1  27
ATOM     27  C   UNL     1       3.422  -5.864   5.706  1.00  0.00     0.188 C 
BRANCH  27  28
ATOM     28  O   UNL     1       4.725  -6.366   5.534  1.00  0.00    -0.376 OA
BRANCH  28  29
ATOM     29  C   UNL     1       5.564  -6.133   6.656  1.00  0.00     0.202 C 
BRANCH  29  30
ATOM     30  C   UNL     1       5.881  -4.643   6.918  1.00  0.00     0.261 C 
BRANCH  30  31
ATOM     31  O   UNL     1       6.365  -4.007   5.709  1.00  0.00    -0.460 OA
BRANCH  31  32
ATOM     32  C   UNL     1       5.582  -3.014   5.143  1.00  0.00     0.338 C 
ATOM     33  O   UNL     1       5.048  -2.132   5.746  1.00  0.00    -0.246 OA
BRANCH  32  34
ATOM     34  C   UNL     1       5.270  -3.401   3.708  1.00  0.00     0.060 A 
ATOM     35  C   UNL     1       4.231  -2.877   2.925  1.00  0.00     0.016 A 
ATOM     36  C   UNL     1       5.736  -4.598   3.299  1.00  0.00     0.016 A 
ATOM     37  C   UNL     1       3.531  -3.675   1.906  1.00  0.00     0.010 A 
ATOM     38  C   UNL     1       4.835  -5.358   2.548  1.00  0.00     0.010 A 
ATOM     39  C   UNL     1       3.721  -5.039   1.754  1.00  0.00    -0.014 A 
BRANCH  39  40
ATOM     40  C   UNL     1       2.839  -6.160   0.931  1.00  0.00     0.031 A 
ATOM     41  C   UNL     1       3.272  -7.125  -0.252  1.00  0.00     0.074 A 
ATOM     42  C   UNL     1       1.546  -6.428   1.211  1.00  0.00     0.049 A 
ATOM     43  N   UNL     1       3.110  -6.949  -1.546  1.00  0.00    -0.248 NA
ATOM     44  C   UNL     1       3.952  -8.422  -0.021  1.00  0.00     0.031 C 
ATOM     45  C   UNL     1       0.695  -7.466   0.615  1.00  0.00     0.029 A 
ATOM     46  N   UNL     1       0.690  -5.773   2.094  1.00  0.00    -0.354 N 
ATOM     47  C   UNL     1       3.717  -8.047  -2.183  1.00  0.00     0.074 A 
ATOM     48  C   UNL     1       4.523  -8.708  -1.192  1.00  0.00     0.031 C 
ATOM     49  C   UNL     1      -0.588  -7.162   0.874  1.00  0.00     0.029 A 
ATOM     50  C   UNL     1      -0.605  -5.879   1.555  1.00  0.00     0.049 A 
ATOM     51  H   UNL     1       0.942  -5.324   2.933  1.00  0.00     0.167 HD
ATOM     52  C   UNL     1       3.171  -8.815  -3.183  1.00  0.00     0.037 A 
ATOM     53  C   UNL     1      -1.205  -4.738   1.116  1.00  0.00     0.037 A 
ATOM     54  C   UNL     1       1.747  -8.621  -3.231  1.00  0.00     0.049 A 
ATOM     55  C   UNL     1      -1.266  -4.665  -0.407  1.00  0.00     0.074 A 
ATOM     56  C   UNL     1       0.659  -9.311  -2.724  1.00  0.00     0.029 A 
ATOM     57  N   UNL     1       1.298  -7.372  -3.548  1.00  0.00    -0.354 N 
ATOM     58  N   UNL     1      -0.906  -5.620  -1.222  1.00  0.00    -0.248 NA
ATOM     59  C   UNL     1      -1.678  -3.462  -1.131  1.00  0.00     0.031 C 
ATOM     60  C   UNL     1      -0.460  -8.429  -2.744  1.00  0.00     0.029 A 
ATOM     61  C   UNL     1      -0.041  -7.232  -3.293  1.00  0.00     0.049 A 
ATOM     62  H   UNL     1       1.867  -6.657  -3.915  1.00  0.00     0.167 HD
ATOM     63  C   UNL     1      -0.982  -5.177  -2.517  1.00  0.00     0.074 A 
ATOM     64  C   UNL     1      -1.470  -3.818  -2.410  1.00  0.00     0.031 C 
ATOM     65  C   UNL     1      -0.618  -5.942  -3.586  1.00  0.00     0.037 A 
BRANCH  52  66
ATOM     66  C   UNL     1       3.905 -10.012  -3.775  1.00  0.00     0.064 A 
ATOM     67  C   UNL     1       3.270 -11.222  -4.113  1.00  0.00     0.173 A 
ATOM     68  C   UNL     1       5.299  -9.978  -4.014  1.00  0.00     0.173 A 
ATOM     69  F   UNL     1       1.942 -11.364  -4.017  1.00  0.00    -0.203 F 
ATOM     70  C   UNL     1       3.987 -12.348  -4.542  1.00  0.00     0.198 A 
ATOM     71  C   UNL     1       6.018 -11.111  -4.418  1.00  0.00     0.198 A 
ATOM     72  F   UNL     1       5.994  -8.848  -3.813  1.00  0.00    -0.203 F 
ATOM     73  F   UNL     1       3.336 -13.489  -4.809  1.00  0.00    -0.200 F 
ATOM     74  C   UNL     1       5.362 -12.302  -4.664  1.00  0.00     0.200 A 
ATOM     75  F   UNL     1       7.353 -11.053  -4.534  1.00  0.00    -0.200 F 
ATOM     76  F   UNL     1       6.050 -13.400  -5.011  1.00  0.00    -0.200 F 
ENDBRANCH  52  66
BRANCH  53  77
ATOM     77  C   UNL     1      -0.907  -3.592   2.035  1.00  0.00     0.064 A 
ATOM     78  C   UNL     1      -1.440  -3.552   3.335  1.00  0.00     0.173 A 
ATOM     79  C   UNL     1       0.201  -2.785   1.795  1.00  0.00     0.173 A 
ATOM     80  F   UNL     1      -2.475  -4.342   3.655  1.00  0.00    -0.203 F 
ATOM     81  C   UNL     1      -0.851  -2.787   4.350  1.00  0.00     0.198 A 
ATOM     82  C   UNL     1       0.776  -2.001   2.804  1.00  0.00     0.198 A 
ATOM     83  F   UNL     1       0.806  -2.900   0.607  1.00  0.00    -0.203 F 
ATOM     84  F   UNL     1      -1.329  -2.846   5.601  1.00  0.00    -0.200 F 
ATOM     85  C   UNL     1       0.271  -2.026   4.087  1.00  0.00     0.200 A 
ATOM     86  F   UNL     1       1.877  -1.281   2.565  1.00  0.00    -0.200 F 
ATOM     87  F   UNL     1       0.895  -1.364   5.073  1.00  0.00    -0.200 F 
ENDBRANCH  53  77
BRANCH  65  88
ATOM     88  C   UNL     1      -0.762  -5.546  -5.032  1.00  0.00     0.064 A 
ATOM     89  C   UNL     1      -1.954  -4.993  -5.512  1.00  0.00     0.173 A 
ATOM     90  C   UNL     1       0.201  -5.889  -6.014  1.00  0.00     0.173 A 
ATOM     91  F   UNL     1      -2.950  -4.682  -4.671  1.00  0.00    -0.203 F 
ATOM     92  C   UNL     1      -2.161  -4.778  -6.876  1.00  0.00     0.198 A 
ATOM     93  C   UNL     1      -0.037  -5.739  -7.377  1.00  0.00     0.198 A 
ATOM     94  F   UNL     1       1.414  -6.358  -5.689  1.00  0.00    -0.203 F 
ATOM     95  F   UNL     1      -3.298  -4.201  -7.288  1.00  0.00    -0.200 F 
ATOM     96  C   UNL     1      -1.215  -5.171  -7.808  1.00  0.00     0.200 A 
ATOM     97  F   UNL     1       0.883  -6.149  -8.262  1.00  0.00    -0.200 F 
ATOM     98  F   UNL     1      -1.436  -4.997  -9.117  1.00  0.00    -0.200 F 
ENDBRANCH  65  88
ENDBRANCH  39  40
ENDBRANCH  32  34
ENDBRANCH  31  32
ENDBRANCH  30  31
ENDBRANCH  29  30
ENDBRANCH  28  29
ENDBRANCH  27  28
ENDBRANCH   1  27
TORSDOF 21
