REMARK SMILES CSCc1ccc(C(=O)N[C@H]2C=C[C@@H](C(=O)OCCOCCOCCOC(=O)c3ccc(-c4c5nc(c(-c6c(F)c(F)c(F)c(F)c6F)c6ccc([nH]6)c(-c6c(F)c(F)c(F)c(F)c6F)c6nc(c(-c7c(F)c(F)c(F)c(F)c7F)c7ccc4[nH]7)C=C6)C=C5)cc3)C2)o1
REMARK SMILES IDX 21 1 20 2 19 3 18 4 17 5 15 6 16 7 14 8 11 9 12 10 92 11
REMARK SMILES IDX 13 12 10 13 8 14 9 15 7 17 4 18 5 19 93 20 6 21 3 22 2 23
REMARK SMILES IDX 1 24 22 25 23 26 24 27 25 28 26 29 27 30 28 31 29 32 30 33
REMARK SMILES IDX 91 34 31 35 90 36 32 37 33 38 34 39 84 40 35 41 89 42 83 43
REMARK SMILES IDX 85 44 36 45 88 46 82 47 81 48 37 50 69 51 49 52 68 53 50 54
REMARK SMILES IDX 53 55 67 56 86 57 51 58 52 59 66 61 87 62 54 63 38 64 39 65
REMARK SMILES IDX 47 66 40 67 41 68 45 69 48 70 42 71 43 72 46 73 44 74 70 75
REMARK SMILES IDX 71 76 79 77 72 78 73 79 77 80 80 81 74 82 75 83 78 84 76 85
REMARK SMILES IDX 55 86 56 87 64 88 57 89 58 90 62 91 65 92 59 93 60 94 63 95
REMARK SMILES IDX 61 96
REMARK H PARENT 10 16 85 49 53 60
REMARK Flexibility Score: inf
ROOT
ATOM      1  C   UNL     1      -2.011   7.482   3.638  1.00  0.00     0.188 C 
ENDROOT
BRANCH   1   2
ATOM      2  O   UNL     1      -1.202   7.043   4.719  1.00  0.00    -0.376 OA
BRANCH   2   3
ATOM      3  C   UNL     1      -0.006   6.322   4.405  1.00  0.00     0.202 C 
BRANCH   3   4
ATOM      4  C   UNL     1      -0.089   5.188   3.359  1.00  0.00     0.261 C 
BRANCH   4   5
ATOM      5  O   UNL     1      -0.506   5.665   2.060  1.00  0.00    -0.463 OA
BRANCH   5   6
ATOM      6  C   UNL     1      -1.337   4.875   1.318  1.00  0.00     0.312 C 
ATOM      7  O   UNL     1      -1.574   3.700   1.562  1.00  0.00    -0.252 OA
BRANCH   6   8
ATOM      8  C   UNL     1      -2.109   5.733   0.295  1.00  0.00     0.124 C 
ATOM      9  C   UNL     1      -1.429   6.304  -2.011  1.00  0.00     0.106 C 
ATOM     10  C   UNL     1      -2.508   5.299  -1.992  1.00  0.00    -0.006 C 
ATOM     11  C   UNL     1      -1.242   6.685  -0.544  1.00  0.00     0.048 C 
ATOM     12  C   UNL     1      -2.877   4.980  -0.744  1.00  0.00    -0.014 C 
BRANCH   9  13
ATOM     13  N   UNL     1      -0.185   5.945  -2.656  1.00  0.00    -0.343 N 
ATOM     14  C   UNL     1       0.665   4.878  -2.771  1.00  0.00     0.287 C 
ATOM     15  O   UNL     1       1.807   5.208  -3.117  1.00  0.00    -0.266 OA
ATOM     16  H   UNL     1       0.158   6.707  -3.176  1.00  0.00     0.164 HD
BRANCH  14  17
ATOM     17  C   UNL     1       0.292   3.486  -2.609  1.00  0.00     0.191 A 
ATOM     18  C   UNL     1       0.739   1.314  -2.824  1.00  0.00     0.114 A 
ATOM     19  C   UNL     1      -0.574   1.401  -2.437  1.00  0.00     0.047 A 
ATOM     20  O   UNL     1       1.261   2.563  -2.967  1.00  0.00    -0.455 OA
ATOM     21  C   UNL     1      -0.812   2.768  -2.200  1.00  0.00     0.056 A 
BRANCH  18  22
ATOM     22  C   UNL     1       1.656   0.170  -3.038  1.00  0.00     0.144 C 
BRANCH  22  23
ATOM     23  S   UNL     1       1.333  -1.199  -1.862  1.00  0.00    -0.157 SA
ATOM     24  C   UNL     1       1.450  -0.300  -0.287  1.00  0.00     0.085 C 
ENDBRANCH  22  23
ENDBRANCH  18  22
ENDBRANCH  14  17
ENDBRANCH   9  13
ENDBRANCH   6   8
ENDBRANCH   5   6
ENDBRANCH   4   5
ENDBRANCH   3   4
ENDBRANCH   2   3
ENDBRANCH   1   2
BRANCH   1  25
ATOM     25  C   UNL     1      -1.351   8.323   2.542  1.00  0.00     0.188 C 
BRANCH  25  26
ATOM     26  O   UNL     1       0.048   8.383   2.579  1.00  0.00    -0.376 OA
BRANCH  26  27
ATOM     27  C   UNL     1       0.718   9.614   2.776  1.00  0.00     0.202 C 
BRANCH  27  28
ATOM     28  C   UNL     1       0.157  10.780   3.621  1.00  0.00     0.261 C 
BRANCH  28  29
ATOM     29  O   UNL     1      -1.266  10.951   3.708  1.00  0.00    -0.460 OA
BRANCH  29  30
ATOM     30  C   UNL     1      -1.894  11.516   2.648  1.00  0.00     0.338 C 
ATOM     31  O   UNL     1      -1.369  11.940   1.627  1.00  0.00    -0.246 OA
BRANCH  30  32
ATOM     32  C   UNL     1      -3.350  11.261   2.797  1.00  0.00     0.060 A 
ATOM     33  C   UNL     1      -4.018  10.543   1.790  1.00  0.00     0.016 A 
ATOM     34  C   UNL     1      -4.043  11.670   3.937  1.00  0.00     0.016 A 
ATOM     35  C   UNL     1      -5.383  10.262   1.905  1.00  0.00     0.010 A 
ATOM     36  C   UNL     1      -5.415  11.414   4.038  1.00  0.00     0.010 A 
ATOM     37  C   UNL     1      -6.099  10.737   3.010  1.00  0.00    -0.014 A 
BRANCH  37  38
ATOM     38  C   UNL     1      -7.586  10.724   3.001  1.00  0.00     0.031 A 
ATOM     39  C   UNL     1      -8.301  11.989   2.608  1.00  0.00     0.074 A 
ATOM     40  C   UNL     1      -8.295   9.631   3.335  1.00  0.00     0.049 A 
ATOM     41  N   UNL     1      -9.580  12.265   2.619  1.00  0.00    -0.248 NA
ATOM     42  C   UNL     1      -7.451  13.097   2.143  1.00  0.00     0.031 C 
ATOM     43  C   UNL     1      -7.735   8.329   3.683  1.00  0.00     0.029 A 
ATOM     44  N   UNL     1      -9.654   9.455   3.450  1.00  0.00    -0.354 N 
ATOM     45  C   UNL     1      -9.685  13.581   2.186  1.00  0.00     0.074 A 
ATOM     46  C   UNL     1      -8.341  14.056   1.940  1.00  0.00     0.031 C 
ATOM     47  C   UNL     1      -8.741   7.489   3.990  1.00  0.00     0.029 A 
ATOM     48  C   UNL     1     -10.013   8.207   3.900  1.00  0.00     0.049 A 
ATOM     49  H   UNL     1     -10.309  10.157   3.231  1.00  0.00     0.167 HD
ATOM     50  C   UNL     1     -10.801  14.327   2.008  1.00  0.00     0.037 A 
ATOM     51  C   UNL     1     -11.225   7.715   4.229  1.00  0.00     0.037 A 
ATOM     52  C   UNL     1     -12.139  13.854   2.246  1.00  0.00     0.049 A 
ATOM     53  C   UNL     1     -12.446   8.595   4.101  1.00  0.00     0.074 A 
ATOM     54  C   UNL     1     -13.335  14.525   2.062  1.00  0.00     0.029 A 
ATOM     55  N   UNL     1     -12.457  12.595   2.732  1.00  0.00    -0.354 N 
ATOM     56  N   UNL     1     -12.542   9.827   3.663  1.00  0.00    -0.248 NA
ATOM     57  C   UNL     1     -13.731   8.012   4.518  1.00  0.00     0.031 C 
ATOM     58  C   UNL     1     -14.372  13.698   2.502  1.00  0.00     0.029 A 
ATOM     59  C   UNL     1     -13.830  12.484   2.888  1.00  0.00     0.049 A 
ATOM     60  H   UNL     1     -11.806  11.886   2.935  1.00  0.00     0.167 HD
ATOM     61  C   UNL     1     -13.894  10.149   3.712  1.00  0.00     0.074 A 
ATOM     62  C   UNL     1     -14.583   8.980   4.213  1.00  0.00     0.031 C 
ATOM     63  C   UNL     1     -14.509  11.309   3.371  1.00  0.00     0.037 A 
BRANCH  50  64
ATOM     64  C   UNL     1     -10.623  15.752   1.568  1.00  0.00     0.064 A 
ATOM     65  C   UNL     1     -10.186  16.082   0.277  1.00  0.00     0.173 A 
ATOM     66  C   UNL     1     -10.938  16.803   2.443  1.00  0.00     0.173 A 
ATOM     67  F   UNL     1      -9.856  15.116  -0.593  1.00  0.00    -0.203 F 
ATOM     68  C   UNL     1     -10.046  17.412  -0.113  1.00  0.00     0.198 A 
ATOM     69  C   UNL     1     -10.830  18.130   2.039  1.00  0.00     0.198 A 
ATOM     70  F   UNL     1     -11.364  16.542   3.689  1.00  0.00    -0.203 F 
ATOM     71  F   UNL     1      -9.579  17.705  -1.334  1.00  0.00    -0.200 F 
ATOM     72  C   UNL     1     -10.377  18.434   0.765  1.00  0.00     0.200 A 
ATOM     73  F   UNL     1     -11.165  19.115   2.884  1.00  0.00    -0.200 F 
ATOM     74  F   UNL     1     -10.254  19.713   0.384  1.00  0.00    -0.200 F 
ENDBRANCH  50  64
BRANCH  51  75
ATOM     75  C   UNL     1     -11.360   6.320   4.732  1.00  0.00     0.064 A 
ATOM     76  C   UNL     1     -12.062   5.352   3.999  1.00  0.00     0.173 A 
ATOM     77  C   UNL     1     -10.839   5.938   5.977  1.00  0.00     0.173 A 
ATOM     78  F   UNL     1     -12.608   5.675   2.817  1.00  0.00    -0.203 F 
ATOM     79  C   UNL     1     -12.261   4.067   4.502  1.00  0.00     0.198 A 
ATOM     80  C   UNL     1     -11.008   4.643   6.465  1.00  0.00     0.198 A 
ATOM     81  F   UNL     1     -10.166   6.825   6.725  1.00  0.00    -0.203 F 
ATOM     82  F   UNL     1     -12.990   3.184   3.807  1.00  0.00    -0.200 F 
ATOM     83  C   UNL     1     -11.729   3.712   5.732  1.00  0.00     0.200 A 
ATOM     84  F   UNL     1     -10.484   4.301   7.649  1.00  0.00    -0.200 F 
ATOM     85  F   UNL     1     -11.922   2.478   6.217  1.00  0.00    -0.200 F 
ENDBRANCH  51  75
BRANCH  63  86
ATOM     86  C   UNL     1     -16.010  11.360   3.468  1.00  0.00     0.064 A 
ATOM     87  C   UNL     1     -16.676  11.359   4.702  1.00  0.00     0.173 A 
ATOM     88  C   UNL     1     -16.790  11.458   2.304  1.00  0.00     0.173 A 
ATOM     89  F   UNL     1     -15.981  11.256   5.845  1.00  0.00    -0.203 F 
ATOM     90  C   UNL     1     -18.067  11.424   4.767  1.00  0.00     0.198 A 
ATOM     91  C   UNL     1     -18.177  11.559   2.374  1.00  0.00     0.198 A 
ATOM     92  F   UNL     1     -16.205  11.473   1.097  1.00  0.00    -0.203 F 
ATOM     93  F   UNL     1     -18.683  11.367   5.955  1.00  0.00    -0.200 F 
ATOM     94  C   UNL     1     -18.815  11.533   3.604  1.00  0.00     0.200 A 
ATOM     95  F   UNL     1     -18.895  11.684   1.250  1.00  0.00    -0.200 F 
ATOM     96  F   UNL     1     -20.151  11.605   3.669  1.00  0.00    -0.200 F 
ENDBRANCH  63  86
ENDBRANCH  37  38
ENDBRANCH  30  32
ENDBRANCH  29  30
ENDBRANCH  28  29
ENDBRANCH  27  28
ENDBRANCH  26  27
ENDBRANCH  25  26
ENDBRANCH   1  25
TORSDOF 21
