REMARK SMILES Cc1ccc2c(c1)OCCN2c1sc(C(=O)OCCOCCOCCOC(=O)c2ccc(-c3c4nc(c(-c5c(F)c(F)c(F)c(F)c5F)c5ccc([nH]5)c(-c5c(F)c(F)c(F)c(F)c5F)c5nc(c(-c6c(F)c(F)c(F)c(F)c6F)c6ccc3[nH]6)C=C5)C=C4)cc2)cc1C
REMARK SMILES IDX 22 1 21 2 20 3 19 4 18 5 17 6 15 7 16 8 14 9 12 10 13 11
REMARK SMILES IDX 93 12 92 13 94 14 11 15 1 16 2 17 3 18 7 19 4 20 6 21 5 22
REMARK SMILES IDX 8 23 9 24 10 25 23 26 24 27 25 28 26 29 27 30 28 31 29 32
REMARK SMILES IDX 30 33 91 34 31 35 90 36 32 37 33 38 34 39 84 40 35 41 89 42
REMARK SMILES IDX 83 43 85 44 36 45 88 46 82 47 81 48 37 50 69 51 49 52 68 53
REMARK SMILES IDX 50 54 53 55 67 56 86 57 51 58 52 59 66 61 87 62 54 63 38 64
REMARK SMILES IDX 39 65 47 66 40 67 41 68 45 69 48 70 42 71 43 72 46 73 44 74
REMARK SMILES IDX 70 75 71 76 79 77 72 78 73 79 77 80 80 81 74 82 75 83 78 84
REMARK SMILES IDX 76 85 55 86 56 87 64 88 57 89 58 90 62 91 65 92 59 93 60 94
REMARK SMILES IDX 63 95 61 96
REMARK H PARENT 85 49 53 60
REMARK Flexibility Score: inf
ROOT
ATOM      1  C   UNL     1      -2.096   3.126   9.919  1.00  0.00     0.188 C 
ENDROOT
BRANCH   1   2
ATOM      2  C   UNL     1      -3.625   2.975  10.057  1.00  0.00     0.188 C 
BRANCH   2   3
ATOM      3  O   UNL     1      -4.209   1.964  10.855  1.00  0.00    -0.376 OA
BRANCH   3   4
ATOM      4  C   UNL     1      -3.823   0.609  10.706  1.00  0.00     0.202 C 
BRANCH   4   5
ATOM      5  C   UNL     1      -3.758  -0.057   9.329  1.00  0.00     0.261 C 
BRANCH   5   6
ATOM      6  O   UNL     1      -3.035   0.695   8.348  1.00  0.00    -0.459 OA
BRANCH   6   7
ATOM      7  C   UNL     1      -3.789   1.164   7.311  1.00  0.00     0.348 C 
ATOM      8  O   UNL     1      -4.977   0.914   7.147  1.00  0.00    -0.245 OA
BRANCH   7   9
ATOM      9  C   UNL     1      -3.067   2.149   6.538  1.00  0.00     0.114 A 
ATOM     10  C   UNL     1      -1.514   3.316   4.999  1.00  0.00     0.099 A 
ATOM     11  S   UNL     1      -1.425   2.004   6.131  1.00  0.00    -0.110 S 
ATOM     12  C   UNL     1      -2.685   4.044   5.207  1.00  0.00    -0.015 A 
ATOM     13  C   UNL     1      -3.590   3.326   6.052  1.00  0.00     0.033 A 
ATOM     14  C   UNL     1      -3.076   5.334   4.564  1.00  0.00     0.047 C 
BRANCH  10  15
ATOM     15  N   UNL     1      -0.539   3.552   4.070  1.00  0.00    -0.327 N 
ATOM     16  C   UNL     1       1.067  -0.005  -0.185  1.00  0.00     0.044 C 
ATOM     17  C   UNL     1       0.641   0.919   0.914  1.00  0.00    -0.047 A 
ATOM     18  C   UNL     1      -0.156   0.457   1.958  1.00  0.00     0.006 A 
ATOM     19  C   UNL     1       1.021   2.264   0.905  1.00  0.00     0.052 A 
ATOM     20  C   UNL     1      -0.561   1.323   2.977  1.00  0.00     0.030 A 
ATOM     21  C   UNL     1       0.621   3.125   1.935  1.00  0.00     0.143 A 
ATOM     22  C   UNL     1      -0.160   2.668   3.020  1.00  0.00     0.085 A 
ATOM     23  O   UNL     1       1.036   4.432   1.793  1.00  0.00    -0.490 OA
ATOM     24  C   UNL     1       0.276   5.329   2.610  1.00  0.00     0.251 C 
ATOM     25  C   UNL     1       0.191   4.822   4.046  1.00  0.00     0.165 C 
ENDBRANCH  10  15
ENDBRANCH   7   9
ENDBRANCH   6   7
ENDBRANCH   5   6
ENDBRANCH   4   5
ENDBRANCH   3   4
ENDBRANCH   2   3
ENDBRANCH   1   2
BRANCH   1  26
ATOM     26  O   UNL     1      -1.213   2.272  10.609  1.00  0.00    -0.376 OA
BRANCH  26  27
ATOM     27  C   UNL     1      -1.136   2.295  12.024  1.00  0.00     0.202 C 
BRANCH  27  28
ATOM     28  C   UNL     1      -1.298   3.575  12.853  1.00  0.00     0.261 C 
BRANCH  28  29
ATOM     29  O   UNL     1      -2.367   4.438  12.455  1.00  0.00    -0.460 OA
BRANCH  29  30
ATOM     30  C   UNL     1      -1.976   5.664  12.011  1.00  0.00     0.338 C 
ATOM     31  O   UNL     1      -0.851   6.095  11.913  1.00  0.00    -0.246 OA
BRANCH  30  32
ATOM     32  C   UNL     1      -3.158   6.361  11.469  1.00  0.00     0.060 A 
ATOM     33  C   UNL     1      -4.239   6.672  12.292  1.00  0.00     0.016 A 
ATOM     34  C   UNL     1      -3.161   6.717  10.113  1.00  0.00     0.016 A 
ATOM     35  C   UNL     1      -5.324   7.367  11.757  1.00  0.00     0.010 A 
ATOM     36  C   UNL     1      -4.254   7.397   9.576  1.00  0.00     0.010 A 
ATOM     37  C   UNL     1      -5.332   7.745  10.401  1.00  0.00    -0.014 A 
BRANCH  37  38
ATOM     38  C   UNL     1      -6.394   8.647   9.898  1.00  0.00     0.031 A 
ATOM     39  C   UNL     1      -7.566   8.135   9.122  1.00  0.00     0.074 A 
ATOM     40  C   UNL     1      -6.284   9.960  10.169  1.00  0.00     0.049 A 
ATOM     41  N   UNL     1      -8.627   8.786   8.715  1.00  0.00    -0.248 NA
ATOM     42  C   UNL     1      -7.545   6.715   8.748  1.00  0.00     0.031 C 
ATOM     43  C   UNL     1      -5.170  10.570  10.896  1.00  0.00     0.029 A 
ATOM     44  N   UNL     1      -7.118  11.010   9.887  1.00  0.00    -0.354 N 
ATOM     45  C   UNL     1      -9.422   7.850   8.072  1.00  0.00     0.074 A 
ATOM     46  C   UNL     1      -8.689   6.599   8.084  1.00  0.00     0.031 C 
ATOM     47  C   UNL     1      -5.410  11.881  11.041  1.00  0.00     0.029 A 
ATOM     48  C   UNL     1      -6.682  12.206  10.400  1.00  0.00     0.049 A 
ATOM     49  H   UNL     1      -7.949  10.916   9.367  1.00  0.00     0.167 HD
ATOM     50  C   UNL     1     -10.660   8.019   7.546  1.00  0.00     0.037 A 
ATOM     51  C   UNL     1      -7.252  13.424  10.376  1.00  0.00     0.037 A 
ATOM     52  C   UNL     1     -11.367   9.276   7.508  1.00  0.00     0.049 A 
ATOM     53  C   UNL     1      -8.592  13.598   9.721  1.00  0.00     0.074 A 
ATOM     54  C   UNL     1     -12.630   9.542   7.006  1.00  0.00     0.029 A 
ATOM     55  N   UNL     1     -10.868  10.483   7.980  1.00  0.00    -0.354 N 
ATOM     56  N   UNL     1      -9.367  12.695   9.173  1.00  0.00    -0.248 NA
ATOM     57  C   UNL     1      -9.139  14.961   9.688  1.00  0.00     0.031 C 
ATOM     58  C   UNL     1     -12.873  10.915   7.126  1.00  0.00     0.029 A 
ATOM     59  C   UNL     1     -11.785  11.499   7.754  1.00  0.00     0.049 A 
ATOM     60  H   UNL     1      -9.991  10.600   8.412  1.00  0.00     0.167 HD
ATOM     61  C   UNL     1     -10.503  13.372   8.752  1.00  0.00     0.074 A 
ATOM     62  C   UNL     1     -10.322  14.761   9.121  1.00  0.00     0.031 C 
ATOM     63  C   UNL     1     -11.597  12.882   8.119  1.00  0.00     0.037 A 
BRANCH  50  64
ATOM     64  C   UNL     1     -11.346   6.809   6.978  1.00  0.00     0.064 A 
ATOM     65  C   UNL     1     -11.816   5.783   7.813  1.00  0.00     0.173 A 
ATOM     66  C   UNL     1     -11.604   6.703   5.603  1.00  0.00     0.173 A 
ATOM     67  F   UNL     1     -11.595   5.835   9.136  1.00  0.00    -0.203 F 
ATOM     68  C   UNL     1     -12.500   4.688   7.291  1.00  0.00     0.198 A 
ATOM     69  C   UNL     1     -12.313   5.620   5.088  1.00  0.00     0.198 A 
ATOM     70  F   UNL     1     -11.188   7.660   4.761  1.00  0.00    -0.203 F 
ATOM     71  F   UNL     1     -12.910   3.706   8.106  1.00  0.00    -0.200 F 
ATOM     72  C   UNL     1     -12.756   4.612   5.931  1.00  0.00     0.200 A 
ATOM     73  F   UNL     1     -12.576   5.557   3.775  1.00  0.00    -0.200 F 
ATOM     74  F   UNL     1     -13.428   3.566   5.431  1.00  0.00    -0.200 F 
ENDBRANCH  50  64
BRANCH  51  75
ATOM     75  C   UNL     1      -6.575  14.554  11.059  1.00  0.00     0.064 A 
ATOM     76  C   UNL     1      -7.090  15.075  12.254  1.00  0.00     0.173 A 
ATOM     77  C   UNL     1      -5.381  15.099  10.566  1.00  0.00     0.173 A 
ATOM     78  F   UNL     1      -8.238  14.595  12.754  1.00  0.00    -0.203 F 
ATOM     79  C   UNL     1      -6.435  16.101  12.930  1.00  0.00     0.198 A 
ATOM     80  C   UNL     1      -4.714  16.107  11.257  1.00  0.00     0.198 A 
ATOM     81  F   UNL     1      -4.846  14.628   9.430  1.00  0.00    -0.203 F 
ATOM     82  F   UNL     1      -6.960  16.597  14.059  1.00  0.00    -0.200 F 
ATOM     83  C   UNL     1      -5.243  16.609  12.437  1.00  0.00     0.200 A 
ATOM     84  F   UNL     1      -3.553  16.584  10.787  1.00  0.00    -0.200 F 
ATOM     85  F   UNL     1      -4.604  17.584  13.098  1.00  0.00    -0.200 F 
ENDBRANCH  51  75
BRANCH  63  86
ATOM     86  C   UNL     1     -12.699  13.848   7.789  1.00  0.00     0.064 A 
ATOM     87  C   UNL     1     -12.554  14.809   6.777  1.00  0.00     0.173 A 
ATOM     88  C   UNL     1     -13.934  13.775   8.452  1.00  0.00     0.173 A 
ATOM     89  F   UNL     1     -11.389  14.931   6.124  1.00  0.00    -0.203 F 
ATOM     90  C   UNL     1     -13.600  15.670   6.452  1.00  0.00     0.198 A 
ATOM     91  C   UNL     1     -14.986  14.618   8.104  1.00  0.00     0.198 A 
ATOM     92  F   UNL     1     -14.127  12.872   9.425  1.00  0.00    -0.203 F 
ATOM     93  F   UNL     1     -13.426  16.605   5.508  1.00  0.00    -0.200 F 
ATOM     94  C   UNL     1     -14.817  15.567   7.108  1.00  0.00     0.200 A 
ATOM     95  F   UNL     1     -16.166  14.508   8.730  1.00  0.00    -0.200 F 
ATOM     96  F   UNL     1     -15.826  16.387   6.783  1.00  0.00    -0.200 F 
ENDBRANCH  63  86
ENDBRANCH  37  38
ENDBRANCH  30  32
ENDBRANCH  29  30
ENDBRANCH  28  29
ENDBRANCH  27  28
ENDBRANCH  26  27
ENDBRANCH   1  26
TORSDOF 18
