REMARK SMILES CCN(CC)c1ccc(NC(=O)c2ccc(OC)cc2)cc1C(=O)OCCOCCOCCOC(=O)c1ccc(-c2c3nc(c(-c4c(F)c(F)c(F)c(F)c4F)c4ccc([nH]4)c(-c4c(F)c(F)c(F)c(F)c4F)c4nc(c(-c5c(F)c(F)c(F)c(F)c5F)c5ccc2[nH]5)C=C4)C=C3)cc1
REMARK SMILES IDX 29 1 28 2 27 3 26 4 25 5 23 6 24 7 22 8 6 9 7 10 8 11 21 12
REMARK SMILES IDX 9 13 3 14 2 15 1 16 4 17 5 18 10 19 11 20 12 22 13 23 14 24
REMARK SMILES IDX 20 25 15 26 19 27 16 28 17 29 18 30 30 31 31 32 32 33 33 34
REMARK SMILES IDX 34 35 35 36 36 37 37 38 38 39 99 40 39 41 98 42 40 43 41 44
REMARK SMILES IDX 42 45 92 46 43 47 97 48 91 49 93 50 44 51 96 52 90 53 89 54
REMARK SMILES IDX 45 56 77 57 57 58 76 59 58 60 61 61 75 62 94 63 59 64 60 65
REMARK SMILES IDX 74 67 95 68 62 69 46 70 47 71 55 72 48 73 49 74 53 75 56 76
REMARK SMILES IDX 50 77 51 78 54 79 52 80 78 81 79 82 87 83 80 84 81 85 85 86
REMARK SMILES IDX 88 87 82 88 83 89 86 90 84 91 63 92 64 93 72 94 65 95 66 96
REMARK SMILES IDX 70 97 73 98 67 99 68 100 71 101 69 102
REMARK H PARENT 10 21 93 55 61 66
REMARK Flexibility Score: inf
ROOT
ATOM      1  C   UNL     1       3.003  -2.168   1.679  1.00  0.00     0.188 C 
ENDROOT
BRANCH   1   2
ATOM      2  O   UNL     1       2.433  -1.593   2.846  1.00  0.00    -0.376 OA
BRANCH   2   3
ATOM      3  C   UNL     1       1.544  -0.491   2.676  1.00  0.00     0.202 C 
BRANCH   3   4
ATOM      4  C   UNL     1       1.896   0.583   1.639  1.00  0.00     0.261 C 
BRANCH   4   5
ATOM      5  O   UNL     1       1.996   0.040   0.308  1.00  0.00    -0.460 OA
BRANCH   5   6
ATOM      6  C   UNL     1       2.925   0.595  -0.508  1.00  0.00     0.340 C 
ATOM      7  O   UNL     1       3.624   1.560  -0.236  1.00  0.00    -0.246 OA
BRANCH   6   8
ATOM      8  C   UNL     1       3.186  -0.265  -1.693  1.00  0.00     0.085 A 
ATOM      9  C   UNL     1       2.202  -0.787  -2.565  1.00  0.00     0.051 A 
ATOM     10  C   UNL     1       2.680  -1.701  -3.522  1.00  0.00     0.029 A 
ATOM     11  C   UNL     1       4.022  -2.051  -3.657  1.00  0.00     0.028 A 
ATOM     12  C   UNL     1       4.561  -0.606  -1.849  1.00  0.00     0.044 A 
ATOM     13  C   UNL     1       4.988  -1.447  -2.875  1.00  0.00     0.042 A 
BRANCH   9  14
ATOM     14  N   UNL     1       0.842  -0.494  -2.557  1.00  0.00    -0.371 N 
BRANCH  14  15
ATOM     15  C   UNL     1       0.353   0.889  -2.515  1.00  0.00     0.113 C 
ATOM     16  C   UNL     1      -0.248   1.266  -1.171  1.00  0.00     0.027 C 
ENDBRANCH  14  15
BRANCH  14  17
ATOM     17  C   UNL     1      -0.149  -1.540  -2.884  1.00  0.00     0.113 C 
ATOM     18  C   UNL     1      -0.520  -1.576  -4.369  1.00  0.00     0.027 C 
ENDBRANCH  14  17
ENDBRANCH   9  14
BRANCH  13  19
ATOM     19  N   UNL     1       6.366  -1.654  -3.079  1.00  0.00    -0.322 N 
ATOM     20  C   UNL     1       7.043  -2.064  -4.219  1.00  0.00     0.255 C 
ATOM     21  H   UNL     1       6.935  -1.482  -2.295  1.00  0.00     0.170 HD
ATOM     22  O   UNL     1       8.212  -2.435  -4.144  1.00  0.00    -0.269 OA
BRANCH  20  23
ATOM     23  C   UNL     1       6.390  -2.004  -5.554  1.00  0.00     0.040 A 
ATOM     24  C   UNL     1       6.451  -3.119  -6.393  1.00  0.00     0.017 A 
ATOM     25  C   UNL     1       5.660  -0.875  -5.948  1.00  0.00     0.017 A 
ATOM     26  C   UNL     1       5.683  -3.144  -7.562  1.00  0.00     0.047 A 
ATOM     27  C   UNL     1       4.874  -0.916  -7.104  1.00  0.00     0.047 A 
ATOM     28  C   UNL     1       4.855  -2.066  -7.894  1.00  0.00     0.118 A 
BRANCH  28  29
ATOM     29  O   UNL     1       4.084  -2.244  -9.011  1.00  0.00    -0.497 OA
ATOM     30  C   UNL     1       2.919  -1.429  -9.101  1.00  0.00     0.278 C 
ENDBRANCH  28  29
ENDBRANCH  20  23
ENDBRANCH  13  19
ENDBRANCH   6   8
ENDBRANCH   5   6
ENDBRANCH   4   5
ENDBRANCH   3   4
ENDBRANCH   2   3
ENDBRANCH   1   2
BRANCH   1  31
ATOM     31  C   UNL     1       2.072  -2.822   0.634  1.00  0.00     0.188 C 
BRANCH  31  32
ATOM     32  O   UNL     1       0.688  -2.592   0.741  1.00  0.00    -0.376 OA
BRANCH  32  33
ATOM     33  C   UNL     1      -0.114  -3.346   1.633  1.00  0.00     0.202 C 
BRANCH  33  34
ATOM     34  C   UNL     1       0.356  -4.526   2.508  1.00  0.00     0.261 C 
BRANCH  34  35
ATOM     35  O   UNL     1       1.760  -4.722   2.677  1.00  0.00    -0.460 OA
BRANCH  35  36
ATOM     36  C   UNL     1       2.300  -5.744   1.961  1.00  0.00     0.338 C 
ATOM     37  O   UNL     1       1.732  -6.499   1.204  1.00  0.00    -0.246 OA
BRANCH  36  38
ATOM     38  C   UNL     1       3.770  -5.649   2.077  1.00  0.00     0.060 A 
ATOM     39  C   UNL     1       4.519  -5.428   0.912  1.00  0.00     0.016 A 
ATOM     40  C   UNL     1       4.397  -5.745   3.319  1.00  0.00     0.016 A 
ATOM     41  C   UNL     1       5.907  -5.316   0.985  1.00  0.00     0.010 A 
ATOM     42  C   UNL     1       5.790  -5.664   3.388  1.00  0.00     0.010 A 
ATOM     43  C   UNL     1       6.551  -5.476   2.219  1.00  0.00    -0.014 A 
BRANCH  43  44
ATOM     44  C   UNL     1       8.019  -5.668   2.261  1.00  0.00     0.031 A 
ATOM     45  C   UNL     1       8.543  -7.077   2.267  1.00  0.00     0.074 A 
ATOM     46  C   UNL     1       8.869  -4.628   2.285  1.00  0.00     0.049 A 
ATOM     47  N   UNL     1       9.773  -7.510   2.369  1.00  0.00    -0.248 NA
ATOM     48  C   UNL     1       7.536  -8.144   2.145  1.00  0.00     0.031 C 
ATOM     49  C   UNL     1       8.486  -3.220   2.234  1.00  0.00     0.029 A 
ATOM     50  N   UNL     1      10.239  -4.605   2.368  1.00  0.00    -0.354 N 
ATOM     51  C   UNL     1       9.686  -8.895   2.325  1.00  0.00     0.074 A 
ATOM     52  C   UNL     1       8.284  -9.233   2.225  1.00  0.00     0.031 C 
ATOM     53  C   UNL     1       9.598  -2.466   2.300  1.00  0.00     0.029 A 
ATOM     54  C   UNL     1      10.765  -3.338   2.433  1.00  0.00     0.049 A 
ATOM     55  H   UNL     1      10.792  -5.419   2.380  1.00  0.00     0.167 HD
ATOM     56  C   UNL     1      10.688  -9.805   2.356  1.00  0.00     0.037 A 
ATOM     57  C   UNL     1      12.041  -2.938   2.604  1.00  0.00     0.037 A 
ATOM     58  C   UNL     1      12.082  -9.467   2.470  1.00  0.00     0.049 A 
ATOM     59  C   UNL     1      13.132  -3.974   2.733  1.00  0.00     0.074 A 
ATOM     60  C   UNL     1      13.174 -10.314   2.511  1.00  0.00     0.029 A 
ATOM     61  N   UNL     1      12.573  -8.174   2.571  1.00  0.00    -0.354 N 
ATOM     62  N   UNL     1      13.048  -5.281   2.676  1.00  0.00    -0.248 NA
ATOM     63  C   UNL     1      14.498  -3.474   2.950  1.00  0.00     0.031 C 
ATOM     64  C   UNL     1      14.322  -9.538   2.696  1.00  0.00     0.029 A 
ATOM     65  C   UNL     1      13.953  -8.202   2.703  1.00  0.00     0.049 A 
ATOM     66  H   UNL     1      12.024  -7.357   2.553  1.00  0.00     0.167 HD
ATOM     67  C   UNL     1      14.347  -5.756   2.812  1.00  0.00     0.074 A 
ATOM     68  C   UNL     1      15.203  -4.596   2.945  1.00  0.00     0.031 C 
ATOM     69  C   UNL     1      14.793  -7.037   2.822  1.00  0.00     0.037 A 
BRANCH  56  70
ATOM     70  C   UNL     1      10.305 -11.254   2.299  1.00  0.00     0.064 A 
ATOM     71  C   UNL     1       9.783 -11.834   1.132  1.00  0.00     0.173 A 
ATOM     72  C   UNL     1      10.480 -12.079   3.420  1.00  0.00     0.173 A 
ATOM     73  F   UNL     1       9.578 -11.084   0.038  1.00  0.00    -0.203 F 
ATOM     74  C   UNL     1       9.425 -13.179   1.099  1.00  0.00     0.198 A 
ATOM     75  C   UNL     1      10.152 -13.431   3.373  1.00  0.00     0.198 A 
ATOM     76  F   UNL     1      10.975 -11.576   4.560  1.00  0.00    -0.203 F 
ATOM     77  F   UNL     1       8.878 -13.698  -0.009  1.00  0.00    -0.200 F 
ATOM     78  C   UNL     1       9.617 -13.978   2.216  1.00  0.00     0.200 A 
ATOM     79  F   UNL     1      10.350 -14.204   4.449  1.00  0.00    -0.200 F 
ATOM     80  F   UNL     1       9.279 -15.274   2.181  1.00  0.00    -0.200 F 
ENDBRANCH  56  70
BRANCH  57  81
ATOM     81  C   UNL     1      12.366  -1.488   2.678  1.00  0.00     0.064 A 
ATOM     82  C   UNL     1      13.132  -0.867   1.681  1.00  0.00     0.173 A 
ATOM     83  C   UNL     1      11.949  -0.701   3.762  1.00  0.00     0.173 A 
ATOM     84  F   UNL     1      13.583  -1.582   0.640  1.00  0.00    -0.203 F 
ATOM     85  C   UNL     1      13.485   0.478   1.776  1.00  0.00     0.198 A 
ATOM     86  C   UNL     1      12.277   0.651   3.841  1.00  0.00     0.198 A 
ATOM     87  F   UNL     1      11.222  -1.247   4.748  1.00  0.00    -0.203 F 
ATOM     88  F   UNL     1      14.265   1.032   0.838  1.00  0.00    -0.200 F 
ATOM     89  C   UNL     1      13.052   1.238   2.853  1.00  0.00     0.200 A 
ATOM     90  F   UNL     1      11.849   1.383   4.879  1.00  0.00    -0.200 F 
ATOM     91  F   UNL     1      13.393   2.530   2.944  1.00  0.00    -0.200 F 
ENDBRANCH  57  81
BRANCH  69  92
ATOM     92  C   UNL     1      16.276  -7.259   2.932  1.00  0.00     0.064 A 
ATOM     93  C   UNL     1      16.978  -7.005   4.119  1.00  0.00     0.173 A 
ATOM     94  C   UNL     1      16.995  -7.781   1.845  1.00  0.00     0.173 A 
ATOM     95  F   UNL     1      16.341  -6.495   5.185  1.00  0.00    -0.203 F 
ATOM     96  C   UNL     1      18.348  -7.239   4.206  1.00  0.00     0.198 A 
ATOM     97  C   UNL     1      18.358  -8.047   1.946  1.00  0.00     0.198 A 
ATOM     98  F   UNL     1      16.372  -8.053   0.689  1.00  0.00    -0.203 F 
ATOM     99  F   UNL     1      19.007  -6.943   5.335  1.00  0.00    -0.200 F 
ATOM    100  C   UNL     1      19.035  -7.768   3.123  1.00  0.00     0.200 A 
ATOM    101  F   UNL     1      19.016  -8.576   0.905  1.00  0.00    -0.200 F 
ATOM    102  F   UNL     1      20.351  -8.003   3.212  1.00  0.00    -0.200 F 
ENDBRANCH  69  92
ENDBRANCH  43  44
ENDBRANCH  36  38
ENDBRANCH  35  36
ENDBRANCH  34  35
ENDBRANCH  33  34
ENDBRANCH  32  33
ENDBRANCH  31  32
ENDBRANCH   1  31
TORSDOF 23
