REMARK SMILES O=C(OCCOCCOCCOC(=O)c1ccc(-c2c3nc(c(-c4c(F)c(F)c(F)c(F)c4F)c4ccc([nH]4)c(-c4c(F)c(F)c(F)c(F)c4F)c4nc(c(-c5c(F)c(F)c(F)c(F)c5F)c5ccc2[nH]5)C=C4)C=C3)cc1)c1ccc(Cn2cc(Cl)c(=O)[nH]c2=O)cc1
REMARK SMILES IDX 7 1 6 2 5 3 4 4 3 5 2 6 1 7 78 8 79 9 93 10 80 11 92 12
REMARK SMILES IDX 81 13 82 14 83 15 84 16 90 17 85 18 89 19 91 20 86 21 87 22
REMARK SMILES IDX 88 24 8 25 9 26 10 27 11 28 12 29 13 30 14 31 15 32 16 33
REMARK SMILES IDX 77 34 17 35 76 36 18 37 19 38 20 39 70 40 21 41 75 42 69 43
REMARK SMILES IDX 71 44 22 45 74 46 68 47 67 48 23 50 55 51 35 52 54 53 36 54
REMARK SMILES IDX 39 55 53 56 72 57 37 58 38 59 52 61 73 62 40 63 24 64 25 65
REMARK SMILES IDX 33 66 26 67 27 68 31 69 34 70 28 71 29 72 32 73 30 74 56 75
REMARK SMILES IDX 57 76 65 77 58 78 59 79 63 80 66 81 60 82 61 83 64 84 62 85
REMARK SMILES IDX 41 86 42 87 50 88 43 89 44 90 48 91 51 92 45 93 46 94 49 95
REMARK SMILES IDX 47 96
REMARK H PARENT 89 23 71 49 39 60
REMARK Flexibility Score: inf
ROOT
ATOM      1  C   UNL     1       2.638  -0.435   2.250  1.00  0.00     0.188 C 
ENDROOT
BRANCH   1   2
ATOM      2  O   UNL     1       3.678  -0.852   1.357  1.00  0.00    -0.376 OA
BRANCH   2   3
ATOM      3  C   UNL     1       4.621   0.163   1.034  1.00  0.00     0.202 C 
BRANCH   3   4
ATOM      4  C   UNL     1       4.169   1.174  -0.025  1.00  0.00     0.261 C 
BRANCH   4   5
ATOM      5  O   UNL     1       2.765   1.109  -0.334  1.00  0.00    -0.460 OA
BRANCH   5   6
ATOM      6  C   UNL     1       2.244   0.460  -1.403  1.00  0.00     0.338 C 
ATOM      7  O   UNL     1       1.077   0.612  -1.745  1.00  0.00    -0.246 OA
BRANCH   6   8
ATOM      8  C   UNL     1       3.109  -0.437  -2.192  1.00  0.00     0.060 A 
ATOM      9  C   UNL     1       3.555  -1.647  -1.659  1.00  0.00     0.016 A 
ATOM     10  C   UNL     1       3.383  -0.114  -3.523  1.00  0.00     0.016 A 
ATOM     11  C   UNL     1       4.340  -2.503  -2.429  1.00  0.00     0.006 A 
ATOM     12  C   UNL     1       4.156  -0.980  -4.300  1.00  0.00     0.006 A 
ATOM     13  C   UNL     1       4.649  -2.178  -3.757  1.00  0.00    -0.028 A 
BRANCH  13  14
ATOM     14  C   UNL     1       5.540  -3.086  -4.577  1.00  0.00     0.162 C 
BRANCH  14  15
ATOM     15  N   UNL     1       6.927  -2.625  -4.537  1.00  0.00    -0.295 N 
ATOM     16  C   UNL     1       7.702  -2.901  -3.425  1.00  0.00     0.117 A 
ATOM     17  C   UNL     1       7.400  -1.850  -5.589  1.00  0.00     0.328 A 
ATOM     18  C   UNL     1       8.941  -2.423  -3.283  1.00  0.00     0.122 A 
ATOM     19  N   UNL     1       8.684  -1.391  -5.448  1.00  0.00    -0.273 N 
ATOM     20  O   UNL     1       6.738  -1.555  -6.581  1.00  0.00    -0.248 OA
ATOM     21  Cl  UNL     1       9.879  -2.733  -1.881  1.00  0.00    -0.077 Cl
ATOM     22  C   UNL     1       9.502  -1.577  -4.364  1.00  0.00     0.272 A 
ATOM     23  H   UNL     1       9.055  -0.875  -6.200  1.00  0.00     0.175 HD
ATOM     24  O   UNL     1      10.614  -1.063  -4.304  1.00  0.00    -0.268 OA
ENDBRANCH  14  15
ENDBRANCH  13  14
ENDBRANCH   6   8
ENDBRANCH   5   6
ENDBRANCH   4   5
ENDBRANCH   3   4
ENDBRANCH   2   3
ENDBRANCH   1   2
BRANCH   1  25
ATOM     25  C   UNL     1       2.044  -1.679   2.920  1.00  0.00     0.188 C 
BRANCH  25  26
ATOM     26  O   UNL     1       2.767  -2.127   4.070  1.00  0.00    -0.376 OA
BRANCH  26  27
ATOM     27  C   UNL     1       4.147  -2.437   3.886  1.00  0.00     0.202 C 
BRANCH  27  28
ATOM     28  C   UNL     1       4.438  -3.826   3.314  1.00  0.00     0.261 C 
BRANCH  28  29
ATOM     29  O   UNL     1       4.009  -4.005   1.952  1.00  0.00    -0.460 OA
BRANCH  29  30
ATOM     30  C   UNL     1       3.004  -4.898   1.789  1.00  0.00     0.338 C 
ATOM     31  O   UNL     1       2.365  -5.476   2.650  1.00  0.00    -0.246 OA
BRANCH  30  32
ATOM     32  C   UNL     1       2.787  -5.166   0.360  1.00  0.00     0.060 A 
ATOM     33  C   UNL     1       1.641  -4.672  -0.273  1.00  0.00     0.016 A 
ATOM     34  C   UNL     1       3.616  -6.087  -0.285  1.00  0.00     0.016 A 
ATOM     35  C   UNL     1       1.296  -5.139  -1.546  1.00  0.00     0.010 A 
ATOM     36  C   UNL     1       3.270  -6.548  -1.556  1.00  0.00     0.010 A 
ATOM     37  C   UNL     1       2.087  -6.110  -2.178  1.00  0.00    -0.014 A 
BRANCH  37  38
ATOM     38  C   UNL     1       1.648  -6.784  -3.427  1.00  0.00     0.031 A 
ATOM     39  C   UNL     1       1.119  -8.190  -3.358  1.00  0.00     0.074 A 
ATOM     40  C   UNL     1       1.795  -6.189  -4.623  1.00  0.00     0.049 A 
ATOM     41  N   UNL     1       0.879  -9.037  -4.327  1.00  0.00    -0.248 NA
ATOM     42  C   UNL     1       0.828  -8.711  -2.014  1.00  0.00     0.031 C 
ATOM     43  C   UNL     1       2.244  -4.818  -4.831  1.00  0.00     0.029 A 
ATOM     44  N   UNL     1       1.623  -6.686  -5.891  1.00  0.00    -0.354 N 
ATOM     45  C   UNL     1       0.427 -10.196  -3.712  1.00  0.00     0.074 A 
ATOM     46  C   UNL     1       0.443  -9.950  -2.284  1.00  0.00     0.031 C 
ATOM     47  C   UNL     1       2.378  -4.599  -6.150  1.00  0.00     0.029 A 
ATOM     48  C   UNL     1       2.045  -5.825  -6.873  1.00  0.00     0.049 A 
ATOM     49  H   UNL     1       1.235  -7.572  -6.078  1.00  0.00     0.167 HD
ATOM     50  C   UNL     1       0.030 -11.358  -4.285  1.00  0.00     0.037 A 
ATOM     51  C   UNL     1       2.189  -6.015  -8.198  1.00  0.00     0.037 A 
ATOM     52  C   UNL     1      -0.007 -11.598  -5.703  1.00  0.00     0.049 A 
ATOM     53  C   UNL     1       1.804  -7.333  -8.813  1.00  0.00     0.074 A 
ATOM     54  C   UNL     1      -0.449 -12.724  -6.377  1.00  0.00     0.029 A 
ATOM     55  N   UNL     1       0.423 -10.699  -6.666  1.00  0.00    -0.354 N 
ATOM     56  N   UNL     1       1.354  -8.416  -8.229  1.00  0.00    -0.248 NA
ATOM     57  C   UNL     1       1.940  -7.452 -10.273  1.00  0.00     0.031 C 
ATOM     58  C   UNL     1      -0.245 -12.522  -7.747  1.00  0.00     0.029 A 
ATOM     59  C   UNL     1       0.286 -11.255  -7.928  1.00  0.00     0.049 A 
ATOM     60  H   UNL     1       0.774  -9.798  -6.481  1.00  0.00     0.167 HD
ATOM     61  C   UNL     1       1.128  -9.334  -9.247  1.00  0.00     0.074 A 
ATOM     62  C   UNL     1       1.493  -8.683 -10.487  1.00  0.00     0.031 C 
ATOM     63  C   UNL     1       0.651 -10.600  -9.157  1.00  0.00     0.037 A 
BRANCH  50  64
ATOM     64  C   UNL     1      -0.373 -12.475  -3.370  1.00  0.00     0.064 A 
ATOM     65  C   UNL     1      -1.589 -12.456  -2.672  1.00  0.00     0.173 A 
ATOM     66  C   UNL     1       0.459 -13.594  -3.213  1.00  0.00     0.173 A 
ATOM     67  F   UNL     1      -2.413 -11.403  -2.781  1.00  0.00    -0.203 F 
ATOM     68  C   UNL     1      -1.946 -13.505  -1.828  1.00  0.00     0.198 A 
ATOM     69  C   UNL     1       0.088 -14.651  -2.388  1.00  0.00     0.198 A 
ATOM     70  F   UNL     1       1.630 -13.662  -3.864  1.00  0.00    -0.203 F 
ATOM     71  F   UNL     1      -3.093 -13.447  -1.138  1.00  0.00    -0.200 F 
ATOM     72  C   UNL     1      -1.109 -14.603  -1.691  1.00  0.00     0.200 A 
ATOM     73  F   UNL     1       0.893 -15.716  -2.263  1.00  0.00    -0.200 F 
ATOM     74  F   UNL     1      -1.455 -15.613  -0.880  1.00  0.00    -0.200 F 
ENDBRANCH  50  64
BRANCH  51  75
ATOM     75  C   UNL     1       2.761  -4.926  -9.026  1.00  0.00     0.064 A 
ATOM     76  C   UNL     1       1.956  -4.168  -9.884  1.00  0.00     0.173 A 
ATOM     77  C   UNL     1       4.128  -4.613  -8.959  1.00  0.00     0.173 A 
ATOM     78  F   UNL     1       0.649  -4.449  -9.996  1.00  0.00    -0.203 F 
ATOM     79  C   UNL     1       2.497  -3.139 -10.652  1.00  0.00     0.198 A 
ATOM     80  C   UNL     1       4.665  -3.575  -9.716  1.00  0.00     0.198 A 
ATOM     81  F   UNL     1       4.936  -5.311  -8.146  1.00  0.00    -0.203 F 
ATOM     82  F   UNL     1       1.711  -2.446 -11.487  1.00  0.00    -0.200 F 
ATOM     83  C   UNL     1       3.849  -2.841 -10.564  1.00  0.00     0.200 A 
ATOM     84  F   UNL     1       5.972  -3.294  -9.631  1.00  0.00    -0.200 F 
ATOM     85  F   UNL     1       4.367  -1.851 -11.303  1.00  0.00    -0.200 F 
ENDBRANCH  51  75
BRANCH  63  86
ATOM     86  C   UNL     1       0.466 -11.364 -10.434  1.00  0.00     0.064 A 
ATOM     87  C   UNL     1       1.554 -11.919 -11.121  1.00  0.00     0.173 A 
ATOM     88  C   UNL     1      -0.822 -11.599 -10.940  1.00  0.00     0.173 A 
ATOM     89  F   UNL     1       2.805 -11.710 -10.684  1.00  0.00    -0.203 F 
ATOM     90  C   UNL     1       1.361 -12.674 -12.276  1.00  0.00     0.198 A 
ATOM     91  C   UNL     1      -1.013 -12.371 -12.082  1.00  0.00     0.198 A 
ATOM     92  F   UNL     1      -1.896 -11.093 -10.315  1.00  0.00    -0.203 F 
ATOM     93  F   UNL     1       2.417 -13.173 -12.933  1.00  0.00    -0.200 F 
ATOM     94  C   UNL     1       0.078 -12.906 -12.750  1.00  0.00     0.200 A 
ATOM     95  F   UNL     1      -2.254 -12.603 -12.534  1.00  0.00    -0.200 F 
ATOM     96  F   UNL     1      -0.107 -13.643 -13.855  1.00  0.00    -0.200 F 
ENDBRANCH  63  86
ENDBRANCH  37  38
ENDBRANCH  30  32
ENDBRANCH  29  30
ENDBRANCH  28  29
ENDBRANCH  27  28
ENDBRANCH  26  27
ENDBRANCH  25  26
ENDBRANCH   1  25
TORSDOF 19
