REMARK SMILES Cc1ccc(-c2cc3cccnc3n2CCC(=O)OCCOCCOCCOC(=O)c2ccc(-c3c4nc(c(-c5c(F)c(F)c(F)c(F)c5F)c5ccc([nH]5)c(-c5c(F)c(F)c(F)c(F)c5F)c5nc(c(-c6c(F)c(F)c(F)c(F)c6F)c6ccc3[nH]6)C=C5)C=C4)cc2)cn1
REMARK SMILES IDX 23 1 22 2 21 3 20 4 19 5 17 6 18 7 16 8 15 9 14 10 6 11 7 12
REMARK SMILES IDX 8 13 13 14 9 15 12 16 10 17 11 18 5 19 1 20 2 21 3 22 95 23
REMARK SMILES IDX 4 24 94 25 24 26 25 27 26 28 27 29 28 30 29 31 30 32 31 33
REMARK SMILES IDX 32 34 93 35 33 36 92 37 34 38 35 39 36 40 86 41 37 42 91 43
REMARK SMILES IDX 85 44 87 45 38 46 90 47 84 48 83 49 39 51 71 52 51 53 70 54
REMARK SMILES IDX 52 55 55 56 69 57 88 58 53 59 54 60 68 62 89 63 56 64 40 65
REMARK SMILES IDX 41 66 49 67 42 68 43 69 47 70 50 71 44 72 45 73 48 74 46 75
REMARK SMILES IDX 72 76 73 77 81 78 74 79 75 80 79 81 82 82 76 83 77 84 80 85
REMARK SMILES IDX 78 86 57 87 58 88 66 89 59 90 60 91 64 92 67 93 61 94 62 95
REMARK SMILES IDX 65 96 63 97
REMARK H PARENT 87 50 55 61
REMARK Flexibility Score: inf
ROOT
ATOM      1  C   UNL     1      -0.255   0.122   1.573  1.00  0.00     0.188 C 
ENDROOT
BRANCH   1   2
ATOM      2  O   UNL     1      -0.175  -0.049   0.060  1.00  0.00    -0.376 OA
BRANCH   2   3
ATOM      3  C   UNL     1      -0.447  -1.179  -1.564  1.00  0.00     0.202 C 
BRANCH   3   4
ATOM      4  C   UNL     1      -1.665  -2.346  -2.007  1.00  0.00     0.261 C 
BRANCH   4   5
ATOM      5  O   UNL     1      -2.930  -2.503  -1.304  1.00  0.00    -0.463 OA
BRANCH   5   6
ATOM      6  C   UNL     1      -3.101  -3.541  -0.450  1.00  0.00     0.307 C 
ATOM      7  O   UNL     1      -2.455  -4.582  -0.507  1.00  0.00    -0.252 OA
BRANCH   6   8
ATOM      8  C   UNL     1      -4.103  -3.266   0.675  1.00  0.00     0.144 C 
BRANCH   8   9
ATOM      9  C   UNL     1      -4.142  -1.883   1.343  1.00  0.00     0.136 C 
BRANCH   9  10
ATOM     10  N   UNL     1      -4.411  -0.782   0.446  1.00  0.00    -0.325 N 
ATOM     11  C   UNL     1      -3.482  -0.117  -0.327  1.00  0.00     0.052 A 
ATOM     12  C   UNL     1      -4.200   0.721  -1.167  1.00  0.00     0.039 A 
ATOM     13  C   UNL     1      -5.562   0.650  -0.822  1.00  0.00     0.020 A 
ATOM     14  C   UNL     1      -5.663  -0.251   0.230  1.00  0.00     0.140 A 
ATOM     15  C   UNL     1      -6.730   1.258  -1.298  1.00  0.00     0.013 A 
ATOM     16  N   UNL     1      -6.790  -0.579   0.896  1.00  0.00    -0.238 NA
ATOM     17  C   UNL     1      -7.916   0.961  -0.637  1.00  0.00     0.021 A 
ATOM     18  C   UNL     1      -7.883   0.077   0.435  1.00  0.00     0.113 A 
BRANCH  11  19
ATOM     19  C   UNL     1      -2.028  -0.329  -0.365  1.00  0.00     0.017 A 
ATOM     20  C   UNL     1       2.983  -0.219  -0.498  1.00  0.00     0.066 C 
ATOM     21  C   UNL     1       1.521  -0.461  -0.705  1.00  0.00     0.037 A 
ATOM     22  C   UNL     1       0.716  -1.790   0.188  1.00  0.00     0.024 A 
ATOM     23  N   UNL     1       0.635   0.847  -1.446  1.00  0.00    -0.261 NA
ATOM     24  C   UNL     1      -1.086  -1.729   0.369  1.00  0.00     0.014 A 
ATOM     25  C   UNL     1      -1.107   0.917  -1.259  1.00  0.00     0.121 A 
ENDBRANCH  11  19
ENDBRANCH   9  10
ENDBRANCH   8   9
ENDBRANCH   6   8
ENDBRANCH   5   6
ENDBRANCH   4   5
ENDBRANCH   3   4
ENDBRANCH   2   3
ENDBRANCH   1   2
BRANCH   1  26
ATOM     26  C   UNL     1      -1.413   1.033   2.035  1.00  0.00     0.188 C 
BRANCH  26  27
ATOM     27  O   UNL     1      -1.545   2.321   1.431  1.00  0.00    -0.376 OA
BRANCH  27  28
ATOM     28  C   UNL     1      -0.371   3.001   0.984  1.00  0.00     0.202 C 
BRANCH  28  29
ATOM     29  C   UNL     1       0.251   3.911   2.026  1.00  0.00     0.261 C 
BRANCH  29  30
ATOM     30  O   UNL     1       0.773   3.076   3.050  1.00  0.00    -0.460 OA
BRANCH  30  31
ATOM     31  C   UNL     1      -0.111   2.785   4.029  1.00  0.00     0.338 C 
ATOM     32  O   UNL     1      -1.155   3.376   4.279  1.00  0.00    -0.246 OA
BRANCH  31  33
ATOM     33  C   UNL     1       0.382   1.560   4.766  1.00  0.00     0.060 A 
ATOM     34  C   UNL     1      -0.329   1.429   5.957  1.00  0.00     0.016 A 
ATOM     35  C   UNL     1       1.770   1.537   4.790  1.00  0.00     0.016 A 
ATOM     36  C   UNL     1       0.212   2.082   7.036  1.00  0.00     0.010 A 
ATOM     37  C   UNL     1       2.308   2.280   5.801  1.00  0.00     0.010 A 
ATOM     38  C   UNL     1       1.482   2.638   6.873  1.00  0.00    -0.014 A 
BRANCH  38  39
ATOM     39  C   UNL     1       2.027   3.450   7.928  1.00  0.00     0.031 A 
ATOM     40  C   UNL     1       2.848   2.620   8.824  1.00  0.00     0.074 A 
ATOM     41  C   UNL     1       1.896   4.784   8.005  1.00  0.00     0.049 A 
ATOM     42  N   UNL     1       2.448   2.021   9.897  1.00  0.00    -0.248 NA
ATOM     43  C   UNL     1       4.129   2.120   8.293  1.00  0.00     0.031 C 
ATOM     44  C   UNL     1       1.350   5.731   7.036  1.00  0.00     0.029 A 
ATOM     45  N   UNL     1       2.334   5.585   9.011  1.00  0.00    -0.354 N 
ATOM     46  C   UNL     1       3.531   1.240  10.266  1.00  0.00     0.074 A 
ATOM     47  C   UNL     1       4.319   1.063   9.081  1.00  0.00     0.031 C 
ATOM     48  C   UNL     1       1.690   6.990   7.410  1.00  0.00     0.029 A 
ATOM     49  C   UNL     1       2.366   6.938   8.695  1.00  0.00     0.049 A 
ATOM     50  H   UNL     1       2.606   5.236   9.891  1.00  0.00     0.167 HD
ATOM     51  C   UNL     1       3.915   1.143  11.566  1.00  0.00     0.037 A 
ATOM     52  C   UNL     1       3.017   7.872   9.436  1.00  0.00     0.037 A 
ATOM     53  C   UNL     1       2.878   1.622  12.446  1.00  0.00     0.049 A 
ATOM     54  C   UNL     1       3.235   7.276  10.789  1.00  0.00     0.074 A 
ATOM     55  C   UNL     1       1.566   1.257  12.680  1.00  0.00     0.029 A 
ATOM     56  N   UNL     1       3.009   2.900  12.936  1.00  0.00    -0.354 N 
ATOM     57  N   UNL     1       2.268   7.020  11.628  1.00  0.00    -0.248 NA
ATOM     58  C   UNL     1       4.460   6.515  11.003  1.00  0.00     0.031 C 
ATOM     59  C   UNL     1       0.867   2.482  12.889  1.00  0.00     0.029 A 
ATOM     60  C   UNL     1       1.792   3.525  12.838  1.00  0.00     0.049 A 
ATOM     61  H   UNL     1       3.835   3.298  13.295  1.00  0.00     0.167 HD
ATOM     62  C   UNL     1       2.602   5.796  12.195  1.00  0.00     0.074 A 
ATOM     63  C   UNL     1       3.995   5.568  11.823  1.00  0.00     0.031 C 
ATOM     64  C   UNL     1       1.632   4.949  12.651  1.00  0.00     0.037 A 
BRANCH  51  65
ATOM     65  C   UNL     1       5.355   1.005  11.997  1.00  0.00     0.064 A 
ATOM     66  C   UNL     1       5.622   0.693  13.341  1.00  0.00     0.173 A 
ATOM     67  C   UNL     1       6.480   1.394  11.232  1.00  0.00     0.173 A 
ATOM     68  F   UNL     1       4.628   0.338  14.168  1.00  0.00    -0.203 F 
ATOM     69  C   UNL     1       6.904   0.817  13.883  1.00  0.00     0.198 A 
ATOM     70  C   UNL     1       7.766   1.451  11.758  1.00  0.00     0.198 A 
ATOM     71  F   UNL     1       6.390   1.848   9.978  1.00  0.00    -0.203 F 
ATOM     72  F   UNL     1       7.087   0.624  15.196  1.00  0.00    -0.200 F 
ATOM     73  C   UNL     1       7.974   1.194  13.092  1.00  0.00     0.200 A 
ATOM     74  F   UNL     1       8.780   1.838  10.972  1.00  0.00    -0.200 F 
ATOM     75  F   UNL     1       9.192   1.359  13.621  1.00  0.00    -0.200 F 
ENDBRANCH  51  65
BRANCH  52  76
ATOM     76  C   UNL     1       3.772   9.063   8.975  1.00  0.00     0.064 A 
ATOM     77  C   UNL     1       4.194  10.046   9.888  1.00  0.00     0.173 A 
ATOM     78  C   UNL     1       4.347   9.120   7.691  1.00  0.00     0.173 A 
ATOM     79  F   UNL     1       3.731  10.040  11.147  1.00  0.00    -0.203 F 
ATOM     80  C   UNL     1       5.158  11.002   9.548  1.00  0.00     0.198 A 
ATOM     81  C   UNL     1       5.303  10.079   7.350  1.00  0.00     0.198 A 
ATOM     82  F   UNL     1       4.070   8.187   6.769  1.00  0.00    -0.203 F 
ATOM     83  F   UNL     1       5.585  11.878  10.468  1.00  0.00    -0.200 F 
ATOM     84  C   UNL     1       5.720  11.010   8.283  1.00  0.00     0.200 A 
ATOM     85  F   UNL     1       5.867  10.051   6.134  1.00  0.00    -0.200 F 
ATOM     86  F   UNL     1       6.692  11.881   7.976  1.00  0.00    -0.200 F 
ENDBRANCH  52  76
BRANCH  64  87
ATOM     87  C   UNL     1       0.229   5.484  12.748  1.00  0.00     0.064 A 
ATOM     88  C   UNL     1      -0.540   5.871  11.636  1.00  0.00     0.173 A 
ATOM     89  C   UNL     1      -0.412   5.441  13.992  1.00  0.00     0.173 A 
ATOM     90  F   UNL     1      -0.024   5.847  10.401  1.00  0.00    -0.203 F 
ATOM     91  C   UNL     1      -1.882   6.225  11.773  1.00  0.00     0.198 A 
ATOM     92  C   UNL     1      -1.761   5.759  14.120  1.00  0.00     0.198 A 
ATOM     93  F   UNL     1       0.260   5.029  15.078  1.00  0.00    -0.203 F 
ATOM     94  F   UNL     1      -2.595   6.592  10.698  1.00  0.00    -0.200 F 
ATOM     95  C   UNL     1      -2.494   6.157  13.014  1.00  0.00     0.200 A 
ATOM     96  F   UNL     1      -2.360   5.643  15.313  1.00  0.00    -0.200 F 
ATOM     97  F   UNL     1      -3.797   6.446  13.139  1.00  0.00    -0.200 F 
ENDBRANCH  64  87
ENDBRANCH  38  39
ENDBRANCH  31  33
ENDBRANCH  30  31
ENDBRANCH  29  30
ENDBRANCH  28  29
ENDBRANCH  27  28
ENDBRANCH  26  27
ENDBRANCH   1  26
TORSDOF 20
