REMARK SMILES O=C(Cn1nc(-c2ccc(Br)cc2)ccc1=O)N[C@H](C(=O)OCCOCCOCCOC(=O)c1ccc(-c2c3nc(c(-c4c(F)c(F)c(F)c(F)c4F)c4ccc([nH]4)c(-c4c(F)c(F)c(F)c(F)c4F)c4nc(c(-c5c(F)c(F)c(F)c(F)c5F)c5ccc2[nH]5)C=C4)C=C3)cc1)c1ccccc1
REMARK SMILES IDX 26 1 25 2 24 3 23 4 22 5 20 6 21 7 19 8 18 9 1 10 2 11 3 13
REMARK SMILES IDX 4 14 5 15 16 16 6 17 15 18 17 19 14 20 7 21 8 22 13 23 9 24
REMARK SMILES IDX 12 25 10 26 11 27 97 28 98 29 102 30 99 31 101 32 100 33
REMARK SMILES IDX 27 34 28 35 29 36 30 37 31 38 32 39 33 40 34 41 35 42 96 43
REMARK SMILES IDX 36 44 95 45 37 46 38 47 39 48 89 49 40 50 94 51 88 52 90 53
REMARK SMILES IDX 41 54 93 55 87 56 86 57 42 59 74 60 54 61 73 62 55 63 58 64
REMARK SMILES IDX 72 65 91 66 56 67 57 68 71 70 92 71 59 72 43 73 44 74 52 75
REMARK SMILES IDX 45 76 46 77 50 78 53 79 47 80 48 81 51 82 49 83 75 84 76 85
REMARK SMILES IDX 84 86 77 87 78 88 82 89 85 90 79 91 80 92 83 93 81 94 60 95
REMARK SMILES IDX 61 96 69 97 62 98 63 99 67 100 70 101 64 102 65 103 68 104
REMARK SMILES IDX 66 105
REMARK H PARENT 18 12 90 58 58 69
REMARK Flexibility Score: inf
ROOT
ATOM      1  C   UNL     1       2.158   1.085   0.331  1.00  0.00     0.188 C 
ENDROOT
BRANCH   1   2
ATOM      2  O   UNL     1       2.877   1.685  -0.728  1.00  0.00    -0.376 OA
BRANCH   2   3
ATOM      3  C   UNL     1       4.230   1.298  -0.896  1.00  0.00     0.202 C 
BRANCH   3   4
ATOM      4  C   UNL     1       4.479  -0.150  -1.340  1.00  0.00     0.261 C 
BRANCH   4   5
ATOM      5  O   UNL     1       3.843  -1.176  -0.566  1.00  0.00    -0.461 OA
BRANCH   5   6
ATOM      6  C   UNL     1       4.249  -1.330   0.735  1.00  0.00     0.333 C 
ATOM      7  O   UNL     1       5.036  -0.575   1.291  1.00  0.00    -0.249 OA
BRANCH   6   8
ATOM      8  C   UNL     1       3.360  -2.414   1.408  1.00  0.00     0.223 C 
BRANCH   8   9
ATOM      9  N   UNL     1       3.330  -3.652   0.645  1.00  0.00    -0.337 N 
ATOM     10  O   UNL     1       5.597  -3.716   0.334  1.00  0.00    -0.273 OA
ATOM     11  C   UNL     1       4.490  -4.217   0.156  1.00  0.00     0.242 C 
ATOM     12  H   UNL     1       2.467  -4.094   0.474  1.00  0.00     0.164 HD
BRANCH  11  13
ATOM     13  C   UNL     1       4.283  -5.528  -0.584  1.00  0.00     0.248 C 
BRANCH  13  14
ATOM     14  N   UNL     1       4.255  -6.574   0.422  1.00  0.00    -0.220 N 
ATOM     15  N   UNL     1       5.467  -7.122   0.747  1.00  0.00    -0.169 NA
ATOM     16  C   UNL     1       3.069  -6.860   1.079  1.00  0.00     0.267 A 
ATOM     17  C   UNL     1       5.495  -7.982   1.709  1.00  0.00     0.091 A 
ATOM     18  C   UNL     1       3.149  -7.879   2.147  1.00  0.00     0.075 A 
ATOM     19  O   UNL     1       2.002  -6.289   0.860  1.00  0.00    -0.268 OA
ATOM     20  C   UNL     1       4.318  -8.433   2.477  1.00  0.00     0.036 A 
BRANCH  17  21
ATOM     21  C   UNL     1       6.793  -8.561   2.090  1.00  0.00     0.002 A 
ATOM     22  C   UNL     1       7.783  -7.721   2.611  1.00  0.00     0.011 A 
ATOM     23  C   UNL     1       7.053  -9.909   1.835  1.00  0.00     0.011 A 
ATOM     24  C   UNL     1       9.044  -8.244   2.898  1.00  0.00     0.016 A 
ATOM     25  C   UNL     1       8.319 -10.424   2.112  1.00  0.00     0.016 A 
ATOM     26  C   UNL     1       9.307  -9.591   2.643  1.00  0.00     0.018 A 
ATOM     27  Br  UNL     1      11.026 -10.292   2.997  1.00  0.00    -0.051 Br
ENDBRANCH  17  21
ENDBRANCH  13  14
ENDBRANCH  11  13
ENDBRANCH   8   9
BRANCH   8  28
ATOM     28  C   UNL     1       3.448  -2.527   2.922  1.00  0.00    -0.014 A 
ATOM     29  C   UNL     1       3.402  -1.353   3.702  1.00  0.00     0.006 A 
ATOM     30  C   UNL     1       3.425  -3.757   3.594  1.00  0.00     0.006 A 
ATOM     31  C   UNL     1       3.390  -1.407   5.095  1.00  0.00     0.000 A 
ATOM     32  C   UNL     1       3.404  -3.808   4.992  1.00  0.00     0.000 A 
ATOM     33  C   UNL     1       3.397  -2.635   5.742  1.00  0.00     0.000 A 
ENDBRANCH   8  28
ENDBRANCH   6   8
ENDBRANCH   5   6
ENDBRANCH   4   5
ENDBRANCH   3   4
ENDBRANCH   2   3
ENDBRANCH   1   2
BRANCH   1  34
ATOM     34  C   UNL     1       1.011   0.168  -0.143  1.00  0.00     0.188 C 
BRANCH  34  35
ATOM     35  O   UNL     1       0.639   0.135  -1.512  1.00  0.00    -0.376 OA
BRANCH  35  36
ATOM     36  C   UNL     1       0.581   1.351  -2.241  1.00  0.00     0.202 C 
BRANCH  36  37
ATOM     37  C   UNL     1      -0.306   2.489  -1.709  1.00  0.00     0.261 C 
BRANCH  37  38
ATOM     38  O   UNL     1      -0.093   2.854  -0.332  1.00  0.00    -0.460 OA
BRANCH  38  39
ATOM     39  C   UNL     1      -1.092   2.534   0.535  1.00  0.00     0.338 C 
ATOM     40  O   UNL     1      -2.150   2.005   0.276  1.00  0.00    -0.246 OA
BRANCH  39  41
ATOM     41  C   UNL     1      -0.624   2.759   1.928  1.00  0.00     0.060 A 
ATOM     42  C   UNL     1      -0.186   4.014   2.348  1.00  0.00     0.016 A 
ATOM     43  C   UNL     1      -0.650   1.685   2.832  1.00  0.00     0.016 A 
ATOM     44  C   UNL     1       0.197   4.199   3.683  1.00  0.00     0.010 A 
ATOM     45  C   UNL     1      -0.250   1.867   4.161  1.00  0.00     0.010 A 
ATOM     46  C   UNL     1       0.151   3.134   4.605  1.00  0.00    -0.014 A 
BRANCH  46  47
ATOM     47  C   UNL     1       0.351   3.411   6.053  1.00  0.00     0.031 A 
ATOM     48  C   UNL     1       1.636   3.104   6.761  1.00  0.00     0.074 A 
ATOM     49  C   UNL     1      -0.662   3.982   6.731  1.00  0.00     0.049 A 
ATOM     50  N   UNL     1       1.992   3.403   7.987  1.00  0.00    -0.248 NA
ATOM     51  C   UNL     1       2.647   2.355   6.007  1.00  0.00     0.031 C 
ATOM     52  C   UNL     1      -1.974   4.290   6.162  1.00  0.00     0.029 A 
ATOM     53  N   UNL     1      -0.744   4.428   8.026  1.00  0.00    -0.354 N 
ATOM     54  C   UNL     1       3.274   2.895   8.148  1.00  0.00     0.074 A 
ATOM     55  C   UNL     1       3.614   2.225   6.909  1.00  0.00     0.031 C 
ATOM     56  C   UNL     1      -2.713   4.923   7.086  1.00  0.00     0.029 A 
ATOM     57  C   UNL     1      -1.937   5.044   8.318  1.00  0.00     0.049 A 
ATOM     58  H   UNL     1      -0.018   4.318   8.682  1.00  0.00     0.167 HD
ATOM     59  C   UNL     1       4.095   3.002   9.222  1.00  0.00     0.037 A 
ATOM     60  C   UNL     1      -2.354   5.658   9.442  1.00  0.00     0.037 A 
ATOM     61  C   UNL     1       3.756   3.689  10.445  1.00  0.00     0.049 A 
ATOM     62  C   UNL     1      -1.425   5.760  10.620  1.00  0.00     0.074 A 
ATOM     63  C   UNL     1       4.550   3.905  11.560  1.00  0.00     0.029 A 
ATOM     64  N   UNL     1       2.525   4.269  10.718  1.00  0.00    -0.354 N 
ATOM     65  N   UNL     1      -0.186   5.351  10.731  1.00  0.00    -0.248 NA
ATOM     66  C   UNL     1      -1.950   6.417  11.826  1.00  0.00     0.031 C 
ATOM     67  C   UNL     1       3.786   4.568  12.524  1.00  0.00     0.029 A 
ATOM     68  C   UNL     1       2.531   4.816  11.992  1.00  0.00     0.049 A 
ATOM     69  H   UNL     1       1.761   4.289  10.098  1.00  0.00     0.167 HD
ATOM     70  C   UNL     1       0.224   5.715  12.006  1.00  0.00     0.074 A 
ATOM     71  C   UNL     1      -0.893   6.397  12.627  1.00  0.00     0.031 C 
ATOM     72  C   UNL     1       1.419   5.498  12.606  1.00  0.00     0.037 A 
BRANCH  59  73
ATOM     73  C   UNL     1       5.466   2.390   9.134  1.00  0.00     0.064 A 
ATOM     74  C   UNL     1       6.460   2.943   8.314  1.00  0.00     0.173 A 
ATOM     75  C   UNL     1       5.825   1.313   9.961  1.00  0.00     0.173 A 
ATOM     76  F   UNL     1       6.171   3.976   7.507  1.00  0.00    -0.203 F 
ATOM     77  C   UNL     1       7.757   2.435   8.313  1.00  0.00     0.198 A 
ATOM     78  C   UNL     1       7.130   0.827   9.980  1.00  0.00     0.198 A 
ATOM     79  F   UNL     1       4.920   0.757  10.779  1.00  0.00    -0.203 F 
ATOM     80  F   UNL     1       8.683   2.967   7.504  1.00  0.00    -0.200 F 
ATOM     81  C   UNL     1       8.094   1.385   9.154  1.00  0.00     0.200 A 
ATOM     82  F   UNL     1       7.460  -0.172  10.812  1.00  0.00    -0.200 F 
ATOM     83  F   UNL     1       9.349   0.915   9.173  1.00  0.00    -0.200 F 
ENDBRANCH  59  73
BRANCH  60  84
ATOM     84  C   UNL     1      -3.705   6.274   9.474  1.00  0.00     0.064 A 
ATOM     85  C   UNL     1      -3.859   7.667   9.497  1.00  0.00     0.173 A 
ATOM     86  C   UNL     1      -4.867   5.488   9.444  1.00  0.00     0.173 A 
ATOM     87  F   UNL     1      -2.779   8.459   9.544  1.00  0.00    -0.203 F 
ATOM     88  C   UNL     1      -5.124   8.250   9.496  1.00  0.00     0.198 A 
ATOM     89  C   UNL     1      -6.130   6.073   9.413  1.00  0.00     0.198 A 
ATOM     90  F   UNL     1      -4.771   4.151   9.415  1.00  0.00    -0.203 F 
ATOM     91  F   UNL     1      -5.244   9.584   9.550  1.00  0.00    -0.200 F 
ATOM     92  C   UNL     1      -6.258   7.453   9.444  1.00  0.00     0.200 A 
ATOM     93  F   UNL     1      -7.222   5.300   9.344  1.00  0.00    -0.200 F 
ATOM     94  F   UNL     1      -7.474   8.015   9.427  1.00  0.00    -0.200 F 
ENDBRANCH  60  84
BRANCH  72  95
ATOM     95  C   UNL     1       1.604   6.002  14.009  1.00  0.00     0.064 A 
ATOM     96  C   UNL     1       0.982   5.376  15.098  1.00  0.00     0.173 A 
ATOM     97  C   UNL     1       2.488   7.060  14.277  1.00  0.00     0.173 A 
ATOM     98  F   UNL     1       0.118   4.370  14.895  1.00  0.00    -0.203 F 
ATOM     99  C   UNL     1       1.234   5.791  16.403  1.00  0.00     0.198 A 
ATOM    100  C   UNL     1       2.759   7.454  15.584  1.00  0.00     0.198 A 
ATOM    101  F   UNL     1       3.113   7.689  13.271  1.00  0.00    -0.203 F 
ATOM    102  F   UNL     1       0.610   5.193  17.427  1.00  0.00    -0.200 F 
ATOM    103  C   UNL     1       2.132   6.820  16.646  1.00  0.00     0.200 A 
ATOM    104  F   UNL     1       3.639   8.437  15.818  1.00  0.00    -0.200 F 
ATOM    105  F   UNL     1       2.393   7.201  17.904  1.00  0.00    -0.200 F 
ENDBRANCH  72  95
ENDBRANCH  46  47
ENDBRANCH  39  41
ENDBRANCH  38  39
ENDBRANCH  37  38
ENDBRANCH  36  37
ENDBRANCH  35  36
ENDBRANCH  34  35
ENDBRANCH   1  34
TORSDOF 22
