REMARK SMILES CC(C)OC(=O)c1c(NC(=O)[C@H]2[C@@H](C(=O)OCCOCCOCCOC(=O)c3ccc(-c4c5nc(c(-c6c(F)c(F)c(F)c(F)c6F)c6ccc([nH]6)c(-c6c(F)c(F)c(F)c(F)c6F)c6nc(c(-c7c(F)c(F)c(F)c(F)c7F)c7ccc4[nH]7)C=C6)C=C5)cc3)[C@@H]3C=C[C@H]2CC3)sc2c1CCC2
REMARK SMILES IDX 19 1 18 2 17 3 16 4 14 5 15 6 13 7 12 8 94 9 91 10 93 11
REMARK SMILES IDX 95 12 92 13 96 14 10 15 9 16 11 18 8 19 7 20 99 21 97 22
REMARK SMILES IDX 98 23 100 24 102 25 101 26 5 27 6 28 4 29 2 30 1 31 3 32
REMARK SMILES IDX 20 33 21 34 22 35 23 36 24 37 25 38 26 39 27 40 28 41 29 42
REMARK SMILES IDX 90 43 30 44 89 45 31 46 32 47 33 48 83 49 34 50 88 51 82 52
REMARK SMILES IDX 84 53 35 54 87 55 81 56 80 57 36 59 68 60 48 61 67 62 49 63
REMARK SMILES IDX 52 64 66 65 85 66 50 67 51 68 65 70 86 71 53 72 37 73 38 74
REMARK SMILES IDX 46 75 39 76 40 77 44 78 47 79 41 80 42 81 45 82 43 83 69 84
REMARK SMILES IDX 70 85 78 86 71 87 72 88 76 89 79 90 73 91 74 92 77 93 75 94
REMARK SMILES IDX 54 95 55 96 63 97 56 98 57 99 61 100 64 101 58 102 59 103
REMARK SMILES IDX 62 104 60 105
REMARK H PARENT 9 17 84 58 52 69
REMARK Flexibility Score: inf
ROOT
ATOM      1  O   UNL     1      -7.149   1.826  -5.496  1.00  0.00    -0.376 OA
ENDROOT
BRANCH   1   2
ATOM      2  C   UNL     1      -8.427   1.185  -5.388  1.00  0.00     0.202 C 
BRANCH   2   3
ATOM      3  C   UNL     1      -9.079   1.329  -4.005  1.00  0.00     0.261 C 
BRANCH   3   4
ATOM      4  O   UNL     1      -8.213   0.870  -2.957  1.00  0.00    -0.463 OA
BRANCH   4   5
ATOM      5  C   UNL     1      -8.269  -0.449  -2.639  1.00  0.00     0.310 C 
ATOM      6  O   UNL     1      -9.132  -1.224  -3.025  1.00  0.00    -0.252 OA
BRANCH   5   7
ATOM      7  C   UNL     1      -7.124  -0.783  -1.685  1.00  0.00     0.119 C 
ATOM      8  C   UNL     1      -6.634  -2.272  -1.720  1.00  0.00     0.100 C 
ATOM      9  C   UNL     1      -7.206  -2.937  -0.429  1.00  0.00     0.025 C 
ATOM     10  C   UNL     1      -7.526  -0.372  -0.241  1.00  0.00     0.026 C 
ATOM     11  C   UNL     1      -6.388  -2.281   0.685  1.00  0.00    -0.027 C 
ATOM     12  C   UNL     1      -8.690  -2.583  -0.174  1.00  0.00     0.009 C 
ATOM     13  C   UNL     1      -6.506  -0.941   0.733  1.00  0.00    -0.027 C 
ATOM     14  C   UNL     1      -8.850  -1.078   0.117  1.00  0.00     0.009 C 
BRANCH   8  15
ATOM     15  C   UNL     1      -6.708  -2.917  -3.115  1.00  0.00     0.229 C 
ATOM     16  N   UNL     1      -6.584  -4.248  -3.363  1.00  0.00    -0.317 N 
ATOM     17  H   UNL     1      -6.760  -4.511  -4.295  1.00  0.00     0.170 HD
ATOM     18  O   UNL     1      -6.784  -2.199  -4.121  1.00  0.00    -0.274 OA
BRANCH  16  19
ATOM     19  C   UNL     1      -6.253  -5.283  -2.526  1.00  0.00     0.110 A 
ATOM     20  C   UNL     1      -6.765  -6.578  -2.567  1.00  0.00     0.098 A 
ATOM     21  C   UNL     1      -6.442  -7.205  -1.331  1.00  0.00    -0.017 A 
ATOM     22  S   UNL     1      -4.989  -5.109  -1.380  1.00  0.00    -0.122 S 
ATOM     23  C   UNL     1      -5.546  -6.473  -0.597  1.00  0.00     0.011 A 
ATOM     24  C   UNL     1      -6.832  -8.433  -0.595  1.00  0.00     0.038 C 
ATOM     25  C   UNL     1      -5.249  -7.019   0.744  1.00  0.00     0.047 C 
ATOM     26  C   UNL     1      -6.363  -8.103   0.861  1.00  0.00     0.010 C 
BRANCH  20  27
ATOM     27  C   UNL     1      -7.591  -7.045  -3.673  1.00  0.00     0.341 C 
ATOM     28  O   UNL     1      -7.527  -6.528  -4.785  1.00  0.00    -0.246 OA
BRANCH  27  29
ATOM     29  O   UNL     1      -8.401  -8.088  -3.349  1.00  0.00    -0.459 OA
BRANCH  29  30
ATOM     30  C   UNL     1      -9.180  -8.728  -4.388  1.00  0.00     0.170 C 
ATOM     31  C   UNL     1     -10.069  -7.782  -5.196  1.00  0.00     0.052 C 
ATOM     32  C   UNL     1      -8.280  -9.584  -5.271  1.00  0.00     0.052 C 
ENDBRANCH  29  30
ENDBRANCH  27  29
ENDBRANCH  20  27
ENDBRANCH  16  19
ENDBRANCH   8  15
ENDBRANCH   5   7
ENDBRANCH   4   5
ENDBRANCH   3   4
ENDBRANCH   2   3
ENDBRANCH   1   2
BRANCH   1  33
ATOM     33  C   UNL     1      -6.095   1.114  -4.857  1.00  0.00     0.188 C 
BRANCH  33  34
ATOM     34  C   UNL     1      -5.385   1.850  -3.703  1.00  0.00     0.188 C 
BRANCH  34  35
ATOM     35  O   UNL     1      -5.974   2.964  -3.045  1.00  0.00    -0.376 OA
BRANCH  35  36
ATOM     36  C   UNL     1      -6.559   4.016  -3.801  1.00  0.00     0.202 C 
BRANCH  36  37
ATOM     37  C   UNL     1      -5.707   4.793  -4.803  1.00  0.00     0.261 C 
BRANCH  37  38
ATOM     38  O   UNL     1      -4.999   3.958  -5.709  1.00  0.00    -0.460 OA
BRANCH  38  39
ATOM     39  C   UNL     1      -3.708   3.760  -5.371  1.00  0.00     0.338 C 
ATOM     40  O   UNL     1      -3.122   4.197  -4.394  1.00  0.00    -0.246 OA
BRANCH  39  41
ATOM     41  C   UNL     1      -3.064   2.896  -6.367  1.00  0.00     0.060 A 
ATOM     42  C   UNL     1      -1.806   2.388  -6.029  1.00  0.00     0.016 A 
ATOM     43  C   UNL     1      -3.576   2.803  -7.667  1.00  0.00     0.016 A 
ATOM     44  C   UNL     1      -0.950   2.031  -7.045  1.00  0.00     0.010 A 
ATOM     45  C   UNL     1      -2.718   2.450  -8.685  1.00  0.00     0.010 A 
ATOM     46  C   UNL     1      -1.386   2.188  -8.363  1.00  0.00    -0.014 A 
BRANCH  46  47
ATOM     47  C   UNL     1      -0.360   2.244  -9.385  1.00  0.00     0.031 A 
ATOM     48  C   UNL     1       0.193   0.955  -9.837  1.00  0.00     0.074 A 
ATOM     49  C   UNL     1       0.011   3.427  -9.914  1.00  0.00     0.049 A 
ATOM     50  N   UNL     1       1.427   0.571  -9.835  1.00  0.00    -0.248 NA
ATOM     51  C   UNL     1      -0.764  -0.056 -10.307  1.00  0.00     0.031 C 
ATOM     52  C   UNL     1      -0.643   4.730  -9.750  1.00  0.00     0.029 A 
ATOM     53  N   UNL     1       1.004   3.686 -10.808  1.00  0.00    -0.354 N 
ATOM     54  C   UNL     1       1.429  -0.673 -10.452  1.00  0.00     0.074 A 
ATOM     55  C   UNL     1       0.051  -1.059 -10.627  1.00  0.00     0.031 C 
ATOM     56  C   UNL     1      -0.163   5.584 -10.679  1.00  0.00     0.029 A 
ATOM     57  C   UNL     1       0.904   4.927 -11.415  1.00  0.00     0.049 A 
ATOM     58  H   UNL     1       1.728   3.048 -11.006  1.00  0.00     0.167 HD
ATOM     59  C   UNL     1       2.560  -1.214 -10.973  1.00  0.00     0.037 A 
ATOM     60  C   UNL     1       1.591   5.345 -12.503  1.00  0.00     0.037 A 
ATOM     61  C   UNL     1       3.753  -0.656 -10.403  1.00  0.00     0.049 A 
ATOM     62  C   UNL     1       2.780   4.471 -12.656  1.00  0.00     0.074 A 
ATOM     63  C   UNL     1       4.272  -0.594  -9.124  1.00  0.00     0.029 A 
ATOM     64  N   UNL     1       4.479   0.246 -11.138  1.00  0.00    -0.354 N 
ATOM     65  N   UNL     1       3.813   4.481 -11.861  1.00  0.00    -0.248 NA
ATOM     66  C   UNL     1       2.655   3.291 -13.499  1.00  0.00     0.031 C 
ATOM     67  C   UNL     1       4.949   0.658  -9.051  1.00  0.00     0.029 A 
ATOM     68  C   UNL     1       4.815   1.275 -10.295  1.00  0.00     0.049 A 
ATOM     69  H   UNL     1       4.715   0.170 -12.091  1.00  0.00     0.167 HD
ATOM     70  C   UNL     1       4.225   3.159 -11.800  1.00  0.00     0.074 A 
ATOM     71  C   UNL     1       3.558   2.499 -12.916  1.00  0.00     0.031 C 
ATOM     72  C   UNL     1       4.844   2.664 -10.689  1.00  0.00     0.037 A 
BRANCH  59  73
ATOM     73  C   UNL     1       2.548  -2.040 -12.224  1.00  0.00     0.064 A 
ATOM     74  C   UNL     1       3.642  -2.861 -12.543  1.00  0.00     0.173 A 
ATOM     75  C   UNL     1       1.595  -1.850 -13.249  1.00  0.00     0.173 A 
ATOM     76  F   UNL     1       4.629  -3.055 -11.657  1.00  0.00    -0.203 F 
ATOM     77  C   UNL     1       3.777  -3.438 -13.809  1.00  0.00     0.198 A 
ATOM     78  C   UNL     1       1.703  -2.472 -14.489  1.00  0.00     0.198 A 
ATOM     79  F   UNL     1       0.586  -0.978 -13.118  1.00  0.00    -0.203 F 
ATOM     80  F   UNL     1       4.881  -4.135 -14.107  1.00  0.00    -0.200 F 
ATOM     81  C   UNL     1       2.805  -3.249 -14.777  1.00  0.00     0.200 A 
ATOM     82  F   UNL     1       0.765  -2.253 -15.422  1.00  0.00    -0.200 F 
ATOM     83  F   UNL     1       2.954  -3.770 -16.002  1.00  0.00    -0.200 F 
ENDBRANCH  59  73
BRANCH  60  84
ATOM     84  C   UNL     1       1.134   6.264 -13.569  1.00  0.00     0.064 A 
ATOM     85  C   UNL     1       2.049   6.860 -14.451  1.00  0.00     0.173 A 
ATOM     86  C   UNL     1      -0.229   6.377 -13.911  1.00  0.00     0.173 A 
ATOM     87  F   UNL     1       3.367   6.757 -14.226  1.00  0.00    -0.203 F 
ATOM     88  C   UNL     1       1.627   7.513 -15.613  1.00  0.00     0.198 A 
ATOM     89  C   UNL     1      -0.650   7.041 -15.062  1.00  0.00     0.198 A 
ATOM     90  F   UNL     1      -1.176   5.764 -13.186  1.00  0.00    -0.203 F 
ATOM     91  F   UNL     1       2.533   8.013 -16.464  1.00  0.00    -0.200 F 
ATOM     92  C   UNL     1       0.279   7.597 -15.920  1.00  0.00     0.200 A 
ATOM     93  F   UNL     1      -1.955   7.085 -15.363  1.00  0.00    -0.200 F 
ATOM     94  F   UNL     1      -0.123   8.175 -17.061  1.00  0.00    -0.200 F 
ENDBRANCH  60  84
BRANCH  72  95
ATOM     95  C   UNL     1       5.336   3.654  -9.671  1.00  0.00     0.064 A 
ATOM     96  C   UNL     1       4.489   4.513  -8.949  1.00  0.00     0.173 A 
ATOM     97  C   UNL     1       6.693   3.643  -9.323  1.00  0.00     0.173 A 
ATOM     98  F   UNL     1       3.164   4.502  -9.148  1.00  0.00    -0.203 F 
ATOM     99  C   UNL     1       4.991   5.364  -7.966  1.00  0.00     0.198 A 
ATOM    100  C   UNL     1       7.186   4.466  -8.314  1.00  0.00     0.198 A 
ATOM    101  F   UNL     1       7.538   2.798  -9.935  1.00  0.00    -0.203 F 
ATOM    102  F   UNL     1       4.166   6.190  -7.306  1.00  0.00    -0.200 F 
ATOM    103  C   UNL     1       6.338   5.335  -7.646  1.00  0.00     0.200 A 
ATOM    104  F   UNL     1       8.480   4.399  -7.971  1.00  0.00    -0.200 F 
ATOM    105  F   UNL     1       6.816   6.126  -6.674  1.00  0.00    -0.200 F 
ENDBRANCH  72  95
ENDBRANCH  46  47
ENDBRANCH  39  41
ENDBRANCH  38  39
ENDBRANCH  37  38
ENDBRANCH  36  37
ENDBRANCH  35  36
ENDBRANCH  34  35
ENDBRANCH  33  34
ENDBRANCH   1  33
TORSDOF 22
