REMARK SMILES CN(CCOCC1CC1)C(=O)N1[C@@H]2CC[C@H]1[C@H](C(=O)OCCOCCOCCOC(=O)c1ccc(-c3c4nc(c(-c5c(F)c(F)c(F)c(F)c5F)c5ccc([nH]5)c(-c5c(F)c(F)c(F)c(F)c5F)c5nc(c(-c6c(F)c(F)c(F)c(F)c6F)c6ccc3[nH]6)C=C5)C=C4)cc1)C2
REMARK SMILES IDX 22 1 21 2 20 3 18 4 19 5 17 6 12 7 13 8 16 9 14 10 95 11
REMARK SMILES IDX 15 12 10 13 11 14 2 15 1 16 3 17 4 18 5 19 6 20 7 21 8 22
REMARK SMILES IDX 9 23 23 24 24 25 25 26 26 27 27 28 28 29 29 30 30 31 31 32
REMARK SMILES IDX 32 33 33 34 94 35 34 36 93 37 35 38 36 39 37 40 87 41 38 42
REMARK SMILES IDX 92 43 86 44 88 45 39 46 91 47 85 48 84 49 40 51 72 52 52 53
REMARK SMILES IDX 71 54 53 55 56 56 70 57 89 58 54 59 55 60 69 62 90 63 57 64
REMARK SMILES IDX 41 65 42 66 50 67 43 68 44 69 48 70 51 71 45 72 46 73 49 74
REMARK SMILES IDX 47 75 73 76 74 77 82 78 75 79 76 80 80 81 83 82 77 83 78 84
REMARK SMILES IDX 81 85 79 86 58 87 59 88 67 89 60 90 61 91 65 92 68 93 62 94
REMARK SMILES IDX 63 95 66 96 64 97
REMARK H PARENT 88 50 56 61
REMARK Flexibility Score: inf
ROOT
ATOM      1  C   UNL     1      -0.009   1.033   5.025  1.00  0.00     0.202 C 
ENDROOT
BRANCH   1   2
ATOM      2  C   UNL     1       1.089   0.076   5.503  1.00  0.00     0.261 C 
BRANCH   2   3
ATOM      3  O   UNL     1       0.990  -1.216   4.866  1.00  0.00    -0.463 OA
BRANCH   3   4
ATOM      4  C   UNL     1       0.478  -2.233   5.600  1.00  0.00     0.311 C 
ATOM      5  O   UNL     1       0.131  -2.144   6.773  1.00  0.00    -0.252 OA
BRANCH   4   6
ATOM      6  C   UNL     1       0.352  -3.531   4.831  1.00  0.00     0.124 C 
ATOM      7  N   UNL     1       1.197  -3.386   2.657  1.00  0.00    -0.318 N 
ATOM      8  C   UNL     1       1.754  -4.607   3.201  1.00  0.00     0.088 C 
ATOM      9  C   UNL     1      -0.085  -3.395   3.357  1.00  0.00     0.101 C 
ATOM     10  C   UNL     1       0.660  -5.618   2.814  1.00  0.00     0.027 C 
ATOM     11  C   UNL     1       1.678  -4.310   4.710  1.00  0.00     0.042 C 
ATOM     12  C   UNL     1      -0.629  -4.784   2.946  1.00  0.00     0.028 C 
BRANCH   7  13
ATOM     13  C   UNL     1       1.835  -2.689   1.678  1.00  0.00     0.320 C 
ATOM     14  O   UNL     1       2.890  -3.142   1.216  1.00  0.00    -0.248 OA
BRANCH  13  15
ATOM     15  N   UNL     1       1.342  -1.501   1.183  1.00  0.00    -0.325 N 
ATOM     16  C   UNL     1       2.080  -0.906   0.074  1.00  0.00     0.148 C 
BRANCH  15  17
ATOM     17  C   UNL     1       0.147  -0.787   1.607  1.00  0.00     0.149 C 
BRANCH  17  18
ATOM     18  C   UNL     1      -1.137  -1.122   0.838  1.00  0.00     0.181 C 
BRANCH  18  19
ATOM     19  O   UNL     1      -1.446  -2.511   0.753  1.00  0.00    -0.379 OA
BRANCH  19  20
ATOM     20  C   UNL     1      -0.901  -3.165  -0.390  1.00  0.00     0.163 C 
BRANCH  20  21
ATOM     21  C   UNL     1      -1.683  -2.820  -1.613  1.00  0.00     0.015 C 
ATOM     22  C   UNL     1      -1.304  -1.649  -2.486  1.00  0.00     0.006 C 
ATOM     23  C   UNL     1      -1.076  -3.051  -2.972  1.00  0.00     0.006 C 
ENDBRANCH  20  21
ENDBRANCH  19  20
ENDBRANCH  18  19
ENDBRANCH  17  18
ENDBRANCH  15  17
ENDBRANCH  13  15
ENDBRANCH   7  13
ENDBRANCH   4   6
ENDBRANCH   3   4
ENDBRANCH   2   3
ENDBRANCH   1   2
BRANCH   1  24
ATOM     24  O   UNL     1      -1.271   0.766   5.641  1.00  0.00    -0.376 OA
BRANCH  24  25
ATOM     25  C   UNL     1      -2.067  -0.177   4.935  1.00  0.00     0.188 C 
BRANCH  25  26
ATOM     26  C   UNL     1      -2.975   0.487   3.909  1.00  0.00     0.188 C 
BRANCH  26  27
ATOM     27  O   UNL     1      -2.237   1.163   2.887  1.00  0.00    -0.376 OA
BRANCH  27  28
ATOM     28  C   UNL     1      -2.833   2.391   2.459  1.00  0.00     0.202 C 
BRANCH  28  29
ATOM     29  C   UNL     1      -4.019   2.233   1.498  1.00  0.00     0.261 C 
BRANCH  29  30
ATOM     30  O   UNL     1      -5.074   1.476   2.109  1.00  0.00    -0.460 OA
BRANCH  30  31
ATOM     31  C   UNL     1      -5.236   0.211   1.645  1.00  0.00     0.338 C 
ATOM     32  O   UNL     1      -4.716  -0.283   0.658  1.00  0.00    -0.246 OA
BRANCH  31  33
ATOM     33  C   UNL     1      -5.989  -0.571   2.656  1.00  0.00     0.060 A 
ATOM     34  C   UNL     1      -5.660  -1.925   2.827  1.00  0.00     0.016 A 
ATOM     35  C   UNL     1      -6.955   0.027   3.471  1.00  0.00     0.016 A 
ATOM     36  C   UNL     1      -6.332  -2.696   3.776  1.00  0.00     0.010 A 
ATOM     37  C   UNL     1      -7.628  -0.743   4.418  1.00  0.00     0.010 A 
ATOM     38  C   UNL     1      -7.352  -2.116   4.542  1.00  0.00    -0.014 A 
BRANCH  38  39
ATOM     39  C   UNL     1      -8.319  -2.971   5.268  1.00  0.00     0.031 A 
ATOM     40  C   UNL     1      -9.622  -3.272   4.579  1.00  0.00     0.074 A 
ATOM     41  C   UNL     1      -8.072  -3.442   6.501  1.00  0.00     0.049 A 
ATOM     42  N   UNL     1     -10.686  -3.884   5.029  1.00  0.00    -0.248 NA
ATOM     43  C   UNL     1      -9.745  -2.795   3.190  1.00  0.00     0.031 C 
ATOM     44  C   UNL     1      -6.836  -3.245   7.253  1.00  0.00     0.029 A 
ATOM     45  N   UNL     1      -8.870  -4.172   7.346  1.00  0.00    -0.354 N 
ATOM     46  C   UNL     1     -11.604  -3.850   3.987  1.00  0.00     0.074 A 
ATOM     47  C   UNL     1     -10.992  -3.126   2.897  1.00  0.00     0.031 C 
ATOM     48  C   UNL     1      -6.964  -3.826   8.460  1.00  0.00     0.029 A 
ATOM     49  C   UNL     1      -8.303  -4.404   8.575  1.00  0.00     0.049 A 
ATOM     50  H   UNL     1      -9.764  -4.499   7.095  1.00  0.00     0.167 HD
ATOM     51  C   UNL     1     -12.845  -4.386   3.940  1.00  0.00     0.037 A 
ATOM     52  C   UNL     1      -8.824  -4.993   9.669  1.00  0.00     0.037 A 
ATOM     53  C   UNL     1     -13.448  -5.104   5.029  1.00  0.00     0.049 A 
ATOM     54  C   UNL     1     -10.235  -5.529   9.615  1.00  0.00     0.074 A 
ATOM     55  C   UNL     1     -14.695  -5.699   5.086  1.00  0.00     0.029 A 
ATOM     56  N   UNL     1     -12.844  -5.317   6.260  1.00  0.00    -0.354 N 
ATOM     57  N   UNL     1     -11.092  -5.517   8.621  1.00  0.00    -0.248 NA
ATOM     58  C   UNL     1     -10.750  -6.165  10.836  1.00  0.00     0.031 C 
ATOM     59  C   UNL     1     -14.868  -6.223   6.371  1.00  0.00     0.029 A 
ATOM     60  C   UNL     1     -13.702  -6.017   7.091  1.00  0.00     0.049 A 
ATOM     61  H   UNL     1     -11.940  -5.014   6.506  1.00  0.00     0.167 HD
ATOM     62  C   UNL     1     -12.225  -6.177   9.081  1.00  0.00     0.074 A 
ATOM     63  C   UNL     1     -11.944  -6.583  10.442  1.00  0.00     0.031 C 
ATOM     64  C   UNL     1     -13.393  -6.429   8.437  1.00  0.00     0.037 A 
BRANCH  51  65
ATOM     65  C   UNL     1     -13.637  -4.186   2.680  1.00  0.00     0.064 A 
ATOM     66  C   UNL     1     -13.279  -4.808   1.474  1.00  0.00     0.173 A 
ATOM     67  C   UNL     1     -14.776  -3.367   2.682  1.00  0.00     0.173 A 
ATOM     68  F   UNL     1     -12.186  -5.583   1.412  1.00  0.00    -0.203 F 
ATOM     69  C   UNL     1     -14.014  -4.592   0.311  1.00  0.00     0.198 A 
ATOM     70  C   UNL     1     -15.529  -3.183   1.526  1.00  0.00     0.198 A 
ATOM     71  F   UNL     1     -15.162  -2.747   3.807  1.00  0.00    -0.203 F 
ATOM     72  F   UNL     1     -13.618  -5.149  -0.842  1.00  0.00    -0.200 F 
ATOM     73  C   UNL     1     -15.142  -3.787   0.340  1.00  0.00     0.200 A 
ATOM     74  F   UNL     1     -16.626  -2.413   1.558  1.00  0.00    -0.200 F 
ATOM     75  F   UNL     1     -15.852  -3.586  -0.779  1.00  0.00    -0.200 F 
ENDBRANCH  51  65
BRANCH  52  76
ATOM     76  C   UNL     1      -8.018  -5.109  10.915  1.00  0.00     0.064 A 
ATOM     77  C   UNL     1      -7.606  -6.361  11.396  1.00  0.00     0.173 A 
ATOM     78  C   UNL     1      -7.671  -3.978  11.668  1.00  0.00     0.173 A 
ATOM     79  F   UNL     1      -7.936  -7.476  10.728  1.00  0.00    -0.203 F 
ATOM     80  C   UNL     1      -6.902  -6.478  12.593  1.00  0.00     0.198 A 
ATOM     81  C   UNL     1      -6.939  -4.094  12.849  1.00  0.00     0.198 A 
ATOM     82  F   UNL     1      -8.043  -2.757  11.258  1.00  0.00    -0.203 F 
ATOM     83  F   UNL     1      -6.573  -7.691  13.058  1.00  0.00    -0.200 F 
ATOM     84  C   UNL     1      -6.564  -5.344  13.316  1.00  0.00     0.200 A 
ATOM     85  F   UNL     1      -6.607  -2.995  13.539  1.00  0.00    -0.200 F 
ATOM     86  F   UNL     1      -5.889  -5.458  14.467  1.00  0.00    -0.200 F 
ENDBRANCH  52  76
BRANCH  64  87
ATOM     87  C   UNL     1     -14.430  -7.235   9.168  1.00  0.00     0.064 A 
ATOM     88  C   UNL     1     -15.142  -6.717  10.260  1.00  0.00     0.173 A 
ATOM     89  C   UNL     1     -14.748  -8.531   8.733  1.00  0.00     0.173 A 
ATOM     90  F   UNL     1     -14.870  -5.487  10.722  1.00  0.00    -0.203 F 
ATOM     91  C   UNL     1     -16.110  -7.479  10.909  1.00  0.00     0.198 A 
ATOM     92  C   UNL     1     -15.742  -9.276   9.361  1.00  0.00     0.198 A 
ATOM     93  F   UNL     1     -14.107  -9.070   7.685  1.00  0.00    -0.203 F 
ATOM     94  F   UNL     1     -16.739  -6.985  11.984  1.00  0.00    -0.200 F 
ATOM     95  C   UNL     1     -16.415  -8.754  10.454  1.00  0.00     0.200 A 
ATOM     96  F   UNL     1     -16.048 -10.499   8.907  1.00  0.00    -0.200 F 
ATOM     97  F   UNL     1     -17.354  -9.482  11.075  1.00  0.00    -0.200 F 
ENDBRANCH  64  87
ENDBRANCH  38  39
ENDBRANCH  31  33
ENDBRANCH  30  31
ENDBRANCH  29  30
ENDBRANCH  28  29
ENDBRANCH  27  28
ENDBRANCH  26  27
ENDBRANCH  25  26
ENDBRANCH  24  25
ENDBRANCH   1  24
TORSDOF 24
