REMARK SMILES CS(=O)(=O)c1ccc(C2=NN(c3ccc(C(=O)OCCOCCOCCOC(=O)c4ccc(-c5c6nc(c(-c7c(F)c(F)c(F)c(F)c7F)c7ccc([nH]7)c(-c7c(F)c(F)c(F)c(F)c7F)c7nc(c(-c8c(F)c(F)c(F)c(F)c8F)c8ccc5[nH]8)C=C7)C=C6)cc4)cc3)[C@H](c3ccc(F)cc3)C2)cc1
REMARK SMILES IDX 22 1 21 2 20 3 19 4 18 5 16 6 17 7 15 8 12 9 13 10 94 11
REMARK SMILES IDX 14 12 93 13 11 14 9 15 10 16 103 17 95 18 8 19 5 20 6 21
REMARK SMILES IDX 105 22 7 23 104 24 2 25 1 26 3 27 4 28 96 29 97 30 102 31
REMARK SMILES IDX 98 32 101 33 99 34 100 35 23 36 24 37 25 38 26 39 27 40
REMARK SMILES IDX 28 41 29 42 30 43 31 44 92 45 32 46 91 47 33 48 34 49 35 50
REMARK SMILES IDX 85 51 36 52 90 53 84 54 86 55 37 56 89 57 83 58 82 59 38 61
REMARK SMILES IDX 70 62 50 63 69 64 51 65 54 66 68 67 87 68 52 69 53 70 67 72
REMARK SMILES IDX 88 73 55 74 39 75 40 76 48 77 41 78 42 79 46 80 49 81 43 82
REMARK SMILES IDX 44 83 47 84 45 85 71 86 72 87 80 88 73 89 74 90 78 91 81 92
REMARK SMILES IDX 75 93 76 94 79 95 77 96 56 97 57 98 65 99 58 100 59 101
REMARK SMILES IDX 63 102 66 103 60 104 61 105 64 106 62 107
REMARK H PARENT 86 60 54 71
REMARK Flexibility Score: inf
ROOT
ATOM      1  C   UNL     1       6.669  10.508  -8.869  1.00  0.00     0.188 C 
ENDROOT
BRANCH   1   2
ATOM      2  O   UNL     1       7.217  11.640  -9.524  1.00  0.00    -0.376 OA
BRANCH   2   3
ATOM      3  C   UNL     1       7.881  12.649  -8.777  1.00  0.00     0.202 C 
BRANCH   3   4
ATOM      4  C   UNL     1       7.315  13.182  -7.452  1.00  0.00     0.261 C 
BRANCH   4   5
ATOM      5  O   UNL     1       6.876  12.177  -6.528  1.00  0.00    -0.460 OA
BRANCH   5   6
ATOM      6  C   UNL     1       5.540  12.135  -6.299  1.00  0.00     0.338 C 
ATOM      7  O   UNL     1       4.699  12.896  -6.749  1.00  0.00    -0.246 OA
BRANCH   6   8
ATOM      8  C   UNL     1       5.183  10.921  -5.522  1.00  0.00     0.060 A 
ATOM      9  C   UNL     1       4.312   8.768  -3.944  1.00  0.00     0.060 A 
ATOM     10  C   UNL     1       3.496   9.266  -4.966  1.00  0.00     0.029 A 
ATOM     11  C   UNL     1       5.619   9.264  -3.824  1.00  0.00     0.029 A 
ATOM     12  C   UNL     1       3.926  10.342  -5.748  1.00  0.00     0.018 A 
ATOM     13  C   UNL     1       6.051  10.350  -4.590  1.00  0.00     0.018 A 
BRANCH   9  14
ATOM     14  N   UNL     1       3.793   7.964  -2.923  1.00  0.00    -0.257 N 
ATOM     15  C   UNL     1       2.520   6.383  -2.273  1.00  0.00     0.071 C 
ATOM     16  N   UNL     1       3.406   6.686  -3.173  1.00  0.00    -0.176 NA
ATOM     17  C   UNL     1       2.089   7.508  -1.371  1.00  0.00     0.091 C 
ATOM     18  C   UNL     1       3.035   8.620  -1.839  1.00  0.00     0.144 C 
BRANCH  15  19
ATOM     19  C   UNL     1       1.973   5.023  -2.103  1.00  0.00    -0.002 A 
ATOM     20  C   UNL     1       1.031   2.423  -1.744  1.00  0.00     0.067 A 
ATOM     21  C   UNL     1       2.381   2.633  -2.041  1.00  0.00     0.021 A 
ATOM     22  C   UNL     1       0.146   3.502  -1.640  1.00  0.00     0.021 A 
ATOM     23  C   UNL     1       2.849   3.936  -2.224  1.00  0.00     0.011 A 
ATOM     24  C   UNL     1       0.623   4.808  -1.808  1.00  0.00     0.011 A 
BRANCH  20  25
ATOM     25  S   UNL     1       0.429   0.755  -1.586  1.00  0.00     0.175 S 
ATOM     26  C   UNL     1       1.038   0.225  -0.008  1.00  0.00     0.163 C 
ATOM     27  O   UNL     1       1.084  -0.032  -2.613  1.00  0.00    -0.224 OA
ATOM     28  O   UNL     1      -1.018   0.818  -1.502  1.00  0.00    -0.224 OA
ENDBRANCH  20  25
ENDBRANCH  15  19
BRANCH  18  29
ATOM     29  C   UNL     1       3.989   9.240  -0.820  1.00  0.00    -0.023 A 
ATOM     30  C   UNL     1       4.405   8.597   0.355  1.00  0.00     0.009 A 
ATOM     31  C   UNL     1       4.560  10.497  -1.121  1.00  0.00     0.009 A 
ATOM     32  C   UNL     1       5.373   9.179   1.182  1.00  0.00     0.039 A 
ATOM     33  C   UNL     1       5.564  11.051  -0.325  1.00  0.00     0.039 A 
ATOM     34  C   UNL     1       5.960  10.386   0.823  1.00  0.00     0.123 A 
ATOM     35  F   UNL     1       6.927  10.907   1.588  1.00  0.00    -0.207 F 
ENDBRANCH  18  29
ENDBRANCH   9  14
ENDBRANCH   6   8
ENDBRANCH   5   6
ENDBRANCH   4   5
ENDBRANCH   3   4
ENDBRANCH   2   3
ENDBRANCH   1   2
BRANCH   1  36
ATOM     36  C   UNL     1       7.537   9.655  -7.921  1.00  0.00     0.188 C 
BRANCH  36  37
ATOM     37  O   UNL     1       8.818  10.145  -7.619  1.00  0.00    -0.376 OA
BRANCH  37  38
ATOM     38  C   UNL     1       9.913   9.861  -8.472  1.00  0.00     0.202 C 
BRANCH  38  39
ATOM     39  C   UNL     1       9.852   9.106  -9.817  1.00  0.00     0.261 C 
BRANCH  39  40
ATOM     40  O   UNL     1       8.574   8.756 -10.353  1.00  0.00    -0.460 OA
BRANCH  40  41
ATOM     41  C   UNL     1       8.208   7.460 -10.217  1.00  0.00     0.338 C 
ATOM     42  O   UNL     1       8.828   6.566  -9.657  1.00  0.00    -0.246 OA
BRANCH  41  43
ATOM     43  C   UNL     1       6.831   7.304 -10.715  1.00  0.00     0.060 A 
ATOM     44  C   UNL     1       5.800   7.036  -9.804  1.00  0.00     0.016 A 
ATOM     45  C   UNL     1       6.566   7.395 -12.082  1.00  0.00     0.016 A 
ATOM     46  C   UNL     1       4.497   6.840 -10.262  1.00  0.00     0.010 A 
ATOM     47  C   UNL     1       5.266   7.175 -12.541  1.00  0.00     0.010 A 
ATOM     48  C   UNL     1       4.231   6.870 -11.637  1.00  0.00    -0.014 A 
BRANCH  48  49
ATOM     49  C   UNL     1       2.919   6.410 -12.154  1.00  0.00     0.031 A 
ATOM     50  C   UNL     1       2.811   5.004 -12.677  1.00  0.00     0.074 A 
ATOM     51  C   UNL     1       1.848   7.221 -12.171  1.00  0.00     0.049 A 
ATOM     52  N   UNL     1       1.809   4.410 -13.272  1.00  0.00    -0.248 NA
ATOM     53  C   UNL     1       4.002   4.156 -12.509  1.00  0.00     0.031 C 
ATOM     54  C   UNL     1       1.812   8.586 -11.652  1.00  0.00     0.029 A 
ATOM     55  N   UNL     1       0.583   7.013 -12.664  1.00  0.00    -0.354 N 
ATOM     56  C   UNL     1       2.251   3.125 -13.559  1.00  0.00     0.074 A 
ATOM     57  C   UNL     1       3.621   3.035 -13.102  1.00  0.00     0.031 C 
ATOM     58  C   UNL     1       0.590   9.102 -11.871  1.00  0.00     0.029 A 
ATOM     59  C   UNL     1      -0.228   8.118 -12.581  1.00  0.00     0.049 A 
ATOM     60  H   UNL     1       0.286   6.154 -13.042  1.00  0.00     0.167 HD
ATOM     61  C   UNL     1       1.573   2.110 -14.145  1.00  0.00     0.037 A 
ATOM     62  C   UNL     1      -1.474   8.318 -13.052  1.00  0.00     0.037 A 
ATOM     63  C   UNL     1       0.212   2.206 -14.602  1.00  0.00     0.049 A 
ATOM     64  C   UNL     1      -2.178   7.199 -13.782  1.00  0.00     0.074 A 
ATOM     65  C   UNL     1      -0.568   1.230 -15.198  1.00  0.00     0.029 A 
ATOM     66  N   UNL     1      -0.569   3.350 -14.523  1.00  0.00    -0.354 N 
ATOM     67  N   UNL     1      -1.765   5.981 -14.033  1.00  0.00    -0.248 NA
ATOM     68  C   UNL     1      -3.527   7.487 -14.294  1.00  0.00     0.031 C 
ATOM     69  C   UNL     1      -1.800   1.801 -15.535  1.00  0.00     0.029 A 
ATOM     70  C   UNL     1      -1.813   3.112 -15.086  1.00  0.00     0.049 A 
ATOM     71  H   UNL     1      -0.282   4.204 -14.126  1.00  0.00     0.167 HD
ATOM     72  C   UNL     1      -2.811   5.347 -14.693  1.00  0.00     0.074 A 
ATOM     73  C   UNL     1      -3.883   6.314 -14.798  1.00  0.00     0.031 C 
ATOM     74  C   UNL     1      -2.879   4.079 -15.167  1.00  0.00     0.037 A 
BRANCH  61  75
ATOM     75  C   UNL     1       2.306   0.817 -14.354  1.00  0.00     0.064 A 
ATOM     76  C   UNL     1       2.665  -0.013 -13.281  1.00  0.00     0.173 A 
ATOM     77  C   UNL     1       2.627   0.386 -15.651  1.00  0.00     0.173 A 
ATOM     78  F   UNL     1       2.394   0.358 -12.021  1.00  0.00    -0.203 F 
ATOM     79  C   UNL     1       3.343  -1.210 -13.497  1.00  0.00     0.198 A 
ATOM     80  C   UNL     1       3.275  -0.827 -15.865  1.00  0.00     0.198 A 
ATOM     81  F   UNL     1       2.304   1.139 -16.714  1.00  0.00    -0.203 F 
ATOM     82  F   UNL     1       3.722  -1.961 -12.453  1.00  0.00    -0.200 F 
ATOM     83  C   UNL     1       3.640  -1.620 -14.788  1.00  0.00     0.200 A 
ATOM     84  F   UNL     1       3.548  -1.228 -17.114  1.00  0.00    -0.200 F 
ATOM     85  F   UNL     1       4.285  -2.776 -14.994  1.00  0.00    -0.200 F 
ENDBRANCH  61  75
BRANCH  62  86
ATOM     86  C   UNL     1      -2.141   9.635 -12.869  1.00  0.00     0.064 A 
ATOM     87  C   UNL     1      -3.276   9.764 -12.056  1.00  0.00     0.173 A 
ATOM     88  C   UNL     1      -1.680  10.784 -13.528  1.00  0.00     0.173 A 
ATOM     89  F   UNL     1      -3.774   8.689 -11.427  1.00  0.00    -0.203 F 
ATOM     90  C   UNL     1      -3.938  10.984 -11.929  1.00  0.00     0.198 A 
ATOM     91  C   UNL     1      -2.323  12.011 -13.374  1.00  0.00     0.198 A 
ATOM     92  F   UNL     1      -0.602  10.717 -14.323  1.00  0.00    -0.203 F 
ATOM     93  F   UNL     1      -5.054  11.064 -11.191  1.00  0.00    -0.200 F 
ATOM     94  C   UNL     1      -3.457  12.108 -12.583  1.00  0.00     0.200 A 
ATOM     95  F   UNL     1      -1.849  13.097 -14.001  1.00  0.00    -0.200 F 
ATOM     96  F   UNL     1      -4.094  13.280 -12.461  1.00  0.00    -0.200 F 
ENDBRANCH  62  86
BRANCH  74  97
ATOM     97  C   UNL     1      -4.172   3.635 -15.793  1.00  0.00     0.064 A 
ATOM     98  C   UNL     1      -4.600   4.118 -17.038  1.00  0.00     0.173 A 
ATOM     99  C   UNL     1      -4.969   2.669 -15.157  1.00  0.00     0.173 A 
ATOM    100  F   UNL     1      -3.884   5.052 -17.683  1.00  0.00    -0.203 F 
ATOM    101  C   UNL     1      -5.788   3.670 -17.611  1.00  0.00     0.198 A 
ATOM    102  C   UNL     1      -6.137   2.197 -15.749  1.00  0.00     0.198 A 
ATOM    103  F   UNL     1      -4.603   2.166 -13.968  1.00  0.00    -0.203 F 
ATOM    104  F   UNL     1      -6.201   4.181 -18.779  1.00  0.00    -0.200 F 
ATOM    105  C   UNL     1      -6.550   2.704 -16.971  1.00  0.00     0.200 A 
ATOM    106  F   UNL     1      -6.862   1.251 -15.136  1.00  0.00    -0.200 F 
ATOM    107  F   UNL     1      -7.686   2.264 -17.530  1.00  0.00    -0.200 F 
ENDBRANCH  74  97
ENDBRANCH  48  49
ENDBRANCH  41  43
ENDBRANCH  40  41
ENDBRANCH  39  40
ENDBRANCH  38  39
ENDBRANCH  37  38
ENDBRANCH  36  37
ENDBRANCH   1  36
TORSDOF 21
