REMARK SMILES CNc1nc(C(=O)N2C[C@@H](C(=O)OCCOCCOCCOC(=O)c3ccc(-c4c5nc(c(-c6c(F)c(F)c(F)c(F)c6F)c6ccc([nH]6)c(-c6c(F)c(F)c(F)c(F)c6F)c6nc(c(-c7c(F)c(F)c(F)c(F)c7F)c7ccc4[nH]7)C=C6)C=C5)cc3)[C@H](c3ccccc3C)C2)cs1
REMARK SMILES IDX 17 1 16 2 15 3 14 4 13 5 11 6 12 7 10 8 8 9 9 10 96 11 88 12
REMARK SMILES IDX 6 13 7 14 5 15 3 16 4 17 98 18 97 19 2 20 1 21 89 23 90 24
REMARK SMILES IDX 94 25 91 26 93 27 95 28 92 29 18 30 19 31 20 32 21 33 22 34
REMARK SMILES IDX 23 35 24 36 25 37 26 38 87 39 27 40 86 41 28 42 29 43 30 44
REMARK SMILES IDX 80 45 31 46 85 47 79 48 81 49 32 50 84 51 78 52 77 53 33 55
REMARK SMILES IDX 65 56 45 57 64 58 46 59 49 60 63 61 82 62 47 63 48 64 62 66
REMARK SMILES IDX 83 67 50 68 34 69 35 70 43 71 36 72 37 73 41 74 44 75 38 76
REMARK SMILES IDX 39 77 42 78 40 79 66 80 67 81 75 82 68 83 69 84 73 85 76 86
REMARK SMILES IDX 70 87 71 88 74 89 72 90 51 91 52 92 60 93 53 94 54 95 58 96
REMARK SMILES IDX 61 97 55 98 56 99 59 100 57 101
REMARK H PARENT 2 22 81 54 49 65
REMARK Flexibility Score: inf
ROOT
ATOM      1  C   UNL     1      -6.680  -0.395   3.273  1.00  0.00     0.188 C 
ENDROOT
BRANCH   1   2
ATOM      2  O   UNL     1      -6.753   0.972   3.641  1.00  0.00    -0.376 OA
BRANCH   2   3
ATOM      3  C   UNL     1      -5.521   1.611   3.959  1.00  0.00     0.202 C 
BRANCH   3   4
ATOM      4  C   UNL     1      -4.553   1.752   2.784  1.00  0.00     0.261 C 
BRANCH   4   5
ATOM      5  O   UNL     1      -4.137   0.469   2.279  1.00  0.00    -0.463 OA
BRANCH   5   6
ATOM      6  C   UNL     1      -2.934  -0.031   2.654  1.00  0.00     0.311 C 
ATOM      7  O   UNL     1      -2.179   0.513   3.447  1.00  0.00    -0.252 OA
BRANCH   6   8
ATOM      8  C   UNL     1      -2.660  -1.367   1.995  1.00  0.00     0.128 C 
ATOM      9  N   UNL     1      -3.183  -2.728   0.189  1.00  0.00    -0.336 N 
ATOM     10  C   UNL     1      -3.104  -1.329   0.541  1.00  0.00     0.136 C 
ATOM     11  C   UNL     1      -3.698  -3.486   1.311  1.00  0.00     0.129 C 
ATOM     12  C   UNL     1      -3.407  -2.602   2.574  1.00  0.00     0.055 C 
BRANCH   9  13
ATOM     13  C   UNL     1      -2.770  -3.317  -0.995  1.00  0.00     0.273 C 
ATOM     14  O   UNL     1      -3.187  -4.417  -1.358  1.00  0.00    -0.267 OA
BRANCH  13  15
ATOM     15  C   UNL     1      -1.742  -2.588  -1.748  1.00  0.00     0.141 A 
ATOM     16  C   UNL     1      -0.006  -1.189  -1.912  1.00  0.00     0.183 A 
ATOM     17  N   UNL     1      -0.838  -1.762  -1.084  1.00  0.00    -0.215 NA
ATOM     18  S   UNL     1      -0.203  -1.662  -3.553  1.00  0.00    -0.105 S 
ATOM     19  C   UNL     1      -1.500  -2.698  -3.103  1.00  0.00     0.102 A 
BRANCH  16  20
ATOM     20  N   UNL     1       0.934  -0.307  -1.526  1.00  0.00    -0.365 N 
ATOM     21  C   UNL     1       1.056   0.067  -0.136  1.00  0.00     0.142 C 
ATOM     22  H   UNL     1       1.542   0.085  -2.194  1.00  0.00     0.162 HD
ENDBRANCH  16  20
ENDBRANCH  13  15
ENDBRANCH   9  13
BRANCH  12  23
ATOM     23  C   UNL     1      -2.683  -3.266   3.751  1.00  0.00    -0.039 A 
ATOM     24  C   UNL     1      -1.902  -4.423   3.551  1.00  0.00     0.004 A 
ATOM     25  C   UNL     1      -2.759  -2.765   5.077  1.00  0.00    -0.048 A 
ATOM     26  C   UNL     1      -1.262  -5.081   4.608  1.00  0.00     0.000 A 
ATOM     27  C   UNL     1      -2.081  -3.425   6.124  1.00  0.00     0.004 A 
ATOM     28  C   UNL     1      -3.509  -1.533   5.502  1.00  0.00     0.044 C 
ATOM     29  C   UNL     1      -1.347  -4.580   5.896  1.00  0.00     0.000 A 
ENDBRANCH  12  23
ENDBRANCH   6   8
ENDBRANCH   5   6
ENDBRANCH   4   5
ENDBRANCH   3   4
ENDBRANCH   2   3
ENDBRANCH   1   2
BRANCH   1  30
ATOM     30  C   UNL     1      -6.894  -0.675   1.773  1.00  0.00     0.188 C 
BRANCH  30  31
ATOM     31  O   UNL     1      -7.426   0.337   0.935  1.00  0.00    -0.376 OA
BRANCH  31  32
ATOM     32  C   UNL     1      -8.529   1.093   1.415  1.00  0.00     0.202 C 
BRANCH  32  33
ATOM     33  C   UNL     1      -9.797   0.343   1.856  1.00  0.00     0.261 C 
BRANCH  33  34
ATOM     34  O   UNL     1      -9.574  -0.743   2.779  1.00  0.00    -0.460 OA
BRANCH  34  35
ATOM     35  C   UNL     1      -9.909  -1.977   2.325  1.00  0.00     0.338 C 
ATOM     36  O   UNL     1     -10.440  -2.254   1.263  1.00  0.00    -0.246 OA
BRANCH  35  37
ATOM     37  C   UNL     1      -9.383  -3.025   3.229  1.00  0.00     0.060 A 
ATOM     38  C   UNL     1      -8.413  -3.905   2.727  1.00  0.00     0.016 A 
ATOM     39  C   UNL     1      -9.908  -3.218   4.508  1.00  0.00     0.016 A 
ATOM     40  C   UNL     1      -7.986  -4.995   3.487  1.00  0.00     0.010 A 
ATOM     41  C   UNL     1      -9.499  -4.330   5.259  1.00  0.00     0.010 A 
ATOM     42  C   UNL     1      -8.560  -5.242   4.740  1.00  0.00    -0.014 A 
BRANCH  42  43
ATOM     43  C   UNL     1      -8.306  -6.543   5.414  1.00  0.00     0.031 A 
ATOM     44  C   UNL     1      -9.287  -7.669   5.213  1.00  0.00     0.074 A 
ATOM     45  C   UNL     1      -7.199  -6.746   6.151  1.00  0.00     0.049 A 
ATOM     46  N   UNL     1      -9.284  -8.878   5.717  1.00  0.00    -0.248 NA
ATOM     47  C   UNL     1     -10.421  -7.396   4.315  1.00  0.00     0.031 C 
ATOM     48  C   UNL     1      -6.139  -5.767   6.377  1.00  0.00     0.029 A 
ATOM     49  N   UNL     1      -6.788  -7.856   6.850  1.00  0.00    -0.354 N 
ATOM     50  C   UNL     1     -10.403  -9.511   5.189  1.00  0.00     0.074 A 
ATOM     51  C   UNL     1     -11.082  -8.544   4.354  1.00  0.00     0.031 C 
ATOM     52  C   UNL     1      -5.207  -6.311   7.178  1.00  0.00     0.029 A 
ATOM     53  C   UNL     1      -5.617  -7.667   7.543  1.00  0.00     0.049 A 
ATOM     54  H   UNL     1      -7.285  -8.705   6.854  1.00  0.00     0.167 HD
ATOM     55  C   UNL     1     -10.820 -10.787   5.371  1.00  0.00     0.037 A 
ATOM     56  C   UNL     1      -4.967  -8.488   8.391  1.00  0.00     0.037 A 
ATOM     57  C   UNL     1     -10.158 -11.753   6.208  1.00  0.00     0.049 A 
ATOM     58  C   UNL     1      -5.509  -9.873   8.653  1.00  0.00     0.074 A 
ATOM     59  C   UNL     1     -10.518 -13.064   6.466  1.00  0.00     0.029 A 
ATOM     60  N   UNL     1      -8.998 -11.510   6.926  1.00  0.00    -0.354 N 
ATOM     61  N   UNL     1      -6.561 -10.464   8.143  1.00  0.00    -0.248 NA
ATOM     62  C   UNL     1      -4.763 -10.707   9.609  1.00  0.00     0.031 C 
ATOM     63  C   UNL     1      -9.599 -13.602   7.373  1.00  0.00     0.029 A 
ATOM     64  C   UNL     1      -8.639 -12.642   7.641  1.00  0.00     0.049 A 
ATOM     65  H   UNL     1      -8.502 -10.659   6.928  1.00  0.00     0.167 HD
ATOM     66  C   UNL     1      -6.583 -11.744   8.687  1.00  0.00     0.074 A 
ATOM     67  C   UNL     1      -5.429 -11.850   9.553  1.00  0.00     0.031 C 
ATOM     68  C   UNL     1      -7.480 -12.741   8.489  1.00  0.00     0.037 A 
BRANCH  55  69
ATOM     69  C   UNL     1     -12.066 -11.219   4.656  1.00  0.00     0.064 A 
ATOM     70  C   UNL     1     -12.069 -11.460   3.274  1.00  0.00     0.173 A 
ATOM     71  C   UNL     1     -13.252 -11.455   5.368  1.00  0.00     0.173 A 
ATOM     72  F   UNL     1     -10.964 -11.236   2.548  1.00  0.00    -0.203 F 
ATOM     73  C   UNL     1     -13.218 -11.911   2.629  1.00  0.00     0.198 A 
ATOM     74  C   UNL     1     -14.391 -11.930   4.724  1.00  0.00     0.198 A 
ATOM     75  F   UNL     1     -13.299 -11.244   6.692  1.00  0.00    -0.203 F 
ATOM     76  F   UNL     1     -13.207 -12.107   1.303  1.00  0.00    -0.200 F 
ATOM     77  C   UNL     1     -14.374 -12.155   3.355  1.00  0.00     0.200 A 
ATOM     78  F   UNL     1     -15.504 -12.177   5.429  1.00  0.00    -0.200 F 
ATOM     79  F   UNL     1     -15.474 -12.604   2.736  1.00  0.00    -0.200 F 
ENDBRANCH  55  69
BRANCH  56  80
ATOM     80  C   UNL     1      -3.739  -8.025   9.091  1.00  0.00     0.064 A 
ATOM     81  C   UNL     1      -2.492  -8.614   8.839  1.00  0.00     0.173 A 
ATOM     82  C   UNL     1      -3.803  -7.031  10.079  1.00  0.00     0.173 A 
ATOM     83  F   UNL     1      -2.385  -9.591   7.927  1.00  0.00    -0.203 F 
ATOM     84  C   UNL     1      -1.363  -8.250   9.571  1.00  0.00     0.198 A 
ATOM     85  C   UNL     1      -2.667  -6.647  10.789  1.00  0.00     0.198 A 
ATOM     86  F   UNL     1      -4.972  -6.441  10.366  1.00  0.00    -0.203 F 
ATOM     87  F   UNL     1      -0.198  -8.877   9.357  1.00  0.00    -0.200 F 
ATOM     88  C   UNL     1      -1.451  -7.265  10.543  1.00  0.00     0.200 A 
ATOM     89  F   UNL     1      -2.755  -5.689  11.722  1.00  0.00    -0.200 F 
ATOM     90  F   UNL     1      -0.368  -6.924  11.254  1.00  0.00    -0.200 F 
ENDBRANCH  56  80
BRANCH  68  91
ATOM     91  C   UNL     1      -7.228 -14.047   9.188  1.00  0.00     0.064 A 
ATOM     92  C   UNL     1      -7.380 -14.182  10.576  1.00  0.00     0.173 A 
ATOM     93  C   UNL     1      -6.851 -15.184   8.456  1.00  0.00     0.173 A 
ATOM     94  F   UNL     1      -7.725 -13.123  11.324  1.00  0.00    -0.203 F 
ATOM     95  C   UNL     1      -7.130 -15.398  11.209  1.00  0.00     0.198 A 
ATOM     96  C   UNL     1      -6.633 -16.405   9.088  1.00  0.00     0.198 A 
ATOM     97  F   UNL     1      -6.701 -15.113   7.125  1.00  0.00    -0.203 F 
ATOM     98  F   UNL     1      -7.228 -15.489  12.543  1.00  0.00    -0.200 F 
ATOM     99  C   UNL     1      -6.763 -16.509  10.465  1.00  0.00     0.200 A 
ATOM    100  F   UNL     1      -6.292 -17.481   8.366  1.00  0.00    -0.200 F 
ATOM    101  F   UNL     1      -6.525 -17.678  11.075  1.00  0.00    -0.200 F 
ENDBRANCH  68  91
ENDBRANCH  42  43
ENDBRANCH  35  37
ENDBRANCH  34  35
ENDBRANCH  33  34
ENDBRANCH  32  33
ENDBRANCH  31  32
ENDBRANCH  30  31
ENDBRANCH   1  30
TORSDOF 21
