REMARK SMILES C[C@H](C(=O)OCCOCCOCCOC(=O)c1ccc(-c2c3nc(c(-c4c(F)c(F)c(F)c(F)c4F)c4ccc([nH]4)c(-c4c(F)c(F)c(F)c(F)c4F)c4nc(c(-c5c(F)c(F)c(F)c(F)c5F)c5ccc2[nH]5)C=C4)C=C3)cc1)c1cccc(C(=O)c2ccccc2)c1
REMARK SMILES IDX 9 1 8 2 7 3 6 4 5 5 3 6 4 7 2 8 1 9 80 10 81 11 93 12 82 13
REMARK SMILES IDX 84 14 83 15 85 16 86 17 87 18 88 19 92 20 89 21 91 22 90 23
REMARK SMILES IDX 10 24 11 25 12 26 13 27 14 28 15 29 16 30 17 31 18 32 79 33
REMARK SMILES IDX 19 34 78 35 20 36 21 37 22 38 72 39 23 40 77 41 71 42 73 43
REMARK SMILES IDX 24 44 76 45 70 46 69 47 25 49 57 50 37 51 56 52 38 53 41 54
REMARK SMILES IDX 55 55 74 56 39 57 40 58 54 60 75 61 42 62 26 63 27 64 35 65
REMARK SMILES IDX 28 66 29 67 33 68 36 69 30 70 31 71 34 72 32 73 58 74 59 75
REMARK SMILES IDX 67 76 60 77 61 78 65 79 68 80 62 81 63 82 66 83 64 84 43 85
REMARK SMILES IDX 44 86 52 87 45 88 46 89 50 90 53 91 47 92 48 93 51 94 49 95
REMARK H PARENT 73 48 41 59
REMARK Flexibility Score: inf
ROOT
ATOM      1  C   UNL     1       2.216  -1.520   1.395  1.00  0.00     0.188 C 
ENDROOT
BRANCH   1   2
ATOM      2  O   UNL     1       2.879  -0.771   2.398  1.00  0.00    -0.376 OA
BRANCH   2   3
ATOM      3  C   UNL     1       2.231   0.433   2.816  1.00  0.00     0.202 C 
BRANCH   3   4
ATOM      4  C   UNL     1       1.873   1.443   1.714  1.00  0.00     0.261 C 
BRANCH   4   5
ATOM      5  O   UNL     1       0.910   0.959   0.739  1.00  0.00    -0.463 OA
BRANCH   5   6
ATOM      6  C   UNL     1       1.189   1.275  -0.558  1.00  0.00     0.313 C 
ATOM      7  O   UNL     1       2.177   1.921  -0.902  1.00  0.00    -0.252 OA
BRANCH   6   8
ATOM      8  C   UNL     1       0.235   0.689  -1.603  1.00  0.00     0.126 C 
ATOM      9  C   UNL     1       0.912  -0.505  -2.280  1.00  0.00     0.025 C 
BRANCH   8  10
ATOM     10  C   UNL     1      -1.240   0.517  -1.225  1.00  0.00    -0.033 A 
ATOM     11  C   UNL     1      -1.917   1.671  -0.791  1.00  0.00     0.004 A 
ATOM     12  C   UNL     1      -2.008  -0.654  -1.474  1.00  0.00     0.016 A 
ATOM     13  C   UNL     1      -3.298   1.674  -0.622  1.00  0.00     0.001 A 
ATOM     14  C   UNL     1      -3.407  -0.657  -1.309  1.00  0.00     0.023 A 
ATOM     15  C   UNL     1      -4.035   0.523  -0.886  1.00  0.00     0.012 A 
BRANCH  14  16
ATOM     16  C   UNL     1      -4.332  -1.778  -1.676  1.00  0.00     0.193 C 
ATOM     17  O   UNL     1      -5.468  -1.512  -2.074  1.00  0.00    -0.289 OA
BRANCH  16  18
ATOM     18  C   UNL     1      -4.030  -3.212  -1.536  1.00  0.00     0.022 A 
ATOM     19  C   UNL     1      -3.512  -3.943  -2.608  1.00  0.00     0.012 A 
ATOM     20  C   UNL     1      -4.478  -3.882  -0.388  1.00  0.00     0.012 A 
ATOM     21  C   UNL     1      -3.374  -5.332  -2.495  1.00  0.00     0.001 A 
ATOM     22  C   UNL     1      -4.310  -5.265  -0.268  1.00  0.00     0.001 A 
ATOM     23  C   UNL     1      -3.755  -5.989  -1.321  1.00  0.00     0.000 A 
ENDBRANCH  16  18
ENDBRANCH  14  16
ENDBRANCH   8  10
ENDBRANCH   6   8
ENDBRANCH   5   6
ENDBRANCH   4   5
ENDBRANCH   3   4
ENDBRANCH   2   3
ENDBRANCH   1   2
BRANCH   1  24
ATOM     24  C   UNL     1       0.827  -2.076   1.732  1.00  0.00     0.188 C 
BRANCH  24  25
ATOM     25  O   UNL     1       0.137  -1.416   2.783  1.00  0.00    -0.376 OA
BRANCH  25  26
ATOM     26  C   UNL     1      -1.248  -1.733   2.916  1.00  0.00     0.202 C 
BRANCH  26  27
ATOM     27  C   UNL     1      -1.536  -3.195   3.326  1.00  0.00     0.261 C 
BRANCH  27  28
ATOM     28  O   UNL     1      -1.071  -4.229   2.427  1.00  0.00    -0.460 OA
BRANCH  28  29
ATOM     29  C   UNL     1      -1.388  -4.042   1.127  1.00  0.00     0.338 C 
ATOM     30  O   UNL     1      -2.079  -3.141   0.700  1.00  0.00    -0.246 OA
BRANCH  29  31
ATOM     31  C   UNL     1      -0.612  -4.919   0.220  1.00  0.00     0.060 A 
ATOM     32  C   UNL     1      -0.400  -4.431  -1.076  1.00  0.00     0.016 A 
ATOM     33  C   UNL     1      -0.116  -6.172   0.578  1.00  0.00     0.016 A 
ATOM     34  C   UNL     1       0.223  -5.208  -2.040  1.00  0.00     0.010 A 
ATOM     35  C   UNL     1       0.537  -6.950  -0.387  1.00  0.00     0.010 A 
ATOM     36  C   UNL     1       0.679  -6.483  -1.707  1.00  0.00    -0.014 A 
BRANCH  36  37
ATOM     37  C   UNL     1       1.240  -7.333  -2.778  1.00  0.00     0.031 A 
ATOM     38  C   UNL     1       0.401  -8.418  -3.384  1.00  0.00     0.074 A 
ATOM     39  C   UNL     1       2.465  -7.069  -3.265  1.00  0.00     0.049 A 
ATOM     40  N   UNL     1       0.702  -9.268  -4.332  1.00  0.00    -0.248 NA
ATOM     41  C   UNL     1      -0.971  -8.549  -2.872  1.00  0.00     0.031 C 
ATOM     42  C   UNL     1       3.332  -5.979  -2.817  1.00  0.00     0.029 A 
ATOM     43  N   UNL     1       3.191  -7.700  -4.241  1.00  0.00    -0.354 N 
ATOM     44  C   UNL     1      -0.446 -10.021  -4.541  1.00  0.00     0.074 A 
ATOM     45  C   UNL     1      -1.444  -9.544  -3.607  1.00  0.00     0.031 C 
ATOM     46  C   UNL     1       4.486  -6.034  -3.500  1.00  0.00     0.029 A 
ATOM     47  C   UNL     1       4.455  -7.188  -4.394  1.00  0.00     0.049 A 
ATOM     48  H   UNL     1       2.840  -8.446  -4.779  1.00  0.00     0.167 HD
ATOM     49  C   UNL     1      -0.643 -11.022  -5.431  1.00  0.00     0.037 A 
ATOM     50  C   UNL     1       5.485  -7.634  -5.136  1.00  0.00     0.037 A 
ATOM     51  C   UNL     1       0.371 -11.524  -6.320  1.00  0.00     0.049 A 
ATOM     52  C   UNL     1       5.290  -8.847  -6.004  1.00  0.00     0.074 A 
ATOM     53  C   UNL     1       0.286 -12.561  -7.232  1.00  0.00     0.029 A 
ATOM     54  N   UNL     1       1.668 -11.034  -6.390  1.00  0.00    -0.354 N 
ATOM     55  N   UNL     1       4.207  -9.562  -6.193  1.00  0.00    -0.248 NA
ATOM     56  C   UNL     1       6.460  -9.317  -6.757  1.00  0.00     0.031 C 
ATOM     57  C   UNL     1       1.548 -12.737  -7.811  1.00  0.00     0.029 A 
ATOM     58  C   UNL     1       2.404 -11.773  -7.301  1.00  0.00     0.049 A 
ATOM     59  H   UNL     1       2.013 -10.273  -5.870  1.00  0.00     0.167 HD
ATOM     60  C   UNL     1       4.557 -10.552  -7.101  1.00  0.00     0.074 A 
ATOM     61  C   UNL     1       5.951 -10.338  -7.433  1.00  0.00     0.031 C 
ATOM     62  C   UNL     1       3.792 -11.547  -7.615  1.00  0.00     0.037 A 
BRANCH  49  63
ATOM     63  C   UNL     1      -1.993 -11.674  -5.447  1.00  0.00     0.064 A 
ATOM     64  C   UNL     1      -3.115 -11.033  -5.993  1.00  0.00     0.173 A 
ATOM     65  C   UNL     1      -2.161 -12.969  -4.933  1.00  0.00     0.173 A 
ATOM     66  F   UNL     1      -3.010  -9.786  -6.478  1.00  0.00    -0.203 F 
ATOM     67  C   UNL     1      -4.359 -11.659  -6.011  1.00  0.00     0.198 A 
ATOM     68  C   UNL     1      -3.401 -13.600  -4.972  1.00  0.00     0.198 A 
ATOM     69  F   UNL     1      -1.120 -13.622  -4.396  1.00  0.00    -0.203 F 
ATOM     70  F   UNL     1      -5.426 -11.014  -6.503  1.00  0.00    -0.200 F 
ATOM     71  C   UNL     1      -4.499 -12.944  -5.506  1.00  0.00     0.200 A 
ATOM     72  F   UNL     1      -3.533 -14.843  -4.489  1.00  0.00    -0.200 F 
ATOM     73  F   UNL     1      -5.696 -13.546  -5.526  1.00  0.00    -0.200 F 
ENDBRANCH  49  63
BRANCH  50  74
ATOM     74  C   UNL     1       6.803  -6.958  -5.038  1.00  0.00     0.064 A 
ATOM     75  C   UNL     1       7.334  -6.233  -6.112  1.00  0.00     0.173 A 
ATOM     76  C   UNL     1       7.555  -7.019  -3.854  1.00  0.00     0.173 A 
ATOM     77  F   UNL     1       6.664  -6.167  -7.271  1.00  0.00    -0.203 F 
ATOM     78  C   UNL     1       8.571  -5.600  -6.008  1.00  0.00     0.198 A 
ATOM     79  C   UNL     1       8.778  -6.363  -3.742  1.00  0.00     0.198 A 
ATOM     80  F   UNL     1       7.091  -7.704  -2.798  1.00  0.00    -0.203 F 
ATOM     81  F   UNL     1       9.075  -4.942  -7.061  1.00  0.00    -0.200 F 
ATOM     82  C   UNL     1       9.288  -5.658  -4.821  1.00  0.00     0.200 A 
ATOM     83  F   UNL     1       9.459  -6.412  -2.589  1.00  0.00    -0.200 F 
ATOM     84  F   UNL     1      10.472  -5.041  -4.720  1.00  0.00    -0.200 F 
ENDBRANCH  50  74
BRANCH  62  85
ATOM     85  C   UNL     1       4.441 -12.464  -8.610  1.00  0.00     0.064 A 
ATOM     86  C   UNL     1       5.382 -13.427  -8.217  1.00  0.00     0.173 A 
ATOM     87  C   UNL     1       4.088 -12.402  -9.966  1.00  0.00     0.173 A 
ATOM     88  F   UNL     1       5.762 -13.514  -6.933  1.00  0.00    -0.203 F 
ATOM     89  C   UNL     1       5.964 -14.279  -9.151  1.00  0.00     0.198 A 
ATOM     90  C   UNL     1       4.652 -13.275 -10.893  1.00  0.00     0.198 A 
ATOM     91  F   UNL     1       3.188 -11.503 -10.391  1.00  0.00    -0.203 F 
ATOM     92  F   UNL     1       6.895 -15.161  -8.761  1.00  0.00    -0.200 F 
ATOM     93  C   UNL     1       5.594 -14.207 -10.486  1.00  0.00     0.200 A 
ATOM     94  F   UNL     1       4.284 -13.213 -12.180  1.00  0.00    -0.200 F 
ATOM     95  F   UNL     1       6.152 -15.033 -11.382  1.00  0.00    -0.200 F 
ENDBRANCH  62  85
ENDBRANCH  36  37
ENDBRANCH  29  31
ENDBRANCH  28  29
ENDBRANCH  27  28
ENDBRANCH  26  27
ENDBRANCH  25  26
ENDBRANCH  24  25
ENDBRANCH   1  24
TORSDOF 20
