REMARK SMILES CC(C)(C)[N@H+](CC(=O)OCCOCCOCCOC(=O)c1ccc(-c2c3nc(c(-c4c(F)c(F)c(F)c(F)c4F)c4ccc([nH]4)c(-c4c(F)c(F)c(F)c(F)c4F)c4nc(c(-c5c(F)c(F)c(F)c(F)c5F)c5ccc2[nH]5)C=C4)C=C3)cc1)C[C@H]1Cc2cc(F)ccc2O1
REMARK SMILES IDX 13 1 12 2 11 3 10 4 9 5 7 6 8 7 6 8 5 9 2 11 1 12 3 13 4 14
REMARK SMILES IDX 84 15 85 16 86 17 94 18 87 19 93 20 88 21 92 22 89 23 91 24
REMARK SMILES IDX 90 25 14 26 15 27 16 28 17 29 18 30 19 31 20 32 21 33 22 34
REMARK SMILES IDX 83 35 23 36 82 37 24 38 25 39 26 40 76 41 27 42 81 43 75 44
REMARK SMILES IDX 77 45 28 46 80 47 74 48 73 49 29 51 61 52 41 53 60 54 42 55
REMARK SMILES IDX 45 56 59 57 78 58 43 59 44 60 58 62 79 63 46 64 30 65 31 66
REMARK SMILES IDX 39 67 32 68 33 69 37 70 40 71 34 72 35 73 38 74 36 75 62 76
REMARK SMILES IDX 63 77 71 78 64 79 65 80 69 81 72 82 66 83 67 84 70 85 68 86
REMARK SMILES IDX 47 87 48 88 56 89 49 90 50 91 54 92 57 93 51 94 52 95 55 96
REMARK SMILES IDX 53 97
REMARK H PARENT 5 10 77 50 45 61
REMARK Flexibility Score: inf
ROOT
ATOM      1  C   UNL     1       4.389   3.639   3.544  1.00  0.00     0.188 C 
ENDROOT
BRANCH   1   2
ATOM      2  O   UNL     1       5.255   4.312   2.642  1.00  0.00    -0.376 OA
BRANCH   2   3
ATOM      3  C   UNL     1       4.837   4.367   1.276  1.00  0.00     0.202 C 
BRANCH   3   4
ATOM      4  C   UNL     1       4.476   3.024   0.626  1.00  0.00     0.261 C 
BRANCH   4   5
ATOM      5  O   UNL     1       3.351   2.385   1.271  1.00  0.00    -0.459 OA
BRANCH   5   6
ATOM      6  C   UNL     1       3.411   1.029   1.353  1.00  0.00     0.361 C 
ATOM      7  O   UNL     1       4.303   0.349   0.850  1.00  0.00    -0.245 OA
BRANCH   6   8
ATOM      8  C   UNL     1       2.348   0.412   2.268  1.00  0.00     0.387 C 
BRANCH   8   9
ATOM      9  N   UNL     1       0.937   0.896   2.145  1.00  0.00    -0.318 N 
ATOM     10  H   UNL     1       0.923   1.913   2.229  1.00  0.00     0.349 HD
BRANCH   9  11
ATOM     11  C   UNL     1       0.332   0.757   0.774  1.00  0.00     0.090 C 
ATOM     12  C   UNL     1       0.988  -0.310  -0.135  1.00  0.00     0.078 C 
ATOM     13  C   UNL     1       0.453   2.140   0.089  1.00  0.00     0.078 C 
ATOM     14  C   UNL     1      -1.177   0.425   0.740  1.00  0.00     0.078 C 
ENDBRANCH   9  11
BRANCH   9  15
ATOM     15  C   UNL     1       0.141   0.335   3.293  1.00  0.00     0.309 C 
BRANCH  15  16
ATOM     16  C   UNL     1      -1.081   1.185   3.742  1.00  0.00     0.232 C 
ATOM     17  C   UNL     1      -2.447   0.480   3.724  1.00  0.00     0.090 C 
ATOM     18  O   UNL     1      -0.959   1.628   5.136  1.00  0.00    -0.484 OA
ATOM     19  C   UNL     1      -3.165   1.496   4.537  1.00  0.00     0.001 A 
ATOM     20  C   UNL     1      -2.240   2.076   5.393  1.00  0.00     0.123 A 
ATOM     21  C   UNL     1      -4.465   1.956   4.482  1.00  0.00     0.047 A 
ATOM     22  C   UNL     1      -2.585   3.078   6.278  1.00  0.00     0.050 A 
ATOM     23  C   UNL     1      -4.798   3.037   5.298  1.00  0.00     0.123 A 
ATOM     24  C   UNL     1      -3.879   3.594   6.196  1.00  0.00     0.043 A 
ATOM     25  F   UNL     1      -6.019   3.581   5.197  1.00  0.00    -0.207 F 
ENDBRANCH  15  16
ENDBRANCH   9  15
ENDBRANCH   8   9
ENDBRANCH   6   8
ENDBRANCH   5   6
ENDBRANCH   4   5
ENDBRANCH   3   4
ENDBRANCH   2   3
ENDBRANCH   1   2
BRANCH   1  26
ATOM     26  C   UNL     1       2.971   4.198   3.727  1.00  0.00     0.188 C 
BRANCH  26  27
ATOM     27  O   UNL     1       2.503   5.058   2.696  1.00  0.00    -0.376 OA
BRANCH  27  28
ATOM     28  C   UNL     1       1.147   5.483   2.853  1.00  0.00     0.202 C 
BRANCH  28  29
ATOM     29  C   UNL     1       0.971   6.530   3.974  1.00  0.00     0.261 C 
BRANCH  29  30
ATOM     30  O   UNL     1       1.277   6.032   5.298  1.00  0.00    -0.460 OA
BRANCH  30  31
ATOM     31  C   UNL     1       0.478   5.007   5.680  1.00  0.00     0.338 C 
ATOM     32  O   UNL     1      -0.524   4.660   5.097  1.00  0.00    -0.246 OA
BRANCH  31  33
ATOM     33  C   UNL     1       1.091   4.235   6.791  1.00  0.00     0.060 A 
ATOM     34  C   UNL     1       1.313   2.868   6.594  1.00  0.00     0.016 A 
ATOM     35  C   UNL     1       1.347   4.798   8.038  1.00  0.00     0.016 A 
ATOM     36  C   UNL     1       1.693   2.042   7.653  1.00  0.00     0.010 A 
ATOM     37  C   UNL     1       1.774   3.973   9.095  1.00  0.00     0.010 A 
ATOM     38  C   UNL     1       1.918   2.581   8.925  1.00  0.00    -0.014 A 
BRANCH  38  39
ATOM     39  C   UNL     1       2.237   1.682  10.073  1.00  0.00     0.031 A 
ATOM     40  C   UNL     1       1.260   1.527  11.212  1.00  0.00     0.074 A 
ATOM     41  C   UNL     1       3.375   0.960  10.095  1.00  0.00     0.049 A 
ATOM     42  N   UNL     1       1.402   0.894  12.352  1.00  0.00    -0.248 NA
ATOM     43  C   UNL     1      -0.052   2.168  11.042  1.00  0.00     0.031 C 
ATOM     44  C   UNL     1       4.385   0.940   9.039  1.00  0.00     0.029 A 
ATOM     45  N   UNL     1       3.871   0.097  11.045  1.00  0.00    -0.354 N 
ATOM     46  C   UNL     1       0.217   1.092  13.049  1.00  0.00     0.074 A 
ATOM     47  C   UNL     1      -0.632   1.909  12.206  1.00  0.00     0.031 C 
ATOM     48  C   UNL     1       5.373   0.101   9.391  1.00  0.00     0.029 A 
ATOM     49  C   UNL     1       5.100  -0.426  10.726  1.00  0.00     0.049 A 
ATOM     50  H   UNL     1       3.390  -0.124  11.875  1.00  0.00     0.167 HD
ATOM     51  C   UNL     1      -0.135   0.635  14.276  1.00  0.00     0.037 A 
ATOM     52  C   UNL     1       5.934  -1.211  11.437  1.00  0.00     0.037 A 
ATOM     53  C   UNL     1       0.685  -0.209  15.109  1.00  0.00     0.049 A 
ATOM     54  C   UNL     1       5.547  -1.655  12.823  1.00  0.00     0.074 A 
ATOM     55  C   UNL     1       0.405  -0.716  16.368  1.00  0.00     0.029 A 
ATOM     56  N   UNL     1       1.942  -0.682  14.764  1.00  0.00    -0.354 N 
ATOM     57  N   UNL     1       4.447  -1.420  13.493  1.00  0.00    -0.248 NA
ATOM     58  C   UNL     1       6.530  -2.468  13.554  1.00  0.00     0.031 C 
ATOM     59  C   UNL     1       1.508  -1.460  16.802  1.00  0.00     0.029 A 
ATOM     60  C   UNL     1       2.455  -1.461  15.792  1.00  0.00     0.049 A 
ATOM     61  H   UNL     1       2.403  -0.492  13.915  1.00  0.00     0.167 HD
ATOM     62  C   UNL     1       4.593  -2.074  14.710  1.00  0.00     0.074 A 
ATOM     63  C   UNL     1       5.882  -2.732  14.679  1.00  0.00     0.031 C 
ATOM     64  C   UNL     1       3.735  -2.121  15.758  1.00  0.00     0.037 A 
BRANCH  51  65
ATOM     65  C   UNL     1      -1.464   1.072  14.823  1.00  0.00     0.064 A 
ATOM     66  C   UNL     1      -2.674   0.564  14.329  1.00  0.00     0.173 A 
ATOM     67  C   UNL     1      -1.522   1.984  15.889  1.00  0.00     0.173 A 
ATOM     68  F   UNL     1      -2.675  -0.301  13.304  1.00  0.00    -0.203 F 
ATOM     69  C   UNL     1      -3.894   0.972  14.866  1.00  0.00     0.198 A 
ATOM     70  C   UNL     1      -2.740   2.366  16.442  1.00  0.00     0.198 A 
ATOM     71  F   UNL     1      -0.392   2.493  16.404  1.00  0.00    -0.203 F 
ATOM     72  F   UNL     1      -5.040   0.507  14.350  1.00  0.00    -0.200 F 
ATOM     73  C   UNL     1      -3.925   1.866  15.926  1.00  0.00     0.200 A 
ATOM     74  F   UNL     1      -2.767   3.220  17.476  1.00  0.00    -0.200 F 
ATOM     75  F   UNL     1      -5.099   2.251  16.446  1.00  0.00    -0.200 F 
ENDBRANCH  51  65
BRANCH  52  76
ATOM     76  C   UNL     1       7.247  -1.608  10.864  1.00  0.00     0.064 A 
ATOM     77  C   UNL     1       7.517  -2.942  10.528  1.00  0.00     0.173 A 
ATOM     78  C   UNL     1       8.268  -0.666  10.667  1.00  0.00     0.173 A 
ATOM     79  F   UNL     1       6.584  -3.885  10.729  1.00  0.00    -0.203 F 
ATOM     80  C   UNL     1       8.762  -3.321  10.031  1.00  0.00     0.198 A 
ATOM     81  C   UNL     1       9.502  -1.041  10.141  1.00  0.00     0.198 A 
ATOM     82  F   UNL     1       8.063   0.622  10.980  1.00  0.00    -0.203 F 
ATOM     83  F   UNL     1       9.011  -4.610   9.766  1.00  0.00    -0.200 F 
ATOM     84  C   UNL     1       9.751  -2.369   9.831  1.00  0.00     0.200 A 
ATOM     85  F   UNL     1      10.450  -0.116   9.940  1.00  0.00    -0.200 F 
ATOM     86  F   UNL     1      10.947  -2.733   9.351  1.00  0.00    -0.200 F 
ENDBRANCH  52  76
BRANCH  64  87
ATOM     87  C   UNL     1       4.142  -2.951  16.943  1.00  0.00     0.064 A 
ATOM     88  C   UNL     1       5.179  -2.556  17.802  1.00  0.00     0.173 A 
ATOM     89  C   UNL     1       3.483  -4.158  17.225  1.00  0.00     0.173 A 
ATOM     90  F   UNL     1       5.852  -1.420  17.570  1.00  0.00    -0.203 F 
ATOM     91  C   UNL     1       5.565  -3.357  18.875  1.00  0.00     0.198 A 
ATOM     92  C   UNL     1       3.852  -4.941  18.316  1.00  0.00     0.198 A 
ATOM     93  F   UNL     1       2.480  -4.580  16.441  1.00  0.00    -0.203 F 
ATOM     94  F   UNL     1       6.598  -2.988  19.646  1.00  0.00    -0.200 F 
ATOM     95  C   UNL     1       4.899  -4.545  19.134  1.00  0.00     0.200 A 
ATOM     96  F   UNL     1       3.199  -6.083  18.571  1.00  0.00    -0.200 F 
ATOM     97  F   UNL     1       5.275  -5.316  20.164  1.00  0.00    -0.200 F 
ENDBRANCH  64  87
ENDBRANCH  38  39
ENDBRANCH  31  33
ENDBRANCH  30  31
ENDBRANCH  29  30
ENDBRANCH  28  29
ENDBRANCH  27  28
ENDBRANCH  26  27
ENDBRANCH   1  26
TORSDOF 21
