REMARK SMILES O=C(CCOc1cc(-c2ccncc2)nc(-c2ccc(C(F)(F)F)cc2)n1)OCCOCCOCCOC(=O)c1ccc(-c2c3nc(c(-c4c(F)c(F)c(F)c(F)c4F)c4ccc([nH]4)c(-c4c(F)c(F)c(F)c(F)c4F)c4nc(c(-c5c(F)c(F)c(F)c(F)c5F)c5ccc2[nH]5)C=C4)C=C3)cc1
REMARK SMILES IDX 31 1 30 2 29 3 28 4 2 5 1 6 3 7 4 8 5 9 6 10 7 11 27 12 8 13
REMARK SMILES IDX 16 14 15 15 9 16 10 17 14 18 11 19 13 20 12 21 17 22 18 23
REMARK SMILES IDX 26 24 19 25 25 26 20 27 21 28 22 29 23 30 24 31 32 32 33 33
REMARK SMILES IDX 34 34 35 35 36 36 37 37 38 38 39 39 40 40 41 41 102 42 42 43
REMARK SMILES IDX 101 44 43 45 44 46 45 47 95 48 46 49 100 50 94 51 96 52
REMARK SMILES IDX 47 53 99 54 93 55 92 56 48 58 80 59 60 60 79 61 61 62 64 63
REMARK SMILES IDX 78 64 97 65 62 66 63 67 77 69 98 70 65 71 49 72 50 73 58 74
REMARK SMILES IDX 51 75 52 76 56 77 59 78 53 79 54 80 57 81 55 82 81 83 82 84
REMARK SMILES IDX 90 85 83 86 84 87 88 88 91 89 85 90 86 91 89 92 87 93 66 94
REMARK SMILES IDX 67 95 75 96 68 97 69 98 73 99 76 100 70 101 71 102 74 103
REMARK SMILES IDX 72 104
REMARK H PARENT 96 57 64 68
REMARK Flexibility Score: inf
ROOT
ATOM      1  O   UNL     1       5.016   1.535   1.926  1.00  0.00    -0.376 OA
ENDROOT
BRANCH   1   2
ATOM      2  C   UNL     1       5.485   0.554   1.016  1.00  0.00     0.202 C 
BRANCH   2   3
ATOM      3  C   UNL     1       4.732   0.415  -0.306  1.00  0.00     0.261 C 
BRANCH   3   4
ATOM      4  O   UNL     1       3.304   0.202  -0.185  1.00  0.00    -0.463 OA
BRANCH   4   5
ATOM      5  C   UNL     1       2.634  -0.830   0.359  1.00  0.00     0.309 C 
ATOM      6  O   UNL     1       1.420  -0.753   0.541  1.00  0.00    -0.252 OA
BRANCH   5   7
ATOM      7  C   UNL     1       3.363  -2.095   0.645  1.00  0.00     0.164 C 
BRANCH   7   8
ATOM      8  C   UNL     1       3.074  -3.103  -0.453  1.00  0.00     0.243 C 
BRANCH   8   9
ATOM      9  O   UNL     1       3.880  -2.911  -1.611  1.00  0.00    -0.477 OA
BRANCH   9  10
ATOM     10  C   UNL     1       3.581  -1.933  -2.508  1.00  0.00     0.217 A 
ATOM     11  C   UNL     1       2.432  -1.187  -2.571  1.00  0.00     0.097 A 
ATOM     12  N   UNL     1       4.603  -1.713  -3.332  1.00  0.00    -0.193 NA
ATOM     13  C   UNL     1       2.492  -0.040  -3.347  1.00  0.00     0.078 A 
ATOM     14  C   UNL     1       4.463  -0.733  -4.238  1.00  0.00     0.163 A 
ATOM     15  N   UNL     1       3.496   0.193  -4.216  1.00  0.00    -0.228 NA
BRANCH  13  16
ATOM     16  C   UNL     1       1.520   1.046  -3.165  1.00  0.00     0.003 A 
ATOM     17  C   UNL     1       1.934   2.275  -2.633  1.00  0.00     0.030 A 
ATOM     18  C   UNL     1       0.158   0.877  -3.429  1.00  0.00     0.030 A 
ATOM     19  C   UNL     1       0.990   3.256  -2.380  1.00  0.00     0.111 A 
ATOM     20  C   UNL     1      -0.711   1.924  -3.154  1.00  0.00     0.111 A 
ATOM     21  N   UNL     1      -0.326   3.108  -2.632  1.00  0.00    -0.265 NA
ENDBRANCH  13  16
BRANCH  14  22
ATOM     22  C   UNL     1       5.152  -0.981  -5.508  1.00  0.00     0.019 A 
ATOM     23  C   UNL     1       5.228  -2.315  -5.960  1.00  0.00     0.012 A 
ATOM     24  C   UNL     1       5.659   0.026  -6.337  1.00  0.00     0.012 A 
ATOM     25  C   UNL     1       5.759  -2.639  -7.200  1.00  0.00     0.014 A 
ATOM     26  C   UNL     1       6.212  -0.298  -7.585  1.00  0.00     0.014 A 
ATOM     27  C   UNL     1       6.251  -1.630  -8.030  1.00  0.00     0.056 A 
BRANCH  27  28
ATOM     28  C   UNL     1       6.781  -2.015  -9.386  1.00  0.00     0.416 C 
ATOM     29  F   UNL     1       7.798  -2.918  -9.307  1.00  0.00    -0.166 F 
ATOM     30  F   UNL     1       5.827  -2.600 -10.164  1.00  0.00    -0.166 F 
ATOM     31  F   UNL     1       7.263  -0.967 -10.107  1.00  0.00    -0.166 F 
ENDBRANCH  27  28
ENDBRANCH  14  22
ENDBRANCH   9  10
ENDBRANCH   8   9
ENDBRANCH   7   8
ENDBRANCH   5   7
ENDBRANCH   4   5
ENDBRANCH   3   4
ENDBRANCH   2   3
ENDBRANCH   1   2
BRANCH   1  32
ATOM     32  C   UNL     1       3.638   1.454   2.277  1.00  0.00     0.188 C 
BRANCH  32  33
ATOM     33  C   UNL     1       2.761   2.426   1.461  1.00  0.00     0.188 C 
BRANCH  33  34
ATOM     34  O   UNL     1       3.546   3.262   0.611  1.00  0.00    -0.376 OA
BRANCH  34  35
ATOM     35  C   UNL     1       3.806   4.565   1.133  1.00  0.00     0.202 C 
BRANCH  35  36
ATOM     36  C   UNL     1       4.681   4.644   2.399  1.00  0.00     0.261 C 
BRANCH  36  37
ATOM     37  O   UNL     1       4.173   3.988   3.581  1.00  0.00    -0.460 OA
BRANCH  37  38
ATOM     38  C   UNL     1       2.958   4.334   4.056  1.00  0.00     0.338 C 
ATOM     39  O   UNL     1       2.257   5.254   3.672  1.00  0.00    -0.246 OA
BRANCH  38  40
ATOM     40  C   UNL     1       2.495   3.251   4.968  1.00  0.00     0.060 A 
ATOM     41  C   UNL     1       1.215   2.711   4.775  1.00  0.00     0.016 A 
ATOM     42  C   UNL     1       3.336   2.710   5.949  1.00  0.00     0.016 A 
ATOM     43  C   UNL     1       0.745   1.688   5.606  1.00  0.00     0.010 A 
ATOM     44  C   UNL     1       2.861   1.697   6.792  1.00  0.00     0.010 A 
ATOM     45  C   UNL     1       1.541   1.225   6.664  1.00  0.00    -0.014 A 
BRANCH  45  46
ATOM     46  C   UNL     1       0.882   0.546   7.812  1.00  0.00     0.031 A 
ATOM     47  C   UNL     1       0.424   1.426   8.950  1.00  0.00     0.074 A 
ATOM     48  C   UNL     1       0.641  -0.777   7.853  1.00  0.00     0.049 A 
ATOM     49  N   UNL     1      -0.190   1.112  10.062  1.00  0.00    -0.248 NA
ATOM     50  C   UNL     1       0.706   2.865   8.809  1.00  0.00     0.031 C 
ATOM     51  C   UNL     1       0.988  -1.739   6.812  1.00  0.00     0.029 A 
ATOM     52  N   UNL     1       0.035  -1.538   8.826  1.00  0.00    -0.354 N 
ATOM     53  C   UNL     1      -0.360   2.310  10.746  1.00  0.00     0.074 A 
ATOM     54  C   UNL     1       0.250   3.349   9.950  1.00  0.00     0.031 C 
ATOM     55  C   UNL     1       0.588  -2.965   7.201  1.00  0.00     0.029 A 
ATOM     56  C   UNL     1      -0.025  -2.877   8.527  1.00  0.00     0.049 A 
ATOM     57  H   UNL     1      -0.323  -1.157   9.660  1.00  0.00     0.167 HD
ATOM     58  C   UNL     1      -0.982   2.534  11.927  1.00  0.00     0.037 A 
ATOM     59  C   UNL     1      -0.516  -3.907   9.247  1.00  0.00     0.037 A 
ATOM     60  C   UNL     1      -1.594   1.509  12.724  1.00  0.00     0.049 A 
ATOM     61  C   UNL     1      -1.144  -3.642  10.596  1.00  0.00     0.074 A 
ATOM     62  C   UNL     1      -2.268   1.637  13.925  1.00  0.00     0.029 A 
ATOM     63  N   UNL     1      -1.597   0.160  12.403  1.00  0.00    -0.354 N 
ATOM     64  N   UNL     1      -1.337  -2.503  11.216  1.00  0.00    -0.248 NA
ATOM     65  C   UNL     1      -1.630  -4.814  11.342  1.00  0.00     0.031 C 
ATOM     66  C   UNL     1      -2.628   0.358  14.360  1.00  0.00     0.029 A 
ATOM     67  C   UNL     1      -2.236  -0.559  13.398  1.00  0.00     0.049 A 
ATOM     68  H   UNL     1      -1.203  -0.228  11.588  1.00  0.00     0.167 HD
ATOM     69  C   UNL     1      -2.003  -2.814  12.397  1.00  0.00     0.074 A 
ATOM     70  C   UNL     1      -2.186  -4.250  12.405  1.00  0.00     0.031 C 
ATOM     71  C   UNL     1      -2.428  -1.987  13.384  1.00  0.00     0.037 A 
BRANCH  58  72
ATOM     72  C   UNL     1      -0.995   3.946  12.437  1.00  0.00     0.064 A 
ATOM     73  C   UNL     1      -1.755   4.951  11.819  1.00  0.00     0.173 A 
ATOM     74  C   UNL     1      -0.232   4.296  13.561  1.00  0.00     0.173 A 
ATOM     75  F   UNL     1      -2.483   4.673  10.727  1.00  0.00    -0.203 F 
ATOM     76  C   UNL     1      -1.724   6.261  12.289  1.00  0.00     0.198 A 
ATOM     77  C   UNL     1      -0.230   5.600  14.047  1.00  0.00     0.198 A 
ATOM     78  F   UNL     1       0.515   3.373  14.186  1.00  0.00    -0.203 F 
ATOM     79  F   UNL     1      -2.409   7.218  11.646  1.00  0.00    -0.200 F 
ATOM     80  C   UNL     1      -0.968   6.583  13.406  1.00  0.00     0.200 A 
ATOM     81  F   UNL     1       0.494   5.907  15.132  1.00  0.00    -0.200 F 
ATOM     82  F   UNL     1      -0.941   7.844  13.858  1.00  0.00    -0.200 F 
ENDBRANCH  58  72
BRANCH  59  83
ATOM     83  C   UNL     1      -0.451  -5.297   8.715  1.00  0.00     0.064 A 
ATOM     84  C   UNL     1      -1.618  -5.997   8.375  1.00  0.00     0.173 A 
ATOM     85  C   UNL     1       0.771  -5.972   8.584  1.00  0.00     0.173 A 
ATOM     86  F   UNL     1      -2.816  -5.410   8.514  1.00  0.00    -0.203 F 
ATOM     87  C   UNL     1      -1.567  -7.322   7.944  1.00  0.00     0.198 A 
ATOM     88  C   UNL     1       0.825  -7.287   8.126  1.00  0.00     0.198 A 
ATOM     89  F   UNL     1       1.918  -5.354   8.904  1.00  0.00    -0.203 F 
ATOM     90  F   UNL     1      -2.701  -7.984   7.678  1.00  0.00    -0.200 F 
ATOM     91  C   UNL     1      -0.345  -7.965   7.815  1.00  0.00     0.200 A 
ATOM     92  F   UNL     1       2.008  -7.902   7.994  1.00  0.00    -0.200 F 
ATOM     93  F   UNL     1      -0.295  -9.238   7.401  1.00  0.00    -0.200 F 
ENDBRANCH  59  83
BRANCH  71  94
ATOM     94  C   UNL     1      -3.186  -2.598  14.529  1.00  0.00     0.064 A 
ATOM     95  C   UNL     1      -2.562  -3.417  15.481  1.00  0.00     0.173 A 
ATOM     96  C   UNL     1      -4.553  -2.324  14.697  1.00  0.00     0.173 A 
ATOM     97  F   UNL     1      -1.260  -3.718  15.363  1.00  0.00    -0.203 F 
ATOM     98  C   UNL     1      -3.284  -3.965  16.539  1.00  0.00     0.198 A 
ATOM     99  C   UNL     1      -5.264  -2.846  15.774  1.00  0.00     0.198 A 
ATOM    100  F   UNL     1      -5.198  -1.537  13.822  1.00  0.00    -0.203 F 
ATOM    101  F   UNL     1      -2.678  -4.789  17.405  1.00  0.00    -0.200 F 
ATOM    102  C   UNL     1      -4.632  -3.674  16.688  1.00  0.00     0.200 A 
ATOM    103  F   UNL     1      -6.562  -2.548  15.926  1.00  0.00    -0.200 F 
ATOM    104  F   UNL     1      -5.324  -4.198  17.709  1.00  0.00    -0.200 F 
ENDBRANCH  71  94
ENDBRANCH  45  46
ENDBRANCH  38  40
ENDBRANCH  37  38
ENDBRANCH  36  37
ENDBRANCH  35  36
ENDBRANCH  34  35
ENDBRANCH  33  34
ENDBRANCH  32  33
ENDBRANCH   1  32
TORSDOF 23
