REMARK SMILES O=C(N[C@@H](Cc1c[nH]c2ccccc12)C(=O)N[C@@H](CS)C(=O)N[C@@H](CO)C(=O)OCCOCCOCCOC(=O)c1ccc(-c2c3nc(c(-c4c(F)c(F)c(F)c(F)c4F)c4ccc([nH]4)c(-c4c(F)c(F)c(F)c(F)c4F)c4nc(c(-c5c(F)c(F)c(F)c(F)c5F)c5ccc2[nH]5)C=C4)C=C3)cc1)c1ccc(F)cc1
REMARK SMILES IDX 31 1 30 2 29 3 27 4 28 5 24 6 23 7 21 8 22 9 18 11 17 12
REMARK SMILES IDX 15 13 16 14 4 16 3 17 1 18 2 19 104 21 105 22 110 23 106 24
REMARK SMILES IDX 109 25 107 26 108 27 5 28 6 29 7 30 14 31 8 32 9 33 13 34
REMARK SMILES IDX 10 36 12 37 11 38 19 39 20 40 25 42 26 43 32 45 33 46 34 47
REMARK SMILES IDX 35 48 36 49 37 50 38 51 39 52 40 53 41 54 42 55 103 56 43 57
REMARK SMILES IDX 102 58 44 59 45 60 46 61 96 62 47 63 101 64 95 65 97 66
REMARK SMILES IDX 48 67 100 68 94 69 93 70 49 72 81 73 61 74 80 75 62 76 65 77
REMARK SMILES IDX 79 78 98 79 63 80 64 81 78 83 99 84 66 85 50 86 51 87 59 88
REMARK SMILES IDX 52 89 53 90 57 91 60 92 54 93 55 94 58 95 56 96 82 97 83 98
REMARK SMILES IDX 91 99 84 100 85 101 89 102 92 103 86 104 87 105 90 106
REMARK SMILES IDX 88 107 67 108 68 109 76 110 69 111 70 112 74 113 77 114
REMARK SMILES IDX 71 115 72 116 75 117 73 118
REMARK H PARENT 23 10 17 15 3 20 8 35 20 41 26 44 97 71 65 82
REMARK Flexibility Score: inf
ROOT
ATOM      1  C   UNL     1       2.597   6.491   8.662  1.00  0.00     0.202 C 
ENDROOT
BRANCH   1   2
ATOM      2  C   UNL     1       3.858   5.674   8.963  1.00  0.00     0.261 C 
BRANCH   2   3
ATOM      3  O   UNL     1       4.526   5.175   7.785  1.00  0.00    -0.462 OA
BRANCH   3   4
ATOM      4  C   UNL     1       5.076   3.936   7.915  1.00  0.00     0.331 C 
ATOM      5  O   UNL     1       5.069   3.279   8.952  1.00  0.00    -0.250 OA
BRANCH   4   6
ATOM      6  C   UNL     1       5.676   3.384   6.610  1.00  0.00     0.218 C 
BRANCH   6   7
ATOM      7  N   UNL     1       5.550   4.218   5.410  1.00  0.00    -0.339 N 
ATOM      8  C   UNL     1       5.614   3.785   4.120  1.00  0.00     0.244 C 
ATOM      9  O   UNL     1       6.471   4.313   3.406  1.00  0.00    -0.273 OA
ATOM     10  H   UNL     1       5.404   5.182   5.549  1.00  0.00     0.164 HD
BRANCH   8  11
ATOM     11  C   UNL     1       4.689   2.672   3.558  1.00  0.00     0.181 C 
BRANCH  11  12
ATOM     12  N   UNL     1       5.447   1.520   3.100  1.00  0.00    -0.342 N 
ATOM     13  C   UNL     1       5.527   0.930   1.879  1.00  0.00     0.243 C 
ATOM     14  O   UNL     1       6.346   0.006   1.791  1.00  0.00    -0.273 OA
ATOM     15  H   UNL     1       5.998   1.093   3.795  1.00  0.00     0.164 HD
BRANCH  13  16
ATOM     16  C   UNL     1       4.628   1.274   0.659  1.00  0.00     0.176 C 
BRANCH  16  17
ATOM     17  N   UNL     1       3.226   0.914   0.868  1.00  0.00    -0.340 N 
ATOM     18  O   UNL     1       1.276  -0.098   0.391  1.00  0.00    -0.269 OA
ATOM     19  C   UNL     1       2.497  -0.088   0.274  1.00  0.00     0.251 C 
ATOM     20  H   UNL     1       2.738   1.464   1.522  1.00  0.00     0.164 HD
BRANCH  19  21
ATOM     21  C   UNL     1       3.174  -1.136  -0.524  1.00  0.00     0.040 A 
ATOM     22  C   UNL     1       4.160  -1.945   0.057  1.00  0.00     0.017 A 
ATOM     23  C   UNL     1       2.795  -1.335  -1.857  1.00  0.00     0.017 A 
ATOM     24  C   UNL     1       4.806  -2.913  -0.714  1.00  0.00     0.040 A 
ATOM     25  C   UNL     1       3.442  -2.309  -2.623  1.00  0.00     0.040 A 
ATOM     26  C   UNL     1       4.447  -3.082  -2.047  1.00  0.00     0.123 A 
ATOM     27  F   UNL     1       5.074  -4.006  -2.786  1.00  0.00    -0.207 F 
ENDBRANCH  19  21
ENDBRANCH  16  17
BRANCH  16  28
ATOM     28  C   UNL     1       4.863   2.596  -0.097  1.00  0.00     0.072 C 
BRANCH  28  29
ATOM     29  C   UNL     1       4.214   3.885   0.340  1.00  0.00    -0.020 A 
ATOM     30  C   UNL     1       2.915   4.130   0.753  1.00  0.00     0.087 A 
ATOM     31  C   UNL     1       4.853   5.174   0.276  1.00  0.00     0.003 A 
ATOM     32  N   UNL     1       2.801   5.461   1.077  1.00  0.00    -0.361 N 
ATOM     33  C   UNL     1       3.978   6.113   0.817  1.00  0.00     0.046 A 
ATOM     34  C   UNL     1       6.099   5.627  -0.204  1.00  0.00     0.010 A 
ATOM     35  H   UNL     1       1.991   5.884   1.443  1.00  0.00     0.166 HD
ATOM     36  C   UNL     1       4.310   7.462   0.982  1.00  0.00     0.026 A 
ATOM     37  C   UNL     1       6.429   6.983  -0.098  1.00  0.00     0.001 A 
ATOM     38  C   UNL     1       5.556   7.881   0.508  1.00  0.00     0.002 A 
ENDBRANCH  28  29
ENDBRANCH  16  28
ENDBRANCH  13  16
ENDBRANCH  11  12
BRANCH  11  39
ATOM     39  C   UNL     1       3.376   2.368   4.294  1.00  0.00     0.101 C 
BRANCH  39  40
ATOM     40  S   UNL     1       3.164   0.716   5.038  1.00  0.00    -0.177 SA
ATOM     41  H   UNL     1       3.142  -0.225   4.056  1.00  0.00     0.102 HD
ENDBRANCH  39  40
ENDBRANCH  11  39
ENDBRANCH   8  11
ENDBRANCH   6   7
BRANCH   6  42
ATOM     42  C   UNL     1       7.162   3.086   6.864  1.00  0.00     0.193 C 
BRANCH  42  43
ATOM     43  O   UNL     1       7.926   4.293   6.827  1.00  0.00    -0.394 OA
ATOM     44  H   UNL     1       7.838   4.705   5.954  1.00  0.00     0.210 HD
ENDBRANCH  42  43
ENDBRANCH   6  42
ENDBRANCH   4   6
ENDBRANCH   3   4
ENDBRANCH   2   3
ENDBRANCH   1   2
BRANCH   1  45
ATOM     45  O   UNL     1       1.583   5.861   7.882  1.00  0.00    -0.376 OA
BRANCH  45  46
ATOM     46  C   UNL     1       1.937   5.343   6.604  1.00  0.00     0.188 C 
BRANCH  46  47
ATOM     47  C   UNL     1       2.724   6.248   5.635  1.00  0.00     0.188 C 
BRANCH  47  48
ATOM     48  O   UNL     1       2.902   7.557   6.124  1.00  0.00    -0.376 OA
BRANCH  48  49
ATOM     49  C   UNL     1       2.295   8.617   5.413  1.00  0.00     0.202 C 
BRANCH  49  50
ATOM     50  C   UNL     1       0.764   8.623   5.271  1.00  0.00     0.261 C 
BRANCH  50  51
ATOM     51  O   UNL     1       0.122   7.374   4.957  1.00  0.00    -0.460 OA
BRANCH  51  52
ATOM     52  C   UNL     1       0.168   6.959   3.680  1.00  0.00     0.338 C 
ATOM     53  O   UNL     1       0.801   7.456   2.752  1.00  0.00    -0.246 OA
BRANCH  52  54
ATOM     54  C   UNL     1      -0.508   5.657   3.570  1.00  0.00     0.060 A 
ATOM     55  C   UNL     1       0.275   4.527   3.308  1.00  0.00     0.016 A 
ATOM     56  C   UNL     1      -1.898   5.555   3.626  1.00  0.00     0.016 A 
ATOM     57  C   UNL     1      -0.327   3.304   3.033  1.00  0.00     0.010 A 
ATOM     58  C   UNL     1      -2.503   4.322   3.359  1.00  0.00     0.010 A 
ATOM     59  C   UNL     1      -1.722   3.200   3.026  1.00  0.00    -0.014 A 
BRANCH  59  60
ATOM     60  C   UNL     1      -2.356   1.961   2.517  1.00  0.00     0.031 A 
ATOM     61  C   UNL     1      -2.948   1.971   1.136  1.00  0.00     0.074 A 
ATOM     62  C   UNL     1      -2.350   0.826   3.239  1.00  0.00     0.049 A 
ATOM     63  N   UNL     1      -3.713   1.089   0.549  1.00  0.00    -0.248 NA
ATOM     64  C   UNL     1      -2.630   3.143   0.302  1.00  0.00     0.031 C 
ATOM     65  C   UNL     1      -1.697   0.649   4.535  1.00  0.00     0.029 A 
ATOM     66  N   UNL     1      -2.915  -0.397   2.977  1.00  0.00    -0.354 N 
ATOM     67  C   UNL     1      -3.985   1.606  -0.710  1.00  0.00     0.074 A 
ATOM     68  C   UNL     1      -3.315   2.885  -0.802  1.00  0.00     0.031 C 
ATOM     69  C   UNL     1      -1.907  -0.609   4.960  1.00  0.00     0.029 A 
ATOM     70  C   UNL     1      -2.762  -1.301   3.998  1.00  0.00     0.049 A 
ATOM     71  H   UNL     1      -3.384  -0.606   2.137  1.00  0.00     0.167 HD
ATOM     72  C   UNL     1      -4.732   1.060  -1.698  1.00  0.00     0.037 A 
ATOM     73  C   UNL     1      -3.297  -2.527   4.157  1.00  0.00     0.037 A 
ATOM     74  C   UNL     1      -5.376  -0.223  -1.604  1.00  0.00     0.049 A 
ATOM     75  C   UNL     1      -4.207  -3.073   3.085  1.00  0.00     0.074 A 
ATOM     76  C   UNL     1      -6.219  -0.838  -2.512  1.00  0.00     0.029 A 
ATOM     77  N   UNL     1      -5.224  -1.097  -0.538  1.00  0.00    -0.354 N 
ATOM     78  N   UNL     1      -4.554  -2.538   1.939  1.00  0.00    -0.248 NA
ATOM     79  C   UNL     1      -4.815  -4.389   3.336  1.00  0.00     0.031 C 
ATOM     80  C   UNL     1      -6.601  -2.075  -1.982  1.00  0.00     0.029 A 
ATOM     81  C   UNL     1      -5.962  -2.247  -0.765  1.00  0.00     0.049 A 
ATOM     82  H   UNL     1      -4.674  -0.927   0.260  1.00  0.00     0.167 HD
ATOM     83  C   UNL     1      -5.389  -3.460   1.322  1.00  0.00     0.074 A 
ATOM     84  C   UNL     1      -5.493  -4.594   2.216  1.00  0.00     0.031 C 
ATOM     85  C   UNL     1      -6.020  -3.376   0.126  1.00  0.00     0.037 A 
BRANCH  72  86
ATOM     86  C   UNL     1      -4.931   1.866  -2.944  1.00  0.00     0.064 A 
ATOM     87  C   UNL     1      -3.913   2.022  -3.895  1.00  0.00     0.173 A 
ATOM     88  C   UNL     1      -6.173   2.465  -3.205  1.00  0.00     0.173 A 
ATOM     89  F   UNL     1      -2.701   1.487  -3.681  1.00  0.00    -0.203 F 
ATOM     90  C   UNL     1      -4.127   2.760  -5.056  1.00  0.00     0.198 A 
ATOM     91  C   UNL     1      -6.391   3.181  -4.379  1.00  0.00     0.198 A 
ATOM     92  F   UNL     1      -7.179   2.348  -2.326  1.00  0.00    -0.203 F 
ATOM     93  F   UNL     1      -3.128   2.929  -5.935  1.00  0.00    -0.200 F 
ATOM     94  C   UNL     1      -5.367   3.332  -5.301  1.00  0.00     0.200 A 
ATOM     95  F   UNL     1      -7.592   3.726  -4.616  1.00  0.00    -0.200 F 
ATOM     96  F   UNL     1      -5.573   4.035  -6.423  1.00  0.00    -0.200 F 
ENDBRANCH  72  86
BRANCH  73  97
ATOM     97  C   UNL     1      -3.051  -3.300   5.404  1.00  0.00     0.064 A 
ATOM     98  C   UNL     1      -2.354  -4.516   5.383  1.00  0.00     0.173 A 
ATOM     99  C   UNL     1      -3.559  -2.863   6.637  1.00  0.00     0.173 A 
ATOM    100  F   UNL     1      -1.876  -4.994   4.224  1.00  0.00    -0.203 F 
ATOM    101  C   UNL     1      -2.199  -5.277   6.540  1.00  0.00     0.198 A 
ATOM    102  C   UNL     1      -3.375  -3.608   7.799  1.00  0.00     0.198 A 
ATOM    103  F   UNL     1      -4.242  -1.711   6.714  1.00  0.00    -0.203 F 
ATOM    104  F   UNL     1      -1.584  -6.466   6.480  1.00  0.00    -0.200 F 
ATOM    105  C   UNL     1      -2.705  -4.821   7.748  1.00  0.00     0.200 A 
ATOM    106  F   UNL     1      -3.859  -3.159   8.965  1.00  0.00    -0.200 F 
ATOM    107  F   UNL     1      -2.563  -5.557   8.858  1.00  0.00    -0.200 F 
ENDBRANCH  73  97
BRANCH  85 108
ATOM    108  C   UNL     1      -6.827  -4.560  -0.315  1.00  0.00     0.064 A 
ATOM    109  C   UNL     1      -8.075  -4.852   0.252  1.00  0.00     0.173 A 
ATOM    110  C   UNL     1      -6.369  -5.374  -1.362  1.00  0.00     0.173 A 
ATOM    111  F   UNL     1      -8.548  -4.109   1.263  1.00  0.00    -0.203 F 
ATOM    112  C   UNL     1      -8.828  -5.931  -0.202  1.00  0.00     0.198 A 
ATOM    113  C   UNL     1      -7.136  -6.436  -1.830  1.00  0.00     0.198 A 
ATOM    114  F   UNL     1      -5.184  -5.128  -1.942  1.00  0.00    -0.203 F 
ATOM    115  F   UNL     1     -10.003  -6.216   0.377  1.00  0.00    -0.200 F 
ATOM    116  C   UNL     1      -8.363  -6.716  -1.247  1.00  0.00     0.200 A 
ATOM    117  F   UNL     1      -6.691  -7.186  -2.848  1.00  0.00    -0.200 F 
ATOM    118  F   UNL     1      -9.096  -7.747  -1.690  1.00  0.00    -0.200 F 
ENDBRANCH  85 108
ENDBRANCH  59  60
ENDBRANCH  52  54
ENDBRANCH  51  52
ENDBRANCH  50  51
ENDBRANCH  49  50
ENDBRANCH  48  49
ENDBRANCH  47  48
ENDBRANCH  46  47
ENDBRANCH  45  46
ENDBRANCH   1  45
TORSDOF 29
