REMARK SMILES O=C(CCCC(=O)N1CCC(C2N=c3ccccc3=N2)CC1)OCCOCCOCCOC(=O)c1ccc(-c2c3nc(c(-c4c(F)c(F)c(F)c(F)c4F)c4ccc([nH]4)c(-c4c(F)c(F)c(F)c(F)c4F)c4nc(c(-c5c(F)c(F)c(F)c(F)c5F)c5ccc2[nH]5)C=C4)C=C3)cc1
REMARK SMILES IDX 27 1 26 2 25 3 24 4 23 5 2 6 1 7 3 8 4 9 5 10 6 11 7 12 8 13
REMARK SMILES IDX 9 14 22 15 10 16 21 17 11 18 12 19 13 20 20 21 14 22 19 23
REMARK SMILES IDX 15 24 18 25 16 26 17 27 28 28 29 29 30 30 31 31 32 32 33 33
REMARK SMILES IDX 34 34 35 35 36 36 97 37 37 38 96 39 38 40 39 41 40 42 90 43
REMARK SMILES IDX 41 44 95 45 89 46 91 47 42 48 94 49 88 50 87 51 43 53 75 54
REMARK SMILES IDX 55 55 74 56 56 57 59 58 73 59 92 60 57 61 58 62 72 64 93 65
REMARK SMILES IDX 60 66 44 67 45 68 53 69 46 70 47 71 51 72 54 73 48 74 49 75
REMARK SMILES IDX 52 76 50 77 76 78 77 79 85 80 78 81 79 82 83 83 86 84 80 85
REMARK SMILES IDX 81 86 84 87 82 88 61 89 62 90 70 91 63 92 64 93 68 94 71 95
REMARK SMILES IDX 65 96 66 97 69 98 67 99
REMARK H PARENT 91 52 59 63
REMARK Flexibility Score: inf
ROOT
ATOM      1  C   UNL     1       1.677  -1.521  -0.890  1.00  0.00     0.188 C 
ENDROOT
BRANCH   1   2
ATOM      2  O   UNL     1       3.039  -1.114  -0.764  1.00  0.00    -0.376 OA
BRANCH   2   3
ATOM      3  C   UNL     1       3.813  -1.955   0.102  1.00  0.00     0.202 C 
BRANCH   3   4
ATOM      4  C   UNL     1       3.439  -1.796   1.582  1.00  0.00     0.261 C 
BRANCH   4   5
ATOM      5  O   UNL     1       3.627  -0.425   1.962  1.00  0.00    -0.463 OA
BRANCH   5   6
ATOM      6  C   UNL     1       2.609   0.406   1.641  1.00  0.00     0.305 C 
ATOM      7  O   UNL     1       1.423   0.123   1.762  1.00  0.00    -0.252 OA
BRANCH   6   8
ATOM      8  C   UNL     1       3.094   1.627   0.886  1.00  0.00     0.123 C 
BRANCH   8   9
ATOM      9  C   UNL     1       4.453   2.237   1.245  1.00  0.00     0.022 C 
BRANCH   9  10
ATOM     10  C   UNL     1       5.730   1.402   1.164  1.00  0.00     0.101 C 
BRANCH  10  11
ATOM     11  C   UNL     1       6.574   1.042  -0.061  1.00  0.00     0.222 C 
ATOM     12  O   UNL     1       7.758   0.748   0.162  1.00  0.00    -0.275 OA
ATOM     13  N   UNL     1       6.047   0.831  -1.313  1.00  0.00    -0.343 N 
ATOM     14  C   UNL     1       6.668  -0.197  -2.151  1.00  0.00     0.120 C 
ATOM     15  C   UNL     1       4.967   1.578  -1.937  1.00  0.00     0.120 C 
ATOM     16  C   UNL     1       7.074   0.314  -3.526  1.00  0.00     0.029 C 
ATOM     17  C   UNL     1       5.376   2.126  -3.304  1.00  0.00     0.029 C 
ATOM     18  C   UNL     1       5.894   1.009  -4.221  1.00  0.00     0.039 C 
BRANCH  18  19
ATOM     19  C   UNL     1       6.237   1.528  -5.628  1.00  0.00     0.225 C 
ATOM     20  N   UNL     1       7.311   2.543  -5.541  1.00  0.00    -0.256 NA
ATOM     21  N   UNL     1       6.652   0.387  -6.492  1.00  0.00    -0.256 NA
ATOM     22  C   UNL     1       8.273   1.984  -6.186  1.00  0.00     0.085 A 
ATOM     23  C   UNL     1       7.872   0.689  -6.777  1.00  0.00     0.085 A 
ATOM     24  C   UNL     1       9.644   2.462  -6.346  1.00  0.00     0.030 A 
ATOM     25  C   UNL     1       8.848  -0.075  -7.558  1.00  0.00     0.030 A 
ATOM     26  C   UNL     1      10.489   1.677  -7.027  1.00  0.00     0.002 A 
ATOM     27  C   UNL     1      10.089   0.426  -7.644  1.00  0.00     0.002 A 
ENDBRANCH  18  19
ENDBRANCH  10  11
ENDBRANCH   9  10
ENDBRANCH   8   9
ENDBRANCH   6   8
ENDBRANCH   5   6
ENDBRANCH   4   5
ENDBRANCH   3   4
ENDBRANCH   2   3
ENDBRANCH   1   2
BRANCH   1  28
ATOM     28  C   UNL     1       1.342  -1.986  -2.304  1.00  0.00     0.188 C 
BRANCH  28  29
ATOM     29  O   UNL     1       2.166  -3.051  -2.769  1.00  0.00    -0.376 OA
BRANCH  29  30
ATOM     30  C   UNL     1       3.368  -2.648  -3.436  1.00  0.00     0.202 C 
BRANCH  30  31
ATOM     31  C   UNL     1       3.137  -2.025  -4.818  1.00  0.00     0.261 C 
BRANCH  31  32
ATOM     32  O   UNL     1       2.912  -0.604  -4.698  1.00  0.00    -0.460 OA
BRANCH  32  33
ATOM     33  C   UNL     1       1.790  -0.102  -5.262  1.00  0.00     0.338 C 
ATOM     34  O   UNL     1       0.904  -0.701  -5.838  1.00  0.00    -0.246 OA
BRANCH  33  35
ATOM     35  C   UNL     1       1.777   1.351  -5.014  1.00  0.00     0.060 A 
ATOM     36  C   UNL     1       2.604   2.173  -5.774  1.00  0.00     0.016 A 
ATOM     37  C   UNL     1       0.906   1.904  -4.073  1.00  0.00     0.016 A 
ATOM     38  C   UNL     1       2.584   3.556  -5.569  1.00  0.00     0.010 A 
ATOM     39  C   UNL     1       0.834   3.298  -3.925  1.00  0.00     0.010 A 
ATOM     40  C   UNL     1       1.659   4.145  -4.684  1.00  0.00    -0.014 A 
BRANCH  40  41
ATOM     41  C   UNL     1       1.462   5.629  -4.689  1.00  0.00     0.031 A 
ATOM     42  C   UNL     1       1.642   6.480  -3.458  1.00  0.00     0.074 A 
ATOM     43  C   UNL     1       1.083   6.226  -5.840  1.00  0.00     0.049 A 
ATOM     44  N   UNL     1       1.458   7.773  -3.316  1.00  0.00    -0.248 NA
ATOM     45  C   UNL     1       2.072   5.803  -2.227  1.00  0.00     0.031 C 
ATOM     46  C   UNL     1       0.840   5.531  -7.105  1.00  0.00     0.029 A 
ATOM     47  N   UNL     1       0.848   7.547  -6.142  1.00  0.00    -0.354 N 
ATOM     48  C   UNL     1       1.737   8.062  -1.987  1.00  0.00     0.074 A 
ATOM     49  C   UNL     1       2.075   6.803  -1.353  1.00  0.00     0.031 C 
ATOM     50  C   UNL     1       0.561   6.430  -8.058  1.00  0.00     0.029 A 
ATOM     51  C   UNL     1       0.517   7.759  -7.459  1.00  0.00     0.049 A 
ATOM     52  H   UNL     1       0.911   8.271  -5.479  1.00  0.00     0.167 HD
ATOM     53  C   UNL     1       1.724   9.264  -1.358  1.00  0.00     0.037 A 
ATOM     54  C   UNL     1       0.189   8.885  -8.122  1.00  0.00     0.037 A 
ATOM     55  C   UNL     1       1.407  10.525  -1.986  1.00  0.00     0.049 A 
ATOM     56  C   UNL     1       0.138  10.193  -7.388  1.00  0.00     0.074 A 
ATOM     57  C   UNL     1       1.411  11.792  -1.421  1.00  0.00     0.029 A 
ATOM     58  N   UNL     1       1.031  10.687  -3.311  1.00  0.00    -0.354 N 
ATOM     59  N   UNL     1       0.427  10.448  -6.137  1.00  0.00    -0.248 NA
ATOM     60  C   UNL     1      -0.299  11.368  -8.156  1.00  0.00     0.031 C 
ATOM     61  C   UNL     1       0.987  12.710  -2.386  1.00  0.00     0.029 A 
ATOM     62  C   UNL     1       0.774  12.026  -3.571  1.00  0.00     0.049 A 
ATOM     63  H   UNL     1       0.958   9.959  -3.969  1.00  0.00     0.167 HD
ATOM     64  C   UNL     1       0.221  11.810  -5.970  1.00  0.00     0.074 A 
ATOM     65  C   UNL     1      -0.195  12.334  -7.254  1.00  0.00     0.031 C 
ATOM     66  C   UNL     1       0.359  12.553  -4.846  1.00  0.00     0.037 A 
BRANCH  53  67
ATOM     67  C   UNL     1       2.073   9.303   0.105  1.00  0.00     0.064 A 
ATOM     68  C   UNL     1       3.391   9.127   0.548  1.00  0.00     0.173 A 
ATOM     69  C   UNL     1       1.100   9.640   1.061  1.00  0.00     0.173 A 
ATOM     70  F   UNL     1       4.358   8.804  -0.323  1.00  0.00    -0.203 F 
ATOM     71  C   UNL     1       3.722   9.277   1.893  1.00  0.00     0.198 A 
ATOM     72  C   UNL     1       1.439   9.816   2.400  1.00  0.00     0.198 A 
ATOM     73  F   UNL     1      -0.174   9.836   0.689  1.00  0.00    -0.203 F 
ATOM     74  F   UNL     1       4.985   9.082   2.296  1.00  0.00    -0.200 F 
ATOM     75  C   UNL     1       2.749   9.633   2.815  1.00  0.00     0.200 A 
ATOM     76  F   UNL     1       0.501  10.181   3.285  1.00  0.00    -0.200 F 
ATOM     77  F   UNL     1       3.074   9.801   4.104  1.00  0.00    -0.200 F 
ENDBRANCH  53  67
BRANCH  54  78
ATOM     78  C   UNL     1      -0.118   8.816  -9.575  1.00  0.00     0.064 A 
ATOM     79  C   UNL     1       0.747   9.389 -10.517  1.00  0.00     0.173 A 
ATOM     80  C   UNL     1      -1.261   8.157 -10.051  1.00  0.00     0.173 A 
ATOM     81  F   UNL     1       1.839  10.051 -10.109  1.00  0.00    -0.203 F 
ATOM     82  C   UNL     1       0.477   9.307 -11.881  1.00  0.00     0.198 A 
ATOM     83  C   UNL     1      -1.511   8.047 -11.416  1.00  0.00     0.198 A 
ATOM     84  F   UNL     1      -2.119   7.591  -9.188  1.00  0.00    -0.203 F 
ATOM     85  F   UNL     1       1.301   9.894 -12.761  1.00  0.00    -0.200 F 
ATOM     86  C   UNL     1      -0.645   8.627 -12.330  1.00  0.00     0.200 A 
ATOM     87  F   UNL     1      -2.587   7.372 -11.845  1.00  0.00    -0.200 F 
ATOM     88  F   UNL     1      -0.894   8.534 -13.643  1.00  0.00    -0.200 F 
ENDBRANCH  54  78
BRANCH  66  89
ATOM     89  C   UNL     1       0.077  14.025  -4.945  1.00  0.00     0.064 A 
ATOM     90  C   UNL     1      -1.231  14.513  -5.090  1.00  0.00     0.173 A 
ATOM     91  C   UNL     1       1.117  14.961  -4.840  1.00  0.00     0.173 A 
ATOM     92  F   UNL     1      -2.259  13.660  -5.212  1.00  0.00    -0.203 F 
ATOM     93  C   UNL     1      -1.483  15.882  -5.141  1.00  0.00     0.198 A 
ATOM     94  C   UNL     1       0.858  16.329  -4.862  1.00  0.00     0.198 A 
ATOM     95  F   UNL     1       2.386  14.548  -4.696  1.00  0.00    -0.203 F 
ATOM     96  F   UNL     1      -2.736  16.323  -5.319  1.00  0.00    -0.200 F 
ATOM     97  C   UNL     1      -0.441  16.788  -5.018  1.00  0.00     0.200 A 
ATOM     98  F   UNL     1       1.865  17.203  -4.729  1.00  0.00    -0.200 F 
ATOM     99  F   UNL     1      -0.688  18.105  -5.054  1.00  0.00    -0.200 F 
ENDBRANCH  66  89
ENDBRANCH  40  41
ENDBRANCH  33  35
ENDBRANCH  32  33
ENDBRANCH  31  32
ENDBRANCH  30  31
ENDBRANCH  29  30
ENDBRANCH  28  29
ENDBRANCH   1  28
TORSDOF 21
