REMARK SMILES O=C(CC1(NC(=O)c2ccccc2[N+](=O)[O-])CCC1)OCCOCCOCCOC(=O)c1ccc(-c2c3nc(c(-c4c(F)c(F)c(F)c(F)c4F)c4ccc([nH]4)c(-c4c(F)c(F)c(F)c(F)c4F)c4nc(c(-c5c(F)c(F)c(F)c(F)c5F)c5ccc2[nH]5)C=C4)C=C3)cc1
REMARK SMILES IDX 24 1 23 2 22 3 21 4 20 5 2 6 1 7 3 8 4 9 17 10 19 11 18 12
REMARK SMILES IDX 5 13 6 14 7 16 8 17 9 18 13 19 10 20 12 21 11 22 14 23 15 24
REMARK SMILES IDX 16 25 25 26 26 27 27 28 28 29 29 30 30 31 31 32 32 33 33 34
REMARK SMILES IDX 94 35 34 36 93 37 35 38 36 39 37 40 87 41 38 42 92 43 86 44
REMARK SMILES IDX 88 45 39 46 91 47 85 48 84 49 40 51 72 52 52 53 71 54 53 55
REMARK SMILES IDX 56 56 70 57 89 58 54 59 55 60 69 62 90 63 57 64 41 65 42 66
REMARK SMILES IDX 50 67 43 68 44 69 48 70 51 71 45 72 46 73 49 74 47 75 73 76
REMARK SMILES IDX 74 77 82 78 75 79 76 80 80 81 83 82 77 83 78 84 81 85 79 86
REMARK SMILES IDX 58 87 59 88 67 89 60 90 61 91 65 92 68 93 62 94 63 95 66 96
REMARK SMILES IDX 64 97
REMARK H PARENT 5 15 88 50 56 61
REMARK Flexibility Score: inf
ROOT
ATOM      1  C   UNL     1       3.508  -0.171   2.434  1.00  0.00     0.188 C 
ENDROOT
BRANCH   1   2
ATOM      2  O   UNL     1       4.864   0.219   2.495  1.00  0.00    -0.376 OA
BRANCH   2   3
ATOM      3  C   UNL     1       5.602   0.308   1.285  1.00  0.00     0.202 C 
BRANCH   3   4
ATOM      4  C   UNL     1       5.271   1.574   0.487  1.00  0.00     0.261 C 
BRANCH   4   5
ATOM      5  O   UNL     1       4.399   1.481  -0.664  1.00  0.00    -0.463 OA
BRANCH   5   6
ATOM      6  C   UNL     1       3.217   0.832  -0.657  1.00  0.00     0.308 C 
ATOM      7  O   UNL     1       2.146   1.389  -0.454  1.00  0.00    -0.252 OA
BRANCH   6   8
ATOM      8  C   UNL     1       3.334  -0.639  -0.958  1.00  0.00     0.151 C 
BRANCH   8   9
ATOM      9  C   UNL     1       3.733  -1.045  -2.368  1.00  0.00     0.051 C 
ATOM     10  C   UNL     1       4.757  -0.125  -3.121  1.00  0.00     0.029 C 
ATOM     11  C   UNL     1       4.869  -2.128  -2.328  1.00  0.00     0.029 C 
ATOM     12  C   UNL     1       5.684  -1.320  -3.341  1.00  0.00     0.005 C 
BRANCH   9  13
ATOM     13  N   UNL     1       2.645  -1.501  -3.290  1.00  0.00    -0.346 N 
ATOM     14  C   UNL     1       1.305  -1.791  -3.194  1.00  0.00     0.258 C 
ATOM     15  H   UNL     1       2.978  -1.627  -4.208  1.00  0.00     0.164 HD
ATOM     16  O   UNL     1       0.714  -2.284  -4.152  1.00  0.00    -0.269 OA
BRANCH  14  17
ATOM     17  C   UNL     1       0.531  -1.577  -1.973  1.00  0.00     0.117 A 
ATOM     18  C   UNL     1       0.336  -2.686  -1.132  1.00  0.00     0.021 A 
ATOM     19  C   UNL     1      -0.099  -0.366  -1.672  1.00  0.00     0.282 A 
ATOM     20  C   UNL     1      -0.420  -2.555   0.036  1.00  0.00     0.001 A 
ATOM     21  C   UNL     1      -0.837  -0.230  -0.483  1.00  0.00     0.086 A 
ATOM     22  C   UNL     1      -0.985  -1.325   0.372  1.00  0.00     0.007 A 
BRANCH  19  23
ATOM     23  N   UNL     1      -0.045   0.773  -2.586  1.00  0.00     0.063 N 
ATOM     24  O   UNL     1       0.987   0.953  -3.244  1.00  0.00    -0.258 OA
ATOM     25  O   UNL     1      -1.051   1.496  -2.639  1.00  0.00    -0.258 OA
ENDBRANCH  19  23
ENDBRANCH  14  17
ENDBRANCH   9  13
ENDBRANCH   8   9
ENDBRANCH   6   8
ENDBRANCH   5   6
ENDBRANCH   4   5
ENDBRANCH   3   4
ENDBRANCH   2   3
ENDBRANCH   1   2
BRANCH   1  26
ATOM     26  C   UNL     1       2.675   0.280   3.646  1.00  0.00     0.188 C 
BRANCH  26  27
ATOM     27  O   UNL     1       3.287   1.073   4.650  1.00  0.00    -0.376 OA
BRANCH  27  28
ATOM     28  C   UNL     1       4.520   0.635   5.211  1.00  0.00     0.202 C 
BRANCH  28  29
ATOM     29  C   UNL     1       4.570  -0.764   5.836  1.00  0.00     0.261 C 
BRANCH  29  30
ATOM     30  O   UNL     1       4.262  -1.847   4.932  1.00  0.00    -0.460 OA
BRANCH  30  31
ATOM     31  C   UNL     1       3.167  -2.570   5.273  1.00  0.00     0.338 C 
ATOM     32  O   UNL     1       2.408  -2.372   6.206  1.00  0.00    -0.246 OA
BRANCH  31  33
ATOM     33  C   UNL     1       2.899  -3.646   4.300  1.00  0.00     0.060 A 
ATOM     34  C   UNL     1       1.678  -3.627   3.612  1.00  0.00     0.016 A 
ATOM     35  C   UNL     1       3.716  -4.777   4.259  1.00  0.00     0.016 A 
ATOM     36  C   UNL     1       1.236  -4.769   2.940  1.00  0.00     0.010 A 
ATOM     37  C   UNL     1       3.268  -5.922   3.589  1.00  0.00     0.010 A 
ATOM     38  C   UNL     1       2.003  -5.941   2.971  1.00  0.00    -0.014 A 
BRANCH  38  39
ATOM     39  C   UNL     1       1.391  -7.237   2.576  1.00  0.00     0.031 A 
ATOM     40  C   UNL     1       0.801  -8.110   3.653  1.00  0.00     0.074 A 
ATOM     41  C   UNL     1       1.331  -7.637   1.294  1.00  0.00     0.049 A 
ATOM     42  N   UNL     1       0.335  -9.331   3.576  1.00  0.00    -0.248 NA
ATOM     43  C   UNL     1       0.725  -7.519   4.999  1.00  0.00     0.031 C 
ATOM     44  C   UNL     1       1.781  -6.863   0.142  1.00  0.00     0.029 A 
ATOM     45  N   UNL     1       0.869  -8.814   0.754  1.00  0.00    -0.354 N 
ATOM     46  C   UNL     1      -0.069  -9.661   4.863  1.00  0.00     0.074 A 
ATOM     47  C   UNL     1       0.211  -8.516   5.703  1.00  0.00     0.031 C 
ATOM     48  C   UNL     1       1.591  -7.594  -0.972  1.00  0.00     0.029 A 
ATOM     49  C   UNL     1       1.050  -8.903  -0.603  1.00  0.00     0.049 A 
ATOM     50  H   UNL     1       0.448  -9.525   1.290  1.00  0.00     0.167 HD
ATOM     51  C   UNL     1      -0.621 -10.815   5.310  1.00  0.00     0.037 A 
ATOM     52  C   UNL     1       0.841  -9.937  -1.443  1.00  0.00     0.037 A 
ATOM     53  C   UNL     1      -0.908 -11.957   4.485  1.00  0.00     0.049 A 
ATOM     54  C   UNL     1       0.316 -11.248  -0.908  1.00  0.00     0.074 A 
ATOM     55  C   UNL     1      -1.456 -13.174   4.853  1.00  0.00     0.029 A 
ATOM     56  N   UNL     1      -0.669 -12.023   3.121  1.00  0.00    -0.354 N 
ATOM     57  N   UNL     1      -0.035 -11.565   0.314  1.00  0.00    -0.248 NA
ATOM     58  C   UNL     1       0.171 -12.349  -1.874  1.00  0.00     0.031 C 
ATOM     59  C   UNL     1      -1.511 -13.991   3.719  1.00  0.00     0.029 A 
ATOM     60  C   UNL     1      -1.040 -13.267   2.637  1.00  0.00     0.049 A 
ATOM     61  H   UNL     1      -0.291 -11.294   2.578  1.00  0.00     0.167 HD
ATOM     62  C   UNL     1      -0.466 -12.886   0.259  1.00  0.00     0.074 A 
ATOM     63  C   UNL     1      -0.341 -13.311  -1.118  1.00  0.00     0.031 C 
ATOM     64  C   UNL     1      -0.926 -13.675   1.261  1.00  0.00     0.037 A 
BRANCH  51  65
ATOM     65  C   UNL     1      -0.910 -10.913   6.777  1.00  0.00     0.064 A 
ATOM     66  C   UNL     1      -1.985 -10.231   7.364  1.00  0.00     0.173 A 
ATOM     67  C   UNL     1      -0.107 -11.715   7.602  1.00  0.00     0.173 A 
ATOM     68  F   UNL     1      -2.769  -9.438   6.619  1.00  0.00    -0.203 F 
ATOM     69  C   UNL     1      -2.231 -10.329   8.731  1.00  0.00     0.198 A 
ATOM     70  C   UNL     1      -0.371 -11.830   8.964  1.00  0.00     0.198 A 
ATOM     71  F   UNL     1       0.932 -12.388   7.086  1.00  0.00    -0.203 F 
ATOM     72  F   UNL     1      -3.236  -9.632   9.281  1.00  0.00    -0.200 F 
ATOM     73  C   UNL     1      -1.428 -11.132   9.528  1.00  0.00     0.200 A 
ATOM     74  F   UNL     1       0.401 -12.612   9.730  1.00  0.00    -0.200 F 
ATOM     75  F   UNL     1      -1.667 -11.225  10.844  1.00  0.00    -0.200 F 
ENDBRANCH  51  65
BRANCH  52  76
ATOM     76  C   UNL     1       1.169  -9.801  -2.886  1.00  0.00     0.064 A 
ATOM     77  C   UNL     1       0.161  -9.799  -3.860  1.00  0.00     0.173 A 
ATOM     78  C   UNL     1       2.499  -9.714  -3.322  1.00  0.00     0.173 A 
ATOM     79  F   UNL     1      -1.123  -9.916  -3.493  1.00  0.00    -0.203 F 
ATOM     80  C   UNL     1       0.473  -9.733  -5.217  1.00  0.00     0.198 A 
ATOM     81  C   UNL     1       2.808  -9.621  -4.677  1.00  0.00     0.198 A 
ATOM     82  F   UNL     1       3.500  -9.722  -2.429  1.00  0.00    -0.203 F 
ATOM     83  F   UNL     1      -0.506  -9.786  -6.130  1.00  0.00    -0.200 F 
ATOM     84  C   UNL     1       1.796  -9.638  -5.624  1.00  0.00     0.200 A 
ATOM     85  F   UNL     1       4.087  -9.524  -5.064  1.00  0.00    -0.200 F 
ATOM     86  F   UNL     1       2.095  -9.579  -6.928  1.00  0.00    -0.200 F 
ENDBRANCH  52  76
BRANCH  64  87
ATOM     87  C   UNL     1      -1.370 -15.065   0.908  1.00  0.00     0.064 A 
ATOM     88  C   UNL     1      -0.449 -16.080   0.613  1.00  0.00     0.173 A 
ATOM     89  C   UNL     1      -2.734 -15.399   0.924  1.00  0.00     0.173 A 
ATOM     90  F   UNL     1       0.864 -15.809   0.572  1.00  0.00    -0.203 F 
ATOM     91  C   UNL     1      -0.878 -17.375   0.330  1.00  0.00     0.198 A 
ATOM     92  C   UNL     1      -3.157 -16.700   0.665  1.00  0.00     0.198 A 
ATOM     93  F   UNL     1      -3.654 -14.465   1.207  1.00  0.00    -0.203 F 
ATOM     94  F   UNL     1       0.017 -18.322   0.017  1.00  0.00    -0.200 F 
ATOM     95  C   UNL     1      -2.230 -17.686   0.364  1.00  0.00     0.200 A 
ATOM     96  F   UNL     1      -4.462 -17.000   0.711  1.00  0.00    -0.200 F 
ATOM     97  F   UNL     1      -2.639 -18.935   0.102  1.00  0.00    -0.200 F 
ENDBRANCH  64  87
ENDBRANCH  38  39
ENDBRANCH  31  33
ENDBRANCH  30  31
ENDBRANCH  29  30
ENDBRANCH  28  29
ENDBRANCH  27  28
ENDBRANCH  26  27
ENDBRANCH   1  26
TORSDOF 21
