REMARK SMILES C[C@@H](NS(=O)(=O)c1ccc2c(c1)CCC2)C(=O)OCCOCCOCCOC(=O)c1ccc(-c2c3nc(c(-c4c(F)c(F)c(F)c(F)c4F)c4ccc([nH]4)c(-c4c(F)c(F)c(F)c(F)c4F)c4nc(c(-c5c(F)c(F)c(F)c(F)c5F)c5ccc2[nH]5)C=C4)C=C3)cc1
REMARK SMILES IDX 22 1 21 2 20 3 19 4 18 5 16 6 17 7 2 8 1 9 3 10 4 12 5 13
REMARK SMILES IDX 6 14 7 15 8 16 12 17 9 18 11 19 10 20 13 21 15 22 14 23
REMARK SMILES IDX 23 24 24 25 25 26 26 27 27 28 28 29 29 30 30 31 31 32 92 33
REMARK SMILES IDX 32 34 91 35 33 36 34 37 35 38 85 39 36 40 90 41 84 42 86 43
REMARK SMILES IDX 37 44 89 45 83 46 82 47 38 49 70 50 50 51 69 52 51 53 54 54
REMARK SMILES IDX 68 55 87 56 52 57 53 58 67 60 88 61 55 62 39 63 40 64 48 65
REMARK SMILES IDX 41 66 42 67 46 68 49 69 43 70 44 71 47 72 45 73 71 74 72 75
REMARK SMILES IDX 80 76 73 77 74 78 78 79 81 80 75 81 76 82 79 83 77 84 56 85
REMARK SMILES IDX 57 86 65 87 58 88 59 89 63 90 66 91 60 92 61 93 64 94 62 95
REMARK H PARENT 3 11 86 48 54 59
REMARK Flexibility Score: inf
ROOT
ATOM      1  C   UNL     1      -2.530   1.786   0.626  1.00  0.00     0.188 C 
ENDROOT
BRANCH   1   2
ATOM      2  O   UNL     1      -3.768   1.220   0.238  1.00  0.00    -0.376 OA
BRANCH   2   3
ATOM      3  C   UNL     1      -3.748  -0.000  -0.485  1.00  0.00     0.202 C 
BRANCH   3   4
ATOM      4  C   UNL     1      -2.934  -0.005  -1.766  1.00  0.00     0.261 C 
BRANCH   4   5
ATOM      5  O   UNL     1      -1.535  -0.282  -1.586  1.00  0.00    -0.462 OA
BRANCH   5   6
ATOM      6  C   UNL     1      -0.661   0.668  -2.027  1.00  0.00     0.323 C 
ATOM      7  O   UNL     1      -0.965   1.823  -2.301  1.00  0.00    -0.250 OA
BRANCH   6   8
ATOM      8  C   UNL     1       0.734   0.098  -2.257  1.00  0.00     0.176 C 
ATOM      9  C   UNL     1       1.212  -0.771  -1.096  1.00  0.00     0.038 C 
BRANCH   8  10
ATOM     10  N   UNL     1       0.789  -0.690  -3.510  1.00  0.00    -0.197 NA
ATOM     11  H   UNL     1       0.095  -1.433  -3.430  1.00  0.00     0.142 HD
BRANCH  10  12
ATOM     12  S   UNL     1       0.501   0.109  -4.972  1.00  0.00     0.241 S 
ATOM     13  O   UNL     1       1.002   1.457  -4.832  1.00  0.00    -0.207 OA
ATOM     14  O   UNL     1       0.993  -0.779  -6.002  1.00  0.00    -0.207 OA
BRANCH  12  15
ATOM     15  C   UNL     1      -1.269   0.137  -5.106  1.00  0.00     0.082 A 
ATOM     16  C   UNL     1      -1.934   1.371  -5.227  1.00  0.00     0.022 A 
ATOM     17  C   UNL     1      -1.980  -1.065  -4.995  1.00  0.00     0.025 A 
ATOM     18  C   UNL     1      -3.329   1.425  -5.173  1.00  0.00     0.005 A 
ATOM     19  C   UNL     1      -3.365  -0.996  -4.956  1.00  0.00    -0.043 A 
ATOM     20  C   UNL     1      -4.028   0.237  -5.017  1.00  0.00    -0.045 A 
ATOM     21  C   UNL     1      -4.331  -2.109  -4.682  1.00  0.00     0.036 C 
ATOM     22  C   UNL     1      -5.489   0.073  -4.731  1.00  0.00     0.036 C 
ATOM     23  C   UNL     1      -5.680  -1.431  -4.963  1.00  0.00     0.010 C 
ENDBRANCH  12  15
ENDBRANCH  10  12
ENDBRANCH   8  10
ENDBRANCH   6   8
ENDBRANCH   5   6
ENDBRANCH   4   5
ENDBRANCH   3   4
ENDBRANCH   2   3
ENDBRANCH   1   2
BRANCH   1  24
ATOM     24  C   UNL     1      -1.490   0.892   1.324  1.00  0.00     0.188 C 
BRANCH  24  25
ATOM     25  O   UNL     1      -1.872  -0.237   2.092  1.00  0.00    -0.376 OA
BRANCH  25  26
ATOM     26  C   UNL     1      -3.064  -0.196   2.860  1.00  0.00     0.202 C 
BRANCH  26  27
ATOM     27  C   UNL     1      -3.146   0.793   4.024  1.00  0.00     0.261 C 
BRANCH  27  28
ATOM     28  O   UNL     1      -2.810   2.138   3.656  1.00  0.00    -0.460 OA
BRANCH  28  29
ATOM     29  C   UNL     1      -1.613   2.578   4.112  1.00  0.00     0.338 C 
ATOM     30  O   UNL     1      -0.844   1.996   4.857  1.00  0.00    -0.246 OA
BRANCH  29  31
ATOM     31  C   UNL     1      -1.254   3.828   3.409  1.00  0.00     0.060 A 
ATOM     32  C   UNL     1       0.028   3.913   2.847  1.00  0.00     0.016 A 
ATOM     33  C   UNL     1      -2.141   4.902   3.314  1.00  0.00     0.016 A 
ATOM     34  C   UNL     1       0.444   5.087   2.224  1.00  0.00     0.010 A 
ATOM     35  C   UNL     1      -1.713   6.091   2.717  1.00  0.00     0.010 A 
ATOM     36  C   UNL     1      -0.406   6.199   2.208  1.00  0.00    -0.014 A 
BRANCH  36  37
ATOM     37  C   UNL     1       0.162   7.534   1.911  1.00  0.00     0.031 A 
ATOM     38  C   UNL     1       0.724   8.323   3.062  1.00  0.00     0.074 A 
ATOM     39  C   UNL     1       0.202   8.030   0.664  1.00  0.00     0.049 A 
ATOM     40  N   UNL     1       1.230   9.529   3.079  1.00  0.00    -0.248 NA
ATOM     41  C   UNL     1       0.713   7.655   4.375  1.00  0.00     0.031 C 
ATOM     42  C   UNL     1      -0.257   7.341  -0.539  1.00  0.00     0.029 A 
ATOM     43  N   UNL     1       0.651   9.245   0.210  1.00  0.00    -0.354 N 
ATOM     44  C   UNL     1       1.596   9.761   4.397  1.00  0.00     0.074 A 
ATOM     45  C   UNL     1       1.236   8.585   5.157  1.00  0.00     0.031 C 
ATOM     46  C   UNL     1      -0.084   8.155  -1.597  1.00  0.00     0.029 A 
ATOM     47  C   UNL     1       0.471   9.428  -1.138  1.00  0.00     0.049 A 
ATOM     48  H   UNL     1       1.062   9.921   0.796  1.00  0.00     0.167 HD
ATOM     49  C   UNL     1       2.185  10.857   4.929  1.00  0.00     0.037 A 
ATOM     50  C   UNL     1       0.708  10.513  -1.902  1.00  0.00     0.037 A 
ATOM     51  C   UNL     1       2.530  12.033   4.182  1.00  0.00     0.049 A 
ATOM     52  C   UNL     1       1.281  11.757  -1.269  1.00  0.00     0.074 A 
ATOM     53  C   UNL     1       3.127  13.197   4.630  1.00  0.00     0.029 A 
ATOM     54  N   UNL     1       2.295  12.196   2.825  1.00  0.00    -0.354 N 
ATOM     55  N   UNL     1       1.639  11.966  -0.025  1.00  0.00    -0.248 NA
ATOM     56  C   UNL     1       1.479  12.918  -2.150  1.00  0.00     0.031 C 
ATOM     57  C   UNL     1       3.216  14.083   3.551  1.00  0.00     0.029 A 
ATOM     58  C   UNL     1       2.715  13.453   2.423  1.00  0.00     0.049 A 
ATOM     59  H   UNL     1       1.891  11.520   2.235  1.00  0.00     0.167 HD
ATOM     60  C   UNL     1       2.129  13.266   0.020  1.00  0.00     0.074 A 
ATOM     61  C   UNL     1       2.030  13.796  -1.323  1.00  0.00     0.031 C 
ATOM     62  C   UNL     1       2.618  13.958   1.078  1.00  0.00     0.037 A 
BRANCH  49  63
ATOM     63  C   UNL     1       2.457  10.838   6.402  1.00  0.00     0.064 A 
ATOM     64  C   UNL     1       3.488  10.059   6.948  1.00  0.00     0.173 A 
ATOM     65  C   UNL     1       1.680  11.611   7.276  1.00  0.00     0.173 A 
ATOM     66  F   UNL     1       4.242   9.285   6.154  1.00  0.00    -0.203 F 
ATOM     67  C   UNL     1       3.718  10.040   8.321  1.00  0.00     0.198 A 
ATOM     68  C   UNL     1       1.928  11.608   8.646  1.00  0.00     0.198 A 
ATOM     69  F   UNL     1       0.679  12.368   6.802  1.00  0.00    -0.203 F 
ATOM     70  F   UNL     1       4.678   9.254   8.827  1.00  0.00    -0.200 F 
ATOM     71  C   UNL     1       2.942  10.818   9.167  1.00  0.00     0.200 A 
ATOM     72  F   UNL     1       1.181  12.364   9.462  1.00  0.00    -0.200 F 
ATOM     73  F   UNL     1       3.165  10.799  10.489  1.00  0.00    -0.200 F 
ENDBRANCH  49  63
BRANCH  50  74
ATOM     74  C   UNL     1       0.383  10.489  -3.352  1.00  0.00     0.064 A 
ATOM     75  C   UNL     1       1.396  10.517  -4.320  1.00  0.00     0.173 A 
ATOM     76  C   UNL     1      -0.947  10.478  -3.796  1.00  0.00     0.173 A 
ATOM     77  F   UNL     1       2.682  10.562  -3.943  1.00  0.00    -0.203 F 
ATOM     78  C   UNL     1       1.090  10.553  -5.679  1.00  0.00     0.198 A 
ATOM     79  C   UNL     1      -1.251  10.489  -5.156  1.00  0.00     0.198 A 
ATOM     80  F   UNL     1      -1.952  10.464  -2.909  1.00  0.00    -0.203 F 
ATOM     81  F   UNL     1       2.075  10.632  -6.584  1.00  0.00    -0.200 F 
ATOM     82  C   UNL     1      -0.233  10.534  -6.096  1.00  0.00     0.200 A 
ATOM     83  F   UNL     1      -2.530  10.470  -5.554  1.00  0.00    -0.200 F 
ATOM     84  F   UNL     1      -0.527  10.576  -7.403  1.00  0.00    -0.200 F 
ENDBRANCH  50  74
BRANCH  62  85
ATOM     85  C   UNL     1       3.117  15.350   0.825  1.00  0.00     0.064 A 
ATOM     86  C   UNL     1       2.236  16.418   0.601  1.00  0.00     0.173 A 
ATOM     87  C   UNL     1       4.492  15.629   0.867  1.00  0.00     0.173 A 
ATOM     88  F   UNL     1       0.914  16.200   0.539  1.00  0.00    -0.203 F 
ATOM     89  C   UNL     1       2.715  17.711   0.408  1.00  0.00     0.198 A 
ATOM     90  C   UNL     1       4.966  16.927   0.701  1.00  0.00     0.198 A 
ATOM     91  F   UNL     1       5.375  14.643   1.088  1.00  0.00    -0.203 F 
ATOM     92  F   UNL     1       1.858  18.710   0.159  1.00  0.00    -0.200 F 
ATOM     93  C   UNL     1       4.078  17.965   0.466  1.00  0.00     0.200 A 
ATOM     94  F   UNL     1       6.281  17.173   0.771  1.00  0.00    -0.200 F 
ATOM     95  F   UNL     1       4.536  19.213   0.292  1.00  0.00    -0.200 F 
ENDBRANCH  62  85
ENDBRANCH  36  37
ENDBRANCH  29  31
ENDBRANCH  28  29
ENDBRANCH  27  28
ENDBRANCH  26  27
ENDBRANCH  25  26
ENDBRANCH  24  25
ENDBRANCH   1  24
TORSDOF 20
