REMARK SMILES C[C@@H](C(=O)OCCOCCOCCOC(=O)c1ccc(-c2c3nc(c(-c4c(F)c(F)c(F)c(F)c4F)c4ccc([nH]4)c(-c4c(F)c(F)c(F)c(F)c4F)c4nc(c(-c5c(F)c(F)c(F)c(F)c5F)c5ccc2[nH]5)C=C4)C=C3)cc1)c1ccc(C(=O)c2cccs2)cc1
REMARK SMILES IDX 9 1 8 2 7 3 6 4 5 5 3 6 4 7 2 8 1 9 80 10 81 11 92 12 82 13
REMARK SMILES IDX 91 14 83 15 84 16 85 17 86 18 87 19 90 20 88 21 89 22 10 23
REMARK SMILES IDX 11 24 12 25 13 26 14 27 15 28 16 29 17 30 18 31 79 32 19 33
REMARK SMILES IDX 78 34 20 35 21 36 22 37 72 38 23 39 77 40 71 41 73 42 24 43
REMARK SMILES IDX 76 44 70 45 69 46 25 48 57 49 37 50 56 51 38 52 41 53 55 54
REMARK SMILES IDX 74 55 39 56 40 57 54 59 75 60 42 61 26 62 27 63 35 64 28 65
REMARK SMILES IDX 29 66 33 67 36 68 30 69 31 70 34 71 32 72 58 73 59 74 67 75
REMARK SMILES IDX 60 76 61 77 65 78 68 79 62 80 63 81 66 82 64 83 43 84 44 85
REMARK SMILES IDX 52 86 45 87 46 88 50 89 53 90 47 91 48 92 51 93 49 94
REMARK H PARENT 73 47 41 58
REMARK Flexibility Score: inf
ROOT
ATOM      1  C   UNL     1       0.646   3.466   2.089  1.00  0.00     0.188 C 
ENDROOT
BRANCH   1   2
ATOM      2  O   UNL     1       1.600   4.063   2.940  1.00  0.00    -0.376 OA
BRANCH   2   3
ATOM      3  C   UNL     1       2.721   3.286   3.347  1.00  0.00     0.202 C 
BRANCH   3   4
ATOM      4  C   UNL     1       2.564   1.797   3.711  1.00  0.00     0.261 C 
BRANCH   4   5
ATOM      5  O   UNL     1       2.083   0.942   2.648  1.00  0.00    -0.463 OA
BRANCH   5   6
ATOM      6  C   UNL     1       1.095   0.064   2.981  1.00  0.00     0.313 C 
ATOM      7  O   UNL     1       0.619  -0.018   4.111  1.00  0.00    -0.252 OA
BRANCH   6   8
ATOM      8  C   UNL     1       0.601  -0.833   1.827  1.00  0.00     0.126 C 
ATOM      9  C   UNL     1       1.249  -0.680   0.447  1.00  0.00     0.025 C 
BRANCH   8  10
ATOM     10  C   UNL     1      -0.924  -0.810   1.695  1.00  0.00    -0.034 A 
ATOM     11  C   UNL     1      -1.645   0.390   1.725  1.00  0.00     0.005 A 
ATOM     12  C   UNL     1      -1.641  -1.999   1.505  1.00  0.00     0.005 A 
ATOM     13  C   UNL     1      -3.034   0.407   1.615  1.00  0.00     0.012 A 
ATOM     14  C   UNL     1      -3.038  -1.986   1.376  1.00  0.00     0.012 A 
ATOM     15  C   UNL     1      -3.747  -0.781   1.444  1.00  0.00     0.023 A 
BRANCH  15  16
ATOM     16  C   UNL     1      -5.226  -0.681   1.253  1.00  0.00     0.202 C 
ATOM     17  O   UNL     1      -5.679   0.422   0.954  1.00  0.00    -0.288 OA
BRANCH  16  18
ATOM     18  C   UNL     1      -6.059  -1.859   1.390  1.00  0.00     0.075 A 
ATOM     19  C   UNL     1      -6.075  -2.831   2.372  1.00  0.00     0.024 A 
ATOM     20  S   UNL     1      -7.258  -2.145   0.199  1.00  0.00    -0.140 S 
ATOM     21  C   UNL     1      -7.036  -3.850   2.102  1.00  0.00     0.012 A 
ATOM     22  C   UNL     1      -7.735  -3.606   0.942  1.00  0.00     0.065 A 
ENDBRANCH  16  18
ENDBRANCH  15  16
ENDBRANCH   8  10
ENDBRANCH   6   8
ENDBRANCH   5   6
ENDBRANCH   4   5
ENDBRANCH   3   4
ENDBRANCH   2   3
ENDBRANCH   1   2
BRANCH   1  23
ATOM     23  C   UNL     1       1.116   2.875   0.755  1.00  0.00     0.188 C 
BRANCH  23  24
ATOM     24  O   UNL     1       2.449   3.027   0.341  1.00  0.00    -0.376 OA
BRANCH  24  25
ATOM     25  C   UNL     1       2.969   4.296  -0.003  1.00  0.00     0.202 C 
BRANCH  25  26
ATOM     26  C   UNL     1       2.127   5.530  -0.377  1.00  0.00     0.261 C 
BRANCH  26  27
ATOM     27  O   UNL     1       0.705   5.441  -0.278  1.00  0.00    -0.460 OA
BRANCH  27  28
ATOM     28  C   UNL     1       0.056   5.027  -1.395  1.00  0.00     0.338 C 
ATOM     29  O   UNL     1       0.546   4.694  -2.455  1.00  0.00    -0.246 OA
BRANCH  28  30
ATOM     30  C   UNL     1      -1.373   4.856  -1.042  1.00  0.00     0.060 A 
ATOM     31  C   UNL     1      -1.964   3.594  -1.197  1.00  0.00     0.016 A 
ATOM     32  C   UNL     1      -2.119   5.931  -0.556  1.00  0.00     0.016 A 
ATOM     33  C   UNL     1      -3.313   3.413  -0.888  1.00  0.00     0.010 A 
ATOM     34  C   UNL     1      -3.476   5.755  -0.271  1.00  0.00     0.010 A 
ATOM     35  C   UNL     1      -4.086   4.502  -0.460  1.00  0.00    -0.014 A 
BRANCH  35  36
ATOM     36  C   UNL     1      -5.562   4.378  -0.386  1.00  0.00     0.031 A 
ATOM     37  C   UNL     1      -6.374   4.748  -1.595  1.00  0.00     0.074 A 
ATOM     38  C   UNL     1      -6.176   3.942   0.728  1.00  0.00     0.049 A 
ATOM     39  N   UNL     1      -7.672   4.760  -1.758  1.00  0.00    -0.248 NA
ATOM     40  C   UNL     1      -5.614   5.190  -2.775  1.00  0.00     0.031 C 
ATOM     41  C   UNL     1      -5.499   3.545   1.957  1.00  0.00     0.029 A 
ATOM     42  N   UNL     1      -7.508   3.741   0.993  1.00  0.00    -0.354 N 
ATOM     43  C   UNL     1      -7.886   5.233  -3.044  1.00  0.00     0.074 A 
ATOM     44  C   UNL     1      -6.585   5.508  -3.617  1.00  0.00     0.031 C 
ATOM     45  C   UNL     1      -6.415   3.085   2.827  1.00  0.00     0.029 A 
ATOM     46  C   UNL     1      -7.748   3.211   2.237  1.00  0.00     0.049 A 
ATOM     47  H   UNL     1      -8.224   3.957   0.352  1.00  0.00     0.167 HD
ATOM     48  C   UNL     1      -9.062   5.431  -3.684  1.00  0.00     0.037 A 
ATOM     49  C   UNL     1      -8.912   2.874   2.829  1.00  0.00     0.037 A 
ATOM     50  C   UNL     1     -10.354   5.162  -3.109  1.00  0.00     0.049 A 
ATOM     51  C   UNL     1     -10.209   3.116   2.095  1.00  0.00     0.074 A 
ATOM     52  C   UNL     1     -11.604   5.346  -3.674  1.00  0.00     0.029 A 
ATOM     53  N   UNL     1     -10.562   4.655  -1.834  1.00  0.00    -0.354 N 
ATOM     54  N   UNL     1     -10.409   3.571   0.881  1.00  0.00    -0.248 NA
ATOM     55  C   UNL     1     -11.450   2.822   2.829  1.00  0.00     0.031 C 
ATOM     56  C   UNL     1     -12.569   5.005  -2.721  1.00  0.00     0.029 A 
ATOM     57  C   UNL     1     -11.922   4.544  -1.587  1.00  0.00     0.049 A 
ATOM     58  H   UNL     1      -9.850   4.411  -1.200  1.00  0.00     0.167 HD
ATOM     59  C   UNL     1     -11.786   3.605   0.703  1.00  0.00     0.074 A 
ATOM     60  C   UNL     1     -12.377   3.095   1.921  1.00  0.00     0.031 C 
ATOM     61  C   UNL     1     -12.499   4.034  -0.368  1.00  0.00     0.037 A 
BRANCH  48  62
ATOM     62  C   UNL     1      -9.004   6.019  -5.064  1.00  0.00     0.064 A 
ATOM     63  C   UNL     1      -8.517   5.293  -6.161  1.00  0.00     0.173 A 
ATOM     64  C   UNL     1      -9.462   7.326  -5.293  1.00  0.00     0.173 A 
ATOM     65  F   UNL     1      -8.050   4.047  -5.994  1.00  0.00    -0.203 F 
ATOM     66  C   UNL     1      -8.465   5.864  -7.430  1.00  0.00     0.198 A 
ATOM     67  C   UNL     1      -9.440   7.881  -6.569  1.00  0.00     0.198 A 
ATOM     68  F   UNL     1      -9.939   8.064  -4.279  1.00  0.00    -0.203 F 
ATOM     69  F   UNL     1      -7.945   5.172  -8.454  1.00  0.00    -0.200 F 
ATOM     70  C   UNL     1      -8.934   7.153  -7.635  1.00  0.00     0.200 A 
ATOM     71  F   UNL     1      -9.906   9.122  -6.766  1.00  0.00    -0.200 F 
ATOM     72  F   UNL     1      -8.889   7.698  -8.858  1.00  0.00    -0.200 F 
ENDBRANCH  48  62
BRANCH  49  73
ATOM     73  C   UNL     1      -8.919   2.293   4.200  1.00  0.00     0.064 A 
ATOM     74  C   UNL     1      -9.396   0.994   4.435  1.00  0.00     0.173 A 
ATOM     75  C   UNL     1      -8.489   3.035   5.311  1.00  0.00     0.173 A 
ATOM     76  F   UNL     1      -9.857   0.253   3.416  1.00  0.00    -0.203 F 
ATOM     77  C   UNL     1      -9.461   0.471   5.726  1.00  0.00     0.198 A 
ATOM     78  C   UNL     1      -8.518   2.496   6.596  1.00  0.00     0.198 A 
ATOM     79  F   UNL     1      -8.035   4.287   5.151  1.00  0.00    -0.203 F 
ATOM     80  F   UNL     1      -9.981  -0.748   5.928  1.00  0.00    -0.200 F 
ATOM     81  C   UNL     1      -9.014   1.219   6.804  1.00  0.00     0.200 A 
ATOM     82  F   UNL     1      -8.073   3.218   7.633  1.00  0.00    -0.200 F 
ATOM     83  F   UNL     1      -9.075   0.715   8.044  1.00  0.00    -0.200 F 
ENDBRANCH  49  73
BRANCH  61  84
ATOM     84  C   UNL     1     -13.998   3.956  -0.284  1.00  0.00     0.064 A 
ATOM     85  C   UNL     1     -14.735   4.799   0.563  1.00  0.00     0.173 A 
ATOM     86  C   UNL     1     -14.711   3.062  -1.098  1.00  0.00     0.173 A 
ATOM     87  F   UNL     1     -14.104   5.666   1.369  1.00  0.00    -0.203 F 
ATOM     88  C   UNL     1     -16.125   4.729   0.611  1.00  0.00     0.198 A 
ATOM     89  C   UNL     1     -16.102   3.018  -1.071  1.00  0.00     0.198 A 
ATOM     90  F   UNL     1     -14.059   2.241  -1.935  1.00  0.00    -0.203 F 
ATOM     91  F   UNL     1     -16.804   5.510   1.464  1.00  0.00    -0.200 F 
ATOM     92  C   UNL     1     -16.808   3.845  -0.211  1.00  0.00     0.200 A 
ATOM     93  F   UNL     1     -16.761   2.177  -1.880  1.00  0.00    -0.200 F 
ATOM     94  F   UNL     1     -18.146   3.787  -0.170  1.00  0.00    -0.200 F 
ENDBRANCH  61  84
ENDBRANCH  35  36
ENDBRANCH  28  30
ENDBRANCH  27  28
ENDBRANCH  26  27
ENDBRANCH  25  26
ENDBRANCH  24  25
ENDBRANCH  23  24
ENDBRANCH   1  23
TORSDOF 20
