REMARK SMILES O=C(OCCOCCOCCOC(=O)c1ccc(-c2c3nc(c(-c4c(F)c(F)c(F)c(F)c4F)c4ccc([nH]4)c(-c4c(F)c(F)c(F)c(F)c4F)c4nc(c(-c5c(F)c(F)c(F)c(F)c5F)c5ccc2[nH]5)C=C4)C=C3)cc1)c1ccc(N/C=C\C(=O)c2ccco2)cc1
REMARK SMILES IDX 7 1 6 2 5 3 4 4 3 5 2 6 1 7 78 8 79 9 93 10 80 11 92 12
REMARK SMILES IDX 81 13 82 14 83 16 84 17 85 18 86 19 87 20 88 21 91 22 89 23
REMARK SMILES IDX 90 24 8 25 9 26 10 27 11 28 12 29 13 30 14 31 15 32 16 33
REMARK SMILES IDX 77 34 17 35 76 36 18 37 19 38 20 39 70 40 21 41 75 42 69 43
REMARK SMILES IDX 71 44 22 45 74 46 68 47 67 48 23 50 55 51 35 52 54 53 36 54
REMARK SMILES IDX 39 55 53 56 72 57 37 58 38 59 52 61 73 62 40 63 24 64 25 65
REMARK SMILES IDX 33 66 26 67 27 68 31 69 34 70 28 71 29 72 32 73 30 74 56 75
REMARK SMILES IDX 57 76 65 77 58 78 59 79 63 80 66 81 60 82 61 83 64 84 62 85
REMARK SMILES IDX 41 86 42 87 50 88 43 89 44 90 48 91 51 92 45 93 46 94 49 95
REMARK SMILES IDX 47 96
REMARK H PARENT 82 15 71 49 39 60
REMARK Flexibility Score: inf
ROOT
ATOM      1  C   UNL     1       2.452   2.141  -0.309  1.00  0.00     0.188 C 
ENDROOT
BRANCH   1   2
ATOM      2  O   UNL     1       3.747   1.597  -0.018  1.00  0.00    -0.376 OA
BRANCH   2   3
ATOM      3  C   UNL     1       4.490   1.224  -1.179  1.00  0.00     0.202 C 
BRANCH   3   4
ATOM      4  C   UNL     1       4.372  -0.264  -1.518  1.00  0.00     0.261 C 
BRANCH   4   5
ATOM      5  O   UNL     1       3.019  -0.721  -1.369  1.00  0.00    -0.460 OA
BRANCH   5   6
ATOM      6  C   UNL     1       2.484  -1.397  -0.324  1.00  0.00     0.338 C 
ATOM      7  O   UNL     1       1.298  -1.720  -0.377  1.00  0.00    -0.246 OA
BRANCH   6   8
ATOM      8  C   UNL     1       3.267  -1.840   0.872  1.00  0.00     0.060 A 
ATOM      9  C   UNL     1       4.329  -1.150   1.457  1.00  0.00     0.018 A 
ATOM     10  C   UNL     1       2.830  -3.014   1.503  1.00  0.00     0.018 A 
ATOM     11  C   UNL     1       4.999  -1.658   2.580  1.00  0.00     0.027 A 
ATOM     12  C   UNL     1       3.473  -3.497   2.648  1.00  0.00     0.027 A 
ATOM     13  C   UNL     1       4.584  -2.839   3.191  1.00  0.00     0.038 A 
BRANCH  13  14
ATOM     14  N   UNL     1       5.271  -3.450   4.250  1.00  0.00    -0.362 N 
ATOM     15  H   UNL     1       4.750  -4.092   4.784  1.00  0.00     0.166 HD
BRANCH  14  16
ATOM     16  C   UNL     1       6.572  -3.271   4.638  1.00  0.00     0.087 C 
ATOM     17  C   UNL     1       7.397  -4.122   5.265  1.00  0.00     0.074 C 
BRANCH  17  18
ATOM     18  C   UNL     1       7.123  -5.544   5.636  1.00  0.00     0.222 C 
ATOM     19  O   UNL     1       7.826  -6.048   6.511  1.00  0.00    -0.286 OA
BRANCH  18  20
ATOM     20  C   UNL     1       6.078  -6.260   4.940  1.00  0.00     0.173 A 
ATOM     21  C   UNL     1       5.875  -6.542   3.600  1.00  0.00     0.054 A 
ATOM     22  O   UNL     1       5.005  -6.703   5.664  1.00  0.00    -0.461 OA
ATOM     23  C   UNL     1       4.613  -7.180   3.506  1.00  0.00     0.043 A 
ATOM     24  C   UNL     1       4.128  -7.258   4.790  1.00  0.00     0.196 A 
ENDBRANCH  18  20
ENDBRANCH  17  18
ENDBRANCH  14  16
ENDBRANCH  13  14
ENDBRANCH   6   8
ENDBRANCH   5   6
ENDBRANCH   4   5
ENDBRANCH   3   4
ENDBRANCH   2   3
ENDBRANCH   1   2
BRANCH   1  25
ATOM     25  C   UNL     1       2.014   3.082   0.817  1.00  0.00     0.188 C 
BRANCH  25  26
ATOM     26  O   UNL     1       2.679   4.349   0.820  1.00  0.00    -0.376 OA
BRANCH  26  27
ATOM     27  C   UNL     1       4.079   4.339   1.091  1.00  0.00     0.202 C 
BRANCH  27  28
ATOM     28  C   UNL     1       4.469   4.249   2.570  1.00  0.00     0.261 C 
BRANCH  28  29
ATOM     29  O   UNL     1       4.000   3.059   3.232  1.00  0.00    -0.460 OA
BRANCH  29  30
ATOM     30  C   UNL     1       3.053   3.284   4.170  1.00  0.00     0.338 C 
ATOM     31  O   UNL     1       2.550   4.357   4.482  1.00  0.00    -0.246 OA
BRANCH  30  32
ATOM     32  C   UNL     1       2.640   2.042   4.838  1.00  0.00     0.060 A 
ATOM     33  C   UNL     1       1.341   1.572   4.621  1.00  0.00     0.016 A 
ATOM     34  C   UNL     1       3.418   1.528   5.880  1.00  0.00     0.016 A 
ATOM     35  C   UNL     1       0.783   0.645   5.503  1.00  0.00     0.010 A 
ATOM     36  C   UNL     1       2.858   0.595   6.760  1.00  0.00     0.010 A 
ATOM     37  C   UNL     1       1.517   0.200   6.613  1.00  0.00    -0.014 A 
BRANCH  37  38
ATOM     38  C   UNL     1       0.816  -0.506   7.718  1.00  0.00     0.031 A 
ATOM     39  C   UNL     1       0.383   0.278   8.932  1.00  0.00     0.074 A 
ATOM     40  C   UNL     1       0.530  -1.816   7.636  1.00  0.00     0.049 A 
ATOM     41  N   UNL     1      -0.254  -0.129  10.003  1.00  0.00    -0.248 NA
ATOM     42  C   UNL     1       0.714   1.712   8.940  1.00  0.00     0.031 C 
ATOM     43  C   UNL     1       0.867  -2.686   6.512  1.00  0.00     0.029 A 
ATOM     44  N   UNL     1      -0.115  -2.642   8.523  1.00  0.00    -0.354 N 
ATOM     45  C   UNL     1      -0.391   0.993  10.811  1.00  0.00     0.074 A 
ATOM     46  C   UNL     1       0.252   2.092  10.123  1.00  0.00     0.031 C 
ATOM     47  C   UNL     1       0.421  -3.926   6.775  1.00  0.00     0.029 A 
ATOM     48  C   UNL     1      -0.213  -3.941   8.094  1.00  0.00     0.049 A 
ATOM     49  H   UNL     1      -0.474  -2.330   9.386  1.00  0.00     0.167 HD
ATOM     50  C   UNL     1      -1.007   1.105  12.013  1.00  0.00     0.037 A 
ATOM     51  C   UNL     1      -0.750  -5.018   8.699  1.00  0.00     0.037 A 
ATOM     52  C   UNL     1      -1.668   0.026  12.697  1.00  0.00     0.049 A 
ATOM     53  C   UNL     1      -1.397  -4.875  10.053  1.00  0.00     0.074 A 
ATOM     54  C   UNL     1      -2.352   0.057  13.901  1.00  0.00     0.029 A 
ATOM     55  N   UNL     1      -1.728  -1.279  12.237  1.00  0.00    -0.354 N 
ATOM     56  N   UNL     1      -1.559  -3.802  10.787  1.00  0.00    -0.248 NA
ATOM     57  C   UNL     1      -1.943  -6.100  10.658  1.00  0.00     0.031 C 
ATOM     58  C   UNL     1      -2.796  -1.239  14.187  1.00  0.00     0.029 A 
ATOM     59  C   UNL     1      -2.420  -2.068  13.142  1.00  0.00     0.049 A 
ATOM     60  H   UNL     1      -1.336  -1.599  11.393  1.00  0.00     0.167 HD
ATOM     61  C   UNL     1      -2.255  -4.213  11.917  1.00  0.00     0.074 A 
ATOM     62  C   UNL     1      -2.488  -5.634  11.773  1.00  0.00     0.031 C 
ATOM     63  C   UNL     1      -2.666  -3.476  12.978  1.00  0.00     0.037 A 
BRANCH  50  64
ATOM     64  C   UNL     1      -0.985   2.448  12.677  1.00  0.00     0.064 A 
ATOM     65  C   UNL     1      -1.799   3.500  12.232  1.00  0.00     0.173 A 
ATOM     66  C   UNL     1      -0.172   2.673  13.798  1.00  0.00     0.173 A 
ATOM     67  F   UNL     1      -2.586   3.336  11.159  1.00  0.00    -0.203 F 
ATOM     68  C   UNL     1      -1.783   4.736  12.873  1.00  0.00     0.198 A 
ATOM     69  C   UNL     1      -0.175   3.903  14.450  1.00  0.00     0.198 A 
ATOM     70  F   UNL     1       0.620   1.696  14.265  1.00  0.00    -0.203 F 
ATOM     71  F   UNL     1      -2.543   5.739  12.411  1.00  0.00    -0.200 F 
ATOM     72  C   UNL     1      -0.976   4.934  13.984  1.00  0.00     0.200 A 
ATOM     73  F   UNL     1       0.598   4.090  15.528  1.00  0.00    -0.200 F 
ATOM     74  F   UNL     1      -0.967   6.123  14.604  1.00  0.00    -0.200 F 
ENDBRANCH  50  64
BRANCH  51  75
ATOM     75  C   UNL     1      -0.719  -6.337   8.020  1.00  0.00     0.064 A 
ATOM     76  C   UNL     1      -1.893  -6.917   7.521  1.00  0.00     0.173 A 
ATOM     77  C   UNL     1       0.478  -7.050   7.872  1.00  0.00     0.173 A 
ATOM     78  F   UNL     1      -3.066  -6.281   7.661  1.00  0.00    -0.203 F 
ATOM     79  C   UNL     1      -1.873  -8.170   6.912  1.00  0.00     0.198 A 
ATOM     80  C   UNL     1       0.501  -8.291   7.241  1.00  0.00     0.198 A 
ATOM     81  F   UNL     1       1.628  -6.536   8.332  1.00  0.00    -0.203 F 
ATOM     82  F   UNL     1      -3.015  -8.720   6.478  1.00  0.00    -0.200 F 
ATOM     83  C   UNL     1      -0.675  -8.854   6.769  1.00  0.00     0.200 A 
ATOM     84  F   UNL     1       1.663  -8.941   7.085  1.00  0.00    -0.200 F 
ATOM     85  F   UNL     1      -0.655 -10.056   6.177  1.00  0.00    -0.200 F 
ENDBRANCH  51  75
BRANCH  63  86
ATOM     86  C   UNL     1      -3.454  -4.179  14.044  1.00  0.00     0.064 A 
ATOM     87  C   UNL     1      -2.843  -5.050  14.957  1.00  0.00     0.173 A 
ATOM     88  C   UNL     1      -4.832  -3.950  14.174  1.00  0.00     0.173 A 
ATOM     89  F   UNL     1      -1.531  -5.313  14.866  1.00  0.00    -0.203 F 
ATOM     90  C   UNL     1      -3.589  -5.685  15.948  1.00  0.00     0.198 A 
ATOM     91  C   UNL     1      -5.570  -4.568  15.180  1.00  0.00     0.198 A 
ATOM     92  F   UNL     1      -5.462  -3.120  13.328  1.00  0.00    -0.203 F 
ATOM     93  F   UNL     1      -2.993  -6.546  16.785  1.00  0.00    -0.200 F 
ATOM     94  C   UNL     1      -4.949  -5.439  16.062  1.00  0.00     0.200 A 
ATOM     95  F   UNL     1      -6.883  -4.322  15.294  1.00  0.00    -0.200 F 
ATOM     96  F   UNL     1      -5.664  -6.049  17.017  1.00  0.00    -0.200 F 
ENDBRANCH  63  86
ENDBRANCH  37  38
ENDBRANCH  30  32
ENDBRANCH  29  30
ENDBRANCH  28  29
ENDBRANCH  27  28
ENDBRANCH  26  27
ENDBRANCH  25  26
ENDBRANCH   1  25
TORSDOF 21
