REMARK SMILES C[C@@H](C(=O)OCCOCCOCCOC(=O)c1ccc(-c2c3nc(c(-c4c(F)c(F)c(F)c(F)c4F)c4ccc([nH]4)c(-c4c(F)c(F)c(F)c(F)c4F)c4nc(c(-c5c(F)c(F)c(F)c(F)c5F)c5ccc2[nH]5)C=C4)C=C3)cc1)c1ccc(C[C@H]2CCCC2=O)cc1[N+](=O)[O-]
REMARK SMILES IDX 9 1 8 2 7 3 6 4 5 5 3 6 4 7 2 8 1 9 80 10 81 11 92 12 82 13
REMARK SMILES IDX 91 14 83 15 93 16 94 17 95 18 84 19 85 20 86 21 89 22 87 23
REMARK SMILES IDX 88 24 90 25 10 26 11 27 12 28 13 29 14 30 15 31 16 32 17 33
REMARK SMILES IDX 18 34 79 35 19 36 78 37 20 38 21 39 22 40 72 41 23 42 77 43
REMARK SMILES IDX 71 44 73 45 24 46 76 47 70 48 69 49 25 51 57 52 37 53 56 54
REMARK SMILES IDX 38 55 41 56 55 57 74 58 39 59 40 60 54 62 75 63 42 64 26 65
REMARK SMILES IDX 27 66 35 67 28 68 29 69 33 70 36 71 30 72 31 73 34 74 32 75
REMARK SMILES IDX 58 76 59 77 67 78 60 79 61 80 65 81 68 82 62 83 63 84 66 85
REMARK SMILES IDX 64 86 43 87 44 88 52 89 45 90 46 91 50 92 53 93 47 94 48 95
REMARK SMILES IDX 51 96 49 97
REMARK H PARENT 73 50 41 61
REMARK Flexibility Score: inf
ROOT
ATOM      1  C   UNL     1       0.273  -0.792   3.627  1.00  0.00     0.188 C 
ENDROOT
BRANCH   1   2
ATOM      2  O   UNL     1       1.043  -1.447   4.610  1.00  0.00    -0.376 OA
BRANCH   2   3
ATOM      3  C   UNL     1       2.308  -2.009   4.294  1.00  0.00     0.202 C 
BRANCH   3   4
ATOM      4  C   UNL     1       2.671  -2.651   2.940  1.00  0.00     0.261 C 
BRANCH   4   5
ATOM      5  O   UNL     1       2.280  -1.969   1.734  1.00  0.00    -0.463 OA
BRANCH   5   6
ATOM      6  C   UNL     1       1.237  -2.538   1.078  1.00  0.00     0.313 C 
ATOM      7  O   UNL     1       0.600  -3.477   1.545  1.00  0.00    -0.252 OA
BRANCH   6   8
ATOM      8  C   UNL     1       0.914  -1.928  -0.303  1.00  0.00     0.133 C 
ATOM      9  C   UNL     1       1.624  -0.598  -0.604  1.00  0.00     0.025 C 
BRANCH   8  10
ATOM     10  C   UNL     1      -0.611  -1.935  -0.553  1.00  0.00     0.044 A 
ATOM     11  C   UNL     1      -1.346  -0.734  -0.643  1.00  0.00     0.012 A 
ATOM     12  C   UNL     1      -1.369  -3.135  -0.614  1.00  0.00     0.273 A 
ATOM     13  C   UNL     1      -2.751  -0.731  -0.729  1.00  0.00     0.004 A 
ATOM     14  C   UNL     1      -2.774  -3.127  -0.660  1.00  0.00     0.089 A 
ATOM     15  C   UNL     1      -3.477  -1.924  -0.670  1.00  0.00    -0.040 A 
BRANCH  12  16
ATOM     16  N   UNL     1      -0.756  -4.468  -0.607  1.00  0.00     0.063 N 
ATOM     17  O   UNL     1      -1.307  -5.345   0.077  1.00  0.00    -0.258 OA
ATOM     18  O   UNL     1       0.227  -4.646  -1.338  1.00  0.00    -0.258 OA
ENDBRANCH  12  16
BRANCH  15  19
ATOM     19  C   UNL     1      -4.976  -1.944  -0.466  1.00  0.00     0.047 C 
BRANCH  19  20
ATOM     20  C   UNL     1      -5.415  -1.785   0.999  1.00  0.00     0.060 C 
ATOM     21  C   UNL     1      -4.641  -2.591   2.050  1.00  0.00     0.012 C 
ATOM     22  C   UNL     1      -5.139  -0.374   1.437  1.00  0.00     0.136 C 
ATOM     23  C   UNL     1      -3.500  -1.712   2.555  1.00  0.00     0.009 C 
ATOM     24  C   UNL     1      -3.908  -0.278   2.285  1.00  0.00     0.076 C 
ATOM     25  O   UNL     1      -5.785   0.599   1.068  1.00  0.00    -0.299 OA
ENDBRANCH  19  20
ENDBRANCH  15  19
ENDBRANCH   8  10
ENDBRANCH   6   8
ENDBRANCH   5   6
ENDBRANCH   4   5
ENDBRANCH   3   4
ENDBRANCH   2   3
ENDBRANCH   1   2
BRANCH   1  26
ATOM     26  C   UNL     1       0.850   0.413   2.876  1.00  0.00     0.188 C 
BRANCH  26  27
ATOM     27  O   UNL     1       2.244   0.579   2.882  1.00  0.00    -0.376 OA
BRANCH  27  28
ATOM     28  C   UNL     1       2.893   1.306   3.913  1.00  0.00     0.202 C 
BRANCH  28  29
ATOM     29  C   UNL     1       2.219   1.935   5.154  1.00  0.00     0.261 C 
BRANCH  29  30
ATOM     30  O   UNL     1       0.792   1.886   5.275  1.00  0.00    -0.460 OA
BRANCH  30  31
ATOM     31  C   UNL     1       0.126   2.972   4.803  1.00  0.00     0.338 C 
ATOM     32  O   UNL     1       0.612   3.942   4.259  1.00  0.00    -0.246 OA
BRANCH  31  33
ATOM     33  C   UNL     1      -1.335   2.698   4.833  1.00  0.00     0.060 A 
ATOM     34  C   UNL     1      -2.043   2.842   3.639  1.00  0.00     0.016 A 
ATOM     35  C   UNL     1      -2.013   2.322   5.998  1.00  0.00     0.016 A 
ATOM     36  C   UNL     1      -3.421   2.609   3.614  1.00  0.00     0.010 A 
ATOM     37  C   UNL     1      -3.407   2.105   5.972  1.00  0.00     0.010 A 
ATOM     38  C   UNL     1      -4.131   2.240   4.779  1.00  0.00    -0.014 A 
BRANCH  38  39
ATOM     39  C   UNL     1      -5.625   2.084   4.687  1.00  0.00     0.031 A 
ATOM     40  C   UNL     1      -6.446   3.304   4.370  1.00  0.00     0.074 A 
ATOM     41  C   UNL     1      -6.261   0.892   4.768  1.00  0.00     0.049 A 
ATOM     42  N   UNL     1      -7.732   3.408   4.151  1.00  0.00    -0.248 NA
ATOM     43  C   UNL     1      -5.723   4.584   4.341  1.00  0.00     0.031 C 
ATOM     44  C   UNL     1      -5.635  -0.381   5.101  1.00  0.00     0.029 A 
ATOM     45  N   UNL     1      -7.566   0.538   4.472  1.00  0.00    -0.354 N 
ATOM     46  C   UNL     1      -7.982   4.766   4.030  1.00  0.00     0.074 A 
ATOM     47  C   UNL     1      -6.705   5.441   4.121  1.00  0.00     0.031 C 
ATOM     48  C   UNL     1      -6.494  -1.380   4.831  1.00  0.00     0.029 A 
ATOM     49  C   UNL     1      -7.768  -0.827   4.380  1.00  0.00     0.049 A 
ATOM     50  H   UNL     1      -8.285   1.197   4.338  1.00  0.00     0.167 HD
ATOM     51  C   UNL     1      -9.175   5.399   3.940  1.00  0.00     0.037 A 
ATOM     52  C   UNL     1      -8.843  -1.539   3.966  1.00  0.00     0.037 A 
ATOM     53  C   UNL     1     -10.451   4.739   3.897  1.00  0.00     0.049 A 
ATOM     54  C   UNL     1     -10.154  -0.808   3.764  1.00  0.00     0.074 A 
ATOM     55  C   UNL     1     -11.715   5.303   3.923  1.00  0.00     0.029 A 
ATOM     56  N   UNL     1     -10.629   3.366   3.822  1.00  0.00    -0.354 N 
ATOM     57  N   UNL     1     -10.393   0.479   3.742  1.00  0.00    -0.248 NA
ATOM     58  C   UNL     1     -11.364  -1.639   3.623  1.00  0.00     0.031 C 
ATOM     59  C   UNL     1     -12.658   4.270   3.915  1.00  0.00     0.029 A 
ATOM     60  C   UNL     1     -11.983   3.066   3.811  1.00  0.00     0.049 A 
ATOM     61  H   UNL     1      -9.902   2.704   3.783  1.00  0.00     0.167 HD
ATOM     62  C   UNL     1     -11.773   0.610   3.634  1.00  0.00     0.074 A 
ATOM     63  C   UNL     1     -12.315  -0.723   3.504  1.00  0.00     0.031 C 
ATOM     64  C   UNL     1     -12.524   1.737   3.693  1.00  0.00     0.037 A 
BRANCH  51  65
ATOM     65  C   UNL     1      -9.139   6.893   4.052  1.00  0.00     0.064 A 
ATOM     66  C   UNL     1      -8.644   7.713   3.029  1.00  0.00     0.173 A 
ATOM     67  C   UNL     1      -9.552   7.504   5.247  1.00  0.00     0.173 A 
ATOM     68  F   UNL     1      -8.201   7.171   1.884  1.00  0.00    -0.203 F 
ATOM     69  C   UNL     1      -8.527   9.088   3.214  1.00  0.00     0.198 A 
ATOM     70  C   UNL     1      -9.467   8.881   5.414  1.00  0.00     0.198 A 
ATOM     71  F   UNL     1     -10.022   6.761   6.260  1.00  0.00    -0.203 F 
ATOM     72  F   UNL     1      -7.976   9.845   2.255  1.00  0.00    -0.200 F 
ATOM     73  C   UNL     1      -8.941   9.670   4.403  1.00  0.00     0.200 A 
ATOM     74  F   UNL     1      -9.873   9.441   6.562  1.00  0.00    -0.200 F 
ATOM     75  F   UNL     1      -8.815  10.992   4.583  1.00  0.00    -0.200 F 
ENDBRANCH  51  65
BRANCH  52  76
ATOM     76  C   UNL     1      -8.802  -3.024   3.747  1.00  0.00     0.064 A 
ATOM     77  C   UNL     1      -9.176  -3.574   2.504  1.00  0.00     0.173 A 
ATOM     78  C   UNL     1      -8.486  -3.935   4.766  1.00  0.00     0.173 A 
ATOM     79  F   UNL     1      -9.531  -2.765   1.494  1.00  0.00    -0.203 F 
ATOM     80  C   UNL     1      -9.259  -4.954   2.305  1.00  0.00     0.198 A 
ATOM     81  C   UNL     1      -8.513  -5.314   4.548  1.00  0.00     0.198 A 
ATOM     82  F   UNL     1      -8.165  -3.492   5.989  1.00  0.00    -0.203 F 
ATOM     83  F   UNL     1      -9.704  -5.436   1.136  1.00  0.00    -0.200 F 
ATOM     84  C   UNL     1      -8.915  -5.824   3.324  1.00  0.00     0.200 A 
ATOM     85  F   UNL     1      -8.166  -6.150   5.537  1.00  0.00    -0.200 F 
ATOM     86  F   UNL     1      -8.989  -7.149   3.136  1.00  0.00    -0.200 F 
ENDBRANCH  52  76
BRANCH  64  87
ATOM     87  C   UNL     1     -14.019   1.585   3.643  1.00  0.00     0.064 A 
ATOM     88  C   UNL     1     -14.736   1.014   4.707  1.00  0.00     0.173 A 
ATOM     89  C   UNL     1     -14.751   2.067   2.547  1.00  0.00     0.173 A 
ATOM     90  F   UNL     1     -14.087   0.529   5.777  1.00  0.00    -0.203 F 
ATOM     91  C   UNL     1     -16.125   0.909   4.664  1.00  0.00     0.198 A 
ATOM     92  C   UNL     1     -16.141   1.988   2.521  1.00  0.00     0.198 A 
ATOM     93  F   UNL     1     -14.118   2.629   1.506  1.00  0.00    -0.203 F 
ATOM     94  F   UNL     1     -16.783   0.321   5.672  1.00  0.00    -0.200 F 
ATOM     95  C   UNL     1     -16.826   1.404   3.575  1.00  0.00     0.200 A 
ATOM     96  F   UNL     1     -16.819   2.481   1.475  1.00  0.00    -0.200 F 
ATOM     97  F   UNL     1     -18.163   1.312   3.539  1.00  0.00    -0.200 F 
ENDBRANCH  64  87
ENDBRANCH  38  39
ENDBRANCH  31  33
ENDBRANCH  30  31
ENDBRANCH  29  30
ENDBRANCH  28  29
ENDBRANCH  27  28
ENDBRANCH  26  27
ENDBRANCH   1  26
TORSDOF 21
