REMARK SMILES CCC1(C(=O)N[C@H]2C=C[C@H](C(=O)OCCOCCOCCOC(=O)c3ccc(-c4c5nc(c(-c6c(F)c(F)c(F)c(F)c6F)c6ccc([nH]6)c(-c6c(F)c(F)c(F)c(F)c6F)c6nc(c(-c7c(F)c(F)c(F)c(F)c7F)c7ccc4[nH]7)C=C6)C=C5)cc3)C2)CC[NH2+]CC1
REMARK SMILES IDX 17 1 16 2 15 3 14 4 13 5 11 6 12 7 10 8 7 9 8 10 88 11 9 12
REMARK SMILES IDX 6 13 4 14 5 15 3 17 89 18 93 19 90 20 92 21 91 22 2 25 1 26
REMARK SMILES IDX 18 27 19 28 20 29 21 30 22 31 23 32 24 33 25 34 26 35 87 36
REMARK SMILES IDX 27 37 86 38 28 39 29 40 30 41 80 42 31 43 85 44 79 45 81 46
REMARK SMILES IDX 32 47 84 48 78 49 77 50 33 52 65 53 45 54 64 55 46 56 49 57
REMARK SMILES IDX 63 58 82 59 47 60 48 61 62 63 83 64 50 65 34 66 35 67 43 68
REMARK SMILES IDX 36 69 37 70 41 71 44 72 38 73 39 74 42 75 40 76 66 77 67 78
REMARK SMILES IDX 75 79 68 80 69 81 73 82 76 83 70 84 71 85 74 86 72 87 51 88
REMARK SMILES IDX 52 89 60 90 53 91 54 92 58 93 61 94 55 95 56 96 59 97 57 98
REMARK H PARENT 6 16 91 23 91 24 81 51 49 62
REMARK Flexibility Score: inf
ROOT
ATOM      1  C   UNL     1       3.866  -4.633   4.719  1.00  0.00     0.188 C 
ENDROOT
BRANCH   1   2
ATOM      2  O   UNL     1       5.204  -4.396   5.132  1.00  0.00    -0.376 OA
BRANCH   2   3
ATOM      3  C   UNL     1       5.612  -5.226   6.224  1.00  0.00     0.202 C 
BRANCH   3   4
ATOM      4  C   UNL     1       5.026  -4.897   7.614  1.00  0.00     0.261 C 
BRANCH   4   5
ATOM      5  O   UNL     1       3.628  -4.543   7.614  1.00  0.00    -0.463 OA
BRANCH   5   6
ATOM      6  C   UNL     1       3.380  -3.204   7.514  1.00  0.00     0.312 C 
ATOM      7  O   UNL     1       4.260  -2.349   7.470  1.00  0.00    -0.252 OA
BRANCH   6   8
ATOM      8  C   UNL     1       1.873  -2.909   7.484  1.00  0.00     0.124 C 
ATOM      9  C   UNL     1       1.246  -1.837   5.340  1.00  0.00     0.106 C 
ATOM     10  C   UNL     1       1.419  -0.844   6.454  1.00  0.00    -0.006 C 
ATOM     11  C   UNL     1       1.146  -3.150   6.145  1.00  0.00     0.048 C 
ATOM     12  C   UNL     1       1.692  -1.425   7.628  1.00  0.00    -0.014 C 
BRANCH   9  13
ATOM     13  N   UNL     1       0.008  -1.480   4.681  1.00  0.00    -0.349 N 
ATOM     14  C   UNL     1      -0.475  -1.371   3.427  1.00  0.00     0.227 C 
ATOM     15  O   UNL     1      -1.601  -0.851   3.401  1.00  0.00    -0.274 OA
ATOM     16  H   UNL     1      -0.684  -1.249   5.342  1.00  0.00     0.164 HD
BRANCH  14  17
ATOM     17  C   UNL     1       0.163  -1.901   2.115  1.00  0.00     0.060 C 
ATOM     18  C   UNL     1       1.610  -1.470   1.840  1.00  0.00     0.078 C 
ATOM     19  C   UNL     1       0.190  -3.449   2.171  1.00  0.00     0.078 C 
ATOM     20  C   UNL     1       2.101  -2.066   0.511  1.00  0.00     0.261 C 
ATOM     21  C   UNL     1       0.789  -4.088   0.909  1.00  0.00     0.261 C 
ATOM     22  N   UNL     1       2.071  -3.523   0.500  1.00  0.00    -0.346 N 
ATOM     23  H   UNL     1       2.791  -3.865   1.136  1.00  0.00     0.346 HD
ATOM     24  H   UNL     1       2.231  -3.816  -0.464  1.00  0.00     0.346 HD
BRANCH  17  25
ATOM     25  C   UNL     1      -0.770  -1.428   0.929  1.00  0.00     0.014 C 
ATOM     26  C   UNL     1      -0.669   0.058   0.573  1.00  0.00     0.005 C 
ENDBRANCH  17  25
ENDBRANCH  14  17
ENDBRANCH   9  13
ENDBRANCH   6   8
ENDBRANCH   5   6
ENDBRANCH   4   5
ENDBRANCH   3   4
ENDBRANCH   2   3
ENDBRANCH   1   2
BRANCH   1  27
ATOM     27  C   UNL     1       3.637  -5.471   3.471  1.00  0.00     0.188 C 
BRANCH  27  28
ATOM     28  O   UNL     1       4.240  -6.754   3.496  1.00  0.00    -0.376 OA
BRANCH  28  29
ATOM     29  C   UNL     1       5.618  -6.809   3.110  1.00  0.00     0.202 C 
BRANCH  29  30
ATOM     30  C   UNL     1       5.950  -6.112   1.789  1.00  0.00     0.261 C 
BRANCH  30  31
ATOM     31  O   UNL     1       6.049  -4.681   1.980  1.00  0.00    -0.460 OA
BRANCH  31  32
ATOM     32  C   UNL     1       6.061  -3.989   0.814  1.00  0.00     0.338 C 
ATOM     33  O   UNL     1       6.119  -4.492  -0.298  1.00  0.00    -0.246 OA
BRANCH  32  34
ATOM     34  C   UNL     1       5.899  -2.520   1.003  1.00  0.00     0.060 A 
ATOM     35  C   UNL     1       5.276  -1.954   2.116  1.00  0.00     0.016 A 
ATOM     36  C   UNL     1       6.218  -1.693  -0.081  1.00  0.00     0.016 A 
ATOM     37  C   UNL     1       4.834  -0.617   2.063  1.00  0.00     0.010 A 
ATOM     38  C   UNL     1       5.842  -0.342  -0.094  1.00  0.00     0.010 A 
ATOM     39  C   UNL     1       5.064   0.202   0.938  1.00  0.00    -0.014 A 
BRANCH  39  40
ATOM     40  C   UNL     1       4.438   1.563   0.770  1.00  0.00     0.031 A 
ATOM     41  C   UNL     1       3.657   1.924  -0.490  1.00  0.00     0.074 A 
ATOM     42  C   UNL     1       4.515   2.504   1.735  1.00  0.00     0.049 A 
ATOM     43  N   UNL     1       3.226   3.098  -0.897  1.00  0.00    -0.248 NA
ATOM     44  C   UNL     1       3.287   0.825  -1.396  1.00  0.00     0.031 C 
ATOM     45  C   UNL     1       5.119   2.328   3.053  1.00  0.00     0.029 A 
ATOM     46  N   UNL     1       4.088   3.816   1.742  1.00  0.00    -0.354 N 
ATOM     47  C   UNL     1       2.549   2.874  -2.093  1.00  0.00     0.074 A 
ATOM     48  C   UNL     1       2.626   1.455  -2.357  1.00  0.00     0.031 C 
ATOM     49  C   UNL     1       5.013   3.472   3.743  1.00  0.00     0.029 A 
ATOM     50  C   UNL     1       4.466   4.505   2.869  1.00  0.00     0.049 A 
ATOM     51  H   UNL     1       3.564   4.219   1.012  1.00  0.00     0.167 HD
ATOM     52  C   UNL     1       1.925   3.762  -2.907  1.00  0.00     0.037 A 
ATOM     53  C   UNL     1       4.484   5.824   3.149  1.00  0.00     0.037 A 
ATOM     54  C   UNL     1       1.849   5.183  -2.682  1.00  0.00     0.049 A 
ATOM     55  C   UNL     1       4.007   6.820   2.131  1.00  0.00     0.074 A 
ATOM     56  C   UNL     1       1.253   6.153  -3.474  1.00  0.00     0.029 A 
ATOM     57  N   UNL     1       2.394   5.840  -1.595  1.00  0.00    -0.354 N 
ATOM     58  N   UNL     1       3.448   6.610   0.967  1.00  0.00    -0.248 NA
ATOM     59  C   UNL     1       4.202   8.242   2.454  1.00  0.00     0.031 C 
ATOM     60  C   UNL     1       1.496   7.404  -2.897  1.00  0.00     0.029 A 
ATOM     61  C   UNL     1       2.196   7.207  -1.720  1.00  0.00     0.049 A 
ATOM     62  H   UNL     1       2.854   5.402  -0.843  1.00  0.00     0.167 HD
ATOM     63  C   UNL     1       3.219   7.867   0.423  1.00  0.00     0.074 A 
ATOM     64  C   UNL     1       3.683   8.837   1.389  1.00  0.00     0.031 C 
ATOM     65  C   UNL     1       2.672   8.181  -0.776  1.00  0.00     0.037 A 
BRANCH  52  66
ATOM     66  C   UNL     1       1.294   3.251  -4.170  1.00  0.00     0.064 A 
ATOM     67  C   UNL     1       0.025   2.658  -4.170  1.00  0.00     0.173 A 
ATOM     68  C   UNL     1       1.913   3.484  -5.409  1.00  0.00     0.173 A 
ATOM     69  F   UNL     1      -0.606   2.413  -3.012  1.00  0.00    -0.203 F 
ATOM     70  C   UNL     1      -0.607   2.324  -5.367  1.00  0.00     0.198 A 
ATOM     71  C   UNL     1       1.272   3.164  -6.602  1.00  0.00     0.198 A 
ATOM     72  F   UNL     1       3.124   4.060  -5.460  1.00  0.00    -0.203 F 
ATOM     73  F   UNL     1      -1.823   1.760  -5.347  1.00  0.00    -0.200 F 
ATOM     74  C   UNL     1       0.012   2.587  -6.581  1.00  0.00     0.200 A 
ATOM     75  F   UNL     1       1.866   3.433  -7.773  1.00  0.00    -0.200 F 
ATOM     76  F   UNL     1      -0.610   2.292  -7.731  1.00  0.00    -0.200 F 
ENDBRANCH  52  66
BRANCH  53  77
ATOM     77  C   UNL     1       5.122   6.286   4.411  1.00  0.00     0.064 A 
ATOM     78  C   UNL     1       4.387   6.918   5.420  1.00  0.00     0.173 A 
ATOM     79  C   UNL     1       6.499   6.101   4.623  1.00  0.00     0.173 A 
ATOM     80  F   UNL     1       3.079   7.158   5.247  1.00  0.00    -0.203 F 
ATOM     81  C   UNL     1       5.003   7.339   6.598  1.00  0.00     0.198 A 
ATOM     82  C   UNL     1       7.104   6.484   5.815  1.00  0.00     0.198 A 
ATOM     83  F   UNL     1       7.253   5.520   3.677  1.00  0.00    -0.203 F 
ATOM     84  F   UNL     1       4.288   7.978   7.534  1.00  0.00    -0.200 F 
ATOM     85  C   UNL     1       6.356   7.108   6.800  1.00  0.00     0.200 A 
ATOM     86  F   UNL     1       8.408   6.245   6.008  1.00  0.00    -0.200 F 
ATOM     87  F   UNL     1       6.942   7.496   7.941  1.00  0.00    -0.200 F 
ENDBRANCH  53  77
BRANCH  65  88
ATOM     88  C   UNL     1       2.532   9.636  -1.111  1.00  0.00     0.064 A 
ATOM     89  C   UNL     1       3.647  10.420  -1.443  1.00  0.00     0.173 A 
ATOM     90  C   UNL     1       1.272  10.253  -1.108  1.00  0.00     0.173 A 
ATOM     91  F   UNL     1       4.875   9.880  -1.443  1.00  0.00    -0.203 F 
ATOM     92  C   UNL     1       3.508  11.776  -1.730  1.00  0.00     0.198 A 
ATOM     93  C   UNL     1       1.134  11.603  -1.421  1.00  0.00     0.198 A 
ATOM     94  F   UNL     1       0.173   9.546  -0.803  1.00  0.00    -0.203 F 
ATOM     95  F   UNL     1       4.593  12.517  -1.992  1.00  0.00    -0.200 F 
ATOM     96  C   UNL     1       2.253  12.365  -1.722  1.00  0.00     0.200 A 
ATOM     97  F   UNL     1      -0.081  12.168  -1.422  1.00  0.00    -0.200 F 
ATOM     98  F   UNL     1       2.122  13.671  -1.994  1.00  0.00    -0.200 F 
ENDBRANCH  65  88
ENDBRANCH  39  40
ENDBRANCH  32  34
ENDBRANCH  31  32
ENDBRANCH  30  31
ENDBRANCH  29  30
ENDBRANCH  28  29
ENDBRANCH  27  28
ENDBRANCH   1  27
TORSDOF 20
