REMARK SMILES CN1C(=O)C[C@H](C(=O)Nc2ccc(C(=O)OCCOCCOCCOC(=O)c3ccc(-c4c5nc(c(-c6c(F)c(F)c(F)c(F)c6F)c6ccc([nH]6)c(-c6c(F)c(F)c(F)c(F)c6F)c6nc(c(-c7c(F)c(F)c(F)c(F)c7F)c7ccc4[nH]7)C=C6)C=C5)cc3)cc2)S/C1=[NH+]\c1cccc(C(F)(F)F)c1
REMARK SMILES IDX 20 1 19 2 18 3 17 4 16 5 14 6 15 7 13 8 10 9 11 10 92 11
REMARK SMILES IDX 12 12 91 13 9 14 7 15 8 16 6 18 1 19 2 20 3 21 94 22 4 23
REMARK SMILES IDX 5 24 93 25 95 26 96 28 97 29 105 30 98 31 100 32 99 33
REMARK SMILES IDX 101 34 102 35 103 36 104 37 21 38 22 39 23 40 24 41 25 42
REMARK SMILES IDX 26 43 27 44 28 45 29 46 90 47 30 48 89 49 31 50 32 51 33 52
REMARK SMILES IDX 83 53 34 54 88 55 82 56 84 57 35 58 87 59 81 60 80 61 36 63
REMARK SMILES IDX 68 64 48 65 67 66 49 67 52 68 66 69 85 70 50 71 51 72 65 74
REMARK SMILES IDX 86 75 53 76 37 77 38 78 46 79 39 80 40 81 44 82 47 83 41 84
REMARK SMILES IDX 42 85 45 86 43 87 69 88 70 89 78 90 71 91 72 92 76 93 79 94
REMARK SMILES IDX 73 95 74 96 77 97 75 98 54 99 55 100 63 101 56 102 57 103
REMARK SMILES IDX 61 104 64 105 58 106 59 107 62 108 60 109
REMARK H PARENT 9 17 95 27 84 62 52 73
REMARK Flexibility Score: inf
ROOT
ATOM      1  C   UNL     1       5.681   1.388  -1.026  1.00  0.00     0.188 C 
ENDROOT
BRANCH   1   2
ATOM      2  O   UNL     1       5.658   0.998  -2.390  1.00  0.00    -0.376 OA
BRANCH   2   3
ATOM      3  C   UNL     1       4.426   0.892  -3.086  1.00  0.00     0.202 C 
BRANCH   3   4
ATOM      4  C   UNL     1       3.402  -0.126  -2.587  1.00  0.00     0.261 C 
BRANCH   4   5
ATOM      5  O   UNL     1       2.921   0.188  -1.273  1.00  0.00    -0.460 OA
BRANCH   5   6
ATOM      6  C   UNL     1       3.323  -0.659  -0.289  1.00  0.00     0.338 C 
ATOM      7  O   UNL     1       3.974  -1.667  -0.426  1.00  0.00    -0.246 OA
BRANCH   6   8
ATOM      8  C   UNL     1       2.921  -0.127   1.043  1.00  0.00     0.060 A 
ATOM      9  C   UNL     1       1.857   0.351   3.557  1.00  0.00     0.041 A 
ATOM     10  C   UNL     1       3.034  -0.386   3.439  1.00  0.00     0.027 A 
ATOM     11  C   UNL     1       1.408   1.093   2.477  1.00  0.00     0.027 A 
ATOM     12  C   UNL     1       3.536  -0.673   2.171  1.00  0.00     0.018 A 
ATOM     13  C   UNL     1       1.939   0.855   1.210  1.00  0.00     0.018 A 
BRANCH   9  14
ATOM     14  N   UNL     1       1.171   0.289   4.766  1.00  0.00    -0.325 N 
ATOM     15  C   UNL     1      -0.142   0.068   5.059  1.00  0.00     0.238 C 
ATOM     16  O   UNL     1      -0.415   0.114   6.270  1.00  0.00    -0.273 OA
ATOM     17  H   UNL     1       1.740   0.432   5.557  1.00  0.00     0.169 HD
BRANCH  15  18
ATOM     18  C   UNL     1      -1.250  -0.366   4.080  1.00  0.00     0.160 C 
ATOM     19  C   UNL     1      -0.286  -1.135  -0.164  1.00  0.00     0.301 C 
ATOM     20  N   UNL     1      -0.636  -0.967   1.248  1.00  0.00    -0.194 N 
ATOM     21  C   UNL     1      -1.402   0.159   1.536  1.00  0.00     0.311 C 
ATOM     22  C   UNL     1      -0.219  -1.954   2.141  1.00  0.00     0.319 C 
ATOM     23  O   UNL     1      -1.801   0.921   0.647  1.00  0.00    -0.247 OA
ATOM     24  C   UNL     1      -1.723   0.526   2.968  1.00  0.00     0.153 C 
ATOM     25  S   UNL     1      -1.135  -2.090   3.613  1.00  0.00    -0.024 SA
ATOM     26  N   UNL     1       0.748  -2.755   1.814  1.00  0.00    -0.235 N 
ATOM     27  H   UNL     1       1.246  -2.593   0.980  1.00  0.00     0.313 HD
BRANCH  26  28
ATOM     28  C   UNL     1       1.098  -3.844   2.621  1.00  0.00     0.126 A 
ATOM     29  C   UNL     1       1.877  -3.716   3.773  1.00  0.00     0.052 A 
ATOM     30  C   UNL     1       0.650  -5.108   2.248  1.00  0.00     0.064 A 
ATOM     31  C   UNL     1       2.171  -4.823   4.567  1.00  0.00     0.005 A 
ATOM     32  C   UNL     1       0.913  -6.229   3.045  1.00  0.00     0.060 A 
ATOM     33  C   UNL     1       1.683  -6.076   4.208  1.00  0.00     0.013 A 
BRANCH  32  34
ATOM     34  C   UNL     1       0.350  -7.574   2.675  1.00  0.00     0.416 C 
ATOM     35  F   UNL     1       1.317  -8.511   2.483  1.00  0.00    -0.166 F 
ATOM     36  F   UNL     1      -0.470  -8.072   3.642  1.00  0.00    -0.166 F 
ATOM     37  F   UNL     1      -0.391  -7.559   1.532  1.00  0.00    -0.166 F 
ENDBRANCH  32  34
ENDBRANCH  26  28
ENDBRANCH  15  18
ENDBRANCH   9  14
ENDBRANCH   6   8
ENDBRANCH   5   6
ENDBRANCH   4   5
ENDBRANCH   3   4
ENDBRANCH   2   3
ENDBRANCH   1   2
BRANCH   1  38
ATOM     38  C   UNL     1       4.756   2.504  -0.497  1.00  0.00     0.188 C 
BRANCH  38  39
ATOM     39  O   UNL     1       4.265   3.520  -1.349  1.00  0.00    -0.376 OA
BRANCH  39  40
ATOM     40  C   UNL     1       5.177   4.186  -2.205  1.00  0.00     0.202 C 
BRANCH  40  41
ATOM     41  C   UNL     1       6.346   4.932  -1.557  1.00  0.00     0.261 C 
BRANCH  41  42
ATOM     42  O   UNL     1       7.204   4.073  -0.785  1.00  0.00    -0.460 OA
BRANCH  42  43
ATOM     43  C   UNL     1       7.276   4.354   0.540  1.00  0.00     0.338 C 
ATOM     44  O   UNL     1       6.759   5.287   1.129  1.00  0.00    -0.246 OA
BRANCH  43  45
ATOM     45  C   UNL     1       7.928   3.233   1.250  1.00  0.00     0.060 A 
ATOM     46  C   UNL     1       7.225   2.609   2.292  1.00  0.00     0.016 A 
ATOM     47  C   UNL     1       9.228   2.836   0.939  1.00  0.00     0.016 A 
ATOM     48  C   UNL     1       7.835   1.611   3.052  1.00  0.00     0.010 A 
ATOM     49  C   UNL     1       9.847   1.853   1.718  1.00  0.00     0.010 A 
ATOM     50  C   UNL     1       9.166   1.261   2.798  1.00  0.00    -0.014 A 
BRANCH  50  51
ATOM     51  C   UNL     1       9.916   0.440   3.781  1.00  0.00     0.031 A 
ATOM     52  C   UNL     1      10.733   1.150   4.827  1.00  0.00     0.074 A 
ATOM     53  C   UNL     1       9.879  -0.903   3.756  1.00  0.00     0.049 A 
ATOM     54  N   UNL     1      11.538   0.658   5.734  1.00  0.00    -0.248 NA
ATOM     55  C   UNL     1      10.627   2.618   4.848  1.00  0.00     0.031 C 
ATOM     56  C   UNL     1       9.090  -1.712   2.831  1.00  0.00     0.029 A 
ATOM     57  N   UNL     1      10.542  -1.823   4.531  1.00  0.00    -0.354 N 
ATOM     58  C   UNL     1      12.039   1.753   6.425  1.00  0.00     0.074 A 
ATOM     59  C   UNL     1      11.466   2.937   5.821  1.00  0.00     0.031 C 
ATOM     60  C   UNL     1       9.332  -3.012   3.078  1.00  0.00     0.029 A 
ATOM     61  C   UNL     1      10.317  -3.124   4.153  1.00  0.00     0.049 A 
ATOM     62  H   UNL     1      11.123  -1.574   5.286  1.00  0.00     0.167 HD
ATOM     63  C   UNL     1      12.895   1.772   7.474  1.00  0.00     0.037 A 
ATOM     64  C   UNL     1      10.868  -4.267   4.606  1.00  0.00     0.037 A 
ATOM     65  C   UNL     1      13.474   0.599   8.072  1.00  0.00     0.049 A 
ATOM     66  C   UNL     1      11.889  -4.215   5.716  1.00  0.00     0.074 A 
ATOM     67  C   UNL     1      14.346   0.516   9.143  1.00  0.00     0.029 A 
ATOM     68  N   UNL     1      13.245  -0.699   7.641  1.00  0.00    -0.354 N 
ATOM     69  N   UNL     1      12.344  -3.179   6.380  1.00  0.00    -0.248 NA
ATOM     70  C   UNL     1      12.475  -5.496   6.140  1.00  0.00     0.031 C 
ATOM     71  C   UNL     1      14.683  -0.828   9.329  1.00  0.00     0.029 A 
ATOM     72  C   UNL     1      13.979  -1.588   8.409  1.00  0.00     0.049 A 
ATOM     73  H   UNL     1      12.650  -0.952   6.898  1.00  0.00     0.167 HD
ATOM     74  C   UNL     1      13.239  -3.685   7.315  1.00  0.00     0.074 A 
ATOM     75  C   UNL     1      13.258  -5.121   7.142  1.00  0.00     0.031 C 
ATOM     76  C   UNL     1      13.978  -3.018   8.236  1.00  0.00     0.037 A 
BRANCH  63  77
ATOM     77  C   UNL     1      13.281   3.113   8.023  1.00  0.00     0.064 A 
ATOM     78  C   UNL     1      12.378   3.896   8.758  1.00  0.00     0.173 A 
ATOM     79  C   UNL     1      14.580   3.610   7.834  1.00  0.00     0.173 A 
ATOM     80  F   UNL     1      11.120   3.472   8.951  1.00  0.00    -0.203 F 
ATOM     81  C   UNL     1      12.754   5.138   9.262  1.00  0.00     0.198 A 
ATOM     82  C   UNL     1      14.960   4.840   8.364  1.00  0.00     0.198 A 
ATOM     83  F   UNL     1      15.481   2.899   7.140  1.00  0.00    -0.203 F 
ATOM     84  F   UNL     1      11.861   5.890   9.920  1.00  0.00    -0.200 F 
ATOM     85  C   UNL     1      14.046   5.606   9.070  1.00  0.00     0.200 A 
ATOM     86  F   UNL     1      16.212   5.285   8.187  1.00  0.00    -0.200 F 
ATOM     87  F   UNL     1      14.407   6.799   9.561  1.00  0.00    -0.200 F 
ENDBRANCH  63  77
BRANCH  64  88
ATOM     88  C   UNL     1      10.486  -5.571   4.001  1.00  0.00     0.064 A 
ATOM     89  C   UNL     1       9.764  -6.522   4.735  1.00  0.00     0.173 A 
ATOM     90  C   UNL     1      10.866  -5.906   2.694  1.00  0.00     0.173 A 
ATOM     91  F   UNL     1       9.405  -6.260   6.000  1.00  0.00    -0.203 F 
ATOM     92  C   UNL     1       9.454  -7.767   4.191  1.00  0.00     0.198 A 
ATOM     93  C   UNL     1      10.532  -7.141   2.141  1.00  0.00     0.198 A 
ATOM     94  F   UNL     1      11.566  -5.034   1.953  1.00  0.00    -0.203 F 
ATOM     95  F   UNL     1       8.810  -8.678   4.933  1.00  0.00    -0.200 F 
ATOM     96  C   UNL     1       9.834  -8.074   2.893  1.00  0.00     0.200 A 
ATOM     97  F   UNL     1      10.896  -7.431   0.884  1.00  0.00    -0.200 F 
ATOM     98  F   UNL     1       9.539  -9.272   2.372  1.00  0.00    -0.200 F 
ENDBRANCH  64  88
BRANCH  76  99
ATOM     99  C   UNL     1      14.835  -3.833   9.163  1.00  0.00     0.064 A 
ATOM    100  C   UNL     1      16.005  -4.468   8.722  1.00  0.00     0.173 A 
ATOM    101  C   UNL     1      14.506  -3.935  10.524  1.00  0.00     0.173 A 
ATOM    102  F   UNL     1      16.357  -4.411   7.429  1.00  0.00    -0.203 F 
ATOM    103  C   UNL     1      16.801  -5.195   9.604  1.00  0.00     0.198 A 
ATOM    104  C   UNL     1      15.320  -4.638  11.409  1.00  0.00     0.198 A 
ATOM    105  F   UNL     1      13.403  -3.339  11.000  1.00  0.00    -0.203 F 
ATOM    106  F   UNL     1      17.890  -5.831   9.151  1.00  0.00    -0.200 F 
ATOM    107  C   UNL     1      16.462  -5.273  10.947  1.00  0.00     0.200 A 
ATOM    108  F   UNL     1      14.999  -4.699  12.709  1.00  0.00    -0.200 F 
ATOM    109  F   UNL     1      17.235  -5.965  11.795  1.00  0.00    -0.200 F 
ENDBRANCH  76  99
ENDBRANCH  50  51
ENDBRANCH  43  45
ENDBRANCH  42  43
ENDBRANCH  41  42
ENDBRANCH  40  41
ENDBRANCH  39  40
ENDBRANCH  38  39
ENDBRANCH   1  38
TORSDOF 21
