REMARK SMILES O=C(OCCOCCOCCOC(=O)[C@@H]1CCCC[C@H]1C(=O)Nc1ccc(NC(=O)c2ccco2)cc1)c1ccc(-c2c3nc(c(-c4c(F)c(F)c(F)c(F)c4F)c4ccc([nH]4)c(-c4c(F)c(F)c(F)c(F)c4F)c4nc(c(-c5c(F)c(F)c(F)c(F)c5F)c5ccc2[nH]5)C=C4)C=C3)cc1
REMARK SMILES IDX 8 1 7 2 6 3 5 4 4 5 3 6 2 7 1 8 38 9 39 10 100 11 40 12
REMARK SMILES IDX 99 13 41 14 42 15 43 16 93 17 44 18 98 19 92 20 94 21 45 22
REMARK SMILES IDX 97 23 91 24 90 25 46 27 78 28 58 29 77 30 59 31 62 32 76 33
REMARK SMILES IDX 95 34 60 35 61 36 75 38 96 39 63 40 47 41 48 42 56 43 49 44
REMARK SMILES IDX 50 45 54 46 57 47 51 48 52 49 55 50 53 51 79 52 80 53 88 54
REMARK SMILES IDX 81 55 82 56 86 57 89 58 83 59 84 60 87 61 85 62 64 63 65 64
REMARK SMILES IDX 73 65 66 66 67 67 71 68 74 69 68 70 69 71 72 72 70 73 9 74
REMARK SMILES IDX 10 75 11 76 12 77 13 78 14 79 15 80 16 81 20 82 17 83 19 84
REMARK SMILES IDX 18 85 21 86 22 87 23 88 24 90 25 91 37 92 26 93 36 94 27 95
REMARK SMILES IDX 28 96 29 97 30 99 31 100 32 101 35 102 33 103 34 104
REMARK H PARENT 94 26 62 37 23 89 28 98
REMARK Flexibility Score: inf
ROOT
ATOM      1  C   UNL     1       1.830  -1.954   2.180  1.00  0.00     0.188 C 
ENDROOT
BRANCH   1   2
ATOM      2  C   UNL     1       2.623  -1.074   1.228  1.00  0.00     0.188 C 
BRANCH   2   3
ATOM      3  O   UNL     1       4.023  -1.316   1.190  1.00  0.00    -0.376 OA
BRANCH   3   4
ATOM      4  C   UNL     1       4.930  -0.209   1.099  1.00  0.00     0.202 C 
BRANCH   4   5
ATOM      5  C   UNL     1       4.453   1.197   0.672  1.00  0.00     0.261 C 
BRANCH   5   6
ATOM      6  O   UNL     1       3.142   1.385   0.060  1.00  0.00    -0.460 OA
BRANCH   6   7
ATOM      7  C   UNL     1       2.539   0.894  -1.051  1.00  0.00     0.338 C 
ATOM      8  O   UNL     1       1.334   1.031  -1.226  1.00  0.00    -0.246 OA
BRANCH   7   9
ATOM      9  C   UNL     1       3.347   0.202  -2.070  1.00  0.00     0.060 A 
ATOM     10  C   UNL     1       4.380  -0.626  -1.687  1.00  0.00     0.016 A 
ATOM     11  C   UNL     1       3.024   0.206  -3.416  1.00  0.00     0.016 A 
ATOM     12  C   UNL     1       5.382  -1.052  -2.504  1.00  0.00     0.010 A 
ATOM     13  C   UNL     1       3.870  -0.479  -4.301  1.00  0.00     0.010 A 
ATOM     14  C   UNL     1       5.091  -1.051  -3.840  1.00  0.00    -0.014 A 
BRANCH  14  15
ATOM     15  C   UNL     1       6.044  -1.841  -4.647  1.00  0.00     0.031 A 
ATOM     16  C   UNL     1       6.522  -1.209  -5.844  1.00  0.00     0.074 A 
ATOM     17  C   UNL     1       6.140  -3.178  -4.421  1.00  0.00     0.049 A 
ATOM     18  N   UNL     1       6.868  -1.808  -6.931  1.00  0.00    -0.248 NA
ATOM     19  C   UNL     1       6.429   0.258  -5.875  1.00  0.00     0.031 C 
ATOM     20  C   UNL     1       4.411  -3.754  -3.769  1.00  0.00     0.029 A 
ATOM     21  N   UNL     1       6.878  -4.650  -5.214  1.00  0.00    -0.354 N 
ATOM     22  C   UNL     1       7.121  -0.770  -7.777  1.00  0.00     0.074 A 
ATOM     23  C   UNL     1       6.700   0.466  -7.148  1.00  0.00     0.031 C 
ATOM     24  C   UNL     1       4.136  -5.544  -4.274  1.00  0.00     0.029 A 
ATOM     25  C   UNL     1       5.761  -6.128  -5.208  1.00  0.00     0.049 A 
ATOM     26  H   UNL     1       7.782  -4.657  -5.606  1.00  0.00     0.167 HD
ATOM     27  C   UNL     1       7.787  -0.871  -8.930  1.00  0.00     0.037 A 
ATOM     28  C   UNL     1       5.955  -7.331  -5.789  1.00  0.00     0.037 A 
ATOM     29  C   UNL     1       8.140  -2.116  -9.539  1.00  0.00     0.049 A 
ATOM     30  C   UNL     1       6.872  -7.249  -6.989  1.00  0.00     0.074 A 
ATOM     31  C   UNL     1       8.826  -2.274 -10.718  1.00  0.00     0.029 A 
ATOM     32  N   UNL     1       7.806  -3.395  -9.072  1.00  0.00    -0.354 N 
ATOM     33  N   UNL     1       7.353  -6.161  -7.557  1.00  0.00    -0.248 NA
ATOM     34  C   UNL     1       7.116  -8.475  -7.757  1.00  0.00     0.031 C 
ATOM     35  C   UNL     1       8.873  -3.633 -10.999  1.00  0.00     0.029 A 
ATOM     36  C   UNL     1       8.300  -4.349  -9.954  1.00  0.00     0.049 A 
ATOM     37  H   UNL     1       7.302  -3.587  -8.248  1.00  0.00     0.167 HD
ATOM     38  C   UNL     1       7.842  -6.549  -8.793  1.00  0.00     0.074 A 
ATOM     39  C   UNL     1       7.733  -8.000  -8.832  1.00  0.00     0.031 C 
ATOM     40  C   UNL     1       8.201  -5.792  -9.863  1.00  0.00     0.037 A 
BRANCH  27  41
ATOM     41  C   UNL     1       8.197   0.434  -9.498  1.00  0.00     0.064 A 
ATOM     42  C   UNL     1       9.118   1.257  -8.820  1.00  0.00     0.173 A 
ATOM     43  C   UNL     1       7.590   0.913 -10.657  1.00  0.00     0.173 A 
ATOM     44  F   UNL     1       9.655   0.861  -7.654  1.00  0.00    -0.203 F 
ATOM     45  C   UNL     1       9.403   2.529  -9.289  1.00  0.00     0.198 A 
ATOM     46  C   UNL     1       7.916   2.168 -11.147  1.00  0.00     0.198 A 
ATOM     47  F   UNL     1       6.660   0.180 -11.286  1.00  0.00    -0.203 F 
ATOM     48  F   UNL     1      10.211   3.334  -8.585  1.00  0.00    -0.200 F 
ATOM     49  C   UNL     1       8.816   2.975 -10.462  1.00  0.00     0.200 A 
ATOM     50  F   UNL     1       7.340   2.609 -12.273  1.00  0.00    -0.200 F 
ATOM     51  F   UNL     1       9.101   4.199 -10.925  1.00  0.00    -0.200 F 
ENDBRANCH  27  41
BRANCH  28  52
ATOM     52  C   UNL     1       5.195  -8.571  -5.398  1.00  0.00     0.064 A 
ATOM     53  C   UNL     1       5.883  -9.767  -5.114  1.00  0.00     0.173 A 
ATOM     54  C   UNL     1       3.799  -8.655  -5.270  1.00  0.00     0.173 A 
ATOM     55  F   UNL     1       7.222  -9.803  -5.191  1.00  0.00    -0.203 F 
ATOM     56  C   UNL     1       5.218 -10.958  -4.784  1.00  0.00     0.198 A 
ATOM     57  C   UNL     1       3.136  -9.817  -4.867  1.00  0.00     0.198 A 
ATOM     58  F   UNL     1       3.014  -7.624  -5.580  1.00  0.00    -0.203 F 
ATOM     59  F   UNL     1       5.917 -12.090  -4.622  1.00  0.00    -0.200 F 
ATOM     60  C   UNL     1       3.843 -10.978  -4.647  1.00  0.00     0.200 A 
ATOM     61  F   UNL     1       1.803  -9.801  -4.723  1.00  0.00    -0.200 F 
ATOM     62  F   UNL     1       3.201 -12.111  -4.332  1.00  0.00    -0.200 F 
ENDBRANCH  28  52
BRANCH  40  63
ATOM     63  C   UNL     1       8.576  -6.547 -11.109  1.00  0.00     0.064 A 
ATOM     64  C   UNL     1       7.623  -7.080 -11.992  1.00  0.00     0.173 A 
ATOM     65  C   UNL     1       9.927  -6.656 -11.463  1.00  0.00     0.173 A 
ATOM     66  F   UNL     1       6.314  -6.989 -11.737  1.00  0.00    -0.203 F 
ATOM     67  C   UNL     1       8.008  -7.734 -13.155  1.00  0.00     0.198 A 
ATOM     68  C   UNL     1      10.306  -7.267 -12.652  1.00  0.00     0.198 A 
ATOM     69  F   UNL     1      10.873  -6.122 -10.677  1.00  0.00    -0.203 F 
ATOM     70  F   UNL     1       7.077  -8.283 -13.948  1.00  0.00    -0.200 F 
ATOM     71  C   UNL     1       9.348  -7.821 -13.489  1.00  0.00     0.200 A 
ATOM     72  F   UNL     1      11.600  -7.311 -12.993  1.00  0.00    -0.200 F 
ATOM     73  F   UNL     1       9.717  -8.440 -14.617  1.00  0.00    -0.200 F 
ENDBRANCH  40  63
ENDBRANCH  14  15
ENDBRANCH   7   9
ENDBRANCH   6   7
ENDBRANCH   5   6
ENDBRANCH   4   5
ENDBRANCH   3   4
ENDBRANCH   2   3
ENDBRANCH   1   2
BRANCH   1  74
ATOM     74  O   UNL     1       2.357  -2.166   3.480  1.00  0.00    -0.376 OA
BRANCH  74  75
ATOM     75  C   UNL     1       3.747  -2.443   3.592  1.00  0.00     0.202 C 
BRANCH  75  76
ATOM     76  C   UNL     1       4.313  -3.715   2.930  1.00  0.00     0.261 C 
BRANCH  76  77
ATOM     77  O   UNL     1       3.709  -4.111   1.696  1.00  0.00    -0.463 OA
BRANCH  77  78
ATOM     78  C   UNL     1       2.613  -4.938   1.718  1.00  0.00     0.309 C 
ATOM     79  O   UNL     1       2.067  -5.391   2.707  1.00  0.00    -0.252 OA
BRANCH  78  80
ATOM     80  C   UNL     1       2.170  -5.145   0.269  1.00  0.00     0.111 C 
ATOM     81  C   UNL     1       0.744  -4.660  -0.092  1.00  0.00     0.016 C 
ATOM     82  C   UNL     1       2.531  -6.564  -0.171  1.00  0.00     0.093 C 
ATOM     83  C   UNL     1       0.126  -5.202  -1.391  1.00  0.00     0.001 C 
ATOM     84  C   UNL     1       1.821  -7.150  -1.405  1.00  0.00     0.014 C 
ATOM     85  C   UNL     1       0.386  -6.677  -1.639  1.00  0.00     0.001 C 
BRANCH  82  86
ATOM     86  C   UNL     1       4.070  -6.676  -0.236  1.00  0.00     0.228 C 
ATOM     87  O   UNL     1       4.640  -7.417   0.576  1.00  0.00    -0.274 OA
ATOM     88  N   UNL     1       4.871  -5.997  -1.121  1.00  0.00    -0.326 N 
ATOM     89  H   UNL     1       5.836  -6.100  -0.957  1.00  0.00     0.169 HD
BRANCH  88  90
ATOM     90  C   UNL     1       4.553  -5.182  -2.220  1.00  0.00     0.041 A 
ATOM     91  C   UNL     1       5.720  -4.985  -3.589  1.00  0.00     0.028 A 
ATOM     92  C   UNL     1       2.890  -4.696  -2.577  1.00  0.00     0.028 A 
ATOM     93  C   UNL     1       4.906  -4.363  -5.413  1.00  0.00     0.028 A 
ATOM     94  C   UNL     1       2.246  -4.137  -4.122  1.00  0.00     0.028 A 
ATOM     95  C   UNL     1       3.180  -3.976  -5.519  1.00  0.00     0.041 A 
BRANCH  95  96
ATOM     96  N   UNL     1       2.654  -3.276  -6.602  1.00  0.00    -0.319 N 
ATOM     97  C   UNL     1       3.017  -3.447  -7.916  1.00  0.00     0.291 C 
ATOM     98  H   UNL     1       1.963  -2.601  -6.410  1.00  0.00     0.170 HD
ATOM     99  O   UNL     1       2.835  -2.532  -8.716  1.00  0.00    -0.265 OA
BRANCH  97 100
ATOM    100  C   UNL     1       3.432  -4.783  -8.271  1.00  0.00     0.191 A 
ATOM    101  C   UNL     1       2.999  -6.014  -7.811  1.00  0.00     0.056 A 
ATOM    102  O   UNL     1       4.404  -4.961  -9.205  1.00  0.00    -0.459 OA
ATOM    103  C   UNL     1       3.786  -6.991  -8.442  1.00  0.00     0.043 A 
ATOM    104  C   UNL     1       4.601  -6.295  -9.293  1.00  0.00     0.196 A 
ENDBRANCH  97 100
ENDBRANCH  95  96
ENDBRANCH  88  90
ENDBRANCH  82  86
ENDBRANCH  78  80
ENDBRANCH  77  78
ENDBRANCH  76  77
ENDBRANCH  75  76
ENDBRANCH  74  75
ENDBRANCH   1  74
TORSDOF 21
