REMARK SMILES CC(C)(CC(=O)OCCOCCOCCOC(=O)c1ccc(-c2c3nc(c(-c4c(F)c(F)c(F)c(F)c4F)c4ccc([nH]4)c(-c4c(F)c(F)c(F)c(F)c4F)c4nc(c(-c5c(F)c(F)c(F)c(F)c5F)c5ccc2[nH]5)C=C4)C=C3)cc1)CC(=O)N1CCN(c2nc3ccc(Cl)cc3s2)CC1
REMARK SMILES IDX 11 1 10 2 9 3 8 4 7 5 5 6 6 7 4 8 2 9 1 10 3 11 82 12 83 13
REMARK SMILES IDX 84 14 85 15 86 16 100 17 87 18 99 19 88 20 89 21 90 22 98 23
REMARK SMILES IDX 91 24 97 25 92 26 96 27 93 28 94 29 95 30 12 31 13 32 14 33
REMARK SMILES IDX 15 34 16 35 17 36 18 37 19 38 20 39 81 40 21 41 80 42 22 43
REMARK SMILES IDX 23 44 24 45 74 46 25 47 79 48 73 49 75 50 26 51 78 52 72 53
REMARK SMILES IDX 71 54 27 56 59 57 39 58 58 59 40 60 43 61 57 62 76 63 41 64
REMARK SMILES IDX 42 65 56 67 77 68 44 69 28 70 29 71 37 72 30 73 31 74 35 75
REMARK SMILES IDX 38 76 32 77 33 78 36 79 34 80 60 81 61 82 69 83 62 84 63 85
REMARK SMILES IDX 67 86 70 87 64 88 65 89 68 90 66 91 45 92 46 93 54 94 47 95
REMARK SMILES IDX 48 96 52 97 55 98 49 99 50 100 53 101 51 102
REMARK H PARENT 75 55 43 66
REMARK Flexibility Score: inf
ROOT
ATOM      1  C   UNL     1      -1.716  -3.907   1.066  1.00  0.00     0.188 C 
ENDROOT
BRANCH   1   2
ATOM      2  O   UNL     1      -3.003  -2.933   0.046  1.00  0.00    -0.376 OA
BRANCH   2   3
ATOM      3  C   UNL     1      -3.385  -2.060  -1.179  1.00  0.00     0.202 C 
BRANCH   3   4
ATOM      4  C   UNL     1      -2.923  -0.608  -1.646  1.00  0.00     0.261 C 
BRANCH   4   5
ATOM      5  O   UNL     1      -1.723  -0.008  -1.126  1.00  0.00    -0.463 OA
BRANCH   5   6
ATOM      6  C   UNL     1      -1.830   1.096  -0.366  1.00  0.00     0.306 C 
ATOM      7  O   UNL     1      -2.847   1.778  -0.276  1.00  0.00    -0.252 OA
BRANCH   6   8
ATOM      8  C   UNL     1      -0.651   1.324   0.570  1.00  0.00     0.129 C 
BRANCH   8   9
ATOM      9  C   UNL     1       0.696   0.542   0.578  1.00  0.00    -0.016 C 
ATOM     10  C   UNL     1       1.626   1.065  -0.525  1.00  0.00     0.012 C 
ATOM     11  C   UNL     1       1.356   0.895   1.952  1.00  0.00     0.012 C 
BRANCH   9  12
ATOM     12  C   UNL     1       0.695  -1.000   0.536  1.00  0.00     0.107 C 
BRANCH  12  13
ATOM     13  C   UNL     1       0.026  -1.734  -0.615  1.00  0.00     0.223 C 
ATOM     14  O   UNL     1       0.550  -1.844  -1.720  1.00  0.00    -0.275 OA
ATOM     15  N   UNL     1      -1.164  -2.350  -0.241  1.00  0.00    -0.339 N 
ATOM     16  C   UNL     1      -1.807  -3.878  -1.165  1.00  0.00     0.141 C 
ATOM     17  C   UNL     1      -2.159  -1.636   1.180  1.00  0.00     0.141 C 
ATOM     18  C   UNL     1      -3.335  -4.813  -0.409  1.00  0.00     0.140 C 
ATOM     19  C   UNL     1      -3.609  -2.665   1.904  1.00  0.00     0.140 C 
ATOM     20  N   UNL     1      -4.182  -4.180   1.088  1.00  0.00    -0.345 N 
BRANCH  20  21
ATOM     21  C   UNL     1      -5.529  -4.052   0.881  1.00  0.00     0.186 A 
ATOM     22  N   UNL     1      -6.045  -3.001   0.291  1.00  0.00    -0.220 NA
ATOM     23  S   UNL     1      -6.684  -5.157   1.510  1.00  0.00    -0.097 S 
ATOM     24  C   UNL     1      -7.410  -2.997   0.381  1.00  0.00     0.084 A 
ATOM     25  C   UNL     1      -7.964  -4.095   1.034  1.00  0.00     0.058 A 
ATOM     26  C   UNL     1      -8.246  -1.976  -0.109  1.00  0.00     0.031 A 
ATOM     27  C   UNL     1      -9.351  -4.206   1.224  1.00  0.00     0.042 A 
ATOM     28  C   UNL     1      -9.625  -2.071   0.076  1.00  0.00     0.023 A 
ATOM     29  C   UNL     1     -10.161  -3.172   0.737  1.00  0.00     0.042 A 
ATOM     30  Cl  UNL     1     -11.866  -3.260   0.964  1.00  0.00    -0.084 Cl
ENDBRANCH  20  21
ENDBRANCH  12  13
ENDBRANCH   9  12
ENDBRANCH   8   9
ENDBRANCH   6   8
ENDBRANCH   5   6
ENDBRANCH   4   5
ENDBRANCH   3   4
ENDBRANCH   2   3
ENDBRANCH   1   2
BRANCH   1  31
ATOM     31  C   UNL     1      -0.144  -4.463   0.816  1.00  0.00     0.188 C 
BRANCH  31  32
ATOM     32  O   UNL     1       0.545  -4.310  -0.412  1.00  0.00    -0.376 OA
BRANCH  32  33
ATOM     33  C   UNL     1       1.886  -4.718  -0.616  1.00  0.00     0.202 C 
BRANCH  33  34
ATOM     34  C   UNL     1       2.059  -6.239  -0.681  1.00  0.00     0.261 C 
BRANCH  34  35
ATOM     35  O   UNL     1       1.741  -6.868   0.565  1.00  0.00    -0.460 OA
BRANCH  35  36
ATOM     36  C   UNL     1       2.440  -6.416   1.626  1.00  0.00     0.338 C 
ATOM     37  O   UNL     1       3.519  -5.833   1.612  1.00  0.00    -0.246 OA
BRANCH  36  38
ATOM     38  C   UNL     1       1.530  -6.449   2.783  1.00  0.00     0.060 A 
ATOM     39  C   UNL     1       1.525  -5.343   3.645  1.00  0.00     0.016 A 
ATOM     40  C   UNL     1       0.606  -7.489   2.946  1.00  0.00     0.016 A 
ATOM     41  C   UNL     1       0.640  -5.307   4.716  1.00  0.00     0.010 A 
ATOM     42  C   UNL     1      -0.267  -7.466   4.029  1.00  0.00     0.010 A 
ATOM     43  C   UNL     1      -0.198  -6.407   4.949  1.00  0.00    -0.014 A 
BRANCH  43  44
ATOM     44  C   UNL     1      -0.658  -6.645   6.330  1.00  0.00     0.031 A 
ATOM     45  C   UNL     1       0.295  -7.392   7.225  1.00  0.00     0.074 A 
ATOM     46  C   UNL     1      -1.844  -6.208   6.779  1.00  0.00     0.049 A 
ATOM     47  N   UNL     1       0.163  -7.754   8.473  1.00  0.00    -0.248 NA
ATOM     48  C   UNL     1       1.582  -7.788   6.620  1.00  0.00     0.031 C 
ATOM     49  C   UNL     1      -2.825  -5.452   6.005  1.00  0.00     0.029 A 
ATOM     50  N   UNL     1      -2.419  -6.351   8.015  1.00  0.00    -0.354 N 
ATOM     51  C   UNL     1       1.346  -8.407   8.795  1.00  0.00     0.074 A 
ATOM     52  C   UNL     1       2.170  -8.430   7.612  1.00  0.00     0.031 C 
ATOM     53  C   UNL     1      -3.893  -5.204   6.787  1.00  0.00     0.029 A 
ATOM     54  C   UNL     1      -3.675  -5.807   8.102  1.00  0.00     0.049 A 
ATOM     55  H   UNL     1      -1.973  -6.802   8.768  1.00  0.00     0.167 HD
ATOM     56  C   UNL     1       1.719  -8.936   9.980  1.00  0.00     0.037 A 
ATOM     57  C   UNL     1      -4.543  -5.819   9.132  1.00  0.00     0.037 A 
ATOM     58  C   UNL     1       0.883  -8.941  11.144  1.00  0.00     0.049 A 
ATOM     59  C   UNL     1      -4.133  -6.486  10.424  1.00  0.00     0.074 A 
ATOM     60  C   UNL     1       1.145  -9.465  12.395  1.00  0.00     0.029 A 
ATOM     61  N   UNL     1      -0.394  -8.400  11.188  1.00  0.00    -0.354 N 
ATOM     62  N   UNL     1      -3.004  -7.077  10.736  1.00  0.00    -0.248 NA
ATOM     63  C   UNL     1      -5.122  -6.481  11.511  1.00  0.00     0.031 C 
ATOM     64  C   UNL     1       0.005  -9.284  13.184  1.00  0.00     0.029 A 
ATOM     65  C   UNL     1      -0.942  -8.594  12.442  1.00  0.00     0.049 A 
ATOM     66  H   UNL     1      -0.842  -7.946  10.439  1.00  0.00     0.167 HD
ATOM     67  C   UNL     1      -3.133  -7.482  12.059  1.00  0.00     0.074 A 
ATOM     68  C   UNL     1      -4.447  -7.058  12.495  1.00  0.00     0.031 C 
ATOM     69  C   UNL     1      -2.249  -8.145  12.847  1.00  0.00     0.037 A 
BRANCH  56  70
ATOM     70  C   UNL     1       3.070  -9.582  10.042  1.00  0.00     0.064 A 
ATOM     71  C   UNL     1       4.252  -8.825   9.985  1.00  0.00     0.173 A 
ATOM     72  C   UNL     1       3.186 -10.976  10.134  1.00  0.00     0.173 A 
ATOM     73  F   UNL     1       4.193  -7.491   9.860  1.00  0.00    -0.203 F 
ATOM     74  C   UNL     1       5.498  -9.444   9.993  1.00  0.00     0.198 A 
ATOM     75  C   UNL     1       4.435 -11.589  10.173  1.00  0.00     0.198 A 
ATOM     76  F   UNL     1       2.087 -11.744  10.176  1.00  0.00    -0.203 F 
ATOM     77  F   UNL     1       6.612  -8.707   9.877  1.00  0.00    -0.200 F 
ATOM     78  C   UNL     1       5.589 -10.824  10.094  1.00  0.00     0.200 A 
ATOM     79  F   UNL     1       4.521 -12.923  10.272  1.00  0.00    -0.200 F 
ATOM     80  F   UNL     1       6.790 -11.419  10.101  1.00  0.00    -0.200 F 
ENDBRANCH  56  70
BRANCH  57  81
ATOM     81  C   UNL     1      -5.882  -5.190   8.993  1.00  0.00     0.064 A 
ATOM     82  C   UNL     1      -6.226  -4.048   9.729  1.00  0.00     0.173 A 
ATOM     83  C   UNL     1      -6.860  -5.739   8.150  1.00  0.00     0.173 A 
ATOM     84  F   UNL     1      -5.334  -3.500  10.569  1.00  0.00    -0.203 F 
ATOM     85  C   UNL     1      -7.502  -3.494   9.648  1.00  0.00     0.198 A 
ATOM     86  C   UNL     1      -8.127  -5.167   8.047  1.00  0.00     0.198 A 
ATOM     87  F   UNL     1      -6.585  -6.834   7.426  1.00  0.00    -0.203 F 
ATOM     88  F   UNL     1      -7.820  -2.435  10.405  1.00  0.00    -0.200 F 
ATOM     89  C   UNL     1      -8.450  -4.052   8.804  1.00  0.00     0.200 A 
ATOM     90  F   UNL     1      -9.037  -5.705   7.223  1.00  0.00    -0.200 F 
ATOM     91  F   UNL     1      -9.679  -3.522   8.729  1.00  0.00    -0.200 F 
ENDBRANCH  57  81
BRANCH  69  92
ATOM     92  C   UNL     1      -2.653  -8.405  14.269  1.00  0.00     0.064 A 
ATOM     93  C   UNL     1      -3.639  -9.347  14.598  1.00  0.00     0.173 A 
ATOM     94  C   UNL     1      -2.006  -7.736  15.320  1.00  0.00     0.173 A 
ATOM     95  F   UNL     1      -4.292 -10.007  13.629  1.00  0.00    -0.203 F 
ATOM     96  C   UNL     1      -3.985  -9.585  15.925  1.00  0.00     0.198 A 
ATOM     97  C   UNL     1      -2.331  -8.001  16.646  1.00  0.00     0.198 A 
ATOM     98  F   UNL     1      -1.046  -6.836  15.059  1.00  0.00    -0.203 F 
ATOM     99  F   UNL     1      -4.966 -10.450  16.214  1.00  0.00    -0.200 F 
ATOM    100  C   UNL     1      -3.326  -8.917  16.947  1.00  0.00     0.200 A 
ATOM    101  F   UNL     1      -1.680  -7.369  17.633  1.00  0.00    -0.200 F 
ATOM    102  F   UNL     1      -3.656  -9.153  18.224  1.00  0.00    -0.200 F 
ENDBRANCH  69  92
ENDBRANCH  43  44
ENDBRANCH  36  38
ENDBRANCH  35  36
ENDBRANCH  34  35
ENDBRANCH  33  34
ENDBRANCH  32  33
ENDBRANCH  31  32
ENDBRANCH   1  31
TORSDOF 21
