REMARK SMILES Cc1c(CC(=O)OCCOCCOCCOC(=O)c2ccc(-c3c4nc(c(-c5c(F)c(F)c(F)c(F)c5F)c5ccc([nH]5)c(-c5c(F)c(F)c(F)c(F)c5F)c5nc(c(-c6c(F)c(F)c(F)c(F)c6F)c6ccc3[nH]6)C=C5)C=C4)cc2)cc(-c2ccccc2)cc1-c1ccccc1
REMARK SMILES IDX 11 1 10 2 9 3 8 4 7 5 5 6 6 7 4 8 3 9 1 10 2 11 91 12 82 13
REMARK SMILES IDX 90 14 83 15 92 16 93 17 97 18 94 19 96 20 95 21 84 22 85 23
REMARK SMILES IDX 89 24 86 25 88 26 87 27 12 28 13 29 14 30 15 31 16 32 17 33
REMARK SMILES IDX 18 34 19 35 20 36 81 37 21 38 80 39 22 40 23 41 24 42 74 43
REMARK SMILES IDX 25 44 79 45 73 46 75 47 26 48 78 49 72 50 71 51 27 53 59 54
REMARK SMILES IDX 39 55 58 56 40 57 43 58 57 59 76 60 41 61 42 62 56 64 77 65
REMARK SMILES IDX 44 66 28 67 29 68 37 69 30 70 31 71 35 72 38 73 32 74 33 75
REMARK SMILES IDX 36 76 34 77 60 78 61 79 69 80 62 81 63 82 67 83 70 84 64 85
REMARK SMILES IDX 65 86 68 87 66 88 45 89 46 90 54 91 47 92 48 93 52 94 55 95
REMARK SMILES IDX 49 96 50 97 53 98 51 99
REMARK H PARENT 75 52 43 63
REMARK Flexibility Score: inf
ROOT
ATOM      1  C   UNL     1      -1.820  -3.765   4.921  1.00  0.00     0.188 C 
ENDROOT
BRANCH   1   2
ATOM      2  O   UNL     1      -0.948  -2.989   4.094  1.00  0.00    -0.376 OA
BRANCH   2   3
ATOM      3  C   UNL     1      -0.030  -2.011   4.562  1.00  0.00     0.202 C 
BRANCH   3   4
ATOM      4  C   UNL     1       0.358  -0.759   3.519  1.00  0.00     0.261 C 
BRANCH   4   5
ATOM      5  O   UNL     1       0.549  -0.754   1.848  1.00  0.00    -0.463 OA
BRANCH   5   6
ATOM      6  C   UNL     1       1.208  -1.308   0.728  1.00  0.00     0.310 C 
ATOM      7  O   UNL     1       2.170  -2.071   0.662  1.00  0.00    -0.252 OA
BRANCH   6   8
ATOM      8  C   UNL     1       0.673  -1.010  -0.630  1.00  0.00     0.158 C 
BRANCH   8   9
ATOM      9  C   UNL     1       0.111   0.344  -0.698  1.00  0.00    -0.033 A 
ATOM     10  C   UNL     1       2.403   1.370  -0.349  1.00  0.00     0.045 C 
ATOM     11  C   UNL     1       0.891   1.483  -0.464  1.00  0.00    -0.039 A 
ATOM     12  C   UNL     1       0.219   2.714  -0.371  1.00  0.00    -0.015 A 
ATOM     13  C   UNL     1      -1.263   0.404  -0.858  1.00  0.00     0.013 A 
ATOM     14  C   UNL     1      -1.199   2.744  -0.425  1.00  0.00     0.017 A 
ATOM     15  C   UNL     1      -1.947   1.588  -0.671  1.00  0.00    -0.017 A 
BRANCH  12  16
ATOM     16  C   UNL     1       0.990   3.950  -0.231  1.00  0.00    -0.018 A 
ATOM     17  C   UNL     1       0.989   4.676   0.965  1.00  0.00     0.009 A 
ATOM     18  C   UNL     1       1.836   4.359  -1.277  1.00  0.00     0.009 A 
ATOM     19  C   UNL     1       1.813   5.792   1.107  1.00  0.00     0.001 A 
ATOM     20  C   UNL     1       2.669   5.463  -1.129  1.00  0.00     0.001 A 
ATOM     21  C   UNL     1       2.651   6.183   0.062  1.00  0.00     0.000 A 
ENDBRANCH  12  16
BRANCH  15  22
ATOM     22  C   UNL     1      -3.402   1.481  -0.690  1.00  0.00    -0.018 A 
ATOM     23  C   UNL     1      -4.117   1.392   0.513  1.00  0.00     0.009 A 
ATOM     24  C   UNL     1      -4.063   1.183  -1.893  1.00  0.00     0.009 A 
ATOM     25  C   UNL     1      -5.460   1.015   0.511  1.00  0.00     0.001 A 
ATOM     26  C   UNL     1      -5.405   0.808  -1.894  1.00  0.00     0.001 A 
ATOM     27  C   UNL     1      -6.102   0.723  -0.692  1.00  0.00     0.000 A 
ENDBRANCH  15  22
ENDBRANCH   8   9
ENDBRANCH   6   8
ENDBRANCH   5   6
ENDBRANCH   4   5
ENDBRANCH   3   4
ENDBRANCH   2   3
ENDBRANCH   1   2
BRANCH   1  28
ATOM     28  C   UNL     1      -3.224  -3.628   4.302  1.00  0.00     0.188 C 
BRANCH  28  29
ATOM     29  O   UNL     1      -4.077  -2.760   5.038  1.00  0.00    -0.376 OA
BRANCH  29  30
ATOM     30  C   UNL     1      -4.820  -1.829   4.231  1.00  0.00     0.202 C 
BRANCH  30  31
ATOM     31  C   UNL     1      -5.591  -2.403   3.006  1.00  0.00     0.261 C 
BRANCH  31  32
ATOM     32  O   UNL     1      -4.746  -2.326   1.825  1.00  0.00    -0.460 OA
BRANCH  32  33
ATOM     33  C   UNL     1      -4.501  -3.409   1.022  1.00  0.00     0.338 C 
ATOM     34  O   UNL     1      -5.239  -4.371   0.878  1.00  0.00    -0.246 OA
BRANCH  33  35
ATOM     35  C   UNL     1      -3.043  -3.364   0.612  1.00  0.00     0.060 A 
ATOM     36  C   UNL     1      -2.261  -4.472   0.256  1.00  0.00     0.016 A 
ATOM     37  C   UNL     1      -2.348  -2.285   1.045  1.00  0.00     0.016 A 
ATOM     38  C   UNL     1      -0.843  -4.553   0.593  1.00  0.00     0.010 A 
ATOM     39  C   UNL     1      -1.100  -2.557   1.601  1.00  0.00     0.010 A 
ATOM     40  C   UNL     1      -0.215  -3.637   1.451  1.00  0.00    -0.014 A 
BRANCH  40  41
ATOM     41  C   UNL     1       1.093  -3.936   2.394  1.00  0.00     0.031 A 
ATOM     42  C   UNL     1       2.513  -3.166   2.828  1.00  0.00     0.074 A 
ATOM     43  C   UNL     1       0.988  -5.119   3.047  1.00  0.00     0.049 A 
ATOM     44  N   UNL     1       3.631  -3.813   3.147  1.00  0.00    -0.248 NA
ATOM     45  C   UNL     1       2.877  -1.709   2.875  1.00  0.00     0.031 C 
ATOM     46  C   UNL     1       1.805  -5.643   4.136  1.00  0.00     0.029 A 
ATOM     47  N   UNL     1       0.135  -6.180   2.732  1.00  0.00    -0.354 N 
ATOM     48  C   UNL     1       4.609  -2.875   3.497  1.00  0.00     0.074 A 
ATOM     49  C   UNL     1       4.195  -1.670   2.934  1.00  0.00     0.031 C 
ATOM     50  C   UNL     1       1.637  -6.971   4.199  1.00  0.00     0.029 A 
ATOM     51  C   UNL     1       0.791  -7.365   3.090  1.00  0.00     0.049 A 
ATOM     52  H   UNL     1      -0.762  -6.108   2.333  1.00  0.00     0.167 HD
ATOM     53  C   UNL     1       5.646  -3.047   4.359  1.00  0.00     0.037 A 
ATOM     54  C   UNL     1       1.102  -8.259   2.107  1.00  0.00     0.037 A 
ATOM     55  C   UNL     1       5.856  -4.454   4.561  1.00  0.00     0.049 A 
ATOM     56  C   UNL     1       2.598  -8.364   1.851  1.00  0.00     0.074 A 
ATOM     57  C   UNL     1       5.521  -5.366   5.537  1.00  0.00     0.029 A 
ATOM     58  N   UNL     1       6.197  -5.181   3.438  1.00  0.00    -0.354 N 
ATOM     59  N   UNL     1       3.528  -7.840   2.606  1.00  0.00    -0.248 NA
ATOM     60  C   UNL     1       3.158  -8.997   0.653  1.00  0.00     0.031 C 
ATOM     61  C   UNL     1       5.473  -6.650   4.902  1.00  0.00     0.029 A 
ATOM     62  C   UNL     1       5.848  -6.506   3.576  1.00  0.00     0.049 A 
ATOM     63  H   UNL     1       6.633  -4.801   2.642  1.00  0.00     0.167 HD
ATOM     64  C   UNL     1       4.732  -7.929   1.960  1.00  0.00     0.074 A 
ATOM     65  C   UNL     1       4.457  -8.684   0.754  1.00  0.00     0.031 C 
ATOM     66  C   UNL     1       5.882  -7.338   2.387  1.00  0.00     0.037 A 
BRANCH  53  67
ATOM     67  C   UNL     1       6.431  -1.902   5.032  1.00  0.00     0.064 A 
ATOM     68  C   UNL     1       7.584  -2.186   5.790  1.00  0.00     0.173 A 
ATOM     69  C   UNL     1       6.069  -0.522   5.057  1.00  0.00     0.173 A 
ATOM     70  F   UNL     1       8.026  -3.445   5.916  1.00  0.00    -0.203 F 
ATOM     71  C   UNL     1       8.311  -1.193   6.475  1.00  0.00     0.198 A 
ATOM     72  C   UNL     1       6.842   0.476   5.665  1.00  0.00     0.198 A 
ATOM     73  F   UNL     1       4.907  -0.064   4.580  1.00  0.00    -0.203 F 
ATOM     74  F   UNL     1       9.356  -1.540   7.240  1.00  0.00    -0.200 F 
ATOM     75  C   UNL     1       7.956   0.140   6.391  1.00  0.00     0.200 A 
ATOM     76  F   UNL     1       6.459   1.760   5.574  1.00  0.00    -0.200 F 
ATOM     77  F   UNL     1       8.652   1.085   7.037  1.00  0.00    -0.200 F 
ENDBRANCH  53  67
BRANCH  54  78
ATOM     78  C   UNL     1      -0.004  -8.409   1.106  1.00  0.00     0.064 A 
ATOM     79  C   UNL     1      -1.294  -8.722   1.599  1.00  0.00     0.173 A 
ATOM     80  C   UNL     1       0.067  -7.972  -0.223  1.00  0.00     0.173 A 
ATOM     81  F   UNL     1      -1.446  -9.132   2.870  1.00  0.00    -0.203 F 
ATOM     82  C   UNL     1      -2.447  -8.501   0.848  1.00  0.00     0.198 A 
ATOM     83  C   UNL     1      -1.091  -7.788  -0.988  1.00  0.00     0.198 A 
ATOM     84  F   UNL     1       1.232  -7.580  -0.755  1.00  0.00    -0.203 F 
ATOM     85  F   UNL     1      -3.653  -8.668   1.409  1.00  0.00    -0.200 F 
ATOM     86  C   UNL     1      -2.345  -8.025  -0.444  1.00  0.00     0.200 A 
ATOM     87  F   UNL     1      -0.997  -7.260  -2.217  1.00  0.00    -0.200 F 
ATOM     88  F   UNL     1      -3.449  -7.711  -1.136  1.00  0.00    -0.200 F 
ENDBRANCH  54  78
BRANCH  66  89
ATOM     89  C   UNL     1       7.164  -7.529   1.640  1.00  0.00     0.064 A 
ATOM     90  C   UNL     1       7.691  -8.817   1.474  1.00  0.00     0.173 A 
ATOM     91  C   UNL     1       7.956  -6.453   1.199  1.00  0.00     0.173 A 
ATOM     92  F   UNL     1       6.989  -9.891   1.867  1.00  0.00    -0.203 F 
ATOM     93  C   UNL     1       8.948  -9.018   0.911  1.00  0.00     0.198 A 
ATOM     94  C   UNL     1       9.232  -6.653   0.680  1.00  0.00     0.198 A 
ATOM     95  F   UNL     1       7.506  -5.190   1.262  1.00  0.00    -0.203 F 
ATOM     96  F   UNL     1       9.409 -10.265   0.745  1.00  0.00    -0.200 F 
ATOM     97  C   UNL     1       9.728  -7.936   0.537  1.00  0.00     0.200 A 
ATOM     98  F   UNL     1       9.983  -5.599   0.331  1.00  0.00    -0.200 F 
ATOM     99  F   UNL     1      10.955  -8.131   0.035  1.00  0.00    -0.200 F 
ENDBRANCH  66  89
ENDBRANCH  40  41
ENDBRANCH  33  35
ENDBRANCH  32  33
ENDBRANCH  31  32
ENDBRANCH  30  31
ENDBRANCH  29  30
ENDBRANCH  28  29
ENDBRANCH   1  28
TORSDOF 20
