REMARK SMILES O=Cc1ccc2c(c1)C=C(C(=O)OCCOCCOCCOC(=O)c1ccc(-c3c4nc(c(-c5c(F)c(F)c(F)c(F)c5F)c5ccc([nH]5)c(-c5c(F)c(F)c(F)c(F)c5F)c5nc(c(-c6c(F)c(F)c(F)c(F)c6F)c6ccc3[nH]6)C=C5)C=C4)cc1)[C@H](C(F)(F)F)O2
REMARK SMILES IDX 18 1 17 2 16 3 15 4 14 5 13 6 11 7 12 8 10 9 3 10 4 11 8 12
REMARK SMILES IDX 5 13 7 14 6 15 9 16 93 17 88 18 2 19 1 20 89 21 90 22 91 23
REMARK SMILES IDX 92 24 19 25 20 26 21 27 22 28 23 29 24 30 25 31 26 32 87 33
REMARK SMILES IDX 27 34 86 35 28 36 29 37 30 38 80 39 31 40 85 41 79 42 81 43
REMARK SMILES IDX 32 44 84 45 78 46 77 47 33 49 65 50 45 51 64 52 46 53 49 54
REMARK SMILES IDX 63 55 82 56 47 57 48 58 62 60 83 61 50 62 34 63 35 64 43 65
REMARK SMILES IDX 36 66 37 67 41 68 44 69 38 70 39 71 42 72 40 73 66 74 67 75
REMARK SMILES IDX 75 76 68 77 69 78 73 79 76 80 70 81 71 82 74 83 72 84 51 85
REMARK SMILES IDX 52 86 60 87 53 88 54 89 58 90 61 91 55 92 56 93 59 94 57 95
REMARK H PARENT 81 48 49 59
REMARK Flexibility Score: inf
ROOT
ATOM      1  C   UNL     1       6.830  -4.692   4.400  1.00  0.00     0.188 C 
ENDROOT
BRANCH   1   2
ATOM      2  C   UNL     1       7.996  -5.648   4.065  1.00  0.00     0.188 C 
BRANCH   2   3
ATOM      3  O   UNL     1       9.177  -5.359   4.772  1.00  0.00    -0.376 OA
BRANCH   3   4
ATOM      4  C   UNL     1      10.232  -4.677   4.119  1.00  0.00     0.202 C 
BRANCH   4   5
ATOM      5  C   UNL     1      10.003  -3.529   3.115  1.00  0.00     0.261 C 
BRANCH   5   6
ATOM      6  O   UNL     1       8.704  -3.417   2.521  1.00  0.00    -0.460 OA
BRANCH   6   7
ATOM      7  C   UNL     1       8.541  -3.943   1.283  1.00  0.00     0.338 C 
ATOM      8  O   UNL     1       9.382  -4.540   0.639  1.00  0.00    -0.246 OA
BRANCH   7   9
ATOM      9  C   UNL     1       7.131  -3.805   0.861  1.00  0.00     0.087 C 
ATOM     10  C   UNL     1       3.127  -1.260   0.006  1.00  0.00     0.015 A 
ATOM     11  C   UNL     1       2.641  -2.300  -0.793  1.00  0.00     0.015 A 
ATOM     12  C   UNL     1       4.379  -1.360   0.627  1.00  0.00     0.023 A 
ATOM     13  C   UNL     1       3.406  -3.451  -0.971  1.00  0.00     0.048 A 
ATOM     14  C   UNL     1       5.155  -2.509   0.437  1.00  0.00     0.018 A 
ATOM     15  C   UNL     1       4.649  -3.555  -0.350  1.00  0.00     0.128 A 
ATOM     16  C   UNL     1       6.524  -2.608   0.943  1.00  0.00     0.027 C 
ATOM     17  O   UNL     1       5.371  -4.690  -0.611  1.00  0.00    -0.475 OA
ATOM     18  C   UNL     1       6.363  -5.024   0.396  1.00  0.00     0.316 C 
BRANCH  10  19
ATOM     19  C   UNL     1       2.330  -0.026   0.165  1.00  0.00     0.260 C 
ATOM     20  O   UNL     1       1.223   0.102  -0.344  1.00  0.00    -0.298 OA
ENDBRANCH  10  19
BRANCH  18  21
ATOM     21  C   UNL     1       7.153  -6.247  -0.096  1.00  0.00     0.430 C 
ATOM     22  F   UNL     1       7.913  -6.772   0.895  1.00  0.00    -0.167 F 
ATOM     23  F   UNL     1       6.297  -7.239  -0.462  1.00  0.00    -0.167 F 
ATOM     24  F   UNL     1       7.939  -5.986  -1.157  1.00  0.00    -0.167 F 
ENDBRANCH  18  21
ENDBRANCH   7   9
ENDBRANCH   6   7
ENDBRANCH   5   6
ENDBRANCH   4   5
ENDBRANCH   3   4
ENDBRANCH   2   3
ENDBRANCH   1   2
BRANCH   1  25
ATOM     25  O   UNL     1       7.015  -3.645   5.342  1.00  0.00    -0.376 OA
BRANCH  25  26
ATOM     26  C   UNL     1       7.657  -3.928   6.580  1.00  0.00     0.202 C 
BRANCH  26  27
ATOM     27  C   UNL     1       7.160  -5.088   7.459  1.00  0.00     0.261 C 
BRANCH  27  28
ATOM     28  O   UNL     1       6.973  -6.345   6.788  1.00  0.00    -0.460 OA
BRANCH  28  29
ATOM     29  C   UNL     1       5.686  -6.743   6.638  1.00  0.00     0.338 C 
ATOM     30  O   UNL     1       4.680  -6.158   6.996  1.00  0.00    -0.246 OA
BRANCH  29  31
ATOM     31  C   UNL     1       5.641  -7.955   5.796  1.00  0.00     0.060 A 
ATOM     32  C   UNL     1       4.978  -7.897   4.561  1.00  0.00     0.016 A 
ATOM     33  C   UNL     1       6.182  -9.154   6.255  1.00  0.00     0.016 A 
ATOM     34  C   UNL     1       4.835  -9.048   3.785  1.00  0.00     0.010 A 
ATOM     35  C   UNL     1       6.013 -10.312   5.492  1.00  0.00     0.010 A 
ATOM     36  C   UNL     1       5.313 -10.270   4.271  1.00  0.00    -0.014 A 
BRANCH  36  37
ATOM     37  C   UNL     1       4.914 -11.544   3.628  1.00  0.00     0.031 A 
ATOM     38  C   UNL     1       3.757 -12.302   4.216  1.00  0.00     0.074 A 
ATOM     39  C   UNL     1       5.583 -12.039   2.574  1.00  0.00     0.049 A 
ATOM     40  N   UNL     1       3.331 -13.511   3.955  1.00  0.00    -0.248 NA
ATOM     41  C   UNL     1       2.981 -11.599   5.251  1.00  0.00     0.031 C 
ATOM     42  C   UNL     1       6.678 -11.371   1.876  1.00  0.00     0.029 A 
ATOM     43  N   UNL     1       5.450 -13.243   1.925  1.00  0.00    -0.354 N 
ATOM     44  C   UNL     1       2.255 -13.720   4.807  1.00  0.00     0.074 A 
ATOM     45  C   UNL     1       2.102 -12.523   5.604  1.00  0.00     0.031 C 
ATOM     46  C   UNL     1       7.141 -12.189   0.914  1.00  0.00     0.029 A 
ATOM     47  C   UNL     1       6.405 -13.452   0.962  1.00  0.00     0.049 A 
ATOM     48  H   UNL     1       4.739 -13.892   2.132  1.00  0.00     0.167 HD
ATOM     49  C   UNL     1       1.467 -14.816   4.914  1.00  0.00     0.037 A 
ATOM     50  C   UNL     1       6.676 -14.555   0.235  1.00  0.00     0.037 A 
ATOM     51  C   UNL     1       1.628 -16.005   4.120  1.00  0.00     0.049 A 
ATOM     52  C   UNL     1       5.839 -15.795   0.431  1.00  0.00     0.074 A 
ATOM     53  C   UNL     1       0.880 -17.168   4.147  1.00  0.00     0.029 A 
ATOM     54  N   UNL     1       2.613 -16.183   3.160  1.00  0.00    -0.354 N 
ATOM     55  N   UNL     1       4.821 -15.992   1.234  1.00  0.00    -0.248 NA
ATOM     56  C   UNL     1       6.191 -16.970  -0.380  1.00  0.00     0.031 C 
ATOM     57  C   UNL     1       1.446 -18.072   3.243  1.00  0.00     0.029 A 
ATOM     58  C   UNL     1       2.506 -17.447   2.604  1.00  0.00     0.049 A 
ATOM     59  H   UNL     1       3.288 -15.511   2.911  1.00  0.00     0.167 HD
ATOM     60  C   UNL     1       4.386 -17.290   0.994  1.00  0.00     0.074 A 
ATOM     61  C   UNL     1       5.251 -17.836  -0.030  1.00  0.00     0.031 C 
ATOM     62  C   UNL     1       3.358 -17.966   1.564  1.00  0.00     0.037 A 
BRANCH  49  63
ATOM     63  C   UNL     1       0.385 -14.793   5.954  1.00  0.00     0.064 A 
ATOM     64  C   UNL     1      -0.748 -13.976   5.826  1.00  0.00     0.173 A 
ATOM     65  C   UNL     1       0.473 -15.620   7.084  1.00  0.00     0.173 A 
ATOM     66  F   UNL     1      -0.873 -13.153   4.774  1.00  0.00    -0.203 F 
ATOM     67  C   UNL     1      -1.739 -13.968   6.805  1.00  0.00     0.198 A 
ATOM     68  C   UNL     1      -0.535 -15.634   8.043  1.00  0.00     0.198 A 
ATOM     69  F   UNL     1       1.534 -16.423   7.254  1.00  0.00    -0.203 F 
ATOM     70  F   UNL     1      -2.787 -13.141   6.687  1.00  0.00    -0.200 F 
ATOM     71  C   UNL     1      -1.636 -14.802   7.908  1.00  0.00     0.200 A 
ATOM     72  F   UNL     1      -0.440 -16.451   9.102  1.00  0.00    -0.200 F 
ATOM     73  F   UNL     1      -2.594 -14.799   8.844  1.00  0.00    -0.200 F 
ENDBRANCH  49  63
BRANCH  50  74
ATOM     74  C   UNL     1       7.806 -14.551  -0.732  1.00  0.00     0.064 A 
ATOM     75  C   UNL     1       7.575 -14.642  -2.112  1.00  0.00     0.173 A 
ATOM     76  C   UNL     1       9.138 -14.487  -0.298  1.00  0.00     0.173 A 
ATOM     77  F   UNL     1       6.320 -14.736  -2.575  1.00  0.00    -0.203 F 
ATOM     78  C   UNL     1       8.633 -14.690  -3.018  1.00  0.00     0.198 A 
ATOM     79  C   UNL     1      10.194 -14.505  -1.207  1.00  0.00     0.198 A 
ATOM     80  F   UNL     1       9.415 -14.406   1.012  1.00  0.00    -0.203 F 
ATOM     81  F   UNL     1       8.384 -14.833  -4.327  1.00  0.00    -0.200 F 
ATOM     82  C   UNL     1       9.941 -14.615  -2.565  1.00  0.00     0.200 A 
ATOM     83  F   UNL     1      11.457 -14.424  -0.765  1.00  0.00    -0.200 F 
ATOM     84  F   UNL     1      10.958 -14.664  -3.437  1.00  0.00    -0.200 F 
ENDBRANCH  50  74
BRANCH  62  85
ATOM     85  C   UNL     1       3.056 -19.345   1.051  1.00  0.00     0.064 A 
ATOM     86  C   UNL     1       3.886 -20.441   1.327  1.00  0.00     0.173 A 
ATOM     87  C   UNL     1       1.877 -19.582   0.326  1.00  0.00     0.173 A 
ATOM     88  F   UNL     1       5.031 -20.267   2.005  1.00  0.00    -0.203 F 
ATOM     89  C   UNL     1       3.556 -21.719   0.881  1.00  0.00     0.198 A 
ATOM     90  C   UNL     1       1.534 -20.865  -0.089  1.00  0.00     0.198 A 
ATOM     91  F   UNL     1       1.043 -18.569   0.043  1.00  0.00    -0.203 F 
ATOM     92  F   UNL     1       4.383 -22.745   1.123  1.00  0.00    -0.200 F 
ATOM     93  C   UNL     1       2.376 -21.931   0.183  1.00  0.00     0.200 A 
ATOM     94  F   UNL     1       0.385 -21.069  -0.748  1.00  0.00    -0.200 F 
ATOM     95  F   UNL     1       2.052 -23.164  -0.230  1.00  0.00    -0.200 F 
ENDBRANCH  62  85
ENDBRANCH  36  37
ENDBRANCH  29  31
ENDBRANCH  28  29
ENDBRANCH  27  28
ENDBRANCH  26  27
ENDBRANCH  25  26
ENDBRANCH   1  25
TORSDOF 19
