REMARK SMILES COc1ccc(-c2ccc(/C=C3\SC(=S)N([C@H](Cc4ccccc4)C(=O)OCCOCCOCCOC(=O)c4ccc(-c5c6nc(c(-c7c(F)c(F)c(F)c(F)c7F)c7ccc([nH]7)c(-c7c(F)c(F)c(F)c(F)c7F)c7nc(c(-c8c(F)c(F)c(F)c(F)c8F)c8ccc5[nH]8)C=C7)C=C6)cc4)C3=O)o2)cc1
REMARK SMILES IDX 31 1 30 2 29 3 28 4 27 5 25 6 26 7 17 8 16 9 11 10 12 11
REMARK SMILES IDX 13 12 102 13 14 14 103 15 15 16 10 17 7 18 8 19 104 20 9 21
REMARK SMILES IDX 6 22 3 23 4 24 106 25 5 26 105 27 2 28 1 29 18 30 19 31
REMARK SMILES IDX 20 32 24 33 21 34 23 35 22 36 32 37 33 38 34 39 35 40 36 41
REMARK SMILES IDX 37 42 38 43 39 44 40 45 101 46 41 47 100 48 42 49 43 50
REMARK SMILES IDX 44 51 94 52 45 53 99 54 93 55 95 56 46 57 98 58 92 59 91 60
REMARK SMILES IDX 47 62 79 63 59 64 78 65 60 66 63 67 77 68 96 69 61 70 62 71
REMARK SMILES IDX 76 73 97 74 64 75 48 76 49 77 57 78 50 79 51 80 55 81 58 82
REMARK SMILES IDX 52 83 53 84 56 85 54 86 80 87 81 88 89 89 82 90 83 91 87 92
REMARK SMILES IDX 90 93 84 94 85 95 88 96 86 97 65 98 66 99 74 100 67 101
REMARK SMILES IDX 68 102 72 103 75 104 69 105 70 106 73 107 71 108
REMARK H PARENT 95 61 63 72
REMARK Flexibility Score: inf
ROOT
ATOM      1  C   UNL     1       3.693 -15.714  -0.772  1.00  0.00     0.188 C 
ENDROOT
BRANCH   1   2
ATOM      2  O   UNL     1       4.017 -16.207  -2.058  1.00  0.00    -0.376 OA
BRANCH   2   3
ATOM      3  C   UNL     1       3.504 -15.545  -3.201  1.00  0.00     0.202 C 
BRANCH   3   4
ATOM      4  C   UNL     1       1.990 -15.372  -3.291  1.00  0.00     0.261 C 
BRANCH   4   5
ATOM      5  O   UNL     1       1.442 -14.602  -2.202  1.00  0.00    -0.462 OA
BRANCH   5   6
ATOM      6  C   UNL     1       0.496 -15.201  -1.435  1.00  0.00     0.329 C 
ATOM      7  O   UNL     1       0.163 -16.378  -1.554  1.00  0.00    -0.250 OA
BRANCH   6   8
ATOM      8  C   UNL     1      -0.291 -14.234  -0.527  1.00  0.00     0.206 C 
BRANCH   8   9
ATOM      9  N   UNL     1      -1.564 -14.053  -1.244  1.00  0.00    -0.278 N 
ATOM     10  C   UNL     1      -2.979 -13.563  -4.474  1.00  0.00     0.068 C 
ATOM     11  C   UNL     1      -2.854 -13.657  -3.148  1.00  0.00     0.084 C 
ATOM     12  S   UNL     1      -4.034 -13.975  -1.944  1.00  0.00    -0.054 SA
ATOM     13  C   UNL     1      -1.523 -13.551  -2.533  1.00  0.00     0.267 C 
ATOM     14  C   UNL     1      -2.814 -14.279  -0.713  1.00  0.00     0.149 C 
ATOM     15  O   UNL     1      -0.560 -13.063  -3.096  1.00  0.00    -0.268 OA
ATOM     16  S   UNL     1      -3.206 -14.730   0.843  1.00  0.00    -0.052 S 
BRANCH  10  17
ATOM     17  C   UNL     1      -4.239 -13.544  -5.109  1.00  0.00     0.128 A 
ATOM     18  C   UNL     1      -5.871 -14.095  -6.484  1.00  0.00     0.134 A 
ATOM     19  C   UNL     1      -6.306 -12.979  -5.809  1.00  0.00     0.051 A 
ATOM     20  O   UNL     1      -4.623 -14.443  -6.072  1.00  0.00    -0.457 OA
ATOM     21  C   UNL     1      -5.266 -12.628  -4.930  1.00  0.00     0.051 A 
BRANCH  18  22
ATOM     22  C   UNL     1      -6.456 -14.890  -7.541  1.00  0.00     0.017 A 
ATOM     23  C   UNL     1      -7.755 -16.346  -9.553  1.00  0.00     0.118 A 
ATOM     24  C   UNL     1      -7.306 -16.987  -8.396  1.00  0.00     0.047 A 
ATOM     25  C   UNL     1      -7.556 -14.974  -9.703  1.00  0.00     0.047 A 
ATOM     26  C   UNL     1      -6.642 -16.268  -7.399  1.00  0.00     0.016 A 
ATOM     27  C   UNL     1      -6.912 -14.251  -8.699  1.00  0.00     0.016 A 
BRANCH  23  28
ATOM     28  O   UNL     1      -8.422 -17.137 -10.447  1.00  0.00    -0.497 OA
ATOM     29  C   UNL     1      -8.298 -16.745 -11.810  1.00  0.00     0.278 C 
ENDBRANCH  23  28
ENDBRANCH  18  22
ENDBRANCH  10  17
ENDBRANCH   8   9
BRANCH   8  30
ATOM     30  C   UNL     1       0.294 -12.889  -0.054  1.00  0.00     0.073 C 
BRANCH  30  31
ATOM     31  C   UNL     1       0.899 -12.800   1.347  1.00  0.00    -0.045 A 
ATOM     32  C   UNL     1       1.224 -11.520   1.839  1.00  0.00     0.004 A 
ATOM     33  C   UNL     1       1.163 -13.895   2.178  1.00  0.00     0.004 A 
ATOM     34  C   UNL     1       1.826 -11.347   3.091  1.00  0.00     0.000 A 
ATOM     35  C   UNL     1       1.746 -13.714   3.441  1.00  0.00     0.000 A 
ATOM     36  C   UNL     1       2.104 -12.448   3.887  1.00  0.00     0.000 A 
ENDBRANCH  30  31
ENDBRANCH   8  30
ENDBRANCH   6   8
ENDBRANCH   5   6
ENDBRANCH   4   5
ENDBRANCH   3   4
ENDBRANCH   2   3
ENDBRANCH   1   2
BRANCH   1  37
ATOM     37  C   UNL     1       3.705 -14.196  -0.474  1.00  0.00     0.188 C 
BRANCH  37  38
ATOM     38  O   UNL     1       4.412 -13.308  -1.310  1.00  0.00    -0.376 OA
BRANCH  38  39
ATOM     39  C   UNL     1       5.803 -13.536  -1.471  1.00  0.00     0.202 C 
BRANCH  39  40
ATOM     40  C   UNL     1       6.638 -13.735  -0.201  1.00  0.00     0.261 C 
BRANCH  40  41
ATOM     41  O   UNL     1       6.221 -14.873   0.586  1.00  0.00    -0.460 OA
BRANCH  41  42
ATOM     42  C   UNL     1       6.098 -14.638   1.915  1.00  0.00     0.338 C 
ATOM     43  O   UNL     1       6.374 -13.605   2.507  1.00  0.00    -0.246 OA
BRANCH  42  44
ATOM     44  C   UNL     1       5.516 -15.787   2.637  1.00  0.00     0.060 A 
ATOM     45  C   UNL     1       4.134 -15.983   2.646  1.00  0.00     0.016 A 
ATOM     46  C   UNL     1       6.311 -16.495   3.533  1.00  0.00     0.016 A 
ATOM     47  C   UNL     1       3.536 -16.809   3.597  1.00  0.00     0.010 A 
ATOM     48  C   UNL     1       5.713 -17.357   4.463  1.00  0.00     0.010 A 
ATOM     49  C   UNL     1       4.313 -17.478   4.544  1.00  0.00    -0.014 A 
BRANCH  49  50
ATOM     50  C   UNL     1       3.670 -18.172   5.697  1.00  0.00     0.031 A 
ATOM     51  C   UNL     1       3.991 -17.720   7.100  1.00  0.00     0.074 A 
ATOM     52  C   UNL     1       2.765 -19.154   5.517  1.00  0.00     0.049 A 
ATOM     53  N   UNL     1       3.783 -18.325   8.241  1.00  0.00    -0.248 NA
ATOM     54  C   UNL     1       4.643 -16.406   7.231  1.00  0.00     0.031 C 
ATOM     55  C   UNL     1       2.250 -19.609   4.226  1.00  0.00     0.029 A 
ATOM     56  N   UNL     1       2.115 -19.950   6.431  1.00  0.00    -0.354 N 
ATOM     57  C   UNL     1       4.350 -17.509   9.213  1.00  0.00     0.074 A 
ATOM     58  C   UNL     1       4.894 -16.355   8.531  1.00  0.00     0.031 C 
ATOM     59  C   UNL     1       1.354 -20.586   4.429  1.00  0.00     0.029 A 
ATOM     60  C   UNL     1       1.324 -20.912   5.850  1.00  0.00     0.049 A 
ATOM     61  H   UNL     1       2.208 -19.841   7.405  1.00  0.00     0.167 HD
ATOM     62  C   UNL     1       4.420 -17.720  10.550  1.00  0.00     0.037 A 
ATOM     63  C   UNL     1       0.710 -21.984   6.387  1.00  0.00     0.037 A 
ATOM     64  C   UNL     1       3.815 -18.846  11.216  1.00  0.00     0.049 A 
ATOM     65  C   UNL     1       0.868 -22.250   7.859  1.00  0.00     0.074 A 
ATOM     66  C   UNL     1       3.826 -19.166  12.562  1.00  0.00     0.029 A 
ATOM     67  N   UNL     1       3.072 -19.831  10.579  1.00  0.00    -0.354 N 
ATOM     68  N   UNL     1       1.503 -21.544   8.764  1.00  0.00    -0.248 NA
ATOM     69  C   UNL     1       0.248 -23.475   8.380  1.00  0.00     0.031 C 
ATOM     70  C   UNL     1       3.137 -20.372  12.732  1.00  0.00     0.029 A 
ATOM     71  C   UNL     1       2.639 -20.770  11.501  1.00  0.00     0.049 A 
ATOM     72  H   UNL     1       2.881 -19.859   9.613  1.00  0.00     0.167 HD
ATOM     73  C   UNL     1       1.345 -22.228   9.962  1.00  0.00     0.074 A 
ATOM     74  C   UNL     1       0.536 -23.394   9.671  1.00  0.00     0.031 C 
ATOM     75  C   UNL     1       1.829 -21.922  11.191  1.00  0.00     0.037 A 
BRANCH  62  76
ATOM     76  C   UNL     1       5.230 -16.758  11.376  1.00  0.00     0.064 A 
ATOM     77  C   UNL     1       4.822 -15.438  11.618  1.00  0.00     0.173 A 
ATOM     78  C   UNL     1       6.431 -17.186  11.966  1.00  0.00     0.173 A 
ATOM     79  F   UNL     1       3.691 -14.970  11.070  1.00  0.00    -0.203 F 
ATOM     80  C   UNL     1       5.598 -14.577  12.394  1.00  0.00     0.198 A 
ATOM     81  C   UNL     1       7.186 -16.334  12.769  1.00  0.00     0.198 A 
ATOM     82  F   UNL     1       6.870 -18.439  11.774  1.00  0.00    -0.203 F 
ATOM     83  F   UNL     1       5.213 -13.305  12.569  1.00  0.00    -0.200 F 
ATOM     84  C   UNL     1       6.774 -15.028  12.975  1.00  0.00     0.200 A 
ATOM     85  F   UNL     1       8.314 -16.780  13.341  1.00  0.00    -0.200 F 
ATOM     86  F   UNL     1       7.513 -14.202  13.728  1.00  0.00    -0.200 F 
ENDBRANCH  62  76
BRANCH  63  87
ATOM     87  C   UNL     1      -0.032 -22.931   5.509  1.00  0.00     0.064 A 
ATOM     88  C   UNL     1      -1.417 -23.106   5.632  1.00  0.00     0.173 A 
ATOM     89  C   UNL     1       0.630 -23.680   4.522  1.00  0.00     0.173 A 
ATOM     90  F   UNL     1      -2.093 -22.442   6.581  1.00  0.00    -0.203 F 
ATOM     91  C   UNL     1      -2.108 -23.993   4.807  1.00  0.00     0.198 A 
ATOM     92  C   UNL     1      -0.067 -24.535   3.672  1.00  0.00     0.198 A 
ATOM     93  F   UNL     1       1.957 -23.562   4.365  1.00  0.00    -0.203 F 
ATOM     94  F   UNL     1      -3.425 -24.175   4.978  1.00  0.00    -0.200 F 
ATOM     95  C   UNL     1      -1.435 -24.697   3.820  1.00  0.00     0.200 A 
ATOM     96  F   UNL     1       0.588 -25.198   2.709  1.00  0.00    -0.200 F 
ATOM     97  F   UNL     1      -2.103 -25.536   3.017  1.00  0.00    -0.200 F 
ENDBRANCH  63  87
BRANCH  75  98
ATOM     98  C   UNL     1       1.454 -22.838  12.320  1.00  0.00     0.064 A 
ATOM     99  C   UNL     1       1.985 -24.131  12.431  1.00  0.00     0.173 A 
ATOM    100  C   UNL     1       0.568 -22.403  13.318  1.00  0.00     0.173 A 
ATOM    101  F   UNL     1       2.824 -24.600  11.495  1.00  0.00    -0.203 F 
ATOM    102  C   UNL     1       1.616 -24.967  13.482  1.00  0.00     0.198 A 
ATOM    103  C   UNL     1       0.228 -23.229  14.385  1.00  0.00     0.198 A 
ATOM    104  F   UNL     1       0.038 -21.172  13.262  1.00  0.00    -0.203 F 
ATOM    105  F   UNL     1       2.090 -26.220  13.537  1.00  0.00    -0.200 F 
ATOM    106  C   UNL     1       0.744 -24.513  14.461  1.00  0.00     0.200 A 
ATOM    107  F   UNL     1      -0.602 -22.783  15.338  1.00  0.00    -0.200 F 
ATOM    108  F   UNL     1       0.394 -25.318  15.473  1.00  0.00    -0.200 F 
ENDBRANCH  75  98
ENDBRANCH  49  50
ENDBRANCH  42  44
ENDBRANCH  41  42
ENDBRANCH  40  41
ENDBRANCH  39  40
ENDBRANCH  38  39
ENDBRANCH  37  38
ENDBRANCH   1  37
TORSDOF 23
