REMARK SMILES CS(=O)(=O)c1ccc(/C=C(/C(=O)OCCOCCOCCOC(=O)c2ccc(-c3c4nc(c(-c5c(F)c(F)c(F)c(F)c5F)c5ccc([nH]5)c(-c5c(F)c(F)c(F)c(F)c5F)c5nc(c(-c6c(F)c(F)c(F)c(F)c6F)c6ccc3[nH]6)C=C5)C=C4)cc2)c2ccccc2)cc1
REMARK SMILES IDX 17 1 16 2 15 3 14 4 13 5 11 6 12 7 10 8 9 9 8 10 5 11 6 12
REMARK SMILES IDX 95 13 7 14 94 15 2 16 1 17 3 18 4 19 88 20 89 21 93 22 90 23
REMARK SMILES IDX 92 24 91 25 18 26 19 27 20 28 21 29 22 30 23 31 24 32 25 33
REMARK SMILES IDX 26 34 87 35 27 36 86 37 28 38 29 39 30 40 80 41 31 42 85 43
REMARK SMILES IDX 79 44 81 45 32 46 84 47 78 48 77 49 33 51 65 52 45 53 64 54
REMARK SMILES IDX 46 55 49 56 63 57 82 58 47 59 48 60 62 62 83 63 50 64 34 65
REMARK SMILES IDX 35 66 43 67 36 68 37 69 41 70 44 71 38 72 39 73 42 74 40 75
REMARK SMILES IDX 66 76 67 77 75 78 68 79 69 80 73 81 76 82 70 83 71 84 74 85
REMARK SMILES IDX 72 86 51 87 52 88 60 89 53 90 54 91 58 92 61 93 55 94 56 95
REMARK SMILES IDX 59 96 57 97
REMARK H PARENT 81 50 49 61
REMARK Flexibility Score: inf
ROOT
ATOM      1  C   UNL     1       0.749  -9.833   4.231  1.00  0.00     0.188 C 
ENDROOT
BRANCH   1   2
ATOM      2  O   UNL     1       1.624 -10.676   4.952  1.00  0.00    -0.376 OA
BRANCH   2   3
ATOM      3  C   UNL     1       2.985 -10.696   4.557  1.00  0.00     0.202 C 
BRANCH   3   4
ATOM      4  C   UNL     1       3.786  -9.382   4.563  1.00  0.00     0.261 C 
BRANCH   4   5
ATOM      5  O   UNL     1       3.103  -8.207   4.095  1.00  0.00    -0.460 OA
BRANCH   5   6
ATOM      6  C   UNL     1       3.107  -7.956   2.763  1.00  0.00     0.338 C 
ATOM      7  O   UNL     1       3.620  -8.671   1.916  1.00  0.00    -0.246 OA
BRANCH   6   8
ATOM      8  C   UNL     1       2.290  -6.730   2.448  1.00  0.00     0.067 C 
ATOM      9  C   UNL     1       2.287  -5.684   3.313  1.00  0.00     0.024 C 
BRANCH   9  10
ATOM     10  C   UNL     1       1.669  -4.343   3.147  1.00  0.00    -0.025 A 
ATOM     11  C   UNL     1       0.825  -1.729   2.563  1.00  0.00     0.067 A 
ATOM     12  C   UNL     1       0.052  -2.812   2.152  1.00  0.00     0.021 A 
ATOM     13  C   UNL     1       1.942  -1.927   3.374  1.00  0.00     0.021 A 
ATOM     14  C   UNL     1       0.461  -4.109   2.473  1.00  0.00     0.009 A 
ATOM     15  C   UNL     1       2.359  -3.232   3.660  1.00  0.00     0.009 A 
BRANCH  11  16
ATOM     16  S   UNL     1       0.394  -0.096   2.013  1.00  0.00     0.175 S 
ATOM     17  C   UNL     1       1.083  -0.036   0.376  1.00  0.00     0.163 C 
ATOM     18  O   UNL     1       1.117   0.854   2.837  1.00  0.00    -0.224 OA
ATOM     19  O   UNL     1      -1.050  -0.042   1.900  1.00  0.00    -0.224 OA
ENDBRANCH  11  16
ENDBRANCH   9  10
BRANCH   8  20
ATOM     20  C   UNL     1       1.524  -6.721   1.184  1.00  0.00    -0.011 A 
ATOM     21  C   UNL     1       0.336  -7.465   1.092  1.00  0.00     0.009 A 
ATOM     22  C   UNL     1       1.892  -5.892   0.117  1.00  0.00     0.009 A 
ATOM     23  C   UNL     1      -0.484  -7.356  -0.031  1.00  0.00     0.001 A 
ATOM     24  C   UNL     1       1.064  -5.782  -1.004  1.00  0.00     0.001 A 
ATOM     25  C   UNL     1      -0.124  -6.508  -1.074  1.00  0.00     0.000 A 
ENDBRANCH   8  20
ENDBRANCH   6   8
ENDBRANCH   5   6
ENDBRANCH   4   5
ENDBRANCH   3   4
ENDBRANCH   2   3
ENDBRANCH   1   2
BRANCH   1  26
ATOM     26  C   UNL     1       0.318  -8.583   5.028  1.00  0.00     0.188 C 
BRANCH  26  27
ATOM     27  O   UNL     1       0.593  -8.485   6.419  1.00  0.00    -0.376 OA
BRANCH  27  28
ATOM     28  C   UNL     1       0.455  -9.633   7.243  1.00  0.00     0.202 C 
BRANCH  28  29
ATOM     29  C   UNL     1      -0.903 -10.348   7.308  1.00  0.00     0.261 C 
BRANCH  29  30
ATOM     30  O   UNL     1      -1.545 -10.569   6.041  1.00  0.00    -0.460 OA
BRANCH  30  31
ATOM     31  C   UNL     1      -2.633  -9.798   5.800  1.00  0.00     0.338 C 
ATOM     32  O   UNL     1      -3.138  -8.970   6.541  1.00  0.00    -0.246 OA
BRANCH  31  33
ATOM     33  C   UNL     1      -3.062  -9.969   4.397  1.00  0.00     0.060 A 
ATOM     34  C   UNL     1      -3.112  -8.833   3.576  1.00  0.00     0.016 A 
ATOM     35  C   UNL     1      -3.471 -11.211   3.909  1.00  0.00     0.016 A 
ATOM     36  C   UNL     1      -3.585  -8.932   2.268  1.00  0.00     0.010 A 
ATOM     37  C   UNL     1      -3.974 -11.304   2.606  1.00  0.00     0.010 A 
ATOM     38  C   UNL     1      -4.055 -10.161   1.789  1.00  0.00    -0.014 A 
BRANCH  38  39
ATOM     39  C   UNL     1      -4.791 -10.213   0.502  1.00  0.00     0.031 A 
ATOM     40  C   UNL     1      -6.284 -10.043   0.519  1.00  0.00     0.074 A 
ATOM     41  C   UNL     1      -4.146 -10.390  -0.663  1.00  0.00     0.049 A 
ATOM     42  N   UNL     1      -7.138 -10.089  -0.472  1.00  0.00    -0.248 NA
ATOM     43  C   UNL     1      -6.896  -9.789   1.832  1.00  0.00     0.031 C 
ATOM     44  C   UNL     1      -2.700 -10.530  -0.816  1.00  0.00     0.029 A 
ATOM     45  N   UNL     1      -4.632 -10.490  -1.943  1.00  0.00    -0.354 N 
ATOM     46  C   UNL     1      -8.386  -9.872   0.097  1.00  0.00     0.074 A 
ATOM     47  C   UNL     1      -8.181  -9.716   1.521  1.00  0.00     0.031 C 
ATOM     48  C   UNL     1      -2.415 -10.702  -2.118  1.00  0.00     0.029 A 
ATOM     49  C   UNL     1      -3.661 -10.726  -2.884  1.00  0.00     0.049 A 
ATOM     50  H   UNL     1      -5.587 -10.400  -2.165  1.00  0.00     0.167 HD
ATOM     51  C   UNL     1      -9.593  -9.808  -0.512  1.00  0.00     0.037 A 
ATOM     52  C   UNL     1      -3.773 -10.964  -4.206  1.00  0.00     0.037 A 
ATOM     53  C   UNL     1      -9.801  -9.986  -1.925  1.00  0.00     0.049 A 
ATOM     54  C   UNL     1      -5.139 -10.975  -4.848  1.00  0.00     0.074 A 
ATOM     55  C   UNL     1     -10.988  -9.937  -2.636  1.00  0.00     0.029 A 
ATOM     56  N   UNL     1      -8.797 -10.262  -2.841  1.00  0.00    -0.354 N 
ATOM     57  N   UNL     1      -6.311 -10.742  -4.309  1.00  0.00    -0.248 NA
ATOM     58  C   UNL     1      -5.195 -11.288  -6.284  1.00  0.00     0.031 C 
ATOM     59  C   UNL     1     -10.709 -10.238  -3.973  1.00  0.00     0.029 A 
ATOM     60  C   UNL     1      -9.341 -10.415  -4.106  1.00  0.00     0.049 A 
ATOM     61  H   UNL     1      -7.840 -10.338  -2.625  1.00  0.00     0.167 HD
ATOM     62  C   UNL     1      -7.237 -10.851  -5.340  1.00  0.00     0.074 A 
ATOM     63  C   UNL     1      -6.489 -11.158  -6.541  1.00  0.00     0.031 C 
ATOM     64  C   UNL     1      -8.585 -10.709  -5.297  1.00  0.00     0.037 A 
BRANCH  51  65
ATOM     65  C   UNL     1     -10.791  -9.572   0.359  1.00  0.00     0.064 A 
ATOM     66  C   UNL     1     -11.034  -8.327   0.957  1.00  0.00     0.173 A 
ATOM     67  C   UNL     1     -11.721 -10.600   0.580  1.00  0.00     0.173 A 
ATOM     68  F   UNL     1     -10.167  -7.317   0.789  1.00  0.00    -0.203 F 
ATOM     69  C   UNL     1     -12.149  -8.127   1.767  1.00  0.00     0.198 A 
ATOM     70  C   UNL     1     -12.849 -10.388   1.366  1.00  0.00     0.198 A 
ATOM     71  F   UNL     1     -11.536 -11.809   0.028  1.00  0.00    -0.203 F 
ATOM     72  F   UNL     1     -12.336  -6.944   2.368  1.00  0.00    -0.200 F 
ATOM     73  C   UNL     1     -13.059  -9.155   1.965  1.00  0.00     0.200 A 
ATOM     74  F   UNL     1     -13.733 -11.380   1.548  1.00  0.00    -0.200 F 
ATOM     75  F   UNL     1     -14.134  -8.960   2.741  1.00  0.00    -0.200 F 
ENDBRANCH  51  65
BRANCH  52  76
ATOM     76  C   UNL     1      -2.559 -11.235  -5.021  1.00  0.00     0.064 A 
ATOM     77  C   UNL     1      -2.135 -10.336  -6.009  1.00  0.00     0.173 A 
ATOM     78  C   UNL     1      -1.820 -12.416  -4.855  1.00  0.00     0.173 A 
ATOM     79  F   UNL     1      -2.826  -9.206  -6.226  1.00  0.00    -0.203 F 
ATOM     80  C   UNL     1      -1.033 -10.617  -6.814  1.00  0.00     0.198 A 
ATOM     81  C   UNL     1      -0.700 -12.682  -5.640  1.00  0.00     0.198 A 
ATOM     82  F   UNL     1      -2.187 -13.313  -3.928  1.00  0.00    -0.203 F 
ATOM     83  F   UNL     1      -0.683  -9.764  -7.787  1.00  0.00    -0.200 F 
ATOM     84  C   UNL     1      -0.313 -11.787  -6.625  1.00  0.00     0.200 A 
ATOM     85  F   UNL     1      -0.003 -13.810  -5.449  1.00  0.00    -0.200 F 
ATOM     86  F   UNL     1       0.746 -12.057  -7.401  1.00  0.00    -0.200 F 
ENDBRANCH  52  76
BRANCH  64  87
ATOM     87  C   UNL     1      -9.341 -10.842  -6.589  1.00  0.00     0.064 A 
ATOM     88  C   UNL     1      -9.509 -12.081  -7.224  1.00  0.00     0.173 A 
ATOM     89  C   UNL     1      -9.951  -9.719  -7.170  1.00  0.00     0.173 A 
ATOM     90  F   UNL     1      -8.935 -13.182  -6.718  1.00  0.00    -0.203 F 
ATOM     91  C   UNL     1     -10.239 -12.187  -8.406  1.00  0.00     0.198 A 
ATOM     92  C   UNL     1     -10.707  -9.834  -8.334  1.00  0.00     0.198 A 
ATOM     93  F   UNL     1      -9.829  -8.511  -6.599  1.00  0.00    -0.203 F 
ATOM     94  F   UNL     1     -10.349 -13.373  -9.019  1.00  0.00    -0.200 F 
ATOM     95  C   UNL     1     -10.845 -11.066  -8.954  1.00  0.00     0.200 A 
ATOM     96  F   UNL     1     -11.303  -8.752  -8.854  1.00  0.00    -0.200 F 
ATOM     97  F   UNL     1     -11.556 -11.172 -10.085  1.00  0.00    -0.200 F 
ENDBRANCH  64  87
ENDBRANCH  38  39
ENDBRANCH  31  33
ENDBRANCH  30  31
ENDBRANCH  29  30
ENDBRANCH  28  29
ENDBRANCH  27  28
ENDBRANCH  26  27
ENDBRANCH   1  26
TORSDOF 20
