REMARK SMILES O=C(OCCOCCOCCOC(=O)c1cccc2c(Br)ccnc12)c1ccc(-c2c3nc(c(-c4c(F)c(F)c(F)c(F)c4F)c4ccc([nH]4)c(-c4c(F)c(F)c(F)c(F)c4F)c4nc(c(-c5c(F)c(F)c(F)c(F)c5F)c5ccc2[nH]5)C=C4)C=C3)cc1
REMARK SMILES IDX 7 1 6 2 5 3 4 4 3 5 2 6 1 7 26 8 27 9 88 10 28 11 87 12
REMARK SMILES IDX 29 13 30 14 31 15 81 16 32 17 86 18 80 19 82 20 33 21 85 22
REMARK SMILES IDX 79 23 78 24 34 26 66 27 46 28 65 29 47 30 50 31 64 32 83 33
REMARK SMILES IDX 48 34 49 35 63 37 84 38 51 39 35 40 36 41 44 42 37 43 38 44
REMARK SMILES IDX 42 45 45 46 39 47 40 48 43 49 41 50 67 51 68 52 76 53 69 54
REMARK SMILES IDX 70 55 74 56 77 57 71 58 72 59 75 60 73 61 52 62 53 63 61 64
REMARK SMILES IDX 54 65 55 66 59 67 62 68 56 69 57 70 60 71 58 72 8 73 9 74
REMARK SMILES IDX 10 75 11 76 12 77 13 78 14 79 15 80 16 81 25 82 17 83 19 84
REMARK SMILES IDX 24 85 18 86 20 87 23 88 21 89 22 90
REMARK H PARENT 82 25 50 36
REMARK Flexibility Score: inf
ROOT
ATOM      1  C   UNL     1       2.608  -1.125  -1.494  1.00  0.00     0.188 C 
ENDROOT
BRANCH   1   2
ATOM      2  O   UNL     1       3.875  -0.489  -1.268  1.00  0.00    -0.376 OA
BRANCH   2   3
ATOM      3  C   UNL     1       4.797  -1.318  -0.558  1.00  0.00     0.202 C 
BRANCH   3   4
ATOM      4  C   UNL     1       4.697  -1.200   0.966  1.00  0.00     0.261 C 
BRANCH   4   5
ATOM      5  O   UNL     1       3.367  -0.923   1.427  1.00  0.00    -0.460 OA
BRANCH   5   6
ATOM      6  C   UNL     1       2.725   0.264   1.537  1.00  0.00     0.338 C 
ATOM      7  O   UNL     1       1.568   0.241   1.963  1.00  0.00    -0.246 OA
BRANCH   6   8
ATOM      8  C   UNL     1       3.296   1.613   1.188  1.00  0.00     0.060 A 
ATOM      9  C   UNL     1       2.480   2.725   1.487  1.00  0.00     0.016 A 
ATOM     10  C   UNL     1       4.532   1.876   0.594  1.00  0.00     0.016 A 
ATOM     11  C   UNL     1       2.891   4.036   1.221  1.00  0.00     0.010 A 
ATOM     12  C   UNL     1       4.968   3.184   0.360  1.00  0.00     0.010 A 
ATOM     13  C   UNL     1       4.155   4.271   0.679  1.00  0.00    -0.014 A 
BRANCH  13  14
ATOM     14  C   UNL     1       4.711   5.635   0.589  1.00  0.00     0.031 A 
ATOM     15  C   UNL     1       4.870   6.337  -0.721  1.00  0.00     0.074 A 
ATOM     16  C   UNL     1       5.185   6.190   1.719  1.00  0.00     0.049 A 
ATOM     17  N   UNL     1       5.271   7.562  -0.949  1.00  0.00    -0.248 NA
ATOM     18  C   UNL     1       4.561   5.568  -1.934  1.00  0.00     0.031 C 
ATOM     19  C   UNL     1       5.179   5.546   3.034  1.00  0.00     0.029 A 
ATOM     20  N   UNL     1       5.795   7.396   1.937  1.00  0.00    -0.354 N 
ATOM     21  C   UNL     1       5.197   7.732  -2.322  1.00  0.00     0.074 A 
ATOM     22  C   UNL     1       4.809   6.459  -2.886  1.00  0.00     0.031 C 
ATOM     23  C   UNL     1       5.774   6.357   3.920  1.00  0.00     0.029 A 
ATOM     24  C   UNL     1       6.200   7.574   3.235  1.00  0.00     0.049 A 
ATOM     25  H   UNL     1       5.930   8.069   1.232  1.00  0.00     0.167 HD
ATOM     26  C   UNL     1       5.399   8.865  -3.034  1.00  0.00     0.037 A 
ATOM     27  C   UNL     1       6.841   8.607   3.810  1.00  0.00     0.037 A 
ATOM     28  C   UNL     1       5.865  10.101  -2.467  1.00  0.00     0.049 A 
ATOM     29  C   UNL     1       7.145   9.823   2.986  1.00  0.00     0.074 A 
ATOM     30  C   UNL     1       6.042  11.325  -3.085  1.00  0.00     0.029 A 
ATOM     31  N   UNL     1       6.271  10.252  -1.149  1.00  0.00    -0.354 N 
ATOM     32  N   UNL     1       6.891  10.042   1.719  1.00  0.00    -0.248 NA
ATOM     33  C   UNL     1       7.803  10.941   3.672  1.00  0.00     0.031 C 
ATOM     34  C   UNL     1       6.611  12.202  -2.154  1.00  0.00     0.029 A 
ATOM     35  C   UNL     1       6.749  11.535  -0.947  1.00  0.00     0.049 A 
ATOM     36  H   UNL     1       6.226   9.550  -0.460  1.00  0.00     0.167 HD
ATOM     37  C   UNL     1       7.332  11.331   1.459  1.00  0.00     0.074 A 
ATOM     38  C   UNL     1       7.867  11.846   2.704  1.00  0.00     0.031 C 
ATOM     39  C   UNL     1       7.290  12.025   0.295  1.00  0.00     0.037 A 
BRANCH  26  40
ATOM     40  C   UNL     1       5.070   8.841  -4.495  1.00  0.00     0.064 A 
ATOM     41  C   UNL     1       3.734   8.885  -4.921  1.00  0.00     0.173 A 
ATOM     42  C   UNL     1       6.074   8.865  -5.472  1.00  0.00     0.173 A 
ATOM     43  F   UNL     1       2.736   8.853  -4.025  1.00  0.00    -0.203 F 
ATOM     44  C   UNL     1       3.415   8.942  -6.275  1.00  0.00     0.198 A 
ATOM     45  C   UNL     1       5.751   8.936  -6.826  1.00  0.00     0.198 A 
ATOM     46  F   UNL     1       7.365   8.832  -5.114  1.00  0.00    -0.203 F 
ATOM     47  F   UNL     1       2.131   8.946  -6.657  1.00  0.00    -0.200 F 
ATOM     48  C   UNL     1       4.423   8.972  -7.226  1.00  0.00     0.200 A 
ATOM     49  F   UNL     1       6.725   8.971  -7.745  1.00  0.00    -0.200 F 
ATOM     50  F   UNL     1       4.113   9.027  -8.529  1.00  0.00    -0.200 F 
ENDBRANCH  26  40
BRANCH  27  51
ATOM     51  C   UNL     1       7.165   8.532   5.254  1.00  0.00     0.064 A 
ATOM     52  C   UNL     1       6.410   9.247   6.192  1.00  0.00     0.173 A 
ATOM     53  C   UNL     1       8.168   7.676   5.731  1.00  0.00     0.173 A 
ATOM     54  F   UNL     1       5.447  10.082   5.777  1.00  0.00    -0.203 F 
ATOM     55  C   UNL     1       6.644   9.106   7.557  1.00  0.00     0.198 A 
ATOM     56  C   UNL     1       8.388   7.521   7.098  1.00  0.00     0.198 A 
ATOM     57  F   UNL     1       8.906   6.960   4.870  1.00  0.00    -0.203 F 
ATOM     58  F   UNL     1       5.914   9.806   8.435  1.00  0.00    -0.200 F 
ATOM     59  C   UNL     1       7.626   8.236   8.009  1.00  0.00     0.200 A 
ATOM     60  F   UNL     1       9.324   6.666   7.532  1.00  0.00    -0.200 F 
ATOM     61  F   UNL     1       7.833   8.083   9.324  1.00  0.00    -0.200 F 
ENDBRANCH  27  51
BRANCH  39  62
ATOM     62  C   UNL     1       7.842  13.417   0.305  1.00  0.00     0.064 A 
ATOM     63  C   UNL     1       9.224  13.649   0.332  1.00  0.00     0.173 A 
ATOM     64  C   UNL     1       6.986  14.524   0.216  1.00  0.00     0.173 A 
ATOM     65  F   UNL     1      10.079  12.621   0.430  1.00  0.00    -0.203 F 
ATOM     66  C   UNL     1       9.730  14.945   0.281  1.00  0.00     0.198 A 
ATOM     67  C   UNL     1       7.496  15.816   0.140  1.00  0.00     0.198 A 
ATOM     68  F   UNL     1       5.656  14.350   0.180  1.00  0.00    -0.203 F 
ATOM     69  F   UNL     1      11.053  15.147   0.338  1.00  0.00    -0.200 F 
ATOM     70  C   UNL     1       8.867  16.026   0.176  1.00  0.00     0.200 A 
ATOM     71  F   UNL     1       6.662  16.859   0.024  1.00  0.00    -0.200 F 
ATOM     72  F   UNL     1       9.356  17.271   0.111  1.00  0.00    -0.200 F 
ENDBRANCH  39  62
ENDBRANCH  13  14
ENDBRANCH   6   8
ENDBRANCH   5   6
ENDBRANCH   4   5
ENDBRANCH   3   4
ENDBRANCH   2   3
ENDBRANCH   1   2
BRANCH   1  73
ATOM     73  C   UNL     1       2.117  -0.948  -2.934  1.00  0.00     0.188 C 
BRANCH  73  74
ATOM     74  O   UNL     1       2.904  -1.584  -3.940  1.00  0.00    -0.376 OA
BRANCH  74  75
ATOM     75  C   UNL     1       4.217  -1.074  -4.144  1.00  0.00     0.202 C 
BRANCH  75  76
ATOM     76  C   UNL     1       4.359   0.302  -4.809  1.00  0.00     0.261 C 
BRANCH  76  77
ATOM     77  O   UNL     1       3.697   1.399  -4.147  1.00  0.00    -0.460 OA
BRANCH  77  78
ATOM     78  C   UNL     1       2.606   1.868  -4.805  1.00  0.00     0.340 C 
ATOM     79  O   UNL     1       2.112   1.415  -5.825  1.00  0.00    -0.246 OA
BRANCH  78  80
ATOM     80  C   UNL     1       2.195   3.182  -4.289  1.00  0.00     0.086 A 
ATOM     81  C   UNL     1       2.497   4.263  -5.132  1.00  0.00     0.018 A 
ATOM     82  C   UNL     1       1.406   3.315  -3.138  1.00  0.00     0.086 A 
ATOM     83  C   UNL     1       2.009   5.519  -4.830  1.00  0.00     0.002 A 
ATOM     84  C   UNL     1       0.916   4.609  -2.831  1.00  0.00     0.015 A 
ATOM     85  N   UNL     1       1.098   2.250  -2.363  1.00  0.00    -0.255 NA
ATOM     86  C   UNL     1       1.239   5.694  -3.685  1.00  0.00     0.011 A 
ATOM     87  C   UNL     1       0.092   4.731  -1.688  1.00  0.00     0.028 A 
ATOM     88  C   UNL     1       0.296   2.414  -1.290  1.00  0.00     0.113 A 
ATOM     89  Br  UNL     1      -0.655   6.393  -1.130  1.00  0.00    -0.050 Br
ATOM     90  C   UNL     1      -0.232   3.625  -0.914  1.00  0.00     0.036 A 
ENDBRANCH  78  80
ENDBRANCH  77  78
ENDBRANCH  76  77
ENDBRANCH  75  76
ENDBRANCH  74  75
ENDBRANCH  73  74
ENDBRANCH   1  73
TORSDOF 17
