REMARK SMILES Cn1ccc(C(=O)NCc2ccc(C(=O)OCCOCCOCCOC(=O)c3ccc(-c4c5nc(c(-c6c(F)c(F)c(F)c(F)c6F)c6ccc([nH]6)c(-c6c(F)c(F)c(F)c(F)c6F)c6nc(c(-c7c(F)c(F)c(F)c(F)c7F)c7ccc4[nH]7)C=C6)C=C5)cc3)cc2)cc1=O
REMARK SMILES IDX 20 1 19 2 18 3 17 4 16 5 14 6 15 7 13 8 10 9 11 10 92 11
REMARK SMILES IDX 12 12 91 13 9 14 8 15 6 16 7 17 5 19 1 20 2 21 3 22 94 23
REMARK SMILES IDX 4 24 93 25 95 26 21 27 22 28 23 29 24 30 25 31 26 32 27 33
REMARK SMILES IDX 28 34 29 35 90 36 30 37 89 38 31 39 32 40 33 41 83 42 34 43
REMARK SMILES IDX 88 44 82 45 84 46 35 47 87 48 81 49 80 50 36 52 68 53 48 54
REMARK SMILES IDX 67 55 49 56 52 57 66 58 85 59 50 60 51 61 65 63 86 64 53 65
REMARK SMILES IDX 37 66 38 67 46 68 39 69 40 70 44 71 47 72 41 73 42 74 45 75
REMARK SMILES IDX 43 76 69 77 70 78 78 79 71 80 72 81 76 82 79 83 73 84 74 85
REMARK SMILES IDX 77 86 75 87 54 88 55 89 63 90 56 91 57 92 61 93 64 94 58 95
REMARK SMILES IDX 59 96 62 97 60 98
REMARK H PARENT 8 18 84 51 52 62
REMARK Flexibility Score: inf
ROOT
ATOM      1  C   UNL     1       1.654   9.300   4.186  1.00  0.00     0.188 C 
ENDROOT
BRANCH   1   2
ATOM      2  O   UNL     1       1.569   9.796   5.510  1.00  0.00    -0.376 OA
BRANCH   2   3
ATOM      3  C   UNL     1       2.162   9.076   6.580  1.00  0.00     0.202 C 
BRANCH   3   4
ATOM      4  C   UNL     1       1.957   7.563   6.740  1.00  0.00     0.261 C 
BRANCH   4   5
ATOM      5  O   UNL     1       2.172   6.794   5.550  1.00  0.00    -0.460 OA
BRANCH   5   6
ATOM      6  C   UNL     1       1.072   6.161   5.061  1.00  0.00     0.338 C 
ATOM      7  O   UNL     1      -0.043   6.158   5.543  1.00  0.00    -0.246 OA
BRANCH   6   8
ATOM      8  C   UNL     1       1.367   5.614   3.716  1.00  0.00     0.060 A 
ATOM      9  C   UNL     1       1.825   4.627   1.119  1.00  0.00    -0.029 A 
ATOM     10  C   UNL     1       0.624   5.282   1.429  1.00  0.00     0.006 A 
ATOM     11  C   UNL     1       2.809   4.520   2.120  1.00  0.00     0.006 A 
ATOM     12  C   UNL     1       0.391   5.759   2.722  1.00  0.00     0.016 A 
ATOM     13  C   UNL     1       2.584   5.005   3.412  1.00  0.00     0.016 A 
BRANCH   9  14
ATOM     14  C   UNL     1       2.046   4.101  -0.283  1.00  0.00     0.152 C 
BRANCH  14  15
ATOM     15  N   UNL     1       3.009   3.020  -0.319  1.00  0.00    -0.348 N 
ATOM     16  C   UNL     1       2.943   1.681  -0.133  1.00  0.00     0.251 C 
ATOM     17  O   UNL     1       4.028   1.090  -0.116  1.00  0.00    -0.269 OA
ATOM     18  H   UNL     1       3.920   3.330  -0.525  1.00  0.00     0.164 HD
BRANCH  16  19
ATOM     19  C   UNL     1       1.672   0.883  -0.017  1.00  0.00     0.046 A 
ATOM     20  C   UNL     1      -1.672  -1.758   0.025  1.00  0.00     0.153 C 
ATOM     21  N   UNL     1      -0.538  -0.846   0.048  1.00  0.00    -0.319 N 
ATOM     22  C   UNL     1       0.722  -1.357  -0.179  1.00  0.00     0.089 A 
ATOM     23  C   UNL     1      -0.747   0.503   0.308  1.00  0.00     0.251 A 
ATOM     24  C   UNL     1       1.792  -0.557  -0.218  1.00  0.00     0.032 A 
ATOM     25  C   UNL     1       0.464   1.373   0.300  1.00  0.00     0.085 A 
ATOM     26  O   UNL     1      -1.840   1.018   0.525  1.00  0.00    -0.269 OA
ENDBRANCH  16  19
ENDBRANCH  14  15
ENDBRANCH   9  14
ENDBRANCH   6   8
ENDBRANCH   5   6
ENDBRANCH   4   5
ENDBRANCH   3   4
ENDBRANCH   2   3
ENDBRANCH   1   2
BRANCH   1  27
ATOM     27  C   UNL     1       3.014   8.907   3.574  1.00  0.00     0.188 C 
BRANCH  27  28
ATOM     28  O   UNL     1       4.155   8.967   4.392  1.00  0.00    -0.376 OA
BRANCH  28  29
ATOM     29  C   UNL     1       4.811  10.196   4.655  1.00  0.00     0.202 C 
BRANCH  29  30
ATOM     30  C   UNL     1       4.471  11.566   4.037  1.00  0.00     0.261 C 
BRANCH  30  31
ATOM     31  O   UNL     1       3.231  11.710   3.345  1.00  0.00    -0.460 OA
BRANCH  31  32
ATOM     32  C   UNL     1       3.320  11.781   1.998  1.00  0.00     0.338 C 
ATOM     33  O   UNL     1       4.328  11.682   1.308  1.00  0.00    -0.246 OA
BRANCH  32  34
ATOM     34  C   UNL     1       1.963  11.836   1.433  1.00  0.00     0.060 A 
ATOM     35  C   UNL     1       1.499  10.746   0.688  1.00  0.00     0.016 A 
ATOM     36  C   UNL     1       1.170  12.972   1.607  1.00  0.00     0.016 A 
ATOM     37  C   UNL     1       0.238  10.794   0.096  1.00  0.00     0.010 A 
ATOM     38  C   UNL     1      -0.085  13.027   0.995  1.00  0.00     0.010 A 
ATOM     39  C   UNL     1      -0.547  11.949   0.217  1.00  0.00    -0.014 A 
BRANCH  39  40
ATOM     40  C   UNL     1      -1.781  12.095  -0.591  1.00  0.00     0.031 A 
ATOM     41  C   UNL     1      -1.715  12.881  -1.871  1.00  0.00     0.074 A 
ATOM     42  C   UNL     1      -2.941  11.544  -0.194  1.00  0.00     0.049 A 
ATOM     43  N   UNL     1      -2.676  13.209  -2.696  1.00  0.00    -0.248 NA
ATOM     44  C   UNL     1      -0.384  13.366  -2.274  1.00  0.00     0.031 C 
ATOM     45  C   UNL     1      -3.124  10.734   1.008  1.00  0.00     0.029 A 
ATOM     46  N   UNL     1      -4.193  11.602  -0.756  1.00  0.00    -0.354 N 
ATOM     47  C   UNL     1      -2.071  13.949  -3.704  1.00  0.00     0.074 A 
ATOM     48  C   UNL     1      -0.663  14.037  -3.381  1.00  0.00     0.031 C 
ATOM     49  C   UNL     1      -4.421  10.392   1.109  1.00  0.00     0.029 A 
ATOM     50  C   UNL     1      -5.162  10.988  -0.002  1.00  0.00     0.049 A 
ATOM     51  H   UNL     1      -4.377  12.042  -1.618  1.00  0.00     0.167 HD
ATOM     52  C   UNL     1      -2.640  14.502  -4.800  1.00  0.00     0.037 A 
ATOM     53  C   UNL     1      -6.499  10.945  -0.173  1.00  0.00     0.037 A 
ATOM     54  C   UNL     1      -4.039  14.405  -5.124  1.00  0.00     0.049 A 
ATOM     55  C   UNL     1      -7.114  11.623  -1.374  1.00  0.00     0.074 A 
ATOM     56  C   UNL     1      -4.702  14.899  -6.234  1.00  0.00     0.029 A 
ATOM     57  N   UNL     1      -4.992  13.784  -4.332  1.00  0.00    -0.354 N 
ATOM     58  N   UNL     1      -6.530  12.282  -2.346  1.00  0.00    -0.248 NA
ATOM     59  C   UNL     1      -8.578  11.547  -1.502  1.00  0.00     0.031 C 
ATOM     60  C   UNL     1      -6.065  14.627  -6.085  1.00  0.00     0.029 A 
ATOM     61  C   UNL     1      -6.243  13.910  -4.914  1.00  0.00     0.049 A 
ATOM     62  H   UNL     1      -4.807  13.322  -3.482  1.00  0.00     0.167 HD
ATOM     63  C   UNL     1      -7.546  12.668  -3.212  1.00  0.00     0.074 A 
ATOM     64  C   UNL     1      -8.783  12.158  -2.660  1.00  0.00     0.031 C 
ATOM     65  C   UNL     1      -7.464  13.383  -4.361  1.00  0.00     0.037 A 
BRANCH  52  66
ATOM     66  C   UNL     1      -1.760  15.288  -5.726  1.00  0.00     0.064 A 
ATOM     67  C   UNL     1      -0.827  14.665  -6.566  1.00  0.00     0.173 A 
ATOM     68  C   UNL     1      -1.904  16.681  -5.820  1.00  0.00     0.173 A 
ATOM     69  F   UNL     1      -0.642  13.338  -6.504  1.00  0.00    -0.203 F 
ATOM     70  C   UNL     1      -0.060  15.409  -7.459  1.00  0.00     0.198 A 
ATOM     71  C   UNL     1      -1.156  17.418  -6.733  1.00  0.00     0.198 A 
ATOM     72  F   UNL     1      -2.785  17.324  -5.039  1.00  0.00    -0.203 F 
ATOM     73  F   UNL     1       0.849  14.798  -8.231  1.00  0.00    -0.200 F 
ATOM     74  C   UNL     1      -0.233  16.783  -7.549  1.00  0.00     0.200 A 
ATOM     75  F   UNL     1      -1.334  18.743  -6.828  1.00  0.00    -0.200 F 
ATOM     76  F   UNL     1       0.493  17.495  -8.422  1.00  0.00    -0.200 F 
ENDBRANCH  52  66
BRANCH  53  77
ATOM     77  C   UNL     1      -7.362  10.268   0.832  1.00  0.00     0.064 A 
ATOM     78  C   UNL     1      -8.093   9.117   0.506  1.00  0.00     0.173 A 
ATOM     79  C   UNL     1      -7.517  10.793   2.124  1.00  0.00     0.173 A 
ATOM     80  F   UNL     1      -8.004   8.595  -0.726  1.00  0.00    -0.203 F 
ATOM     81  C   UNL     1      -8.968   8.536   1.422  1.00  0.00     0.198 A 
ATOM     82  C   UNL     1      -8.366  10.191   3.050  1.00  0.00     0.198 A 
ATOM     83  F   UNL     1      -6.846  11.896   2.487  1.00  0.00    -0.203 F 
ATOM     84  F   UNL     1      -9.705   7.477   1.060  1.00  0.00    -0.200 F 
ATOM     85  C   UNL     1      -9.101   9.070   2.695  1.00  0.00     0.200 A 
ATOM     86  F   UNL     1      -8.485  10.707   4.281  1.00  0.00    -0.200 F 
ATOM     87  F   UNL     1      -9.949   8.516   3.571  1.00  0.00    -0.200 F 
ENDBRANCH  53  77
BRANCH  65  88
ATOM     88  C   UNL     1      -8.734  13.618  -5.128  1.00  0.00     0.064 A 
ATOM     89  C   UNL     1      -9.726  14.495  -4.665  1.00  0.00     0.173 A 
ATOM     90  C   UNL     1      -8.937  12.995  -6.370  1.00  0.00     0.173 A 
ATOM     91  F   UNL     1      -9.587  15.106  -3.479  1.00  0.00    -0.203 F 
ATOM     92  C   UNL     1     -10.885  14.719  -5.404  1.00  0.00     0.198 A 
ATOM     93  C   UNL     1     -10.081  13.248  -7.122  1.00  0.00     0.198 A 
ATOM     94  F   UNL     1      -8.015  12.155  -6.864  1.00  0.00    -0.203 F 
ATOM     95  F   UNL     1     -11.841  15.524  -4.920  1.00  0.00    -0.200 F 
ATOM     96  C   UNL     1     -11.057  14.103  -6.635  1.00  0.00     0.200 A 
ATOM     97  F   UNL     1     -10.237  12.665  -8.318  1.00  0.00    -0.200 F 
ATOM     98  F   UNL     1     -12.168  14.329  -7.350  1.00  0.00    -0.200 F 
ENDBRANCH  65  88
ENDBRANCH  39  40
ENDBRANCH  32  34
ENDBRANCH  31  32
ENDBRANCH  30  31
ENDBRANCH  29  30
ENDBRANCH  28  29
ENDBRANCH  27  28
ENDBRANCH   1  27
TORSDOF 20
