REMARK SMILES O=C(CSCC(=O)N1CCN(c2ccc(F)cc2)CC1)OCCOCCOCCOC(=O)c1ccc(-c2c3nc(c(-c4c(F)c(F)c(F)c(F)c4F)c4ccc([nH]4)c(-c4c(F)c(F)c(F)c(F)c4F)c4nc(c(-c5c(F)c(F)c(F)c(F)c5F)c5ccc2[nH]5)C=C4)C=C3)cc1
REMARK SMILES IDX 25 1 24 2 23 3 22 4 21 5 2 6 1 7 3 8 4 9 5 10 6 11 7 12 8 13
REMARK SMILES IDX 9 14 20 15 10 16 19 17 11 18 12 19 13 20 18 21 14 22 17 23
REMARK SMILES IDX 15 24 16 25 26 26 27 27 28 28 29 29 30 30 31 31 32 32 33 33
REMARK SMILES IDX 34 34 95 35 35 36 94 37 36 38 37 39 38 40 88 41 39 42 93 43
REMARK SMILES IDX 87 44 89 45 40 46 92 47 86 48 85 49 41 51 73 52 53 53 72 54
REMARK SMILES IDX 54 55 57 56 71 57 90 58 55 59 56 60 70 62 91 63 58 64 42 65
REMARK SMILES IDX 43 66 51 67 44 68 45 69 49 70 52 71 46 72 47 73 50 74 48 75
REMARK SMILES IDX 74 76 75 77 83 78 76 79 77 80 81 81 84 82 78 83 79 84 82 85
REMARK SMILES IDX 80 86 59 87 60 88 68 89 61 90 62 91 66 92 69 93 63 94 64 95
REMARK SMILES IDX 67 96 65 97
REMARK H PARENT 89 50 57 61
REMARK Flexibility Score: inf
ROOT
ATOM      1  C   UNL     1       3.083   1.445  -1.164  1.00  0.00     0.188 C 
ENDROOT
BRANCH   1   2
ATOM      2  O   UNL     1       4.477   1.211  -1.193  1.00  0.00    -0.376 OA
BRANCH   2   3
ATOM      3  C   UNL     1       5.038   0.203  -0.372  1.00  0.00     0.202 C 
BRANCH   3   4
ATOM      4  C   UNL     1       4.480  -1.213  -0.539  1.00  0.00     0.261 C 
BRANCH   4   5
ATOM      5  O   UNL     1       3.062  -1.403  -0.339  1.00  0.00    -0.463 OA
BRANCH   5   6
ATOM      6  C   UNL     1       2.430  -1.418   0.858  1.00  0.00     0.315 C 
ATOM      7  O   UNL     1       1.441  -2.124   1.034  1.00  0.00    -0.251 OA
BRANCH   6   8
ATOM      8  C   UNL     1       2.877  -0.440   1.909  1.00  0.00     0.192 C 
BRANCH   8   9
ATOM      9  S   UNL     1       4.098  -1.153   3.029  1.00  0.00    -0.140 SA
BRANCH   9  10
ATOM     10  C   UNL     1       2.990  -1.671   4.353  1.00  0.00     0.170 C 
BRANCH  10  11
ATOM     11  C   UNL     1       1.985  -0.654   4.888  1.00  0.00     0.232 C 
ATOM     12  O   UNL     1       0.806  -1.001   5.021  1.00  0.00    -0.274 OA
ATOM     13  N   UNL     1       2.410   0.537   5.441  1.00  0.00    -0.338 N 
ATOM     14  C   UNL     1       1.958   0.825   6.805  1.00  0.00     0.141 C 
ATOM     15  C   UNL     1       3.510   1.412   5.014  1.00  0.00     0.141 C 
ATOM     16  C   UNL     1       3.139   0.596   7.776  1.00  0.00     0.138 C 
ATOM     17  C   UNL     1       4.725   1.273   5.943  1.00  0.00     0.138 C 
ATOM     18  N   UNL     1       4.306   1.394   7.348  1.00  0.00    -0.368 N 
BRANCH  18  19
ATOM     19  C   UNL     1       4.724   2.435   8.149  1.00  0.00     0.037 A 
ATOM     20  C   UNL     1       4.772   3.760   7.694  1.00  0.00     0.029 A 
ATOM     21  C   UNL     1       5.103   2.181   9.477  1.00  0.00     0.029 A 
ATOM     22  C   UNL     1       5.166   4.799   8.543  1.00  0.00     0.041 A 
ATOM     23  C   UNL     1       5.513   3.210  10.325  1.00  0.00     0.041 A 
ATOM     24  C   UNL     1       5.534   4.513   9.850  1.00  0.00     0.123 A 
ATOM     25  F   UNL     1       5.915   5.506  10.663  1.00  0.00    -0.207 F 
ENDBRANCH  18  19
ENDBRANCH  10  11
ENDBRANCH   9  10
ENDBRANCH   8   9
ENDBRANCH   6   8
ENDBRANCH   5   6
ENDBRANCH   4   5
ENDBRANCH   3   4
ENDBRANCH   2   3
ENDBRANCH   1   2
BRANCH   1  26
ATOM     26  C   UNL     1       2.401   1.307  -2.536  1.00  0.00     0.188 C 
BRANCH  26  27
ATOM     27  O   UNL     1       3.177   0.891  -3.650  1.00  0.00    -0.376 OA
BRANCH  27  28
ATOM     28  C   UNL     1       4.402   1.565  -3.927  1.00  0.00     0.202 C 
BRANCH  28  29
ATOM     29  C   UNL     1       4.382   3.097  -4.032  1.00  0.00     0.261 C 
BRANCH  29  30
ATOM     30  O   UNL     1       3.977   3.773  -2.822  1.00  0.00    -0.460 OA
BRANCH  30  31
ATOM     31  C   UNL     1       2.951   4.646  -2.971  1.00  0.00     0.338 C 
ATOM     32  O   UNL     1       2.360   4.922  -4.001  1.00  0.00    -0.246 OA
BRANCH  31  33
ATOM     33  C   UNL     1       2.504   5.179  -1.669  1.00  0.00     0.060 A 
ATOM     34  C   UNL     1       1.190   4.905  -1.270  1.00  0.00     0.016 A 
ATOM     35  C   UNL     1       3.288   6.077  -0.942  1.00  0.00     0.016 A 
ATOM     36  C   UNL     1       0.636   5.573  -0.176  1.00  0.00     0.010 A 
ATOM     37  C   UNL     1       2.727   6.755   0.151  1.00  0.00     0.010 A 
ATOM     38  C   UNL     1       1.384   6.539   0.512  1.00  0.00    -0.014 A 
BRANCH  38  39
ATOM     39  C   UNL     1       0.695   7.420   1.492  1.00  0.00     0.031 A 
ATOM     40  C   UNL     1       0.187   8.767   1.043  1.00  0.00     0.074 A 
ATOM     41  C   UNL     1       0.451   7.004   2.748  1.00  0.00     0.049 A 
ATOM     42  N   UNL     1      -0.496   9.662   1.712  1.00  0.00    -0.248 NA
ATOM     43  C   UNL     1       0.480   9.151  -0.347  1.00  0.00     0.031 C 
ATOM     44  C   UNL     1       0.847   5.710   3.299  1.00  0.00     0.029 A 
ATOM     45  N   UNL     1      -0.206   7.625   3.782  1.00  0.00    -0.354 N 
ATOM     46  C   UNL     1      -0.726  10.705   0.824  1.00  0.00     0.074 A 
ATOM     47  C   UNL     1      -0.079  10.351  -0.421  1.00  0.00     0.031 C 
ATOM     48  C   UNL     1       0.416   5.629   4.570  1.00  0.00     0.029 A 
ATOM     49  C   UNL     1      -0.268   6.872   4.928  1.00  0.00     0.049 A 
ATOM     50  H   UNL     1      -0.596   8.526   3.709  1.00  0.00     0.167 HD
ATOM     51  C   UNL     1      -1.427  11.847   1.020  1.00  0.00     0.037 A 
ATOM     52  C   UNL     1      -0.815   7.151   6.129  1.00  0.00     0.037 A 
ATOM     53  C   UNL     1      -2.078  12.209   2.252  1.00  0.00     0.049 A 
ATOM     54  C   UNL     1      -1.528   8.463   6.342  1.00  0.00     0.074 A 
ATOM     55  C   UNL     1      -2.822  13.342   2.531  1.00  0.00     0.029 A 
ATOM     56  N   UNL     1      -2.062  11.446   3.408  1.00  0.00    -0.354 N 
ATOM     57  N   UNL     1      -1.758   9.430   5.487  1.00  0.00    -0.248 NA
ATOM     58  C   UNL     1      -2.063   8.718   7.689  1.00  0.00     0.031 C 
ATOM     59  C   UNL     1      -3.220  13.287   3.870  1.00  0.00     0.029 A 
ATOM     60  C   UNL     1      -2.762  12.097   4.412  1.00  0.00     0.049 A 
ATOM     61  H   UNL     1      -1.619  10.572   3.503  1.00  0.00     0.167 HD
ATOM     62  C   UNL     1      -2.478  10.393   6.183  1.00  0.00     0.074 A 
ATOM     63  C   UNL     1      -2.664   9.888   7.527  1.00  0.00     0.031 C 
ATOM     64  C   UNL     1      -2.942  11.589   5.747  1.00  0.00     0.037 A 
BRANCH  51  65
ATOM     65  C   UNL     1      -1.537  12.807  -0.126  1.00  0.00     0.064 A 
ATOM     66  C   UNL     1      -0.844  14.025  -0.103  1.00  0.00     0.173 A 
ATOM     67  C   UNL     1      -2.402  12.560  -1.202  1.00  0.00     0.173 A 
ATOM     68  F   UNL     1      -0.010  14.309   0.909  1.00  0.00    -0.203 F 
ATOM     69  C   UNL     1      -1.026  14.971  -1.109  1.00  0.00     0.198 A 
ATOM     70  C   UNL     1      -2.565  13.499  -2.217  1.00  0.00     0.198 A 
ATOM     71  F   UNL     1      -3.079  11.404  -1.272  1.00  0.00    -0.203 F 
ATOM     72  F   UNL     1      -0.378  16.143  -1.050  1.00  0.00    -0.200 F 
ATOM     73  C   UNL     1      -1.886  14.707  -2.164  1.00  0.00     0.200 A 
ATOM     74  F   UNL     1      -3.384  13.236  -3.245  1.00  0.00    -0.200 F 
ATOM     75  F   UNL     1      -2.060  15.618  -3.131  1.00  0.00    -0.200 F 
ENDBRANCH  51  65
BRANCH  52  76
ATOM     76  C   UNL     1      -0.724   6.159   7.231  1.00  0.00     0.064 A 
ATOM     77  C   UNL     1       0.499   5.875   7.856  1.00  0.00     0.173 A 
ATOM     78  C   UNL     1      -1.865   5.487   7.693  1.00  0.00     0.173 A 
ATOM     79  F   UNL     1       1.620   6.492   7.452  1.00  0.00    -0.203 F 
ATOM     80  C   UNL     1       0.579   4.948   8.893  1.00  0.00     0.198 A 
ATOM     81  C   UNL     1      -1.787   4.579   8.746  1.00  0.00     0.198 A 
ATOM     82  F   UNL     1      -3.061   5.746   7.145  1.00  0.00    -0.203 F 
ATOM     83  F   UNL     1       1.763   4.680   9.459  1.00  0.00    -0.200 F 
ATOM     84  C   UNL     1      -0.565   4.305   9.341  1.00  0.00     0.200 A 
ATOM     85  F   UNL     1      -2.899   3.981   9.196  1.00  0.00    -0.200 F 
ATOM     86  F   UNL     1      -0.489   3.426  10.349  1.00  0.00    -0.200 F 
ENDBRANCH  52  76
BRANCH  64  87
ATOM     87  C   UNL     1      -3.705  12.440   6.721  1.00  0.00     0.064 A 
ATOM     88  C   UNL     1      -5.086  12.638   6.569  1.00  0.00     0.173 A 
ATOM     89  C   UNL     1      -3.058  13.109   7.770  1.00  0.00     0.173 A 
ATOM     90  F   UNL     1      -5.751  12.030   5.575  1.00  0.00    -0.203 F 
ATOM     91  C   UNL     1      -5.789  13.479   7.427  1.00  0.00     0.198 A 
ATOM     92  C   UNL     1      -3.769  13.929   8.643  1.00  0.00     0.198 A 
ATOM     93  F   UNL     1      -1.741  12.945   7.964  1.00  0.00    -0.203 F 
ATOM     94  F   UNL     1      -7.103  13.674   7.247  1.00  0.00    -0.200 F 
ATOM     95  C   UNL     1      -5.131  14.120   8.466  1.00  0.00     0.200 A 
ATOM     96  F   UNL     1      -3.136  14.528   9.661  1.00  0.00    -0.200 F 
ATOM     97  F   UNL     1      -5.811  14.917   9.302  1.00  0.00    -0.200 F 
ENDBRANCH  64  87
ENDBRANCH  38  39
ENDBRANCH  31  33
ENDBRANCH  30  31
ENDBRANCH  29  30
ENDBRANCH  28  29
ENDBRANCH  27  28
ENDBRANCH  26  27
ENDBRANCH   1  26
TORSDOF 21
