REMARK SMILES O=C(Cc1ccn(C(F)F)c(=O)c1)OCCOCCOCCOC(=O)c1ccc(-c2c3nc(c(-c4c(F)c(F)c(F)c(F)c4F)c4ccc([nH]4)c(-c4c(F)c(F)c(F)c(F)c4F)c4nc(c(-c5c(F)c(F)c(F)c(F)c5F)c5ccc2[nH]5)C=C4)C=C3)cc1
REMARK SMILES IDX 18 1 17 2 16 3 15 4 14 5 2 6 1 7 3 8 4 9 5 10 13 11 6 12
REMARK SMILES IDX 11 13 7 14 12 15 8 16 9 17 10 18 19 19 20 20 21 21 22 22
REMARK SMILES IDX 23 23 24 24 25 25 26 26 27 27 88 28 28 29 87 30 29 31 30 32
REMARK SMILES IDX 31 33 81 34 32 35 86 36 80 37 82 38 33 39 85 40 79 41 78 42
REMARK SMILES IDX 34 44 66 45 46 46 65 47 47 48 50 49 64 50 83 51 48 52 49 53
REMARK SMILES IDX 63 55 84 56 51 57 35 58 36 59 44 60 37 61 38 62 42 63 45 64
REMARK SMILES IDX 39 65 40 66 43 67 41 68 67 69 68 70 76 71 69 72 70 73 74 74
REMARK SMILES IDX 77 75 71 76 72 77 75 78 73 79 52 80 53 81 61 82 54 83 55 84
REMARK SMILES IDX 59 85 62 86 56 87 57 88 60 89 58 90
REMARK H PARENT 82 43 50 54
REMARK Flexibility Score: inf
ROOT
ATOM      1  C   UNL     1       2.649   1.852   0.143  1.00  0.00     0.188 C 
ENDROOT
BRANCH   1   2
ATOM      2  O   UNL     1       4.050   1.793   0.306  1.00  0.00    -0.376 OA
BRANCH   2   3
ATOM      3  C   UNL     1       4.808   0.725  -0.240  1.00  0.00     0.202 C 
BRANCH   3   4
ATOM      4  C   UNL     1       4.238  -0.259  -1.267  1.00  0.00     0.261 C 
BRANCH   4   5
ATOM      5  O   UNL     1       2.964  -0.913  -1.048  1.00  0.00    -0.463 OA
BRANCH   5   6
ATOM      6  C   UNL     1       2.340  -1.353   0.059  1.00  0.00     0.310 C 
ATOM      7  O   UNL     1       1.159  -1.693  -0.008  1.00  0.00    -0.252 OA
BRANCH   6   8
ATOM      8  C   UNL     1       3.094  -1.476   1.363  1.00  0.00     0.158 C 
BRANCH   8   9
ATOM      9  C   UNL     1       3.982  -2.680   1.305  1.00  0.00    -0.030 A 
ATOM     10  C   UNL     1       5.414  -2.491   1.261  1.00  0.00     0.023 A 
ATOM     11  C   UNL     1       3.477  -3.921   1.207  1.00  0.00     0.076 A 
ATOM     12  C   UNL     1       6.202  -3.487   0.846  1.00  0.00     0.095 A 
ATOM     13  C   UNL     1       4.360  -5.068   0.864  1.00  0.00     0.255 A 
ATOM     14  N   UNL     1       5.675  -4.735   0.576  1.00  0.00    -0.258 N 
ATOM     15  O   UNL     1       3.870  -6.189   0.805  1.00  0.00    -0.269 OA
BRANCH  14  16
ATOM     16  C   UNL     1       6.507  -5.776   0.038  1.00  0.00     0.451 C 
ATOM     17  F   UNL     1       6.724  -6.749   0.952  1.00  0.00    -0.185 F 
ATOM     18  F   UNL     1       5.935  -6.337  -1.055  1.00  0.00    -0.185 F 
ENDBRANCH  14  16
ENDBRANCH   8   9
ENDBRANCH   6   8
ENDBRANCH   5   6
ENDBRANCH   4   5
ENDBRANCH   3   4
ENDBRANCH   2   3
ENDBRANCH   1   2
BRANCH   1  19
ATOM     19  C   UNL     1       2.136   3.183  -0.415  1.00  0.00     0.188 C 
BRANCH  19  20
ATOM     20  O   UNL     1       2.944   3.824  -1.390  1.00  0.00    -0.376 OA
BRANCH  20  21
ATOM     21  C   UNL     1       4.237   4.280  -0.989  1.00  0.00     0.202 C 
BRANCH  21  22
ATOM     22  C   UNL     1       4.352   5.143   0.280  1.00  0.00     0.261 C 
BRANCH  22  23
ATOM     23  O   UNL     1       4.075   4.434   1.508  1.00  0.00    -0.460 OA
BRANCH  23  24
ATOM     24  C   UNL     1       3.042   4.914   2.245  1.00  0.00     0.338 C 
ATOM     25  O   UNL     1       2.319   5.857   1.978  1.00  0.00    -0.246 OA
BRANCH  24  26
ATOM     26  C   UNL     1       2.795   4.047   3.414  1.00  0.00     0.060 A 
ATOM     27  C   UNL     1       3.742   3.950   4.432  1.00  0.00     0.016 A 
ATOM     28  C   UNL     1       1.535   3.448   3.558  1.00  0.00     0.016 A 
ATOM     29  C   UNL     1       3.412   3.277   5.614  1.00  0.00     0.010 A 
ATOM     30  C   UNL     1       1.210   2.772   4.739  1.00  0.00     0.010 A 
ATOM     31  C   UNL     1       2.138   2.704   5.788  1.00  0.00    -0.014 A 
BRANCH  31  32
ATOM     32  C   UNL     1       1.743   2.190   7.126  1.00  0.00     0.031 A 
ATOM     33  C   UNL     1       1.704   0.725   7.436  1.00  0.00     0.074 A 
ATOM     34  C   UNL     1       1.421   3.078   8.086  1.00  0.00     0.049 A 
ATOM     35  N   UNL     1       1.567   0.136   8.598  1.00  0.00    -0.248 NA
ATOM     36  C   UNL     1       1.822  -0.198   6.300  1.00  0.00     0.031 C 
ATOM     37  C   UNL     1       1.349   4.526   7.893  1.00  0.00     0.029 A 
ATOM     38  N   UNL     1       1.111   2.900   9.412  1.00  0.00    -0.354 N 
ATOM     39  C   UNL     1       1.613  -1.226   8.341  1.00  0.00     0.074 A 
ATOM     40  C   UNL     1       1.732  -1.377   6.904  1.00  0.00     0.031 C 
ATOM     41  C   UNL     1       1.056   5.109   9.066  1.00  0.00     0.029 A 
ATOM     42  C   UNL     1       0.912   4.077  10.091  1.00  0.00     0.049 A 
ATOM     43  H   UNL     1       1.039   2.014   9.835  1.00  0.00     0.167 HD
ATOM     44  C   UNL     1       1.584  -2.251   9.228  1.00  0.00     0.037 A 
ATOM     45  C   UNL     1       0.665   4.306  11.395  1.00  0.00     0.037 A 
ATOM     46  C   UNL     1       1.442  -2.094  10.655  1.00  0.00     0.049 A 
ATOM     47  C   UNL     1       0.614   3.153  12.357  1.00  0.00     0.074 A 
ATOM     48  C   UNL     1       1.486  -3.070  11.637  1.00  0.00     0.029 A 
ATOM     49  N   UNL     1       1.200  -0.891  11.302  1.00  0.00    -0.354 N 
ATOM     50  N   UNL     1       0.805   1.878  12.126  1.00  0.00    -0.248 NA
ATOM     51  C   UNL     1       0.323   3.471  13.763  1.00  0.00     0.031 C 
ATOM     52  C   UNL     1       1.209  -2.467  12.868  1.00  0.00     0.029 A 
ATOM     53  C   UNL     1       1.047  -1.107  12.664  1.00  0.00     0.049 A 
ATOM     54  H   UNL     1       1.145  -0.013  10.860  1.00  0.00     0.167 HD
ATOM     55  C   UNL     1       0.671   1.242  13.353  1.00  0.00     0.074 A 
ATOM     56  C   UNL     1       0.401   2.275  14.332  1.00  0.00     0.031 C 
ATOM     57  C   UNL     1       0.764  -0.080  13.636  1.00  0.00     0.037 A 
BRANCH  44  58
ATOM     58  C   UNL     1       1.729  -3.646   8.692  1.00  0.00     0.064 A 
ATOM     59  C   UNL     1       2.954  -4.106   8.187  1.00  0.00     0.173 A 
ATOM     60  C   UNL     1       0.666  -4.559   8.768  1.00  0.00     0.173 A 
ATOM     61  F   UNL     1       4.001  -3.272   8.093  1.00  0.00    -0.203 F 
ATOM     62  C   UNL     1       3.105  -5.423   7.760  1.00  0.00     0.198 A 
ATOM     63  C   UNL     1       0.829  -5.883   8.365  1.00  0.00     0.198 A 
ATOM     64  F   UNL     1      -0.522  -4.175   9.258  1.00  0.00    -0.203 F 
ATOM     65  F   UNL     1       4.278  -5.830   7.256  1.00  0.00    -0.200 F 
ATOM     66  C   UNL     1       2.046  -6.312   7.858  1.00  0.00     0.200 A 
ATOM     67  F   UNL     1      -0.190  -6.746   8.479  1.00  0.00    -0.200 F 
ATOM     68  F   UNL     1       2.199  -7.585   7.466  1.00  0.00    -0.200 F 
ENDBRANCH  44  58
BRANCH  45  69
ATOM     69  C   UNL     1       0.515   5.707  11.865  1.00  0.00     0.064 A 
ATOM     70  C   UNL     1       1.522   6.322  12.619  1.00  0.00     0.173 A 
ATOM     71  C   UNL     1      -0.609   6.473  11.523  1.00  0.00     0.173 A 
ATOM     72  F   UNL     1       2.607   5.624  12.984  1.00  0.00    -0.203 F 
ATOM     73  C   UNL     1       1.412   7.654  13.012  1.00  0.00     0.198 A 
ATOM     74  C   UNL     1      -0.707   7.811  11.896  1.00  0.00     0.198 A 
ATOM     75  F   UNL     1      -1.597   5.928  10.797  1.00  0.00    -0.203 F 
ATOM     76  F   UNL     1       2.381   8.215  13.749  1.00  0.00    -0.200 F 
ATOM     77  C   UNL     1       0.303   8.400  12.642  1.00  0.00     0.200 A 
ATOM     78  F   UNL     1      -1.772   8.532  11.523  1.00  0.00    -0.200 F 
ATOM     79  F   UNL     1       0.208   9.687  13.003  1.00  0.00    -0.200 F 
ENDBRANCH  45  69
BRANCH  57  80
ATOM     80  C   UNL     1       0.562  -0.509  15.061  1.00  0.00     0.064 A 
ATOM     81  C   UNL     1      -0.712  -0.509  15.648  1.00  0.00     0.173 A 
ATOM     82  C   UNL     1       1.633  -1.008  15.818  1.00  0.00     0.173 A 
ATOM     83  F   UNL     1      -1.766  -0.028  14.973  1.00  0.00    -0.203 F 
ATOM     84  C   UNL     1      -0.905  -0.991  16.941  1.00  0.00     0.198 A 
ATOM     85  C   UNL     1       1.432  -1.513  17.100  1.00  0.00     0.198 A 
ATOM     86  F   UNL     1       2.871  -1.034  15.302  1.00  0.00    -0.203 F 
ATOM     87  F   UNL     1      -2.127  -0.959  17.490  1.00  0.00    -0.200 F 
ATOM     88  C   UNL     1       0.164  -1.503  17.661  1.00  0.00     0.200 A 
ATOM     89  F   UNL     1       2.464  -2.021  17.788  1.00  0.00    -0.200 F 
ATOM     90  F   UNL     1      -0.028  -1.987  18.896  1.00  0.00    -0.200 F 
ENDBRANCH  57  80
ENDBRANCH  31  32
ENDBRANCH  24  26
ENDBRANCH  23  24
ENDBRANCH  22  23
ENDBRANCH  21  22
ENDBRANCH  20  21
ENDBRANCH  19  20
ENDBRANCH   1  19
TORSDOF 19
