REMARK SMILES CC1(C)[C@H](C(=O)OCCOCCOCCOC(=O)c2ccc(-c3c4nc(c(-c5c(F)c(F)c(F)c(F)c5F)c5ccc([nH]5)c(-c5c(F)c(F)c(F)c(F)c5F)c5nc(c(-c6c(F)c(F)c(F)c(F)c6F)c6ccc3[nH]6)C=C5)C=C4)cc2)[C@@H]1C(=O)Nc1ccc(NC(=O)C2CCC2)cc1
REMARK SMILES IDX 11 1 10 2 9 3 8 4 7 5 5 6 6 7 4 8 1 9 2 10 3 11 82 12 83 13
REMARK SMILES IDX 84 14 85 15 86 17 87 18 98 19 88 20 97 21 89 22 90 23 91 24
REMARK SMILES IDX 92 26 93 27 94 28 96 29 95 30 12 31 13 32 14 33 15 34 16 35
REMARK SMILES IDX 17 36 18 37 19 38 20 39 81 40 21 41 80 42 22 43 23 44 24 45
REMARK SMILES IDX 74 46 25 47 79 48 73 49 75 50 26 51 78 52 72 53 71 54 27 56
REMARK SMILES IDX 59 57 39 58 58 59 40 60 43 61 57 62 76 63 41 64 42 65 56 67
REMARK SMILES IDX 77 68 44 69 28 70 29 71 37 72 30 73 31 74 35 75 38 76 32 77
REMARK SMILES IDX 33 78 36 79 34 80 60 81 61 82 69 83 62 84 63 85 67 86 70 87
REMARK SMILES IDX 64 88 65 89 68 90 66 91 45 92 46 93 54 94 47 95 48 96 52 97
REMARK SMILES IDX 55 98 49 99 50 100 53 101 51 102
REMARK H PARENT 85 16 90 25 75 55 43 66
REMARK Flexibility Score: inf
ROOT
ATOM      1  C   UNL     1      -0.794   1.444  -4.290  1.00  0.00     0.188 C 
ENDROOT
BRANCH   1   2
ATOM      2  O   UNL     1      -1.499   2.674  -4.327  1.00  0.00    -0.376 OA
BRANCH   2   3
ATOM      3  C   UNL     1      -2.473   2.893  -3.319  1.00  0.00     0.202 C 
BRANCH   3   4
ATOM      4  C   UNL     1      -1.909   3.178  -1.921  1.00  0.00     0.261 C 
BRANCH   4   5
ATOM      5  O   UNL     1      -1.458   2.094  -1.073  1.00  0.00    -0.463 OA
BRANCH   5   6
ATOM      6  C   UNL     1      -1.881   0.818  -1.235  1.00  0.00     0.310 C 
ATOM      7  O   UNL     1      -2.662   0.425  -2.070  1.00  0.00    -0.252 OA
BRANCH   6   8
ATOM      8  C   UNL     1      -1.199  -0.187  -0.388  1.00  0.00     0.118 C 
ATOM      9  C   UNL     1       1.062  -1.131   0.328  1.00  0.00     0.013 C 
ATOM     10  C   UNL     1       0.052  -0.011   0.441  1.00  0.00    -0.009 C 
ATOM     11  C   UNL     1       0.711   1.342   0.597  1.00  0.00     0.013 C 
ATOM     12  C   UNL     1      -1.312  -0.311   1.107  1.00  0.00     0.100 C 
BRANCH  12  13
ATOM     13  C   UNL     1      -1.870   0.661   2.077  1.00  0.00     0.228 C 
ATOM     14  O   UNL     1      -1.172   1.021   3.023  1.00  0.00    -0.274 OA
ATOM     15  N   UNL     1      -3.137   1.175   1.962  1.00  0.00    -0.326 N 
ATOM     16  H   UNL     1      -3.435   1.730   2.719  1.00  0.00     0.169 HD
BRANCH  15  17
ATOM     17  C   UNL     1      -4.063   1.028   0.932  1.00  0.00     0.041 A 
ATOM     18  C   UNL     1      -4.506   2.212   0.362  1.00  0.00     0.028 A 
ATOM     19  C   UNL     1      -4.473  -0.186   0.391  1.00  0.00     0.028 A 
ATOM     20  C   UNL     1      -5.181   2.188  -0.857  1.00  0.00     0.028 A 
ATOM     21  C   UNL     1      -5.248  -0.192  -0.785  1.00  0.00     0.028 A 
ATOM     22  C   UNL     1      -5.546   1.004  -1.466  1.00  0.00     0.041 A 
BRANCH  22  23
ATOM     23  N   UNL     1      -6.121   0.899  -2.741  1.00  0.00    -0.326 N 
ATOM     24  C   UNL     1      -6.426   1.728  -3.799  1.00  0.00     0.227 C 
ATOM     25  H   UNL     1      -6.381  -0.030  -2.935  1.00  0.00     0.169 HD
ATOM     26  O   UNL     1      -6.895   1.108  -4.779  1.00  0.00    -0.274 OA
BRANCH  24  27
ATOM     27  C   UNL     1      -6.207   3.247  -3.936  1.00  0.00     0.079 C 
ATOM     28  C   UNL     1      -7.413   3.979  -4.638  1.00  0.00     0.013 C 
ATOM     29  C   UNL     1      -6.363   4.344  -2.855  1.00  0.00     0.013 C 
ATOM     30  C   UNL     1      -6.992   5.258  -3.909  1.00  0.00     0.002 C 
ENDBRANCH  24  27
ENDBRANCH  22  23
ENDBRANCH  15  17
ENDBRANCH  12  13
ENDBRANCH   6   8
ENDBRANCH   5   6
ENDBRANCH   4   5
ENDBRANCH   3   4
ENDBRANCH   2   3
ENDBRANCH   1   2
BRANCH   1  31
ATOM     31  C   UNL     1       0.486   1.466  -3.436  1.00  0.00     0.188 C 
BRANCH  31  32
ATOM     32  O   UNL     1       1.265   2.652  -3.348  1.00  0.00    -0.376 OA
BRANCH  32  33
ATOM     33  C   UNL     1       1.314   3.525  -4.465  1.00  0.00     0.202 C 
BRANCH  33  34
ATOM     34  C   UNL     1       2.030   3.023  -5.725  1.00  0.00     0.261 C 
BRANCH  34  35
ATOM     35  O   UNL     1       1.574   1.743  -6.194  1.00  0.00    -0.460 OA
BRANCH  35  36
ATOM     36  C   UNL     1       2.372   0.689  -5.892  1.00  0.00     0.338 C 
ATOM     37  O   UNL     1       3.460   0.718  -5.344  1.00  0.00    -0.246 OA
BRANCH  36  38
ATOM     38  C   UNL     1       1.641  -0.574  -6.151  1.00  0.00     0.060 A 
ATOM     39  C   UNL     1       1.611  -1.544  -5.136  1.00  0.00     0.016 A 
ATOM     40  C   UNL     1       1.033  -0.825  -7.381  1.00  0.00     0.016 A 
ATOM     41  C   UNL     1       1.007  -2.781  -5.358  1.00  0.00     0.010 A 
ATOM     42  C   UNL     1       0.466  -2.080  -7.619  1.00  0.00     0.010 A 
ATOM     43  C   UNL     1       0.489  -3.075  -6.623  1.00  0.00    -0.014 A 
BRANCH  43  44
ATOM     44  C   UNL     1       0.248  -4.486  -7.007  1.00  0.00     0.031 A 
ATOM     45  C   UNL     1       1.391  -5.237  -7.633  1.00  0.00     0.074 A 
ATOM     46  C   UNL     1      -0.941  -5.086  -6.826  1.00  0.00     0.049 A 
ATOM     47  N   UNL     1       1.408  -6.416  -8.198  1.00  0.00    -0.248 NA
ATOM     48  C   UNL     1       2.697  -4.555  -7.625  1.00  0.00     0.031 C 
ATOM     49  C   UNL     1      -2.100  -4.492  -6.168  1.00  0.00     0.029 A 
ATOM     50  N   UNL     1      -1.368  -6.334  -7.209  1.00  0.00    -0.354 N 
ATOM     51  C   UNL     1       2.715  -6.606  -8.628  1.00  0.00     0.074 A 
ATOM     52  C   UNL     1       3.461  -5.422  -8.270  1.00  0.00     0.031 C 
ATOM     53  C   UNL     1      -3.122  -5.366  -6.221  1.00  0.00     0.029 A 
ATOM     54  C   UNL     1      -2.698  -6.559  -6.954  1.00  0.00     0.049 A 
ATOM     55  H   UNL     1      -0.778  -7.002  -7.627  1.00  0.00     0.167 HD
ATOM     56  C   UNL     1       3.244  -7.671  -9.272  1.00  0.00     0.037 A 
ATOM     57  C   UNL     1      -3.485  -7.593  -7.312  1.00  0.00     0.037 A 
ATOM     58  C   UNL     1       2.497  -8.843  -9.637  1.00  0.00     0.049 A 
ATOM     59  C   UNL     1      -2.894  -8.734  -8.106  1.00  0.00     0.074 A 
ATOM     60  C   UNL     1       2.936  -9.975 -10.298  1.00  0.00     0.029 A 
ATOM     61  N   UNL     1       1.148  -9.026  -9.374  1.00  0.00    -0.354 N 
ATOM     62  N   UNL     1      -1.661  -8.908  -8.517  1.00  0.00    -0.248 NA
ATOM     63  C   UNL     1      -3.809  -9.819  -8.493  1.00  0.00     0.031 C 
ATOM     64  C   UNL     1       1.841 -10.826 -10.475  1.00  0.00     0.029 A 
ATOM     65  C   UNL     1       0.733 -10.247  -9.876  1.00  0.00     0.049 A 
ATOM     66  H   UNL     1       0.572  -8.383  -8.901  1.00  0.00     0.167 HD
ATOM     67  C   UNL     1      -1.644 -10.133  -9.173  1.00  0.00     0.074 A 
ATOM     68  C   UNL     1      -2.990 -10.661  -9.107  1.00  0.00     0.031 C 
ATOM     69  C   UNL     1      -0.606 -10.767  -9.773  1.00  0.00     0.037 A 
BRANCH  56  70
ATOM     70  C   UNL     1       4.690  -7.592  -9.661  1.00  0.00     0.064 A 
ATOM     71  C   UNL     1       5.716  -7.677  -8.708  1.00  0.00     0.173 A 
ATOM     72  C   UNL     1       5.052  -7.442 -11.007  1.00  0.00     0.173 A 
ATOM     73  F   UNL     1       5.419  -7.798  -7.405  1.00  0.00    -0.203 F 
ATOM     74  C   UNL     1       7.052  -7.591  -9.088  1.00  0.00     0.198 A 
ATOM     75  C   UNL     1       6.390  -7.386 -11.386  1.00  0.00     0.198 A 
ATOM     76  F   UNL     1       4.108  -7.354 -11.956  1.00  0.00    -0.203 F 
ATOM     77  F   UNL     1       8.015  -7.625  -8.156  1.00  0.00    -0.200 F 
ATOM     78  C   UNL     1       7.388  -7.453 -10.427  1.00  0.00     0.200 A 
ATOM     79  F   UNL     1       6.713  -7.261 -12.681  1.00  0.00    -0.200 F 
ATOM     80  F   UNL     1       8.676  -7.376 -10.791  1.00  0.00    -0.200 F 
ENDBRANCH  56  70
BRANCH  57  81
ATOM     81  C   UNL     1      -4.928  -7.593  -6.954  1.00  0.00     0.064 A 
ATOM     82  C   UNL     1      -5.444  -8.513  -6.031  1.00  0.00     0.173 A 
ATOM     83  C   UNL     1      -5.826  -6.694  -7.549  1.00  0.00     0.173 A 
ATOM     84  F   UNL     1      -4.631  -9.413  -5.458  1.00  0.00    -0.203 F 
ATOM     85  C   UNL     1      -6.804  -8.545  -5.729  1.00  0.00     0.198 A 
ATOM     86  C   UNL     1      -7.182  -6.710  -7.226  1.00  0.00     0.198 A 
ATOM     87  F   UNL     1      -5.386  -5.800  -8.446  1.00  0.00    -0.203 F 
ATOM     88  F   UNL     1      -7.278  -9.467  -4.879  1.00  0.00    -0.200 F 
ATOM     89  C   UNL     1      -7.671  -7.640  -6.322  1.00  0.00     0.200 A 
ATOM     90  F   UNL     1      -8.014  -5.829  -7.797  1.00  0.00    -0.200 F 
ATOM     91  F   UNL     1      -8.979  -7.671  -6.031  1.00  0.00    -0.200 F 
ENDBRANCH  57  81
BRANCH  69  92
ATOM     92  C   UNL     1      -0.857 -12.130 -10.349  1.00  0.00     0.064 A 
ATOM     93  C   UNL     1      -1.572 -12.309 -11.541  1.00  0.00     0.173 A 
ATOM     94  C   UNL     1      -0.305 -13.264  -9.735  1.00  0.00     0.173 A 
ATOM     95  F   UNL     1      -2.129 -11.257 -12.160  1.00  0.00    -0.203 F 
ATOM     96  C   UNL     1      -1.738 -13.579 -12.090  1.00  0.00     0.198 A 
ATOM     97  C   UNL     1      -0.448 -14.527 -10.300  1.00  0.00     0.198 A 
ATOM     98  F   UNL     1       0.397 -13.143  -8.597  1.00  0.00    -0.203 F 
ATOM     99  F   UNL     1      -2.453 -13.733 -13.213  1.00  0.00    -0.200 F 
ATOM    100  C   UNL     1      -1.168 -14.684 -11.475  1.00  0.00     0.200 A 
ATOM    101  F   UNL     1       0.116 -15.592  -9.713  1.00  0.00    -0.200 F 
ATOM    102  F   UNL     1      -1.315 -15.902 -12.013  1.00  0.00    -0.200 F 
ENDBRANCH  69  92
ENDBRANCH  43  44
ENDBRANCH  36  38
ENDBRANCH  35  36
ENDBRANCH  34  35
ENDBRANCH  33  34
ENDBRANCH  32  33
ENDBRANCH  31  32
ENDBRANCH   1  31
TORSDOF 21
