REMARK SMILES CC(C)(C[C@@H](O)C(F)(F)F)C(=O)OCCOCCOCCOC(=O)c1ccc(-c2c3nc(c(-c4c(F)c(F)c(F)c(F)c4F)c4ccc([nH]4)c(-c4c(F)c(F)c(F)c(F)c4F)c4nc(c(-c5c(F)c(F)c(F)c(F)c5F)c5ccc2[nH]5)C=C4)C=C3)cc1
REMARK SMILES IDX 17 1 16 2 15 3 14 4 13 5 11 6 12 7 2 8 1 9 3 10 4 11 5 12
REMARK SMILES IDX 6 13 7 15 8 16 9 17 10 18 18 19 19 20 20 21 21 22 22 23
REMARK SMILES IDX 23 24 24 25 25 26 26 27 87 28 27 29 86 30 28 31 29 32 30 33
REMARK SMILES IDX 80 34 31 35 85 36 79 37 81 38 32 39 84 40 78 41 77 42 33 44
REMARK SMILES IDX 65 45 45 46 64 47 46 48 49 49 63 50 82 51 47 52 48 53 62 55
REMARK SMILES IDX 83 56 50 57 34 58 35 59 43 60 36 61 37 62 41 63 44 64 38 65
REMARK SMILES IDX 39 66 42 67 40 68 66 69 67 70 75 71 68 72 69 73 73 74 76 75
REMARK SMILES IDX 70 76 71 77 74 78 72 79 51 80 52 81 60 82 53 83 54 84 58 85
REMARK SMILES IDX 61 86 55 87 56 88 59 89 57 90
REMARK H PARENT 6 14 81 43 49 54
REMARK Flexibility Score: inf
ROOT
ATOM      1  C   UNL     1       1.376   1.956  -3.470  1.00  0.00     0.188 C 
ENDROOT
BRANCH   1   2
ATOM      2  O   UNL     1       2.320   1.258  -4.274  1.00  0.00    -0.376 OA
BRANCH   2   3
ATOM      3  C   UNL     1       1.899   0.197  -5.117  1.00  0.00     0.202 C 
BRANCH   3   4
ATOM      4  C   UNL     1       1.708  -1.177  -4.441  1.00  0.00     0.261 C 
BRANCH   4   5
ATOM      5  O   UNL     1       0.804  -1.280  -3.304  1.00  0.00    -0.463 OA
BRANCH   5   6
ATOM      6  C   UNL     1       1.420  -1.218  -2.093  1.00  0.00     0.311 C 
ATOM      7  O   UNL     1       2.613  -0.955  -1.961  1.00  0.00    -0.252 OA
BRANCH   6   8
ATOM      8  C   UNL     1       0.540  -1.543  -0.864  1.00  0.00     0.065 C 
ATOM      9  C   UNL     1       0.853  -0.459   0.191  1.00  0.00     0.023 C 
ATOM     10  C   UNL     1       1.099  -2.895  -0.354  1.00  0.00     0.023 C 
BRANCH   8  11
ATOM     11  C   UNL     1      -1.007  -1.756  -0.981  1.00  0.00     0.059 C 
BRANCH  11  12
ATOM     12  C   UNL     1      -1.900  -0.546  -1.308  1.00  0.00     0.220 C 
BRANCH  12  13
ATOM     13  O   UNL     1      -2.193  -0.581  -2.714  1.00  0.00    -0.384 OA
ATOM     14  H   UNL     1      -2.677  -1.396  -2.923  1.00  0.00     0.211 HD
ENDBRANCH  12  13
BRANCH  12  15
ATOM     15  C   UNL     1      -3.222  -0.515  -0.502  1.00  0.00     0.414 C 
ATOM     16  F   UNL     1      -2.988  -0.666   0.823  1.00  0.00    -0.168 F 
ATOM     17  F   UNL     1      -3.844   0.679  -0.652  1.00  0.00    -0.168 F 
ATOM     18  F   UNL     1      -4.079  -1.486  -0.880  1.00  0.00    -0.168 F 
ENDBRANCH  12  15
ENDBRANCH  11  12
ENDBRANCH   8  11
ENDBRANCH   6   8
ENDBRANCH   5   6
ENDBRANCH   4   5
ENDBRANCH   3   4
ENDBRANCH   2   3
ENDBRANCH   1   2
BRANCH   1  19
ATOM     19  C   UNL     1      -0.086   1.526  -3.446  1.00  0.00     0.188 C 
BRANCH  19  20
ATOM     20  O   UNL     1      -0.596   1.167  -4.714  1.00  0.00    -0.376 OA
BRANCH  20  21
ATOM     21  C   UNL     1      -1.915   1.576  -5.046  1.00  0.00     0.202 C 
BRANCH  21  22
ATOM     22  C   UNL     1      -1.986   3.061  -5.419  1.00  0.00     0.261 C 
BRANCH  22  23
ATOM     23  O   UNL     1      -1.578   3.941  -4.354  1.00  0.00    -0.460 OA
BRANCH  23  24
ATOM     24  C   UNL     1      -2.392   3.954  -3.269  1.00  0.00     0.338 C 
ATOM     25  O   UNL     1      -3.466   3.402  -3.154  1.00  0.00    -0.246 OA
BRANCH  24  26
ATOM     26  C   UNL     1      -1.645   4.551  -2.137  1.00  0.00     0.060 A 
ATOM     27  C   UNL     1      -1.590   3.837  -0.930  1.00  0.00     0.016 A 
ATOM     28  C   UNL     1      -1.015   5.790  -2.254  1.00  0.00     0.016 A 
ATOM     29  C   UNL     1      -0.963   4.393   0.184  1.00  0.00     0.010 A 
ATOM     30  C   UNL     1      -0.404   6.356  -1.131  1.00  0.00     0.010 A 
ATOM     31  C   UNL     1      -0.423   5.683   0.105  1.00  0.00    -0.014 A 
BRANCH  31  32
ATOM     32  C   UNL     1      -0.127   6.421   1.360  1.00  0.00     0.031 A 
ATOM     33  C   UNL     1      -1.158   7.398   1.863  1.00  0.00     0.074 A 
ATOM     34  C   UNL     1       0.994   6.202   2.069  1.00  0.00     0.049 A 
ATOM     35  N   UNL     1      -1.125   8.188   2.906  1.00  0.00    -0.248 NA
ATOM     36  C   UNL     1      -2.397   7.498   1.074  1.00  0.00     0.031 C 
ATOM     37  C   UNL     1       2.044   5.248   1.723  1.00  0.00     0.029 A 
ATOM     38  N   UNL     1       1.431   6.778   3.237  1.00  0.00    -0.354 N 
ATOM     39  C   UNL     1      -2.327   8.884   2.888  1.00  0.00     0.074 A 
ATOM     40  C   UNL     1      -3.051   8.454   1.713  1.00  0.00     0.031 C 
ATOM     41  C   UNL     1       3.011   5.310   2.656  1.00  0.00     0.029 A 
ATOM     42  C   UNL     1       2.662   6.330   3.645  1.00  0.00     0.049 A 
ATOM     43  H   UNL     1       0.909   7.449   3.734  1.00  0.00     0.167 HD
ATOM     44  C   UNL     1      -2.795   9.791   3.778  1.00  0.00     0.037 A 
ATOM     45  C   UNL     1       3.426   6.718   4.686  1.00  0.00     0.037 A 
ATOM     46  C   UNL     1      -2.078  10.216   4.952  1.00  0.00     0.049 A 
ATOM     47  C   UNL     1       2.916   7.786   5.623  1.00  0.00     0.074 A 
ATOM     48  C   UNL     1      -2.470  11.121   5.922  1.00  0.00     0.029 A 
ATOM     49  N   UNL     1      -0.816   9.767   5.311  1.00  0.00    -0.354 N 
ATOM     50  N   UNL     1       1.772   8.429   5.610  1.00  0.00    -0.248 NA
ATOM     51  C   UNL     1       3.805   8.176   6.727  1.00  0.00     0.031 C 
ATOM     52  C   UNL     1      -1.420  11.266   6.834  1.00  0.00     0.029 A 
ATOM     53  C   UNL     1      -0.403  10.397   6.474  1.00  0.00     0.049 A 
ATOM     54  H   UNL     1      -0.291   9.098   4.813  1.00  0.00     0.167 HD
ATOM     55  C   UNL     1       1.792   9.271   6.717  1.00  0.00     0.074 A 
ATOM     56  C   UNL     1       3.052   9.040   7.391  1.00  0.00     0.031 C 
ATOM     57  C   UNL     1       0.853  10.156   7.139  1.00  0.00     0.037 A 
BRANCH  44  58
ATOM     58  C   UNL     1      -4.133  10.412   3.494  1.00  0.00     0.064 A 
ATOM     59  C   UNL     1      -5.325   9.675   3.570  1.00  0.00     0.173 A 
ATOM     60  C   UNL     1      -4.225  11.771   3.158  1.00  0.00     0.173 A 
ATOM     61  F   UNL     1      -5.293   8.367   3.869  1.00  0.00    -0.203 F 
ATOM     62  C   UNL     1      -6.554  10.267   3.287  1.00  0.00     0.198 A 
ATOM     63  C   UNL     1      -5.458  12.368   2.912  1.00  0.00     0.198 A 
ATOM     64  F   UNL     1      -3.118  12.524   3.073  1.00  0.00    -0.203 F 
ATOM     65  F   UNL     1      -7.673   9.529   3.307  1.00  0.00    -0.200 F 
ATOM     66  C   UNL     1      -6.620  11.614   2.966  1.00  0.00     0.200 A 
ATOM     67  F   UNL     1      -5.521  13.674   2.616  1.00  0.00    -0.200 F 
ATOM     68  F   UNL     1      -7.804  12.185   2.702  1.00  0.00    -0.200 F 
ENDBRANCH  44  58
BRANCH  45  69
ATOM     69  C   UNL     1       4.767   6.108   4.900  1.00  0.00     0.064 A 
ATOM     70  C   UNL     1       5.035   5.322   6.030  1.00  0.00     0.173 A 
ATOM     71  C   UNL     1       5.820   6.333   4.001  1.00  0.00     0.173 A 
ATOM     72  F   UNL     1       4.071   5.101   6.936  1.00  0.00    -0.203 F 
ATOM     73  C   UNL     1       6.309   4.808   6.266  1.00  0.00     0.198 A 
ATOM     74  C   UNL     1       7.085   5.791   4.220  1.00  0.00     0.198 A 
ATOM     75  F   UNL     1       5.621   7.083   2.907  1.00  0.00    -0.203 F 
ATOM     76  F   UNL     1       6.552   4.113   7.385  1.00  0.00    -0.200 F 
ATOM     77  C   UNL     1       7.331   5.038   5.357  1.00  0.00     0.200 A 
ATOM     78  F   UNL     1       8.067   6.006   3.334  1.00  0.00    -0.200 F 
ATOM     79  F   UNL     1       8.556   4.545   5.585  1.00  0.00    -0.200 F 
ENDBRANCH  45  69
BRANCH  57  80
ATOM     80  C   UNL     1       1.133  10.906   8.413  1.00  0.00     0.064 A 
ATOM     81  C   UNL     1       2.149  11.870   8.501  1.00  0.00     0.173 A 
ATOM     82  C   UNL     1       0.361  10.665   9.561  1.00  0.00     0.173 A 
ATOM     83  F   UNL     1       2.923  12.134   7.438  1.00  0.00    -0.203 F 
ATOM     84  C   UNL     1       2.412  12.528   9.701  1.00  0.00     0.198 A 
ATOM     85  C   UNL     1       0.600  11.354  10.747  1.00  0.00     0.198 A 
ATOM     86  F   UNL     1      -0.633   9.764   9.533  1.00  0.00    -0.203 F 
ATOM     87  F   UNL     1       3.433  13.392   9.778  1.00  0.00    -0.200 F 
ATOM     88  C   UNL     1       1.634  12.274  10.820  1.00  0.00     0.200 A 
ATOM     89  F   UNL     1      -0.166  11.121  11.822  1.00  0.00    -0.200 F 
ATOM     90  F   UNL     1       1.889  12.908  11.973  1.00  0.00    -0.200 F 
ENDBRANCH  57  80
ENDBRANCH  31  32
ENDBRANCH  24  26
ENDBRANCH  23  24
ENDBRANCH  22  23
ENDBRANCH  21  22
ENDBRANCH  20  21
ENDBRANCH  19  20
ENDBRANCH   1  19
TORSDOF 21
