REMARK SMILES CCc1ccc(C(=O)OCCOCCOCCOC(=O)c2ccc(-c3c4nc(c(-c5c(F)c(F)c(F)c(F)c5F)c5ccc([nH]5)c(-c5c(F)c(F)c(F)c(F)c5F)c5nc(c(-c6c(F)c(F)c(F)c(F)c6F)c6ccc3[nH]6)C=C5)C=C4)cc2)cc1S(=O)(=O)Nc1ccc(F)c(F)c1F
REMARK SMILES IDX 13 1 12 2 11 3 10 4 9 5 7 6 8 7 6 8 3 9 4 10 85 11 5 12
REMARK SMILES IDX 84 13 2 14 1 15 86 16 87 17 88 18 89 19 90 21 91 22 97 23
REMARK SMILES IDX 92 24 95 25 98 26 93 27 96 28 94 29 14 30 15 31 16 32 17 33
REMARK SMILES IDX 18 34 19 35 20 36 21 37 22 38 83 39 23 40 82 41 24 42 25 43
REMARK SMILES IDX 26 44 76 45 27 46 81 47 75 48 77 49 28 50 80 51 74 52 73 53
REMARK SMILES IDX 29 55 61 56 41 57 60 58 42 59 45 60 59 61 78 62 43 63 44 64
REMARK SMILES IDX 58 66 79 67 46 68 30 69 31 70 39 71 32 72 33 73 37 74 40 75
REMARK SMILES IDX 34 76 35 77 38 78 36 79 62 80 63 81 71 82 64 83 65 84 69 85
REMARK SMILES IDX 72 86 66 87 67 88 70 89 68 90 47 91 48 92 56 93 49 94 50 95
REMARK SMILES IDX 54 96 57 97 51 98 52 99 55 100 53 101
REMARK H PARENT 89 20 77 54 45 65
REMARK Flexibility Score: inf
ROOT
ATOM      1  C   UNL     1       0.585  -5.258   5.984  1.00  0.00     0.188 C 
ENDROOT
BRANCH   1   2
ATOM      2  O   UNL     1       0.936  -5.545   7.318  1.00  0.00    -0.376 OA
BRANCH   2   3
ATOM      3  C   UNL     1       2.287  -5.350   7.707  1.00  0.00     0.202 C 
BRANCH   3   4
ATOM      4  C   UNL     1       3.140  -4.151   7.223  1.00  0.00     0.261 C 
BRANCH   4   5
ATOM      5  O   UNL     1       2.787  -3.547   5.966  1.00  0.00    -0.460 OA
BRANCH   5   6
ATOM      6  C   UNL     1       3.599  -3.770   4.902  1.00  0.00     0.338 C 
ATOM      7  O   UNL     1       4.606  -4.452   4.874  1.00  0.00    -0.246 OA
BRANCH   6   8
ATOM      8  C   UNL     1       2.906  -3.276   3.690  1.00  0.00     0.061 A 
ATOM      9  C   UNL     1       1.181  -2.472   1.625  1.00  0.00    -0.028 A 
ATOM     10  C   UNL     1       1.429  -3.838   1.891  1.00  0.00     0.006 A 
ATOM     11  C   UNL     1       2.009  -1.513   2.235  1.00  0.00     0.091 A 
ATOM     12  C   UNL     1       2.299  -4.239   2.894  1.00  0.00     0.016 A 
ATOM     13  C   UNL     1       2.810  -1.923   3.337  1.00  0.00     0.038 A 
BRANCH   9  14
ATOM     14  C   UNL     1      -0.055  -2.227   0.808  1.00  0.00     0.033 C 
ATOM     15  C   UNL     1      -1.047  -1.289   1.480  1.00  0.00     0.009 C 
ENDBRANCH   9  14
BRANCH  11  16
ATOM     16  S   UNL     1       2.299   0.200   1.740  1.00  0.00     0.262 S 
ATOM     17  O   UNL     1       1.877   0.990   2.880  1.00  0.00    -0.201 OA
ATOM     18  O   UNL     1       3.673   0.243   1.285  1.00  0.00    -0.201 OA
BRANCH  16  19
ATOM     19  N   UNL     1       1.347   0.771   0.497  1.00  0.00    -0.277 N 
ATOM     20  H   UNL     1       0.846   1.595   0.695  1.00  0.00     0.180 HD
BRANCH  19  21
ATOM     21  C   UNL     1       1.155   0.241  -0.806  1.00  0.00     0.088 A 
ATOM     22  C   UNL     1       2.137  -0.397  -1.562  1.00  0.00     0.033 A 
ATOM     23  C   UNL     1      -0.165   0.288  -1.293  1.00  0.00     0.185 A 
ATOM     24  C   UNL     1       1.757  -1.113  -2.710  1.00  0.00     0.045 A 
ATOM     25  C   UNL     1      -0.548  -0.471  -2.387  1.00  0.00     0.196 A 
ATOM     26  F   UNL     1      -1.100   0.942  -0.584  1.00  0.00    -0.201 F 
ATOM     27  C   UNL     1       0.412  -1.190  -3.079  1.00  0.00     0.162 A 
ATOM     28  F   UNL     1      -1.847  -0.595  -2.694  1.00  0.00    -0.200 F 
ATOM     29  F   UNL     1       0.048  -2.000  -4.082  1.00  0.00    -0.204 F 
ENDBRANCH  19  21
ENDBRANCH  16  19
ENDBRANCH  11  16
ENDBRANCH   6   8
ENDBRANCH   5   6
ENDBRANCH   4   5
ENDBRANCH   3   4
ENDBRANCH   2   3
ENDBRANCH   1   2
BRANCH   1  30
ATOM     30  C   UNL     1      -0.165  -3.919   5.825  1.00  0.00     0.188 C 
BRANCH  30  31
ATOM     31  O   UNL     1      -0.254  -3.015   6.915  1.00  0.00    -0.376 OA
BRANCH  31  32
ATOM     32  C   UNL     1      -0.658  -3.480   8.197  1.00  0.00     0.202 C 
BRANCH  32  33
ATOM     33  C   UNL     1      -1.881  -4.398   8.380  1.00  0.00     0.261 C 
BRANCH  33  34
ATOM     34  O   UNL     1      -2.034  -5.461   7.431  1.00  0.00    -0.460 OA
BRANCH  34  35
ATOM     35  C   UNL     1      -3.046  -5.308   6.541  1.00  0.00     0.338 C 
ATOM     36  O   UNL     1      -3.816  -4.375   6.434  1.00  0.00    -0.246 OA
BRANCH  35  37
ATOM     37  C   UNL     1      -3.003  -6.429   5.586  1.00  0.00     0.060 A 
ATOM     38  C   UNL     1      -2.647  -6.179   4.253  1.00  0.00     0.016 A 
ATOM     39  C   UNL     1      -3.376  -7.707   5.997  1.00  0.00     0.016 A 
ATOM     40  C   UNL     1      -2.666  -7.215   3.319  1.00  0.00     0.010 A 
ATOM     41  C   UNL     1      -3.419  -8.736   5.057  1.00  0.00     0.010 A 
ATOM     42  C   UNL     1      -3.085  -8.491   3.712  1.00  0.00    -0.014 A 
BRANCH  42  43
ATOM     43  C   UNL     1      -3.354  -9.547   2.710  1.00  0.00     0.031 A 
ATOM     44  C   UNL     1      -4.777  -9.790   2.299  1.00  0.00     0.074 A 
ATOM     45  C   UNL     1      -2.364 -10.316   2.225  1.00  0.00     0.049 A 
ATOM     46  N   UNL     1      -5.289 -10.779   1.615  1.00  0.00    -0.248 NA
ATOM     47  C   UNL     1      -5.757  -8.783   2.735  1.00  0.00     0.031 C 
ATOM     48  C   UNL     1      -0.941 -10.138   2.505  1.00  0.00     0.029 A 
ATOM     49  N   UNL     1      -2.416 -11.427   1.420  1.00  0.00    -0.354 N 
ATOM     50  C   UNL     1      -6.654 -10.529   1.562  1.00  0.00     0.074 A 
ATOM     51  C   UNL     1      -6.892  -9.304   2.295  1.00  0.00     0.031 C 
ATOM     52  C   UNL     1      -0.255 -11.130   1.909  1.00  0.00     0.029 A 
ATOM     53  C   UNL     1      -1.197 -12.037   1.253  1.00  0.00     0.049 A 
ATOM     54  H   UNL     1      -3.246 -11.754   1.003  1.00  0.00     0.167 HD
ATOM     55  C   UNL     1      -7.619 -11.261   0.959  1.00  0.00     0.037 A 
ATOM     56  C   UNL     1      -0.889 -13.217   0.679  1.00  0.00     0.037 A 
ATOM     57  C   UNL     1      -7.369 -12.481   0.239  1.00  0.00     0.049 A 
ATOM     58  C   UNL     1      -1.992 -14.062   0.089  1.00  0.00     0.074 A 
ATOM     59  C   UNL     1      -8.274 -13.295  -0.418  1.00  0.00     0.029 A 
ATOM     60  N   UNL     1      -6.121 -13.069   0.092  1.00  0.00    -0.354 N 
ATOM     61  N   UNL     1      -3.280 -13.822   0.033  1.00  0.00    -0.248 NA
ATOM     62  C   UNL     1      -1.599 -15.344  -0.515  1.00  0.00     0.031 C 
ATOM     63  C   UNL     1      -7.584 -14.407  -0.908  1.00  0.00     0.029 A 
ATOM     64  C   UNL     1      -6.237 -14.247  -0.625  1.00  0.00     0.049 A 
ATOM     65  H   UNL     1      -5.279 -12.702   0.446  1.00  0.00     0.167 HD
ATOM     66  C   UNL     1      -3.842 -14.894  -0.651  1.00  0.00     0.074 A 
ATOM     67  C   UNL     1      -2.756 -15.790  -0.985  1.00  0.00     0.031 C 
ATOM     68  C   UNL     1      -5.139 -15.110  -0.981  1.00  0.00     0.037 A 
BRANCH  55  69
ATOM     69  C   UNL     1      -9.037 -10.786   1.087  1.00  0.00     0.064 A 
ATOM     70  C   UNL     1      -9.489  -9.622   0.449  1.00  0.00     0.173 A 
ATOM     71  C   UNL     1      -9.965 -11.526   1.835  1.00  0.00     0.173 A 
ATOM     72  F   UNL     1      -8.639  -8.870  -0.268  1.00  0.00    -0.203 F 
ATOM     73  C   UNL     1     -10.811  -9.202   0.578  1.00  0.00     0.198 A 
ATOM     74  C   UNL     1     -11.293 -11.122   1.933  1.00  0.00     0.198 A 
ATOM     75  F   UNL     1      -9.587 -12.649   2.464  1.00  0.00    -0.203 F 
ATOM     76  F   UNL     1     -11.207  -8.058   0.002  1.00  0.00    -0.200 F 
ATOM     77  C   UNL     1     -11.713  -9.956   1.312  1.00  0.00     0.200 A 
ATOM     78  F   UNL     1     -12.167 -11.861   2.631  1.00  0.00    -0.200 F 
ATOM     79  F   UNL     1     -12.987  -9.556   1.427  1.00  0.00    -0.200 F 
ENDBRANCH  55  69
BRANCH  56  80
ATOM     80  C   UNL     1       0.521 -13.688   0.653  1.00  0.00     0.064 A 
ATOM     81  C   UNL     1       1.220 -13.804  -0.557  1.00  0.00     0.173 A 
ATOM     82  C   UNL     1       1.193 -14.054   1.829  1.00  0.00     0.173 A 
ATOM     83  F   UNL     1       0.613 -13.490  -1.712  1.00  0.00    -0.203 F 
ATOM     84  C   UNL     1       2.526 -14.288  -0.593  1.00  0.00     0.198 A 
ATOM     85  C   UNL     1       2.511 -14.507   1.796  1.00  0.00     0.198 A 
ATOM     86  F   UNL     1       0.572 -13.964   3.014  1.00  0.00    -0.203 F 
ATOM     87  F   UNL     1       3.150 -14.438  -1.769  1.00  0.00    -0.200 F 
ATOM     88  C   UNL     1       3.173 -14.633   0.584  1.00  0.00     0.200 A 
ATOM     89  F   UNL     1       3.136 -14.826   2.937  1.00  0.00    -0.200 F 
ATOM     90  F   UNL     1       4.429 -15.096   0.550  1.00  0.00    -0.200 F 
ENDBRANCH  56  80
BRANCH  68  91
ATOM     91  C   UNL     1      -5.463 -16.316  -1.818  1.00  0.00     0.064 A 
ATOM     92  C   UNL     1      -5.434 -17.616  -1.296  1.00  0.00     0.173 A 
ATOM     93  C   UNL     1      -5.902 -16.148  -3.142  1.00  0.00     0.173 A 
ATOM     94  F   UNL     1      -5.011 -17.832  -0.042  1.00  0.00    -0.203 F 
ATOM     95  C   UNL     1      -5.824 -18.706  -2.073  1.00  0.00     0.198 A 
ATOM     96  C   UNL     1      -6.321 -17.234  -3.903  1.00  0.00     0.198 A 
ATOM     97  F   UNL     1      -5.955 -14.922  -3.686  1.00  0.00    -0.203 F 
ATOM     98  F   UNL     1      -5.759 -19.944  -1.566  1.00  0.00    -0.200 F 
ATOM     99  C   UNL     1      -6.278 -18.512  -3.370  1.00  0.00     0.200 A 
ATOM    100  F   UNL     1      -6.777 -17.042  -5.148  1.00  0.00    -0.200 F 
ATOM    101  F   UNL     1      -6.676 -19.560  -4.105  1.00  0.00    -0.200 F 
ENDBRANCH  68  91
ENDBRANCH  42  43
ENDBRANCH  35  37
ENDBRANCH  34  35
ENDBRANCH  33  34
ENDBRANCH  32  33
ENDBRANCH  31  32
ENDBRANCH  30  31
ENDBRANCH   1  30
TORSDOF 21
