REMARK SMILES C[C@H](NC(=O)[C@@H](C)Oc1ccc(Cl)cc1Br)C(=O)OCCOCCOCCOC(=O)c1ccc(-c2c3nc(c(-c4c(F)c(F)c(F)c(F)c4F)c4ccc([nH]4)c(-c4c(F)c(F)c(F)c(F)c4F)c4nc(c(-c5c(F)c(F)c(F)c(F)c5F)c5ccc2[nH]5)C=C4)C=C3)cc1
REMARK SMILES IDX 23 1 22 2 21 3 20 4 19 5 17 6 18 7 2 8 1 9 3 10 4 11 5 13
REMARK SMILES IDX 6 14 7 15 8 16 9 17 10 18 15 19 11 20 14 21 16 22 12 23
REMARK SMILES IDX 13 24 24 25 25 26 26 27 27 28 28 29 29 30 30 31 31 32 32 33
REMARK SMILES IDX 93 34 33 35 92 36 34 37 35 38 36 39 86 40 37 41 91 42 85 43
REMARK SMILES IDX 87 44 38 45 90 46 84 47 83 48 39 50 71 51 51 52 70 53 52 54
REMARK SMILES IDX 55 55 69 56 88 57 53 58 54 59 68 61 89 62 56 63 40 64 41 65
REMARK SMILES IDX 49 66 42 67 43 68 47 69 50 70 44 71 45 72 48 73 46 74 72 75
REMARK SMILES IDX 73 76 81 77 74 78 75 79 79 80 82 81 76 82 77 83 80 84 78 85
REMARK SMILES IDX 57 86 58 87 66 88 59 89 60 90 64 91 67 92 61 93 62 94 65 95
REMARK SMILES IDX 63 96
REMARK H PARENT 3 12 87 49 55 60
REMARK Flexibility Score: inf
ROOT
ATOM      1  C   UNL     1      -2.612  -1.510   1.440  1.00  0.00     0.188 C 
ENDROOT
BRANCH   1   2
ATOM      2  O   UNL     1      -3.976  -1.119   1.438  1.00  0.00    -0.376 OA
BRANCH   2   3
ATOM      3  C   UNL     1      -4.437  -0.026   0.656  1.00  0.00     0.202 C 
BRANCH   3   4
ATOM      4  C   UNL     1      -3.791   1.361   0.784  1.00  0.00     0.261 C 
BRANCH   4   5
ATOM      5  O   UNL     1      -2.370   1.394   0.620  1.00  0.00    -0.462 OA
BRANCH   5   6
ATOM      6  C   UNL     1      -1.644   1.499   1.762  1.00  0.00     0.328 C 
ATOM      7  O   UNL     1      -2.117   1.530   2.893  1.00  0.00    -0.250 OA
BRANCH   6   8
ATOM      8  C   UNL     1      -0.141   1.668   1.478  1.00  0.00     0.189 C 
ATOM      9  C   UNL     1       0.153   3.053   2.023  1.00  0.00     0.043 C 
BRANCH   8  10
ATOM     10  N   UNL     1       0.216   1.391   0.067  1.00  0.00    -0.340 N 
ATOM     11  C   UNL     1       1.391   1.452  -0.620  1.00  0.00     0.261 C 
ATOM     12  H   UNL     1      -0.548   1.104  -0.484  1.00  0.00     0.164 HD
ATOM     13  O   UNL     1       1.675   0.491  -1.343  1.00  0.00    -0.271 OA
BRANCH  11  14
ATOM     14  C   UNL     1       2.275   2.724  -0.633  1.00  0.00     0.258 C 
ATOM     15  C   UNL     1       1.352   3.917  -0.957  1.00  0.00     0.064 C 
BRANCH  14  16
ATOM     16  O   UNL     1       3.267   3.101   0.315  1.00  0.00    -0.480 OA
BRANCH  16  17
ATOM     17  C   UNL     1       3.348   2.430   1.499  1.00  0.00     0.134 A 
ATOM     18  C   UNL     1       3.340   1.038   1.585  1.00  0.00     0.049 A 
ATOM     19  C   UNL     1       3.402   3.191   2.679  1.00  0.00     0.061 A 
ATOM     20  C   UNL     1       3.177   0.422   2.828  1.00  0.00     0.024 A 
ATOM     21  C   UNL     1       3.233   2.579   3.921  1.00  0.00     0.040 A 
ATOM     22  Br  UNL     1       3.565   5.085   2.630  1.00  0.00    -0.047 Br
ATOM     23  C   UNL     1       3.076   1.198   3.983  1.00  0.00     0.042 A 
ATOM     24  Cl  UNL     1       2.715   0.444   5.486  1.00  0.00    -0.084 Cl
ENDBRANCH  16  17
ENDBRANCH  14  16
ENDBRANCH  11  14
ENDBRANCH   8  10
ENDBRANCH   6   8
ENDBRANCH   5   6
ENDBRANCH   4   5
ENDBRANCH   3   4
ENDBRANCH   2   3
ENDBRANCH   1   2
BRANCH   1  25
ATOM     25  C   UNL     1      -1.755  -1.452   0.168  1.00  0.00     0.188 C 
BRANCH  25  26
ATOM     26  O   UNL     1      -2.338  -0.792  -0.931  1.00  0.00    -0.376 OA
BRANCH  26  27
ATOM     27  C   UNL     1      -2.758  -1.593  -2.034  1.00  0.00     0.202 C 
BRANCH  27  28
ATOM     28  C   UNL     1      -3.533  -2.912  -1.796  1.00  0.00     0.261 C 
BRANCH  28  29
ATOM     29  O   UNL     1      -3.044  -3.772  -0.748  1.00  0.00    -0.460 OA
BRANCH  29  30
ATOM     30  C   UNL     1      -1.921  -4.482  -1.009  1.00  0.00     0.338 C 
ATOM     31  O   UNL     1      -1.326  -4.537  -2.076  1.00  0.00    -0.246 OA
BRANCH  30  32
ATOM     32  C   UNL     1      -1.357  -4.966   0.279  1.00  0.00     0.060 A 
ATOM     33  C   UNL     1      -0.064  -4.553   0.634  1.00  0.00     0.016 A 
ATOM     34  C   UNL     1      -2.083  -5.793   1.138  1.00  0.00     0.016 A 
ATOM     35  C   UNL     1       0.523  -5.000   1.819  1.00  0.00     0.010 A 
ATOM     36  C   UNL     1      -1.482  -6.264   2.316  1.00  0.00     0.010 A 
ATOM     37  C   UNL     1      -0.161  -5.902   2.644  1.00  0.00    -0.014 A 
BRANCH  37  38
ATOM     38  C   UNL     1       0.586  -6.607   3.723  1.00  0.00     0.031 A 
ATOM     39  C   UNL     1       1.096  -8.000   3.454  1.00  0.00     0.074 A 
ATOM     40  C   UNL     1       0.872  -6.010   4.894  1.00  0.00     0.049 A 
ATOM     41  N   UNL     1       1.780  -8.804   4.229  1.00  0.00    -0.248 NA
ATOM     42  C   UNL     1       0.793  -8.559   2.127  1.00  0.00     0.031 C 
ATOM     43  C   UNL     1       0.474  -4.657   5.275  1.00  0.00     0.029 A 
ATOM     44  N   UNL     1       1.569  -6.476   5.985  1.00  0.00    -0.354 N 
ATOM     45  C   UNL     1       1.995  -9.957   3.482  1.00  0.00     0.074 A 
ATOM     46  C   UNL     1       1.328  -9.768   2.212  1.00  0.00     0.031 C 
ATOM     47  C   UNL     1       0.923  -4.405   6.518  1.00  0.00     0.029 A 
ATOM     48  C   UNL     1       1.617  -5.586   7.030  1.00  0.00     0.049 A 
ATOM     49  H   UNL     1       1.994  -7.363   6.013  1.00  0.00     0.167 HD
ATOM     50  C   UNL     1       2.699 -11.066   3.813  1.00  0.00     0.037 A 
ATOM     51  C   UNL     1       2.142  -5.718   8.266  1.00  0.00     0.037 A 
ATOM     52  C   UNL     1       3.355 -11.267   5.080  1.00  0.00     0.049 A 
ATOM     53  C   UNL     1       2.857  -6.995   8.639  1.00  0.00     0.074 A 
ATOM     54  C   UNL     1       4.087 -12.361   5.509  1.00  0.00     0.029 A 
ATOM     55  N   UNL     1       3.352 -10.356   6.125  1.00  0.00    -0.354 N 
ATOM     56  N   UNL     1       3.073  -8.069   7.919  1.00  0.00    -0.248 NA
ATOM     57  C   UNL     1       3.415  -7.069   9.998  1.00  0.00     0.031 C 
ATOM     58  C   UNL     1       4.480 -12.135   6.832  1.00  0.00     0.029 A 
ATOM     59  C   UNL     1       4.051 -10.872   7.206  1.00  0.00     0.049 A 
ATOM     60  H   UNL     1       2.917  -9.473   6.103  1.00  0.00     0.167 HD
ATOM     61  C   UNL     1       3.811  -8.930   8.724  1.00  0.00     0.074 A 
ATOM     62  C   UNL     1       4.030  -8.242   9.977  1.00  0.00     0.031 C 
ATOM     63  C   UNL     1       4.263 -10.181   8.452  1.00  0.00     0.037 A 
BRANCH  50  64
ATOM     64  C   UNL     1       2.785 -12.162   2.789  1.00  0.00     0.064 A 
ATOM     65  C   UNL     1       3.532 -12.011   1.611  1.00  0.00     0.173 A 
ATOM     66  C   UNL     1       2.147 -13.393   3.007  1.00  0.00     0.173 A 
ATOM     67  F   UNL     1       4.149 -10.850   1.346  1.00  0.00    -0.203 F 
ATOM     68  C   UNL     1       3.616 -13.042   0.677  1.00  0.00     0.198 A 
ATOM     69  C   UNL     1       2.261 -14.433   2.087  1.00  0.00     0.198 A 
ATOM     70  F   UNL     1       1.423 -13.593   4.118  1.00  0.00    -0.203 F 
ATOM     71  F   UNL     1       4.295 -12.857  -0.463  1.00  0.00    -0.200 F 
ATOM     72  C   UNL     1       2.988 -14.254   0.921  1.00  0.00     0.200 A 
ATOM     73  F   UNL     1       1.666 -15.609   2.331  1.00  0.00    -0.200 F 
ATOM     74  F   UNL     1       3.080 -15.249   0.027  1.00  0.00    -0.200 F 
ENDBRANCH  50  64
BRANCH  51  75
ATOM     75  C   UNL     1       1.996  -4.620   9.261  1.00  0.00     0.064 A 
ATOM     76  C   UNL     1       3.109  -3.916   9.743  1.00  0.00     0.173 A 
ATOM     77  C   UNL     1       0.739  -4.286   9.788  1.00  0.00     0.173 A 
ATOM     78  F   UNL     1       4.338  -4.218   9.296  1.00  0.00    -0.203 F 
ATOM     79  C   UNL     1       2.974  -2.942  10.731  1.00  0.00     0.198 A 
ATOM     80  C   UNL     1       0.601  -3.288  10.750  1.00  0.00     0.198 A 
ATOM     81  F   UNL     1      -0.358  -4.934   9.369  1.00  0.00    -0.203 F 
ATOM     82  F   UNL     1       4.063  -2.333  11.221  1.00  0.00    -0.200 F 
ATOM     83  C   UNL     1       1.720  -2.625  11.229  1.00  0.00     0.200 A 
ATOM     84  F   UNL     1      -0.615  -2.978  11.221  1.00  0.00    -0.200 F 
ATOM     85  F   UNL     1       1.591  -1.691  12.182  1.00  0.00    -0.200 F 
ENDBRANCH  51  75
BRANCH  63  86
ATOM     86  C   UNL     1       5.071 -10.870   9.519  1.00  0.00     0.064 A 
ATOM     87  C   UNL     1       4.499 -11.283  10.732  1.00  0.00     0.173 A 
ATOM     88  C   UNL     1       6.438 -11.124   9.324  1.00  0.00     0.173 A 
ATOM     89  F   UNL     1       3.199 -11.057  10.977  1.00  0.00    -0.203 F 
ATOM     90  C   UNL     1       5.273 -11.879  11.726  1.00  0.00     0.198 A 
ATOM     91  C   UNL     1       7.200 -11.755  10.304  1.00  0.00     0.198 A 
ATOM     92  F   UNL     1       7.038 -10.764   8.179  1.00  0.00    -0.203 F 
ATOM     93  F   UNL     1       4.717 -12.197  12.904  1.00  0.00    -0.200 F 
ATOM     94  C   UNL     1       6.621 -12.118  11.510  1.00  0.00     0.200 A 
ATOM     95  F   UNL     1       8.499 -12.003  10.085  1.00  0.00    -0.200 F 
ATOM     96  F   UNL     1       7.364 -12.688  12.468  1.00  0.00    -0.200 F 
ENDBRANCH  63  86
ENDBRANCH  37  38
ENDBRANCH  30  32
ENDBRANCH  29  30
ENDBRANCH  28  29
ENDBRANCH  27  28
ENDBRANCH  26  27
ENDBRANCH  25  26
ENDBRANCH   1  25
TORSDOF 21
