REMARK SMILES COCCCNC(=O)/C(C#N)=C/c1ccc(C(=O)OCCOCCOCCOC(=O)c2ccc(-c3c4nc(c(-c5c(F)c(F)c(F)c(F)c5F)c5ccc([nH]5)c(-c5c(F)c(F)c(F)c(F)c5F)c5nc(c(-c6c(F)c(F)c(F)c(F)c6F)c6ccc3[nH]6)C=C5)C=C4)cc2)cc1
REMARK SMILES IDX 21 1 20 2 19 3 17 4 18 5 16 6 13 7 14 8 95 9 15 10 94 11
REMARK SMILES IDX 12 12 9 13 7 14 6 15 8 17 5 18 4 19 3 20 2 21 1 22 10 23
REMARK SMILES IDX 11 24 22 25 23 26 24 27 25 28 26 29 27 30 28 31 29 32 30 33
REMARK SMILES IDX 31 34 32 35 93 36 33 37 92 38 34 39 35 40 36 41 86 42 37 43
REMARK SMILES IDX 91 44 85 45 87 46 38 47 90 48 84 49 83 50 39 52 71 53 51 54
REMARK SMILES IDX 70 55 52 56 55 57 69 58 88 59 53 60 54 61 68 63 89 64 56 65
REMARK SMILES IDX 40 66 41 67 49 68 42 69 43 70 47 71 50 72 44 73 45 74 48 75
REMARK SMILES IDX 46 76 72 77 73 78 81 79 74 80 75 81 79 82 82 83 76 84 77 85
REMARK SMILES IDX 80 86 78 87 57 88 58 89 66 90 59 91 60 92 64 93 67 94 61 95
REMARK SMILES IDX 62 96 65 97 63 98
REMARK H PARENT 6 16 87 51 55 62
REMARK Flexibility Score: inf
ROOT
ATOM      1  C   UNL     1      -1.134 -11.245   7.632  1.00  0.00     0.202 C 
ENDROOT
BRANCH   1   2
ATOM      2  C   UNL     1      -1.821  -9.927   7.221  1.00  0.00     0.261 C 
BRANCH   2   3
ATOM      3  O   UNL     1      -1.064  -9.027   6.411  1.00  0.00    -0.460 OA
BRANCH   3   4
ATOM      4  C   UNL     1      -0.604  -7.916   7.037  1.00  0.00     0.338 C 
ATOM      5  O   UNL     1      -0.817  -7.585   8.191  1.00  0.00    -0.246 OA
BRANCH   4   6
ATOM      6  C   UNL     1       0.411  -7.260   6.180  1.00  0.00     0.060 A 
ATOM      7  C   UNL     1       2.296  -5.876   4.668  1.00  0.00    -0.024 A 
ATOM      8  C   UNL     1       2.482  -6.007   6.047  1.00  0.00     0.009 A 
ATOM      9  C   UNL     1       1.271  -6.592   4.028  1.00  0.00     0.009 A 
ATOM     10  C   UNL     1       1.538  -6.702   6.802  1.00  0.00     0.016 A 
ATOM     11  C   UNL     1       0.301  -7.243   4.786  1.00  0.00     0.016 A 
BRANCH   7  12
ATOM     12  C   UNL     1       2.943  -4.752   3.969  1.00  0.00     0.033 C 
ATOM     13  C   UNL     1       2.196  -3.691   3.571  1.00  0.00     0.117 C 
BRANCH  13  14
ATOM     14  C   UNL     1       2.900  -2.520   2.960  1.00  0.00     0.261 C 
ATOM     15  N   UNL     1       2.247  -1.407   2.508  1.00  0.00    -0.351 N 
ATOM     16  H   UNL     1       2.848  -0.680   2.226  1.00  0.00     0.163 HD
ATOM     17  O   UNL     1       4.129  -2.524   2.847  1.00  0.00    -0.268 OA
BRANCH  15  18
ATOM     18  C   UNL     1       0.831  -1.089   2.363  1.00  0.00     0.118 C 
BRANCH  18  19
ATOM     19  C   UNL     1       0.474   0.370   2.607  1.00  0.00     0.050 C 
BRANCH  19  20
ATOM     20  C   UNL     1       1.056   1.389   1.642  1.00  0.00     0.161 C 
BRANCH  20  21
ATOM     21  O   UNL     1       0.423   1.386   0.367  1.00  0.00    -0.385 OA
ATOM     22  C   UNL     1       0.903   0.404  -0.537  1.00  0.00     0.194 C 
ENDBRANCH  20  21
ENDBRANCH  19  20
ENDBRANCH  18  19
ENDBRANCH  15  18
ENDBRANCH  13  14
BRANCH  13  23
ATOM     23  C   UNL     1       0.787  -3.708   3.765  1.00  0.00     0.105 C 
ATOM     24  N   UNL     1      -0.367  -3.781   3.916  1.00  0.00    -0.192 NA
ENDBRANCH  13  23
ENDBRANCH   7  12
ENDBRANCH   4   6
ENDBRANCH   3   4
ENDBRANCH   2   3
ENDBRANCH   1   2
BRANCH   1  25
ATOM     25  O   UNL     1       0.264 -11.431   7.792  1.00  0.00    -0.376 OA
BRANCH  25  26
ATOM     26  C   UNL     1       1.189 -10.552   7.192  1.00  0.00     0.188 C 
BRANCH  26  27
ATOM     27  C   UNL     1       1.320 -10.539   5.657  1.00  0.00     0.188 C 
BRANCH  27  28
ATOM     28  O   UNL     1       0.294 -11.131   4.901  1.00  0.00    -0.376 OA
BRANCH  28  29
ATOM     29  C   UNL     1       0.226 -12.543   4.805  1.00  0.00     0.202 C 
BRANCH  29  30
ATOM     30  C   UNL     1       1.301 -13.541   5.301  1.00  0.00     0.261 C 
BRANCH  30  31
ATOM     31  O   UNL     1       2.309 -13.083   6.210  1.00  0.00    -0.460 OA
BRANCH  31  32
ATOM     32  C   UNL     1       3.531 -12.841   5.671  1.00  0.00     0.338 C 
ATOM     33  O   UNL     1       3.860 -12.952   4.504  1.00  0.00    -0.246 OA
BRANCH  32  34
ATOM     34  C   UNL     1       4.396 -12.222   6.697  1.00  0.00     0.060 A 
ATOM     35  C   UNL     1       4.743 -10.866   6.578  1.00  0.00     0.016 A 
ATOM     36  C   UNL     1       4.902 -12.990   7.743  1.00  0.00     0.016 A 
ATOM     37  C   UNL     1       5.612 -10.279   7.498  1.00  0.00     0.010 A 
ATOM     38  C   UNL     1       5.795 -12.408   8.647  1.00  0.00     0.010 A 
ATOM     39  C   UNL     1       6.178 -11.060   8.513  1.00  0.00    -0.014 A 
BRANCH  39  40
ATOM     40  C   UNL     1       7.302 -10.529   9.323  1.00  0.00     0.031 A 
ATOM     41  C   UNL     1       8.700 -10.968   8.984  1.00  0.00     0.074 A 
ATOM     42  C   UNL     1       7.092  -9.679  10.343  1.00  0.00     0.049 A 
ATOM     43  N   UNL     1       9.825 -10.727   9.607  1.00  0.00    -0.248 NA
ATOM     44  C   UNL     1       8.845 -11.801   7.780  1.00  0.00     0.031 C 
ATOM     45  C   UNL     1       5.794  -9.142  10.742  1.00  0.00     0.029 A 
ATOM     46  N   UNL     1       7.976  -9.134  11.243  1.00  0.00    -0.354 N 
ATOM     47  C   UNL     1      10.806 -11.393   8.883  1.00  0.00     0.074 A 
ATOM     48  C   UNL     1      10.140 -12.074   7.794  1.00  0.00     0.031 C 
ATOM     49  C   UNL     1       5.962  -8.357  11.820  1.00  0.00     0.029 A 
ATOM     50  C   UNL     1       7.370  -8.374  12.213  1.00  0.00     0.049 A 
ATOM     51  H   UNL     1       8.949  -9.276  11.197  1.00  0.00     0.167 HD
ATOM     52  C   UNL     1      12.142 -11.428   9.104  1.00  0.00     0.037 A 
ATOM     53  C   UNL     1       7.891  -7.789  13.311  1.00  0.00     0.037 A 
ATOM     54  C   UNL     1      12.798 -10.753  10.194  1.00  0.00     0.049 A 
ATOM     55  C   UNL     1       9.370  -7.916  13.586  1.00  0.00     0.074 A 
ATOM     56  C   UNL     1      14.148 -10.711  10.495  1.00  0.00     0.029 A 
ATOM     57  N   UNL     1      12.148 -10.015  11.174  1.00  0.00    -0.354 N 
ATOM     58  N   UNL     1      10.297  -8.525  12.887  1.00  0.00    -0.248 NA
ATOM     59  C   UNL     1       9.875  -7.268  14.806  1.00  0.00     0.031 C 
ATOM     60  C   UNL     1      14.307 -10.013  11.696  1.00  0.00     0.029 A 
ATOM     61  C   UNL     1      13.067  -9.545  12.099  1.00  0.00     0.049 A 
ATOM     62  H   UNL     1      11.178  -9.851  11.207  1.00  0.00     0.167 HD
ATOM     63  C   UNL     1      11.494  -8.302  13.558  1.00  0.00     0.074 A 
ATOM     64  C   UNL     1      11.178  -7.491  14.714  1.00  0.00     0.031 C 
ATOM     65  C   UNL     1      12.743  -8.728  13.242  1.00  0.00     0.037 A 
BRANCH  52  66
ATOM     66  C   UNL     1      12.980 -12.257   8.171  1.00  0.00     0.064 A 
ATOM     67  C   UNL     1      13.161 -11.907   6.824  1.00  0.00     0.173 A 
ATOM     68  C   UNL     1      13.635 -13.406   8.641  1.00  0.00     0.173 A 
ATOM     69  F   UNL     1      12.550 -10.825   6.319  1.00  0.00    -0.203 F 
ATOM     70  C   UNL     1      13.935 -12.696   5.976  1.00  0.00     0.198 A 
ATOM     71  C   UNL     1      14.439 -14.170   7.800  1.00  0.00     0.198 A 
ATOM     72  F   UNL     1      13.503 -13.785   9.921  1.00  0.00    -0.203 F 
ATOM     73  F   UNL     1      14.043 -12.375   4.679  1.00  0.00    -0.200 F 
ATOM     74  C   UNL     1      14.579 -13.822   6.466  1.00  0.00     0.200 A 
ATOM     75  F   UNL     1      15.077 -15.246   8.282  1.00  0.00    -0.200 F 
ATOM     76  F   UNL     1      15.330 -14.575   5.651  1.00  0.00    -0.200 F 
ENDBRANCH  52  66
BRANCH  53  77
ATOM     77  C   UNL     1       7.009  -7.042  14.248  1.00  0.00     0.064 A 
ATOM     78  C   UNL     1       7.146  -5.657  14.423  1.00  0.00     0.173 A 
ATOM     79  C   UNL     1       6.029  -7.698  15.008  1.00  0.00     0.173 A 
ATOM     80  F   UNL     1       8.086  -4.987  13.740  1.00  0.00    -0.203 F 
ATOM     81  C   UNL     1       6.357  -4.964  15.338  1.00  0.00     0.198 A 
ATOM     82  C   UNL     1       5.215  -6.998  15.896  1.00  0.00     0.198 A 
ATOM     83  F   UNL     1       5.857  -9.023  14.884  1.00  0.00    -0.203 F 
ATOM     84  F   UNL     1       6.551  -3.652  15.528  1.00  0.00    -0.200 F 
ATOM     85  C   UNL     1       5.387  -5.633  16.069  1.00  0.00     0.200 A 
ATOM     86  F   UNL     1       4.270  -7.647  16.590  1.00  0.00    -0.200 F 
ATOM     87  F   UNL     1       4.626  -4.966  16.947  1.00  0.00    -0.200 F 
ENDBRANCH  53  77
BRANCH  65  88
ATOM     88  C   UNL     1      13.878  -8.281  14.125  1.00  0.00     0.064 A 
ATOM     89  C   UNL     1      14.023  -8.737  15.444  1.00  0.00     0.173 A 
ATOM     90  C   UNL     1      14.861  -7.412  13.623  1.00  0.00     0.173 A 
ATOM     91  F   UNL     1      13.108  -9.560  15.979  1.00  0.00    -0.203 F 
ATOM     92  C   UNL     1      15.088  -8.314  16.236  1.00  0.00     0.198 A 
ATOM     93  C   UNL     1      15.947  -7.025  14.404  1.00  0.00     0.198 A 
ATOM     94  F   UNL     1      14.781  -6.952  12.366  1.00  0.00    -0.203 F 
ATOM     95  F   UNL     1      15.172  -8.717  17.512  1.00  0.00    -0.200 F 
ATOM     96  C   UNL     1      16.054  -7.467  15.713  1.00  0.00     0.200 A 
ATOM     97  F   UNL     1      16.890  -6.224  13.889  1.00  0.00    -0.200 F 
ATOM     98  F   UNL     1      17.084  -7.071  16.474  1.00  0.00    -0.200 F 
ENDBRANCH  65  88
ENDBRANCH  39  40
ENDBRANCH  32  34
ENDBRANCH  31  32
ENDBRANCH  30  31
ENDBRANCH  29  30
ENDBRANCH  28  29
ENDBRANCH  27  28
ENDBRANCH  26  27
ENDBRANCH  25  26
ENDBRANCH   1  25
TORSDOF 24
