REMARK SMILES Cc1c(Cl)cccc1NC(=O)C[C@H](C(=O)OCCOCCOCCOC(=O)c1ccc(-c2c3nc(c(-c4c(F)c(F)c(F)c(F)c4F)c4ccc([nH]4)c(-c4c(F)c(F)c(F)c(F)c4F)c4nc(c(-c5c(F)c(F)c(F)c(F)c5F)c5ccc2[nH]5)C=C4)C=C3)cc1)[C@H](C)c1ccccc1
REMARK SMILES IDX 20 1 19 2 18 3 17 4 16 5 14 6 15 7 13 8 12 9 10 10 9 11
REMARK SMILES IDX 11 13 8 14 1 15 2 16 3 17 4 18 5 19 7 20 6 21 91 22 92 23
REMARK SMILES IDX 93 24 94 25 98 26 95 27 97 28 96 29 21 30 22 31 23 32 24 33
REMARK SMILES IDX 25 34 26 35 27 36 28 37 29 38 90 39 30 40 89 41 31 42 32 43
REMARK SMILES IDX 33 44 83 45 34 46 88 47 82 48 84 49 35 50 87 51 81 52 80 53
REMARK SMILES IDX 36 55 68 56 48 57 67 58 49 59 52 60 66 61 85 62 50 63 51 64
REMARK SMILES IDX 65 66 86 67 53 68 37 69 38 70 46 71 39 72 40 73 44 74 47 75
REMARK SMILES IDX 41 76 42 77 45 78 43 79 69 80 70 81 78 82 71 83 72 84 76 85
REMARK SMILES IDX 79 86 73 87 74 88 77 89 75 90 54 91 55 92 63 93 56 94 57 95
REMARK SMILES IDX 61 96 64 97 58 98 59 99 62 100 60 101
REMARK H PARENT 9 12 84 54 52 65
REMARK Flexibility Score: inf
ROOT
ATOM      1  C   UNL     1      -9.621  -0.487   0.597  1.00  0.00     0.188 C 
ENDROOT
BRANCH   1   2
ATOM      2  O   UNL     1      -9.830  -1.674   1.339  1.00  0.00    -0.376 OA
BRANCH   2   3
ATOM      3  C   UNL     1      -8.728  -2.126   2.119  1.00  0.00     0.202 C 
BRANCH   3   4
ATOM      4  C   UNL     1      -7.513  -2.665   1.346  1.00  0.00     0.261 C 
BRANCH   4   5
ATOM      5  O   UNL     1      -6.817  -1.695   0.526  1.00  0.00    -0.463 OA
BRANCH   5   6
ATOM      6  C   UNL     1      -6.888  -1.880  -0.825  1.00  0.00     0.310 C 
ATOM      7  O   UNL     1      -7.557  -2.756  -1.361  1.00  0.00    -0.252 OA
BRANCH   6   8
ATOM      8  C   UNL     1      -6.006  -0.906  -1.625  1.00  0.00     0.116 C 
BRANCH   8   9
ATOM      9  C   UNL     1      -6.283   0.547  -1.183  1.00  0.00     0.116 C 
BRANCH   9  10
ATOM     10  C   UNL     1      -5.247   1.643  -1.263  1.00  0.00     0.225 C 
ATOM     11  N   UNL     1      -4.354   1.939  -0.276  1.00  0.00    -0.326 N 
ATOM     12  H   UNL     1      -3.860   2.777  -0.426  1.00  0.00     0.169 HD
ATOM     13  O   UNL     1      -5.187   2.331  -2.290  1.00  0.00    -0.275 OA
BRANCH  11  14
ATOM     14  C   UNL     1      -4.000   1.279   0.920  1.00  0.00     0.045 A 
ATOM     15  C   UNL     1      -1.546   1.988   0.573  1.00  0.00     0.048 C 
ATOM     16  C   UNL     1      -2.640   1.261   1.322  1.00  0.00    -0.009 A 
ATOM     17  C   UNL     1      -2.271   0.414   2.393  1.00  0.00     0.046 A 
ATOM     18  Cl  UNL     1      -0.622   0.242   2.894  1.00  0.00    -0.084 Cl
ATOM     19  C   UNL     1      -3.215  -0.365   3.062  1.00  0.00     0.021 A 
ATOM     20  C   UNL     1      -4.934   0.553   1.661  1.00  0.00     0.026 A 
ATOM     21  C   UNL     1      -4.551  -0.278   2.710  1.00  0.00     0.004 A 
ENDBRANCH  11  14
ENDBRANCH   9  10
ENDBRANCH   8   9
BRANCH   8  22
ATOM     22  C   UNL     1      -4.613  -1.593  -1.752  1.00  0.00     0.031 C 
ATOM     23  C   UNL     1      -3.322  -0.787  -1.670  1.00  0.00     0.013 C 
BRANCH  22  24
ATOM     24  C   UNL     1      -4.569  -2.415  -3.048  1.00  0.00    -0.044 A 
ATOM     25  C   UNL     1      -4.894  -3.778  -3.023  1.00  0.00     0.004 A 
ATOM     26  C   UNL     1      -4.218  -1.831  -4.278  1.00  0.00     0.004 A 
ATOM     27  C   UNL     1      -4.823  -4.545  -4.186  1.00  0.00     0.000 A 
ATOM     28  C   UNL     1      -4.128  -2.604  -5.435  1.00  0.00     0.000 A 
ATOM     29  C   UNL     1      -4.424  -3.963  -5.387  1.00  0.00     0.000 A 
ENDBRANCH  22  24
ENDBRANCH   8  22
ENDBRANCH   6   8
ENDBRANCH   5   6
ENDBRANCH   4   5
ENDBRANCH   3   4
ENDBRANCH   2   3
ENDBRANCH   1   2
BRANCH   1  30
ATOM     30  C   UNL     1      -9.425   0.798   1.399  1.00  0.00     0.188 C 
BRANCH  30  31
ATOM     31  O   UNL     1      -8.466   0.769   2.447  1.00  0.00    -0.376 OA
BRANCH  31  32
ATOM     32  C   UNL     1      -8.071   2.054   2.953  1.00  0.00     0.202 C 
BRANCH  32  33
ATOM     33  C   UNL     1      -9.187   3.065   3.290  1.00  0.00     0.261 C 
BRANCH  33  34
ATOM     34  O   UNL     1     -10.061   3.402   2.191  1.00  0.00    -0.460 OA
BRANCH  34  35
ATOM     35  C   UNL     1      -9.494   3.930   1.074  1.00  0.00     0.338 C 
ATOM     36  O   UNL     1      -8.363   4.342   0.967  1.00  0.00    -0.246 OA
BRANCH  35  37
ATOM     37  C   UNL     1     -10.403   3.639  -0.079  1.00  0.00     0.060 A 
ATOM     38  C   UNL     1      -9.822   3.292  -1.310  1.00  0.00     0.016 A 
ATOM     39  C   UNL     1     -11.794   3.597   0.062  1.00  0.00     0.016 A 
ATOM     40  C   UNL     1     -10.627   2.952  -2.404  1.00  0.00     0.010 A 
ATOM     41  C   UNL     1     -12.599   3.265  -1.035  1.00  0.00     0.010 A 
ATOM     42  C   UNL     1     -12.023   2.977  -2.285  1.00  0.00    -0.014 A 
BRANCH  42  43
ATOM     43  C   UNL     1     -12.877   2.945  -3.504  1.00  0.00     0.031 A 
ATOM     44  C   UNL     1     -13.361   4.261  -4.056  1.00  0.00     0.074 A 
ATOM     45  C   UNL     1     -13.209   1.802  -4.132  1.00  0.00     0.049 A 
ATOM     46  N   UNL     1     -14.164   4.505  -5.060  1.00  0.00    -0.248 NA
ATOM     47  C   UNL     1     -12.868   5.468  -3.372  1.00  0.00     0.031 C 
ATOM     48  C   UNL     1     -12.772   0.464  -3.748  1.00  0.00     0.029 A 
ATOM     49  N   UNL     1     -14.005   1.595  -5.234  1.00  0.00    -0.354 N 
ATOM     50  C   UNL     1     -14.278   5.888  -5.121  1.00  0.00     0.074 A 
ATOM     51  C   UNL     1     -13.492   6.429  -4.034  1.00  0.00     0.031 C 
ATOM     52  C   UNL     1     -13.312  -0.430  -4.597  1.00  0.00     0.029 A 
ATOM     53  C   UNL     1     -14.163   0.270  -5.562  1.00  0.00     0.049 A 
ATOM     54  H   UNL     1     -14.424   2.327  -5.742  1.00  0.00     0.167 HD
ATOM     55  C   UNL     1     -14.966   6.646  -6.008  1.00  0.00     0.037 A 
ATOM     56  C   UNL     1     -14.924  -0.310  -6.513  1.00  0.00     0.037 A 
ATOM     57  C   UNL     1     -15.750   6.118  -7.092  1.00  0.00     0.049 A 
ATOM     58  C   UNL     1     -15.758   0.550  -7.434  1.00  0.00     0.074 A 
ATOM     59  C   UNL     1     -16.474   6.810  -8.048  1.00  0.00     0.029 A 
ATOM     60  N   UNL     1     -15.921   4.769  -7.360  1.00  0.00    -0.354 N 
ATOM     61  N   UNL     1     -15.851   1.857  -7.496  1.00  0.00    -0.248 NA
ATOM     62  C   UNL     1     -16.598  -0.151  -8.420  1.00  0.00     0.031 C 
ATOM     63  C   UNL     1     -17.131   5.878  -8.857  1.00  0.00     0.029 A 
ATOM     64  C   UNL     1     -16.765   4.606  -8.448  1.00  0.00     0.049 A 
ATOM     65  H   UNL     1     -15.504   4.035  -6.853  1.00  0.00     0.167 HD
ATOM     66  C   UNL     1     -16.726   2.132  -8.541  1.00  0.00     0.074 A 
ATOM     67  C   UNL     1     -17.130   0.859  -9.095  1.00  0.00     0.031 C 
ATOM     68  C   UNL     1     -17.155   3.334  -9.001  1.00  0.00     0.037 A 
BRANCH  55  69
ATOM     69  C   UNL     1     -14.930   8.133  -5.814  1.00  0.00     0.064 A 
ATOM     70  C   UNL     1     -13.767   8.883  -6.047  1.00  0.00     0.173 A 
ATOM     71  C   UNL     1     -16.081   8.820  -5.399  1.00  0.00     0.173 A 
ATOM     72  F   UNL     1     -12.634   8.272  -6.426  1.00  0.00    -0.203 F 
ATOM     73  C   UNL     1     -13.749  10.260  -5.840  1.00  0.00     0.198 A 
ATOM     74  C   UNL     1     -16.069  10.201  -5.227  1.00  0.00     0.198 A 
ATOM     75  F   UNL     1     -17.220   8.151  -5.164  1.00  0.00    -0.203 F 
ATOM     76  F   UNL     1     -12.611  10.947  -6.012  1.00  0.00    -0.200 F 
ATOM     77  C   UNL     1     -14.901  10.918  -5.438  1.00  0.00     0.200 A 
ATOM     78  F   UNL     1     -17.187  10.837  -4.850  1.00  0.00    -0.200 F 
ATOM     79  F   UNL     1     -14.884  12.244  -5.242  1.00  0.00    -0.200 F 
ENDBRANCH  55  69
BRANCH  56  80
ATOM     80  C   UNL     1     -14.960  -1.793  -6.642  1.00  0.00     0.064 A 
ATOM     81  C   UNL     1     -14.450  -2.437  -7.779  1.00  0.00     0.173 A 
ATOM     82  C   UNL     1     -15.549  -2.594  -5.652  1.00  0.00     0.173 A 
ATOM     83  F   UNL     1     -13.913  -1.715  -8.773  1.00  0.00    -0.203 F 
ATOM     84  C   UNL     1     -14.542  -3.821  -7.927  1.00  0.00     0.198 A 
ATOM     85  C   UNL     1     -15.613  -3.980  -5.787  1.00  0.00     0.198 A 
ATOM     86  F   UNL     1     -16.067  -2.029  -4.551  1.00  0.00    -0.203 F 
ATOM     87  F   UNL     1     -14.099  -4.403  -9.049  1.00  0.00    -0.200 F 
ATOM     88  C   UNL     1     -15.117  -4.591  -6.928  1.00  0.00     0.200 A 
ATOM     89  F   UNL     1     -16.166  -4.720  -4.817  1.00  0.00    -0.200 F 
ATOM     90  F   UNL     1     -15.208  -5.920  -7.072  1.00  0.00    -0.200 F 
ENDBRANCH  56  80
BRANCH  68  91
ATOM     91  C   UNL     1     -18.078   3.343 -10.188  1.00  0.00     0.064 A 
ATOM     92  C   UNL     1     -19.409   2.907 -10.097  1.00  0.00     0.173 A 
ATOM     93  C   UNL     1     -17.639   3.845 -11.424  1.00  0.00     0.173 A 
ATOM     94  F   UNL     1     -19.878   2.409  -8.943  1.00  0.00    -0.203 F 
ATOM     95  C   UNL     1     -20.255   2.949 -11.203  1.00  0.00     0.198 A 
ATOM     96  C   UNL     1     -18.497   3.916 -12.518  1.00  0.00     0.198 A 
ATOM     97  F   UNL     1     -16.380   4.285 -11.566  1.00  0.00    -0.203 F 
ATOM     98  F   UNL     1     -21.508   2.483 -11.103  1.00  0.00    -0.200 F 
ATOM     99  C   UNL     1     -19.802   3.460 -12.409  1.00  0.00     0.200 A 
ATOM    100  F   UNL     1     -18.062   4.428 -13.678  1.00  0.00    -0.200 F 
ATOM    101  F   UNL     1     -20.621   3.510 -13.469  1.00  0.00    -0.200 F 
ENDBRANCH  68  91
ENDBRANCH  42  43
ENDBRANCH  35  37
ENDBRANCH  34  35
ENDBRANCH  33  34
ENDBRANCH  32  33
ENDBRANCH  31  32
ENDBRANCH  30  31
ENDBRANCH   1  30
TORSDOF 22
