REMARK SMILES CCCSc1nc(=O)cc(CC(=O)OCCOCCOCCOC(=O)c2ccc(-c3c4nc(c(-c5c(F)c(F)c(F)c(F)c5F)c5ccc([nH]5)c(-c5c(F)c(F)c(F)c(F)c5F)c5nc(c(-c6c(F)c(F)c(F)c(F)c6F)c6ccc3[nH]6)C=C5)C=C4)cc2)[nH]1
REMARK SMILES IDX 18 1 17 2 16 3 15 4 14 5 12 6 13 7 11 8 10 9 5 10 6 11 89 12
REMARK SMILES IDX 7 13 8 15 9 16 4 17 3 18 2 19 1 20 19 21 20 22 21 23 22 24
REMARK SMILES IDX 23 25 24 26 25 27 26 28 27 29 88 30 28 31 87 32 29 33 30 34
REMARK SMILES IDX 31 35 81 36 32 37 86 38 80 39 82 40 33 41 85 42 79 43 78 44
REMARK SMILES IDX 34 46 66 47 46 48 65 49 47 50 50 51 64 52 83 53 48 54 49 55
REMARK SMILES IDX 63 57 84 58 51 59 35 60 36 61 44 62 37 63 38 64 42 65 45 66
REMARK SMILES IDX 39 67 40 68 43 69 41 70 67 71 68 72 76 73 69 74 70 75 74 76
REMARK SMILES IDX 77 77 71 78 72 79 75 80 73 81 52 82 53 83 61 84 54 85 55 86
REMARK SMILES IDX 59 87 62 88 56 89 57 90 60 91 58 92
REMARK H PARENT 89 14 82 45 50 56
REMARK Flexibility Score: inf
ROOT
ATOM      1  C   UNL     1       1.052   4.683  -3.729  1.00  0.00     0.188 C 
ENDROOT
BRANCH   1   2
ATOM      2  O   UNL     1       0.573   4.114  -4.946  1.00  0.00    -0.376 OA
BRANCH   2   3
ATOM      3  C   UNL     1      -0.273   2.973  -4.895  1.00  0.00     0.202 C 
BRANCH   3   4
ATOM      4  C   UNL     1       0.321   1.696  -4.279  1.00  0.00     0.261 C 
BRANCH   4   5
ATOM      5  O   UNL     1       0.946   1.857  -2.977  1.00  0.00    -0.463 OA
BRANCH   5   6
ATOM      6  C   UNL     1       2.267   1.563  -2.897  1.00  0.00     0.311 C 
ATOM      7  O   UNL     1       2.915   1.089  -3.828  1.00  0.00    -0.252 OA
BRANCH   6   8
ATOM      8  C   UNL     1       2.975   1.899  -1.569  1.00  0.00     0.176 C 
BRANCH   8   9
ATOM      9  C   UNL     1       2.301   2.455  -0.334  1.00  0.00     0.034 A 
ATOM     10  C   UNL     1       1.122   2.036   1.710  1.00  0.00     0.169 A 
ATOM     11  N   UNL     1       1.034   3.280   2.049  1.00  0.00    -0.185 NA
ATOM     12  N   UNL     1       1.784   1.597   0.603  1.00  0.00    -0.337 N 
ATOM     13  C   UNL     1       1.670   4.213   1.264  1.00  0.00     0.273 A 
ATOM     14  H   UNL     1       1.894   0.628   0.470  1.00  0.00     0.168 HD
ATOM     15  O   UNL     1       1.727   5.409   1.530  1.00  0.00    -0.267 OA
ATOM     16  C   UNL     1       2.321   3.755  -0.001  1.00  0.00     0.095 A 
BRANCH  10  17
ATOM     17  S   UNL     1       0.286   0.881   2.725  1.00  0.00    -0.088 SA
BRANCH  17  18
ATOM     18  C   UNL     1       0.965  -0.742   2.297  1.00  0.00     0.078 C 
BRANCH  18  19
ATOM     19  C   UNL     1       0.192  -1.486   1.200  1.00  0.00     0.008 C 
ATOM     20  C   UNL     1       0.393  -0.998  -0.228  1.00  0.00     0.005 C 
ENDBRANCH  18  19
ENDBRANCH  17  18
ENDBRANCH  10  17
ENDBRANCH   8   9
ENDBRANCH   6   8
ENDBRANCH   5   6
ENDBRANCH   4   5
ENDBRANCH   3   4
ENDBRANCH   2   3
ENDBRANCH   1   2
BRANCH   1  21
ATOM     21  C   UNL     1       0.205   4.564  -2.448  1.00  0.00     0.188 C 
BRANCH  21  22
ATOM     22  O   UNL     1      -1.162   4.388  -2.735  1.00  0.00    -0.376 OA
BRANCH  22  23
ATOM     23  C   UNL     1      -2.076   5.295  -2.168  1.00  0.00     0.202 C 
BRANCH  23  24
ATOM     24  C   UNL     1      -1.958   6.756  -2.622  1.00  0.00     0.261 C 
BRANCH  24  25
ATOM     25  O   UNL     1      -0.628   7.251  -2.861  1.00  0.00    -0.460 OA
BRANCH  25  26
ATOM     26  C   UNL     1       0.041   7.771  -1.807  1.00  0.00     0.338 C 
ATOM     27  O   UNL     1      -0.344   7.825  -0.648  1.00  0.00    -0.246 OA
BRANCH  26  28
ATOM     28  C   UNL     1       1.405   8.117  -2.262  1.00  0.00     0.060 A 
ATOM     29  C   UNL     1       1.592   9.119  -3.214  1.00  0.00     0.016 A 
ATOM     30  C   UNL     1       2.508   7.431  -1.740  1.00  0.00     0.016 A 
ATOM     31  C   UNL     1       2.887   9.433  -3.639  1.00  0.00     0.010 A 
ATOM     32  C   UNL     1       3.803   7.729  -2.183  1.00  0.00     0.010 A 
ATOM     33  C   UNL     1       4.004   8.746  -3.125  1.00  0.00    -0.014 A 
BRANCH  33  34
ATOM     34  C   UNL     1       5.373   9.219  -3.463  1.00  0.00     0.031 A 
ATOM     35  C   UNL     1       6.265   8.481  -4.415  1.00  0.00     0.074 A 
ATOM     36  C   UNL     1       5.809  10.354  -2.887  1.00  0.00     0.049 A 
ATOM     37  N   UNL     1       7.418   8.852  -4.917  1.00  0.00    -0.248 NA
ATOM     38  C   UNL     1       5.820   7.151  -4.847  1.00  0.00     0.031 C 
ATOM     39  C   UNL     1       5.062  11.121  -1.891  1.00  0.00     0.029 A 
ATOM     40  N   UNL     1       6.967  11.070  -3.063  1.00  0.00    -0.354 N 
ATOM     41  C   UNL     1       7.825   7.816  -5.745  1.00  0.00     0.074 A 
ATOM     42  C   UNL     1       6.826   6.772  -5.626  1.00  0.00     0.031 C 
ATOM     43  C   UNL     1       5.755  12.225  -1.580  1.00  0.00     0.029 A 
ATOM     44  C   UNL     1       7.004  12.234  -2.337  1.00  0.00     0.049 A 
ATOM     45  H   UNL     1       7.699  10.777  -3.654  1.00  0.00     0.167 HD
ATOM     46  C   UNL     1       8.919   7.756  -6.545  1.00  0.00     0.037 A 
ATOM     47  C   UNL     1       7.929  13.212  -2.295  1.00  0.00     0.037 A 
ATOM     48  C   UNL     1       9.918   8.795  -6.639  1.00  0.00     0.049 A 
ATOM     49  C   UNL     1       9.140  13.121  -3.179  1.00  0.00     0.074 A 
ATOM     50  C   UNL     1      11.026   8.855  -7.467  1.00  0.00     0.029 A 
ATOM     51  N   UNL     1       9.942   9.946  -5.863  1.00  0.00    -0.354 N 
ATOM     52  N   UNL     1       9.460  12.191  -4.046  1.00  0.00    -0.248 NA
ATOM     53  C   UNL     1      10.113  14.217  -3.087  1.00  0.00     0.031 C 
ATOM     54  C   UNL     1      11.755  10.004  -7.146  1.00  0.00     0.029 A 
ATOM     55  C   UNL     1      11.069  10.700  -6.163  1.00  0.00     0.049 A 
ATOM     56  H   UNL     1       9.260  10.192  -5.197  1.00  0.00     0.167 HD
ATOM     57  C   UNL     1      10.663  12.592  -4.611  1.00  0.00     0.074 A 
ATOM     58  C   UNL     1      11.003  13.864  -4.005  1.00  0.00     0.031 C 
ATOM     59  C   UNL     1      11.415  11.957  -5.544  1.00  0.00     0.037 A 
BRANCH  46  60
ATOM     60  C   UNL     1       9.099   6.527  -7.395  1.00  0.00     0.064 A 
ATOM     61  C   UNL     1       8.233   6.239  -8.461  1.00  0.00     0.173 A 
ATOM     62  C   UNL     1      10.183   5.660  -7.185  1.00  0.00     0.173 A 
ATOM     63  F   UNL     1       7.182   7.035  -8.711  1.00  0.00    -0.203 F 
ATOM     64  C   UNL     1       8.424   5.115  -9.262  1.00  0.00     0.198 A 
ATOM     65  C   UNL     1      10.391   4.555  -8.009  1.00  0.00     0.198 A 
ATOM     66  F   UNL     1      11.054   5.891  -6.191  1.00  0.00    -0.203 F 
ATOM     67  F   UNL     1       7.555   4.838 -10.243  1.00  0.00    -0.200 F 
ATOM     68  C   UNL     1       9.507   4.278  -9.040  1.00  0.00     0.200 A 
ATOM     69  F   UNL     1      11.450   3.759  -7.805  1.00  0.00    -0.200 F 
ATOM     70  F   UNL     1       9.696   3.203  -9.817  1.00  0.00    -0.200 F 
ENDBRANCH  46  60
BRANCH  47  71
ATOM     71  C   UNL     1       7.689  14.387  -1.419  1.00  0.00     0.064 A 
ATOM     72  C   UNL     1       7.353  15.634  -1.964  1.00  0.00     0.173 A 
ATOM     73  C   UNL     1       7.710  14.268  -0.021  1.00  0.00     0.173 A 
ATOM     74  F   UNL     1       7.338  15.801  -3.294  1.00  0.00    -0.203 F 
ATOM     75  C   UNL     1       7.037  16.714  -1.143  1.00  0.00     0.198 A 
ATOM     76  C   UNL     1       7.367  15.341   0.797  1.00  0.00     0.198 A 
ATOM     77  F   UNL     1       8.019  13.093   0.547  1.00  0.00    -0.203 F 
ATOM     78  F   UNL     1       6.734  17.900  -1.688  1.00  0.00    -0.200 F 
ATOM     79  C   UNL     1       7.031  16.563   0.236  1.00  0.00     0.200 A 
ATOM     80  F   UNL     1       7.342  15.184   2.128  1.00  0.00    -0.200 F 
ATOM     81  F   UNL     1       6.699  17.595   1.024  1.00  0.00    -0.200 F 
ENDBRANCH  47  71
BRANCH  59  82
ATOM     82  C   UNL     1      12.698  12.617  -5.969  1.00  0.00     0.064 A 
ATOM     83  C   UNL     1      13.802  12.697  -5.108  1.00  0.00     0.173 A 
ATOM     84  C   UNL     1      12.849  13.116  -7.273  1.00  0.00     0.173 A 
ATOM     85  F   UNL     1      13.709  12.248  -3.847  1.00  0.00    -0.203 F 
ATOM     86  C   UNL     1      15.003  13.264  -5.529  1.00  0.00     0.198 A 
ATOM     87  C   UNL     1      14.061  13.652  -7.702  1.00  0.00     0.198 A 
ATOM     88  F   UNL     1      11.828  13.060  -8.141  1.00  0.00    -0.203 F 
ATOM     89  F   UNL     1      16.031  13.364  -4.675  1.00  0.00    -0.200 F 
ATOM     90  C   UNL     1      15.135  13.730  -6.828  1.00  0.00     0.200 A 
ATOM     91  F   UNL     1      14.192  14.085  -8.963  1.00  0.00    -0.200 F 
ATOM     92  F   UNL     1      16.296  14.258  -7.238  1.00  0.00    -0.200 F 
ENDBRANCH  59  82
ENDBRANCH  33  34
ENDBRANCH  26  28
ENDBRANCH  25  26
ENDBRANCH  24  25
ENDBRANCH  23  24
ENDBRANCH  22  23
ENDBRANCH  21  22
ENDBRANCH   1  21
TORSDOF 21
