REMARK SMILES CC[C@@H]1CC(=O)N(Cc2ccc(/C=C/C(=O)OCCOCCOCCOC(=O)c3ccc(-c4c5nc(c(-c6c(F)c(F)c(F)c(F)c6F)c6ccc([nH]6)c(-c6c(F)c(F)c(F)c(F)c6F)c6nc(c(-c7c(F)c(F)c(F)c(F)c7F)c7ccc4[nH]7)C=C6)C=C5)cc3)cc2)C1
REMARK SMILES IDX 21 1 20 2 19 3 18 4 17 5 15 6 16 7 14 8 13 9 12 10 9 11
REMARK SMILES IDX 10 12 93 13 11 14 92 15 8 16 7 17 3 18 4 19 94 20 5 21 6 22
REMARK SMILES IDX 2 23 1 24 22 25 23 26 24 27 25 28 26 29 27 30 28 31 29 32
REMARK SMILES IDX 30 33 91 34 31 35 90 36 32 37 33 38 34 39 84 40 35 41 89 42
REMARK SMILES IDX 83 43 85 44 36 45 88 46 82 47 81 48 37 50 69 51 49 52 68 53
REMARK SMILES IDX 50 54 53 55 67 56 86 57 51 58 52 59 66 61 87 62 54 63 38 64
REMARK SMILES IDX 39 65 47 66 40 67 41 68 45 69 48 70 42 71 43 72 46 73 44 74
REMARK SMILES IDX 70 75 71 76 79 77 72 78 73 79 77 80 80 81 74 82 75 83 78 84
REMARK SMILES IDX 76 85 55 86 56 87 64 88 57 89 58 90 62 91 65 92 59 93 60 94
REMARK SMILES IDX 63 95 61 96
REMARK H PARENT 85 49 53 60
REMARK Flexibility Score: inf
ROOT
ATOM      1  C   UNL     1      -3.667   5.487 -12.042  1.00  0.00     0.188 C 
ENDROOT
BRANCH   1   2
ATOM      2  O   UNL     1      -3.394   5.255 -13.417  1.00  0.00    -0.376 OA
BRANCH   2   3
ATOM      3  C   UNL     1      -2.842   4.012 -13.833  1.00  0.00     0.202 C 
BRANCH   3   4
ATOM      4  C   UNL     1      -1.630   3.401 -13.109  1.00  0.00     0.261 C 
BRANCH   4   5
ATOM      5  O   UNL     1      -1.682   3.433 -11.674  1.00  0.00    -0.460 OA
BRANCH   5   6
ATOM      6  C   UNL     1      -0.750   4.215 -11.079  1.00  0.00     0.330 C 
ATOM      7  O   UNL     1       0.127   4.854 -11.642  1.00  0.00    -0.247 OA
BRANCH   6   8
ATOM      8  C   UNL     1      -0.952   4.339  -9.620  1.00  0.00     0.094 C 
ATOM      9  C   UNL     1      -1.724   3.559  -8.846  1.00  0.00     0.015 C 
BRANCH   9  10
ATOM     10  C   UNL     1      -1.839   3.745  -7.388  1.00  0.00    -0.025 A 
ATOM     11  C   UNL     1      -1.826   3.966  -4.564  1.00  0.00    -0.029 A 
ATOM     12  C   UNL     1      -1.641   5.096  -5.368  1.00  0.00     0.006 A 
ATOM     13  C   UNL     1      -2.123   2.748  -5.190  1.00  0.00     0.006 A 
ATOM     14  C   UNL     1      -1.669   4.989  -6.763  1.00  0.00     0.008 A 
ATOM     15  C   UNL     1      -2.119   2.635  -6.584  1.00  0.00     0.008 A 
BRANCH  11  16
ATOM     16  C   UNL     1      -1.667   4.052  -3.063  1.00  0.00     0.155 C 
BRANCH  16  17
ATOM     17  N   UNL     1      -0.436   3.434  -2.588  1.00  0.00    -0.338 N 
ATOM     18  C   UNL     1       1.007   1.782  -1.763  1.00  0.00     0.017 C 
ATOM     19  C   UNL     1       1.731   3.135  -1.764  1.00  0.00     0.105 C 
ATOM     20  C   UNL     1      -0.141   2.029  -2.738  1.00  0.00     0.124 C 
ATOM     21  C   UNL     1       0.628   4.131  -2.039  1.00  0.00     0.223 C 
ATOM     22  O   UNL     1       0.700   5.333  -1.848  1.00  0.00    -0.275 OA
BRANCH  18  23
ATOM     23  C   UNL     1       0.492   1.394  -0.360  1.00  0.00     0.002 C 
ATOM     24  C   UNL     1       0.913  -0.022   0.014  1.00  0.00     0.004 C 
ENDBRANCH  18  23
ENDBRANCH  16  17
ENDBRANCH  11  16
ENDBRANCH   9  10
ENDBRANCH   6   8
ENDBRANCH   5   6
ENDBRANCH   4   5
ENDBRANCH   3   4
ENDBRANCH   2   3
ENDBRANCH   1   2
BRANCH   1  25
ATOM     25  C   UNL     1      -4.446   4.441 -11.217  1.00  0.00     0.188 C 
BRANCH  25  26
ATOM     26  O   UNL     1      -4.665   3.217 -11.877  1.00  0.00    -0.376 OA
BRANCH  26  27
ATOM     27  C   UNL     1      -5.912   2.969 -12.504  1.00  0.00     0.202 C 
BRANCH  27  28
ATOM     28  C   UNL     1      -6.860   4.057 -13.055  1.00  0.00     0.261 C 
BRANCH  28  29
ATOM     29  O   UNL     1      -6.612   5.421 -12.702  1.00  0.00    -0.460 OA
BRANCH  29  30
ATOM     30  C   UNL     1      -7.350   5.922 -11.682  1.00  0.00     0.338 C 
ATOM     31  O   UNL     1      -8.161   5.332 -10.995  1.00  0.00    -0.246 OA
BRANCH  30  32
ATOM     32  C   UNL     1      -6.890   7.297 -11.408  1.00  0.00     0.060 A 
ATOM     33  C   UNL     1      -6.216   7.554 -10.208  1.00  0.00     0.016 A 
ATOM     34  C   UNL     1      -7.155   8.330 -12.309  1.00  0.00     0.016 A 
ATOM     35  C   UNL     1      -5.822   8.855  -9.894  1.00  0.00     0.010 A 
ATOM     36  C   UNL     1      -6.777   9.637 -11.984  1.00  0.00     0.010 A 
ATOM     37  C   UNL     1      -6.134   9.910 -10.762  1.00  0.00    -0.014 A 
BRANCH  37  38
ATOM     38  C   UNL     1      -5.937  11.311 -10.315  1.00  0.00     0.031 A 
ATOM     39  C   UNL     1      -7.116  12.068  -9.771  1.00  0.00     0.074 A 
ATOM     40  C   UNL     1      -4.726  11.894 -10.365  1.00  0.00     0.049 A 
ATOM     41  N   UNL     1      -7.190  13.305  -9.348  1.00  0.00    -0.248 NA
ATOM     42  C   UNL     1      -8.386  11.329  -9.696  1.00  0.00     0.031 C 
ATOM     43  C   UNL     1      -3.500  11.256 -10.836  1.00  0.00     0.029 A 
ATOM     44  N   UNL     1      -4.336  13.164 -10.018  1.00  0.00    -0.354 N 
ATOM     45  C   UNL     1      -8.511  13.492  -8.961  1.00  0.00     0.074 A 
ATOM     46  C   UNL     1      -9.211  12.255  -9.231  1.00  0.00     0.031 C 
ATOM     47  C   UNL     1      -2.492  12.142 -10.758  1.00  0.00     0.029 A 
ATOM     48  C   UNL     1      -3.009  13.417 -10.262  1.00  0.00     0.049 A 
ATOM     49  H   UNL     1      -4.949  13.830  -9.630  1.00  0.00     0.167 HD
ATOM     50  C   UNL     1      -9.085  14.592  -8.419  1.00  0.00     0.037 A 
ATOM     51  C   UNL     1      -2.301  14.555 -10.121  1.00  0.00     0.037 A 
ATOM     52  C   UNL     1      -8.389  15.824  -8.154  1.00  0.00     0.049 A 
ATOM     53  C   UNL     1      -2.982  15.791  -9.588  1.00  0.00     0.074 A 
ATOM     54  C   UNL     1      -8.878  16.988  -7.589  1.00  0.00     0.029 A 
ATOM     55  N   UNL     1      -7.053  16.055  -8.449  1.00  0.00    -0.354 N 
ATOM     56  N   UNL     1      -4.222  15.951  -9.193  1.00  0.00    -0.248 NA
ATOM     57  C   UNL     1      -2.161  17.005  -9.479  1.00  0.00     0.031 C 
ATOM     58  C   UNL     1      -7.856  17.942  -7.596  1.00  0.00     0.029 A 
ATOM     59  C   UNL     1      -6.710  17.353  -8.106  1.00  0.00     0.049 A 
ATOM     60  H   UNL     1      -6.439  15.393  -8.843  1.00  0.00     0.167 HD
ATOM     61  C   UNL     1      -4.321  17.269  -8.761  1.00  0.00     0.074 A 
ATOM     62  C   UNL     1      -3.010  17.860  -8.927  1.00  0.00     0.031 C 
ATOM     63  C   UNL     1      -5.399  17.930  -8.272  1.00  0.00     0.037 A 
BRANCH  50  64
ATOM     64  C   UNL     1     -10.551  14.523  -8.102  1.00  0.00     0.064 A 
ATOM     65  C   UNL     1     -11.045  13.729  -7.055  1.00  0.00     0.173 A 
ATOM     66  C   UNL     1     -11.472  15.283  -8.839  1.00  0.00     0.173 A 
ATOM     67  F   UNL     1     -10.209  12.971  -6.330  1.00  0.00    -0.203 F 
ATOM     68  C   UNL     1     -12.409  13.679  -6.776  1.00  0.00     0.198 A 
ATOM     69  C   UNL     1     -12.831  15.255  -8.536  1.00  0.00     0.198 A 
ATOM     70  F   UNL     1     -11.053  16.061  -9.848  1.00  0.00    -0.203 F 
ATOM     71  F   UNL     1     -12.863  12.875  -5.805  1.00  0.00    -0.200 F 
ATOM     72  C   UNL     1     -13.299  14.447  -7.511  1.00  0.00     0.200 A 
ATOM     73  F   UNL     1     -13.688  16.009  -9.239  1.00  0.00    -0.200 F 
ATOM     74  F   UNL     1     -14.610  14.403  -7.237  1.00  0.00    -0.200 F 
ENDBRANCH  50  64
BRANCH  51  75
ATOM     75  C   UNL     1      -0.863  14.591 -10.502  1.00  0.00     0.064 A 
ATOM     76  C   UNL     1       0.138  14.772  -9.537  1.00  0.00     0.173 A 
ATOM     77  C   UNL     1      -0.463  14.480 -11.842  1.00  0.00     0.173 A 
ATOM     78  F   UNL     1      -0.195  14.915  -8.246  1.00  0.00    -0.203 F 
ATOM     79  C   UNL     1       1.480  14.864  -9.900  1.00  0.00     0.198 A 
ATOM     80  C   UNL     1       0.882  14.540 -12.200  1.00  0.00     0.198 A 
ATOM     81  F   UNL     1      -1.381  14.313 -12.806  1.00  0.00    -0.203 F 
ATOM     82  F   UNL     1       2.411  15.095  -8.964  1.00  0.00    -0.200 F 
ATOM     83  C   UNL     1       1.852  14.741 -11.230  1.00  0.00     0.200 A 
ATOM     84  F   UNL     1       1.237  14.412 -13.486  1.00  0.00    -0.200 F 
ATOM     85  F   UNL     1       3.143  14.831 -11.579  1.00  0.00    -0.200 F 
ENDBRANCH  51  75
BRANCH  63  86
ATOM     86  C   UNL     1      -5.202  19.358  -7.845  1.00  0.00     0.064 A 
ATOM     87  C   UNL     1      -4.973  20.384  -8.775  1.00  0.00     0.173 A 
ATOM     88  C   UNL     1      -5.275  19.710  -6.488  1.00  0.00     0.173 A 
ATOM     89  F   UNL     1      -4.881  20.101 -10.083  1.00  0.00    -0.203 F 
ATOM     90  C   UNL     1      -4.794  21.701  -8.360  1.00  0.00     0.198 A 
ATOM     91  C   UNL     1      -5.131  21.033  -6.080  1.00  0.00     0.198 A 
ATOM     92  F   UNL     1      -5.502  18.771  -5.557  1.00  0.00    -0.203 F 
ATOM     93  F   UNL     1      -4.521  22.654  -9.261  1.00  0.00    -0.200 F 
ATOM     94  C   UNL     1      -4.880  22.026  -7.014  1.00  0.00     0.200 A 
ATOM     95  F   UNL     1      -5.232  21.347  -4.781  1.00  0.00    -0.200 F 
ATOM     96  F   UNL     1      -4.714  23.295  -6.617  1.00  0.00    -0.200 F 
ENDBRANCH  63  86
ENDBRANCH  37  38
ENDBRANCH  30  32
ENDBRANCH  29  30
ENDBRANCH  28  29
ENDBRANCH  27  28
ENDBRANCH  26  27
ENDBRANCH  25  26
ENDBRANCH   1  25
TORSDOF 21
