REMARK SMILES O=C(OCCOCCOCCOC(=O)[C@@H](CO)NS(=O)(=O)c1cc[nH]c1)c1ccc(-c2c3nc(c(-c4c(F)c(F)c(F)c(F)c4F)c4ccc([nH]4)c(-c4c(F)c(F)c(F)c(F)c4F)c4nc(c(-c5c(F)c(F)c(F)c(F)c5F)c5ccc2[nH]5)C=C4)C=C3)cc1
REMARK SMILES IDX 8 1 7 2 6 3 5 4 4 5 3 6 2 7 1 8 27 9 28 10 89 11 29 12 88 13
REMARK SMILES IDX 30 14 31 15 32 16 82 17 33 18 87 19 81 20 83 21 34 22 86 23
REMARK SMILES IDX 80 24 79 25 35 27 67 28 47 29 66 30 48 31 51 32 65 33 84 34
REMARK SMILES IDX 49 35 50 36 64 38 85 39 52 40 36 41 37 42 45 43 38 44 39 45
REMARK SMILES IDX 43 46 46 47 40 48 41 49 44 50 42 51 68 52 69 53 77 54 70 55
REMARK SMILES IDX 71 56 75 57 78 58 72 59 73 60 76 61 74 62 53 63 54 64 62 65
REMARK SMILES IDX 55 66 56 67 60 68 63 69 57 70 58 71 61 72 59 73 9 74 10 75
REMARK SMILES IDX 11 76 12 77 13 78 14 79 15 80 16 81 17 82 18 84 19 86 20 87
REMARK SMILES IDX 21 88 22 89 23 90 26 91 24 92 25 93
REMARK H PARENT 83 26 51 37 17 83 18 85 25 94
REMARK Flexibility Score: inf
ROOT
ATOM      1  C   UNL     1       2.065  -2.417   1.661  1.00  0.00     0.188 C 
ENDROOT
BRANCH   1   2
ATOM      2  C   UNL     1       2.673  -1.167   1.036  1.00  0.00     0.188 C 
BRANCH   2   3
ATOM      3  O   UNL     1       3.916  -1.323   0.350  1.00  0.00    -0.376 OA
BRANCH   3   4
ATOM      4  C   UNL     1       4.931  -0.342   0.583  1.00  0.00     0.202 C 
BRANCH   4   5
ATOM      5  C   UNL     1       4.609   1.159   0.778  1.00  0.00     0.261 C 
BRANCH   5   6
ATOM      6  O   UNL     1       3.230   1.564   0.803  1.00  0.00    -0.460 OA
BRANCH   6   7
ATOM      7  C   UNL     1       2.290   1.434  -0.157  1.00  0.00     0.338 C 
ATOM      8  O   UNL     1       1.115   1.251   0.154  1.00  0.00    -0.246 OA
BRANCH   7   9
ATOM      9  C   UNL     1       2.619   1.721  -1.562  1.00  0.00     0.060 A 
ATOM     10  C   UNL     1       3.894   1.620  -2.108  1.00  0.00     0.016 A 
ATOM     11  C   UNL     1       1.561   2.244  -2.327  1.00  0.00     0.016 A 
ATOM     12  C   UNL     1       4.174   2.271  -3.285  1.00  0.00     0.010 A 
ATOM     13  C   UNL     1       1.820   2.854  -3.537  1.00  0.00     0.010 A 
ATOM     14  C   UNL     1       3.142   2.919  -3.966  1.00  0.00    -0.014 A 
BRANCH  14  15
ATOM     15  C   UNL     1       3.505   3.498  -5.255  1.00  0.00     0.031 A 
ATOM     16  C   UNL     1       3.644   2.368  -6.290  1.00  0.00     0.074 A 
ATOM     17  C   UNL     1       3.769   4.842  -5.224  1.00  0.00     0.049 A 
ATOM     18  N   UNL     1       4.447   2.263  -7.300  1.00  0.00    -0.248 NA
ATOM     19  C   UNL     1       2.842   1.118  -6.120  1.00  0.00     0.031 C 
ATOM     20  C   UNL     1       3.508   5.740  -4.072  1.00  0.00     0.029 A 
ATOM     21  N   UNL     1       4.324   5.726  -6.123  1.00  0.00    -0.354 N 
ATOM     22  C   UNL     1       4.093   1.089  -8.002  1.00  0.00     0.074 A 
ATOM     23  C   UNL     1       3.216   0.354  -7.148  1.00  0.00     0.031 C 
ATOM     24  C   UNL     1       3.975   6.987  -4.306  1.00  0.00     0.029 A 
ATOM     25  C   UNL     1       4.575   7.038  -5.624  1.00  0.00     0.049 A 
ATOM     26  H   UNL     1       4.534   5.469  -7.050  1.00  0.00     0.167 HD
ATOM     27  C   UNL     1       4.418   0.901  -9.315  1.00  0.00     0.037 A 
ATOM     28  C   UNL     1       5.264   8.063  -6.223  1.00  0.00     0.037 A 
ATOM     29  C   UNL     1       5.222   1.990  -9.757  1.00  0.00     0.049 A 
ATOM     30  C   UNL     1       5.535   7.562  -7.575  1.00  0.00     0.074 A 
ATOM     31  C   UNL     1       6.519   2.331  -9.481  1.00  0.00     0.029 A 
ATOM     32  N   UNL     1       4.554   3.087 -10.246  1.00  0.00    -0.354 N 
ATOM     33  N   UNL     1       4.637   7.453  -8.506  1.00  0.00    -0.248 NA
ATOM     34  C   UNL     1       6.870   7.032  -7.876  1.00  0.00     0.031 C 
ATOM     35  C   UNL     1       6.454   3.732  -9.345  1.00  0.00     0.029 A 
ATOM     36  C   UNL     1       5.218   4.202  -9.806  1.00  0.00     0.049 A 
ATOM     37  H   UNL     1       3.746   3.074 -10.809  1.00  0.00     0.167 HD
ATOM     38  C   UNL     1       5.215   6.537  -9.350  1.00  0.00     0.074 A 
ATOM     39  C   UNL     1       6.641   6.595  -9.111  1.00  0.00     0.031 C 
ATOM     40  C   UNL     1       4.499   5.451  -9.742  1.00  0.00     0.037 A 
BRANCH  27  41
ATOM     41  C   UNL     1       3.882  -0.023 -10.373  1.00  0.00     0.064 A 
ATOM     42  C   UNL     1       4.593  -0.105 -11.598  1.00  0.00     0.173 A 
ATOM     43  C   UNL     1       2.567  -0.503 -10.391  1.00  0.00     0.173 A 
ATOM     44  F   UNL     1       5.881   0.267 -11.673  1.00  0.00    -0.203 F 
ATOM     45  C   UNL     1       3.973  -0.469 -12.790  1.00  0.00     0.198 A 
ATOM     46  C   UNL     1       1.965  -0.922 -11.581  1.00  0.00     0.198 A 
ATOM     47  F   UNL     1       1.800  -0.481  -9.295  1.00  0.00    -0.203 F 
ATOM     48  F   UNL     1       4.639  -0.364 -13.948  1.00  0.00    -0.200 F 
ATOM     49  C   UNL     1       2.649  -0.856 -12.784  1.00  0.00     0.200 A 
ATOM     50  F   UNL     1       0.682  -1.310 -11.571  1.00  0.00    -0.200 F 
ATOM     51  F   UNL     1       2.022  -1.127 -13.936  1.00  0.00    -0.200 F 
ENDBRANCH  27  41
BRANCH  28  52
ATOM     52  C   UNL     1       5.841   9.428  -5.901  1.00  0.00     0.064 A 
ATOM     53  C   UNL     1       5.599  10.185  -4.749  1.00  0.00     0.173 A 
ATOM     54  C   UNL     1       6.784  10.027  -6.794  1.00  0.00     0.173 A 
ATOM     55  F   UNL     1       4.656   9.822  -3.874  1.00  0.00    -0.203 F 
ATOM     56  C   UNL     1       6.320  11.367  -4.467  1.00  0.00     0.198 A 
ATOM     57  C   UNL     1       7.535  11.161  -6.492  1.00  0.00     0.198 A 
ATOM     58  F   UNL     1       7.019   9.528  -8.014  1.00  0.00    -0.203 F 
ATOM     59  F   UNL     1       6.054  12.058  -3.349  1.00  0.00    -0.200 F 
ATOM     60  C   UNL     1       7.315  11.827  -5.315  1.00  0.00     0.200 A 
ATOM     61  F   UNL     1       8.480  11.578  -7.347  1.00  0.00    -0.200 F 
ATOM     62  F   UNL     1       8.045  12.908  -5.008  1.00  0.00    -0.200 F 
ENDBRANCH  28  52
BRANCH  40  63
ATOM     63  C   UNL     1       2.991   5.642  -9.665  1.00  0.00     0.064 A 
ATOM     64  C   UNL     1       2.380   6.673 -10.397  1.00  0.00     0.173 A 
ATOM     65  C   UNL     1       2.145   4.936  -8.794  1.00  0.00     0.173 A 
ATOM     66  F   UNL     1       3.101   7.379 -11.281  1.00  0.00    -0.203 F 
ATOM     67  C   UNL     1       1.030   6.999 -10.233  1.00  0.00     0.198 A 
ATOM     68  C   UNL     1       0.795   5.259  -8.621  1.00  0.00     0.198 A 
ATOM     69  F   UNL     1       2.603   3.902  -8.095  1.00  0.00    -0.203 F 
ATOM     70  F   UNL     1       0.492   7.995 -10.951  1.00  0.00    -0.200 F 
ATOM     71  C   UNL     1       0.239   6.298  -9.338  1.00  0.00     0.200 A 
ATOM     72  F   UNL     1       0.040   4.555  -7.764  1.00  0.00    -0.200 F 
ATOM     73  F   UNL     1      -1.056   6.608  -9.184  1.00  0.00    -0.200 F 
ENDBRANCH  40  63
ENDBRANCH  14  15
ENDBRANCH   7   9
ENDBRANCH   6   7
ENDBRANCH   5   6
ENDBRANCH   4   5
ENDBRANCH   3   4
ENDBRANCH   2   3
ENDBRANCH   1   2
BRANCH   1  74
ATOM     74  O   UNL     1       2.638  -2.850   2.889  1.00  0.00    -0.376 OA
BRANCH  74  75
ATOM     75  C   UNL     1       4.055  -2.920   2.952  1.00  0.00     0.202 C 
BRANCH  75  76
ATOM     76  C   UNL     1       4.697  -4.080   2.186  1.00  0.00     0.261 C 
BRANCH  76  77
ATOM     77  O   UNL     1       4.291  -4.149   0.806  1.00  0.00    -0.462 OA
BRANCH  77  78
ATOM     78  C   UNL     1       3.414  -5.147   0.491  1.00  0.00     0.326 C 
ATOM     79  O   UNL     1       3.021  -5.991   1.291  1.00  0.00    -0.250 OA
BRANCH  78  80
ATOM     80  C   UNL     1       2.913  -5.084  -0.964  1.00  0.00     0.205 C 
BRANCH  80  81
ATOM     81  C   UNL     1       3.458  -3.916  -1.794  1.00  0.00     0.188 C 
BRANCH  81  82
ATOM     82  O   UNL     1       4.882  -3.917  -1.868  1.00  0.00    -0.394 OA
ATOM     83  H   UNL     1       5.252  -3.823  -0.977  1.00  0.00     0.210 HD
ENDBRANCH  81  82
ENDBRANCH  80  81
BRANCH  80  84
ATOM     84  N   UNL     1       3.220  -6.408  -1.568  1.00  0.00    -0.194 NA
ATOM     85  H   UNL     1       3.051  -7.109  -0.847  1.00  0.00     0.142 HD
BRANCH  84  86
ATOM     86  S   UNL     1       2.391  -6.910  -2.935  1.00  0.00     0.242 S 
ATOM     87  O   UNL     1       2.681  -5.990  -4.001  1.00  0.00    -0.207 OA
ATOM     88  O   UNL     1       2.644  -8.334  -3.073  1.00  0.00    -0.207 OA
BRANCH  86  89
ATOM     89  C   UNL     1       0.680  -6.776  -2.713  1.00  0.00     0.099 A 
ATOM     90  C   UNL     1      -0.066  -5.567  -2.778  1.00  0.00     0.041 A 
ATOM     91  C   UNL     1      -0.224  -7.800  -2.514  1.00  0.00     0.104 A 
ATOM     92  C   UNL     1      -1.394  -5.894  -2.609  1.00  0.00     0.083 A 
ATOM     93  N   UNL     1      -1.481  -7.255  -2.463  1.00  0.00    -0.366 N 
ATOM     94  H   UNL     1      -2.316  -7.762  -2.341  1.00  0.00     0.165 HD
ENDBRANCH  86  89
ENDBRANCH  84  86
ENDBRANCH  80  84
ENDBRANCH  78  80
ENDBRANCH  77  78
ENDBRANCH  76  77
ENDBRANCH  75  76
ENDBRANCH  74  75
ENDBRANCH   1  74
TORSDOF 22
