REMARK SMILES O=C(OCCOCCOCCOC(=O)c1ccc(F)c(S(=O)(=O)N2CCOc3ccccc32)c1)c1ccc(-c2c3nc(c(-c4c(F)c(F)c(F)c(F)c4F)c4ccc([nH]4)c(-c4c(F)c(F)c(F)c(F)c4F)c4nc(c(-c5c(F)c(F)c(F)c(F)c5F)c5ccc2[nH]5)C=C4)C=C3)cc1
REMARK SMILES IDX 7 1 6 2 5 3 4 4 3 5 2 6 1 7 35 8 36 9 97 10 37 11 96 12
REMARK SMILES IDX 38 13 39 14 40 15 90 16 41 17 95 18 89 19 91 20 42 21 94 22
REMARK SMILES IDX 88 23 87 24 43 26 75 27 55 28 74 29 56 30 59 31 73 32 92 33
REMARK SMILES IDX 57 34 58 35 72 37 93 38 60 39 44 40 45 41 53 42 46 43 47 44
REMARK SMILES IDX 51 45 54 46 48 47 49 48 52 49 50 50 76 51 77 52 85 53 78 54
REMARK SMILES IDX 79 55 83 56 86 57 80 58 81 59 84 60 82 61 61 62 62 63 70 64
REMARK SMILES IDX 63 65 64 66 68 67 71 68 65 69 66 70 69 71 67 72 8 73 9 74
REMARK SMILES IDX 10 75 11 76 12 77 13 78 14 79 15 80 16 81 34 82 17 83 20 84
REMARK SMILES IDX 18 85 19 86 21 87 22 88 23 89 24 90 25 91 33 92 26 93 28 94
REMARK SMILES IDX 32 95 27 96 29 97 31 98 30 99
REMARK H PARENT 91 25 59 36
REMARK Flexibility Score: inf
ROOT
ATOM      1  C   UNL     1       2.374  -1.195  -1.092  1.00  0.00     0.188 C 
ENDROOT
BRANCH   1   2
ATOM      2  O   UNL     1       3.766  -0.863  -1.048  1.00  0.00    -0.376 OA
BRANCH   2   3
ATOM      3  C   UNL     1       4.505  -1.665  -0.121  1.00  0.00     0.202 C 
BRANCH   3   4
ATOM      4  C   UNL     1       4.558  -1.070   1.295  1.00  0.00     0.261 C 
BRANCH   4   5
ATOM      5  O   UNL     1       3.288  -0.572   1.750  1.00  0.00    -0.460 OA
BRANCH   5   6
ATOM      6  C   UNL     1       2.683   0.616   1.507  1.00  0.00     0.338 C 
ATOM      7  O   UNL     1       1.552   0.778   1.967  1.00  0.00    -0.246 OA
BRANCH   6   8
ATOM      8  C   UNL     1       3.286   1.757   0.735  1.00  0.00     0.060 A 
ATOM      9  C   UNL     1       4.490   1.742   0.025  1.00  0.00     0.016 A 
ATOM     10  C   UNL     1       2.551   2.957   0.724  1.00  0.00     0.016 A 
ATOM     11  C   UNL     1       4.977   2.874  -0.623  1.00  0.00     0.010 A 
ATOM     12  C   UNL     1       3.033   4.101   0.081  1.00  0.00     0.010 A 
ATOM     13  C   UNL     1       4.265   4.067  -0.574  1.00  0.00    -0.014 A 
BRANCH  13  14
ATOM     14  C   UNL     1       4.937   5.300  -1.020  1.00  0.00     0.031 A 
ATOM     15  C   UNL     1       5.577   6.157   0.028  1.00  0.00     0.074 A 
ATOM     16  C   UNL     1       5.105   5.564  -2.326  1.00  0.00     0.049 A 
ATOM     17  N   UNL     1       6.248   7.268  -0.106  1.00  0.00    -0.248 NA
ATOM     18  C   UNL     1       5.479   5.673   1.416  1.00  0.00     0.031 C 
ATOM     19  C   UNL     1       4.662   4.701  -3.418  1.00  0.00     0.029 A 
ATOM     20  N   UNL     1       5.721   6.614  -2.956  1.00  0.00    -0.354 N 
ATOM     21  C   UNL     1       6.661   7.606   1.173  1.00  0.00     0.074 A 
ATOM     22  C   UNL     1       6.140   6.607   2.077  1.00  0.00     0.031 C 
ATOM     23  C   UNL     1       5.016   5.263  -4.585  1.00  0.00     0.029 A 
ATOM     24  C   UNL     1       5.658   6.545  -4.325  1.00  0.00     0.049 A 
ATOM     25  H   UNL     1       6.166   7.347  -2.472  1.00  0.00     0.167 HD
ATOM     26  C   UNL     1       7.423   8.655   1.553  1.00  0.00     0.037 A 
ATOM     27  C   UNL     1       6.051   7.431  -5.259  1.00  0.00     0.037 A 
ATOM     28  C   UNL     1       7.915   9.648   0.641  1.00  0.00     0.049 A 
ATOM     29  C   UNL     1       6.750   8.681  -4.802  1.00  0.00     0.074 A 
ATOM     30  C   UNL     1       8.633  10.795   0.918  1.00  0.00     0.029 A 
ATOM     31  N   UNL     1       7.728   9.607  -0.735  1.00  0.00    -0.354 N 
ATOM     32  N   UNL     1       7.093   9.030  -3.585  1.00  0.00    -0.248 NA
ATOM     33  C   UNL     1       7.126   9.655  -5.835  1.00  0.00     0.031 C 
ATOM     34  C   UNL     1       8.840  11.473  -0.287  1.00  0.00     0.029 A 
ATOM     35  C   UNL     1       8.297  10.723  -1.320  1.00  0.00     0.049 A 
ATOM     36  H   UNL     1       7.261   8.890  -1.221  1.00  0.00     0.167 HD
ATOM     37  C   UNL     1       7.748  10.245  -3.703  1.00  0.00     0.074 A 
ATOM     38  C   UNL     1       7.756  10.575  -5.115  1.00  0.00     0.031 C 
ATOM     39  C   UNL     1       8.299  11.014  -2.732  1.00  0.00     0.037 A 
BRANCH  26  40
ATOM     40  C   UNL     1       7.708   8.792   3.017  1.00  0.00     0.064 A 
ATOM     41  C   UNL     1       7.058   9.777   3.773  1.00  0.00     0.173 A 
ATOM     42  C   UNL     1       8.598   7.933   3.679  1.00  0.00     0.173 A 
ATOM     43  F   UNL     1       6.188  10.614   3.187  1.00  0.00    -0.203 F 
ATOM     44  C   UNL     1       7.290   9.899   5.139  1.00  0.00     0.198 A 
ATOM     45  C   UNL     1       8.808   8.042   5.051  1.00  0.00     0.198 A 
ATOM     46  F   UNL     1       9.219   6.953   3.005  1.00  0.00    -0.203 F 
ATOM     47  F   UNL     1       6.662  10.853   5.841  1.00  0.00    -0.200 F 
ATOM     48  C   UNL     1       8.158   9.027   5.779  1.00  0.00     0.200 A 
ATOM     49  F   UNL     1       9.621   7.177   5.674  1.00  0.00    -0.200 F 
ATOM     50  F   UNL     1       8.358   9.129   7.100  1.00  0.00    -0.200 F 
ENDBRANCH  26  40
BRANCH  27  51
ATOM     51  C   UNL     1       5.770   7.167  -6.695  1.00  0.00     0.064 A 
ATOM     52  C   UNL     1       4.452   7.156  -7.181  1.00  0.00     0.173 A 
ATOM     53  C   UNL     1       6.797   6.886  -7.604  1.00  0.00     0.173 A 
ATOM     54  F   UNL     1       3.428   7.414  -6.354  1.00  0.00    -0.203 F 
ATOM     55  C   UNL     1       4.173   6.848  -8.511  1.00  0.00     0.198 A 
ATOM     56  C   UNL     1       6.519   6.603  -8.942  1.00  0.00     0.198 A 
ATOM     57  F   UNL     1       8.074   6.899  -7.197  1.00  0.00    -0.203 F 
ATOM     58  F   UNL     1       2.902   6.798  -8.933  1.00  0.00    -0.200 F 
ATOM     59  C   UNL     1       5.207   6.575  -9.392  1.00  0.00     0.200 A 
ATOM     60  F   UNL     1       7.521   6.354  -9.795  1.00  0.00    -0.200 F 
ATOM     61  F   UNL     1       4.939   6.280 -10.671  1.00  0.00    -0.200 F 
ENDBRANCH  27  51
BRANCH  39  62
ATOM     62  C   UNL     1       8.988  12.274  -3.156  1.00  0.00     0.064 A 
ATOM     63  C   UNL     1      10.385  12.371  -3.080  1.00  0.00     0.173 A 
ATOM     64  C   UNL     1       8.262  13.413  -3.527  1.00  0.00     0.173 A 
ATOM     65  F   UNL     1      11.118  11.306  -2.722  1.00  0.00    -0.203 F 
ATOM     66  C   UNL     1      11.031  13.575  -3.335  1.00  0.00     0.198 A 
ATOM     67  C   UNL     1       8.914  14.610  -3.806  1.00  0.00     0.198 A 
ATOM     68  F   UNL     1       6.925  13.361  -3.624  1.00  0.00    -0.203 F 
ATOM     69  F   UNL     1      12.363  13.659  -3.213  1.00  0.00    -0.200 F 
ATOM     70  C   UNL     1      10.295  14.694  -3.697  1.00  0.00     0.200 A 
ATOM     71  F   UNL     1       8.205  15.686  -4.176  1.00  0.00    -0.200 F 
ATOM     72  F   UNL     1      10.918  15.855  -3.940  1.00  0.00    -0.200 F 
ENDBRANCH  39  62
ENDBRANCH  13  14
ENDBRANCH   6   8
ENDBRANCH   5   6
ENDBRANCH   4   5
ENDBRANCH   3   4
ENDBRANCH   2   3
ENDBRANCH   1   2
BRANCH   1  73
ATOM     73  C   UNL     1       2.022  -2.231  -2.160  1.00  0.00     0.188 C 
BRANCH  73  74
ATOM     74  O   UNL     1       3.122  -3.084  -2.461  1.00  0.00    -0.376 OA
BRANCH  74  75
ATOM     75  C   UNL     1       3.577  -2.960  -3.811  1.00  0.00     0.202 C 
BRANCH  75  76
ATOM     76  C   UNL     1       4.337  -1.657  -4.104  1.00  0.00     0.261 C 
BRANCH  76  77
ATOM     77  O   UNL     1       3.552  -0.446  -4.031  1.00  0.00    -0.460 OA
BRANCH  77  78
ATOM     78  C   UNL     1       2.661  -0.252  -5.027  1.00  0.00     0.338 C 
ATOM     79  O   UNL     1       2.343  -1.043  -5.899  1.00  0.00    -0.246 OA
BRANCH  78  80
ATOM     80  C   UNL     1       2.278   1.171  -5.045  1.00  0.00     0.061 A 
ATOM     81  C   UNL     1       2.846   1.945  -6.062  1.00  0.00     0.019 A 
ATOM     82  C   UNL     1       1.369   1.740  -4.139  1.00  0.00     0.041 A 
ATOM     83  C   UNL     1       2.533   3.295  -6.155  1.00  0.00     0.041 A 
ATOM     84  C   UNL     1       1.053   3.110  -4.253  1.00  0.00     0.124 A 
ATOM     85  C   UNL     1       1.661   3.878  -5.239  1.00  0.00     0.143 A 
ATOM     86  F   UNL     1       1.470   5.196  -5.352  1.00  0.00    -0.205 F 
BRANCH  84  87
ATOM     87  S   UNL     1      -0.148   3.803  -3.134  1.00  0.00     0.267 S 
ATOM     88  O   UNL     1      -1.366   3.036  -3.368  1.00  0.00    -0.201 OA
ATOM     89  O   UNL     1       0.484   3.783  -1.841  1.00  0.00    -0.201 OA
BRANCH  87  90
ATOM     90  N   UNL     1      -0.443   5.382  -3.667  1.00  0.00    -0.259 N 
ATOM     91  C   UNL     1      -1.276   5.553  -4.886  1.00  0.00     0.177 C 
ATOM     92  C   UNL     1      -0.410   6.535  -2.792  1.00  0.00     0.094 A 
ATOM     93  C   UNL     1      -2.542   6.309  -4.518  1.00  0.00     0.252 C 
ATOM     94  C   UNL     1      -1.278   7.619  -3.049  1.00  0.00     0.143 A 
ATOM     95  C   UNL     1       0.560   6.700  -1.800  1.00  0.00     0.031 A 
ATOM     96  O   UNL     1      -2.238   7.622  -4.035  1.00  0.00    -0.489 OA
ATOM     97  C   UNL     1      -1.183   8.809  -2.320  1.00  0.00     0.049 A 
ATOM     98  C   UNL     1       0.630   7.877  -1.044  1.00  0.00     0.002 A 
ATOM     99  C   UNL     1      -0.238   8.932  -1.306  1.00  0.00     0.004 A 
ENDBRANCH  87  90
ENDBRANCH  84  87
ENDBRANCH  78  80
ENDBRANCH  77  78
ENDBRANCH  76  77
ENDBRANCH  75  76
ENDBRANCH  74  75
ENDBRANCH  73  74
ENDBRANCH   1  73
TORSDOF 19
