REMARK SMILES Cc1cc(NS(=O)(=O)c2ccc3c(c2)[C@H]2[C@H]4CC[C@H](C4)[C@@H]2[C@H](c2cccc(C(=O)OCCOCCOCCOC(=O)c4ccc(-c5c6nc(c(-c7c(F)c(F)c(F)c(F)c7F)c7ccc([nH]7)c(-c7c(F)c(F)c(F)c(F)c7F)c7nc(c(-c8c(F)c(F)c(F)c(F)c8F)c8ccc5[nH]8)C=C7)C=C6)cc4)c2)N3)no1
REMARK SMILES IDX 34 1 33 2 32 3 31 4 30 5 28 6 29 7 27 8 23 9 24 10 105 11
REMARK SMILES IDX 25 12 26 13 22 14 9 15 10 16 14 17 11 18 13 19 12 20 15 21
REMARK SMILES IDX 106 22 16 23 21 24 17 26 20 27 19 28 18 29 6 30 7 31 8 32
REMARK SMILES IDX 5 33 4 35 1 36 2 37 3 38 108 39 107 40 35 41 36 42 37 43
REMARK SMILES IDX 38 44 39 45 40 46 41 47 42 48 43 49 104 50 44 51 103 52
REMARK SMILES IDX 45 53 46 54 47 55 97 56 48 57 102 58 96 59 98 60 49 61
REMARK SMILES IDX 101 62 95 63 94 64 50 66 82 67 62 68 81 69 63 70 66 71 80 72
REMARK SMILES IDX 99 73 64 74 65 75 79 77 100 78 67 79 51 80 52 81 60 82 53 83
REMARK SMILES IDX 54 84 58 85 61 86 55 87 56 88 59 89 57 90 83 91 84 92 92 93
REMARK SMILES IDX 85 94 86 95 90 96 93 97 87 98 88 99 91 100 89 101 68 102
REMARK SMILES IDX 69 103 77 104 70 105 71 106 75 107 78 108 72 109 73 110
REMARK SMILES IDX 76 111 74 112
REMARK H PARENT 106 25 5 34 98 65 66 76
REMARK Flexibility Score: inf
ROOT
ATOM      1  C   UNL     1      -0.602   5.923   5.667  1.00  0.00     0.188 C 
ENDROOT
BRANCH   1   2
ATOM      2  O   UNL     1      -1.272   5.810   6.903  1.00  0.00    -0.376 OA
BRANCH   2   3
ATOM      3  C   UNL     1      -2.674   6.012   7.000  1.00  0.00     0.202 C 
BRANCH   3   4
ATOM      4  C   UNL     1      -3.489   6.899   6.048  1.00  0.00     0.261 C 
BRANCH   4   5
ATOM      5  O   UNL     1      -3.086   6.876   4.677  1.00  0.00    -0.460 OA
BRANCH   5   6
ATOM      6  C   UNL     1      -2.668   8.070   4.186  1.00  0.00     0.338 C 
ATOM      7  O   UNL     1      -2.646   9.138   4.777  1.00  0.00    -0.246 OA
BRANCH   6   8
ATOM      8  C   UNL     1      -2.005   7.874   2.879  1.00  0.00     0.060 A 
ATOM      9  C   UNL     1      -1.842   6.855   0.668  1.00  0.00    -0.025 A 
ATOM     10  C   UNL     1      -0.648   7.580   0.482  1.00  0.00     0.006 A 
ATOM     11  C   UNL     1      -2.520   7.023   1.890  1.00  0.00     0.021 A 
ATOM     12  C   UNL     1      -0.113   8.394   1.482  1.00  0.00     0.001 A 
ATOM     13  C   UNL     1      -0.796   8.548   2.678  1.00  0.00     0.016 A 
BRANCH   9  14
ATOM     14  C   UNL     1      -2.383   5.990  -0.467  1.00  0.00     0.113 C 
ATOM     15  C   UNL     1      -3.860   1.082   0.146  1.00  0.00     0.088 A 
ATOM     16  C   UNL     1      -5.026   1.855   0.044  1.00  0.00     0.024 A 
ATOM     17  C   UNL     1      -2.628   1.718   0.258  1.00  0.00     0.028 A 
ATOM     18  C   UNL     1      -4.955   3.256   0.023  1.00  0.00     0.027 A 
ATOM     19  C   UNL     1      -2.554   3.108   0.120  1.00  0.00    -0.020 A 
ATOM     20  C   UNL     1      -3.721   3.906   0.043  1.00  0.00     0.038 A 
ATOM     21  C   UNL     1      -1.246   3.826   0.007  1.00  0.00     0.030 C 
ATOM     22  N   UNL     1      -3.640   5.293  -0.103  1.00  0.00    -0.378 N 
ATOM     23  C   UNL     1       0.085   3.202  -0.462  1.00  0.00    -0.003 C 
ATOM     24  C   UNL     1      -1.451   4.924  -1.056  1.00  0.00     0.027 C 
ATOM     25  H   UNL     1      -4.452   5.831   0.043  1.00  0.00     0.161 HD
ATOM     26  C   UNL     1       0.048   2.739  -1.937  1.00  0.00     0.004 C 
ATOM     27  C   UNL     1       0.903   4.501  -0.576  1.00  0.00     0.008 C 
ATOM     28  C   UNL     1      -0.028   5.120  -1.629  1.00  0.00    -0.005 C 
ATOM     29  C   UNL     1       0.130   4.053  -2.736  1.00  0.00     0.004 C 
BRANCH  15  30
ATOM     30  S   UNL     1      -4.045  -0.689   0.030  1.00  0.00     0.263 S 
ATOM     31  O   UNL     1      -4.400  -1.005  -1.336  1.00  0.00    -0.201 OA
ATOM     32  O   UNL     1      -4.927  -1.056   1.123  1.00  0.00    -0.201 OA
BRANCH  30  33
ATOM     33  N   UNL     1      -2.607  -1.435   0.418  1.00  0.00    -0.261 N 
ATOM     34  H   UNL     1      -2.634  -2.080   1.162  1.00  0.00     0.182 HD
BRANCH  33  35
ATOM     35  C   UNL     1      -1.381  -1.247  -0.191  1.00  0.00     0.183 A 
ATOM     36  C   UNL     1       2.222  -0.655  -0.113  1.00  0.00     0.091 C 
ATOM     37  C   UNL     1       0.789  -0.935  -0.314  1.00  0.00     0.135 A 
ATOM     38  C   UNL     1      -0.159  -1.601   0.422  1.00  0.00     0.096 A 
ATOM     39  O   UNL     1       0.194  -0.383  -1.404  1.00  0.00    -0.360 OA
ATOM     40  N   UNL     1      -1.174  -0.594  -1.335  1.00  0.00    -0.061 NA
ENDBRANCH  33  35
ENDBRANCH  30  33
ENDBRANCH  15  30
ENDBRANCH   9  14
ENDBRANCH   6   8
ENDBRANCH   5   6
ENDBRANCH   4   5
ENDBRANCH   3   4
ENDBRANCH   2   3
ENDBRANCH   1   2
BRANCH   1  41
ATOM     41  C   UNL     1      -0.828   4.880   4.552  1.00  0.00     0.188 C 
BRANCH  41  42
ATOM     42  O   UNL     1      -1.805   3.868   4.680  1.00  0.00    -0.376 OA
BRANCH  42  43
ATOM     43  C   UNL     1      -1.746   2.957   5.764  1.00  0.00     0.202 C 
BRANCH  43  44
ATOM     44  C   UNL     1      -0.432   2.295   6.195  1.00  0.00     0.261 C 
BRANCH  44  45
ATOM     45  O   UNL     1       0.668   3.196   6.376  1.00  0.00    -0.460 OA
BRANCH  45  46
ATOM     46  C   UNL     1       1.706   3.023   5.521  1.00  0.00     0.338 C 
ATOM     47  O   UNL     1       1.810   2.194   4.631  1.00  0.00    -0.246 OA
BRANCH  46  48
ATOM     48  C   UNL     1       2.659   4.133   5.700  1.00  0.00     0.060 A 
ATOM     49  C   UNL     1       3.295   4.335   6.925  1.00  0.00     0.016 A 
ATOM     50  C   UNL     1       2.930   4.967   4.607  1.00  0.00     0.016 A 
ATOM     51  C   UNL     1       4.231   5.363   7.046  1.00  0.00     0.010 A 
ATOM     52  C   UNL     1       3.854   6.005   4.735  1.00  0.00     0.010 A 
ATOM     53  C   UNL     1       4.530   6.193   5.949  1.00  0.00    -0.014 A 
BRANCH  53  54
ATOM     54  C   UNL     1       5.673   7.133   6.027  1.00  0.00     0.031 A 
ATOM     55  C   UNL     1       5.482   8.600   6.258  1.00  0.00     0.074 A 
ATOM     56  C   UNL     1       6.911   6.627   5.884  1.00  0.00     0.049 A 
ATOM     57  N   UNL     1       6.390   9.524   6.448  1.00  0.00    -0.248 NA
ATOM     58  C   UNL     1       4.100   9.098   6.271  1.00  0.00     0.031 C 
ATOM     59  C   UNL     1       7.211   5.218   5.622  1.00  0.00     0.029 A 
ATOM     60  N   UNL     1       8.143   7.226   5.952  1.00  0.00    -0.354 N 
ATOM     61  C   UNL     1       5.694  10.708   6.637  1.00  0.00     0.074 A 
ATOM     62  C   UNL     1       4.287  10.396   6.481  1.00  0.00     0.031 C 
ATOM     63  C   UNL     1       8.541   5.054   5.587  1.00  0.00     0.029 A 
ATOM     64  C   UNL     1       9.186   6.347   5.801  1.00  0.00     0.049 A 
ATOM     65  H   UNL     1       8.266   8.192   6.094  1.00  0.00     0.167 HD
ATOM     66  C   UNL     1       6.189  11.934   6.936  1.00  0.00     0.037 A 
ATOM     67  C   UNL     1      10.515   6.554   5.845  1.00  0.00     0.037 A 
ATOM     68  C   UNL     1       7.593  12.239   7.066  1.00  0.00     0.049 A 
ATOM     69  C   UNL     1      11.036   7.935   6.126  1.00  0.00     0.074 A 
ATOM     70  C   UNL     1       8.186  13.447   7.394  1.00  0.00     0.029 A 
ATOM     71  N   UNL     1       8.626  11.335   6.862  1.00  0.00    -0.354 N 
ATOM     72  N   UNL     1      10.368   9.033   6.380  1.00  0.00    -0.248 NA
ATOM     73  C   UNL     1      12.496   8.103   6.136  1.00  0.00     0.031 C 
ATOM     74  C   UNL     1       9.574  13.288   7.335  1.00  0.00     0.029 A 
ATOM     75  C   UNL     1       9.850  11.966   7.028  1.00  0.00     0.049 A 
ATOM     76  H   UNL     1       8.507  10.384   6.633  1.00  0.00     0.167 HD
ATOM     77  C   UNL     1      11.322  10.017   6.604  1.00  0.00     0.074 A 
ATOM     78  C   UNL     1      12.616   9.381   6.471  1.00  0.00     0.031 C 
ATOM     79  C   UNL     1      11.136  11.328   6.893  1.00  0.00     0.037 A 
BRANCH  66  80
ATOM     80  C   UNL     1       5.209  13.050   7.165  1.00  0.00     0.064 A 
ATOM     81  C   UNL     1       4.410  13.089   8.318  1.00  0.00     0.173 A 
ATOM     82  C   UNL     1       5.136  14.136   6.281  1.00  0.00     0.173 A 
ATOM     83  F   UNL     1       4.442  12.075   9.196  1.00  0.00    -0.203 F 
ATOM     84  C   UNL     1       3.565  14.167   8.569  1.00  0.00     0.198 A 
ATOM     85  C   UNL     1       4.310  15.225   6.548  1.00  0.00     0.198 A 
ATOM     86  F   UNL     1       5.888  14.156   5.170  1.00  0.00    -0.203 F 
ATOM     87  F   UNL     1       2.792  14.169   9.664  1.00  0.00    -0.200 F 
ATOM     88  C   UNL     1       3.523  15.238   7.690  1.00  0.00     0.200 A 
ATOM     89  F   UNL     1       4.285  16.269   5.708  1.00  0.00    -0.200 F 
ATOM     90  F   UNL     1       2.725  16.285   7.944  1.00  0.00    -0.200 F 
ENDBRANCH  66  80
BRANCH  67  91
ATOM     91  C   UNL     1      11.438   5.404   5.673  1.00  0.00     0.064 A 
ATOM     92  C   UNL     1      12.179   4.912   6.756  1.00  0.00     0.173 A 
ATOM     93  C   UNL     1      11.566   4.749   4.440  1.00  0.00     0.173 A 
ATOM     94  F   UNL     1      12.100   5.516   7.951  1.00  0.00    -0.203 F 
ATOM     95  C   UNL     1      13.020   3.812   6.609  1.00  0.00     0.198 A 
ATOM     96  C   UNL     1      12.386   3.632   4.302  1.00  0.00     0.198 A 
ATOM     97  F   UNL     1      10.870   5.177   3.376  1.00  0.00    -0.203 F 
ATOM     98  F   UNL     1      13.740   3.379   7.653  1.00  0.00    -0.200 F 
ATOM     99  C   UNL     1      13.116   3.167   5.385  1.00  0.00     0.200 A 
ATOM    100  F   UNL     1      12.461   3.000   3.122  1.00  0.00    -0.200 F 
ATOM    101  F   UNL     1      13.913   2.099   5.250  1.00  0.00    -0.200 F 
ENDBRANCH  67  91
BRANCH  79 102
ATOM    102  C   UNL     1      12.361  12.172   7.103  1.00  0.00     0.064 A 
ATOM    103  C   UNL     1      13.196  12.534   6.035  1.00  0.00     0.173 A 
ATOM    104  C   UNL     1      12.669  12.678   8.375  1.00  0.00     0.173 A 
ATOM    105  F   UNL     1      12.955  12.065   4.801  1.00  0.00    -0.203 F 
ATOM    106  C   UNL     1      14.301  13.357   6.236  1.00  0.00     0.198 A 
ATOM    107  C   UNL     1      13.757  13.525   8.568  1.00  0.00     0.198 A 
ATOM    108  F   UNL     1      11.901  12.367   9.430  1.00  0.00    -0.203 F 
ATOM    109  F   UNL     1      15.107  13.657   5.208  1.00  0.00    -0.200 F 
ATOM    110  C   UNL     1      14.575  13.860   7.499  1.00  0.00     0.200 A 
ATOM    111  F   UNL     1      14.011  14.022   9.786  1.00  0.00    -0.200 F 
ATOM    112  F   UNL     1      15.630  14.664   7.688  1.00  0.00    -0.200 F 
ENDBRANCH  79 102
ENDBRANCH  53  54
ENDBRANCH  46  48
ENDBRANCH  45  46
ENDBRANCH  44  45
ENDBRANCH  43  44
ENDBRANCH  42  43
ENDBRANCH  41  42
ENDBRANCH   1  41
TORSDOF 21
