REMARK SMILES N#C/C(=C\c1ccc(Oc2ccccc2Cl)c([N+](=O)[O-])c1)C(=O)OCCOCCOCCOC(=O)c1ccc(-c2c3nc(c(-c4c(F)c(F)c(F)c(F)c4F)c4ccc([nH]4)c(-c4c(F)c(F)c(F)c(F)c4F)c4nc(c(-c5c(F)c(F)c(F)c(F)c5F)c5ccc2[nH]5)C=C4)C=C3)cc1
REMARK SMILES IDX 28 1 27 2 26 3 25 4 24 5 22 6 23 7 3 8 4 9 2 10 1 11 5 12
REMARK SMILES IDX 6 13 21 14 7 15 17 16 8 17 18 18 19 19 20 20 9 21 10 22
REMARK SMILES IDX 11 23 15 24 12 25 14 26 16 27 13 28 29 29 30 30 31 31 32 32
REMARK SMILES IDX 33 33 34 34 35 35 36 36 37 37 98 38 38 39 97 40 39 41 40 42
REMARK SMILES IDX 41 43 91 44 42 45 96 46 90 47 92 48 43 49 95 50 89 51 88 52
REMARK SMILES IDX 44 54 76 55 56 56 75 57 57 58 60 59 74 60 93 61 58 62 59 63
REMARK SMILES IDX 73 65 94 66 61 67 45 68 46 69 54 70 47 71 48 72 52 73 55 74
REMARK SMILES IDX 49 75 50 76 53 77 51 78 77 79 78 80 86 81 79 82 80 83 84 84
REMARK SMILES IDX 87 85 81 86 82 87 85 88 83 89 62 90 63 91 71 92 64 93 65 94
REMARK SMILES IDX 69 95 72 96 66 97 67 98 70 99 68 100
REMARK H PARENT 92 53 60 64
REMARK Flexibility Score: inf
ROOT
ATOM      1  C   UNL     1       4.190   1.304   3.221  1.00  0.00     0.188 C 
ENDROOT
BRANCH   1   2
ATOM      2  O   UNL     1       5.042   0.668   4.157  1.00  0.00    -0.376 OA
BRANCH   2   3
ATOM      3  C   UNL     1       6.189  -0.057   3.740  1.00  0.00     0.202 C 
BRANCH   3   4
ATOM      4  C   UNL     1       6.117  -1.040   2.566  1.00  0.00     0.261 C 
BRANCH   4   5
ATOM      5  O   UNL     1       5.577  -0.451   1.376  1.00  0.00    -0.459 OA
BRANCH   5   6
ATOM      6  C   UNL     1       4.347  -0.897   1.027  1.00  0.00     0.348 C 
ATOM      7  O   UNL     1       3.767  -1.857   1.509  1.00  0.00    -0.245 OA
BRANCH   6   8
ATOM      8  C   UNL     1       3.703   0.021   0.059  1.00  0.00     0.138 C 
ATOM      9  C   UNL     1       4.379   0.359  -1.067  1.00  0.00     0.035 C 
BRANCH   8  10
ATOM     10  C   UNL     1       2.183   0.021   0.059  1.00  0.00     0.107 C 
ATOM     11  N   UNL     1       0.922   0.021   0.059  1.00  0.00    -0.192 NA
ENDBRANCH   8  10
BRANCH   9  12
ATOM     12  C   UNL     1       3.715   0.741  -2.334  1.00  0.00    -0.017 A 
ATOM     13  C   UNL     1       4.086   0.096  -3.519  1.00  0.00     0.012 A 
ATOM     14  C   UNL     1       2.629   1.618  -2.376  1.00  0.00     0.098 A 
ATOM     15  C   UNL     1       3.359   0.298  -4.703  1.00  0.00     0.055 A 
ATOM     16  C   UNL     1       1.841   1.726  -3.538  1.00  0.00     0.312 A 
ATOM     17  C   UNL     1       2.213   1.110  -4.736  1.00  0.00     0.204 A 
BRANCH  16  18
ATOM     18  N   UNL     1       0.556   2.368  -3.337  1.00  0.00     0.066 N 
ATOM     19  O   UNL     1      -0.456   1.676  -3.502  1.00  0.00    -0.258 OA
ATOM     20  O   UNL     1       0.572   3.537  -2.924  1.00  0.00    -0.258 OA
ENDBRANCH  16  18
BRANCH  17  21
ATOM     21  O   UNL     1       1.635   1.144  -5.986  1.00  0.00    -0.449 OA
BRANCH  21  22
ATOM     22  C   UNL     1       0.633   2.030  -6.290  1.00  0.00     0.146 A 
ATOM     23  C   UNL     1      -0.583   1.454  -6.677  1.00  0.00     0.049 A 
ATOM     24  C   UNL     1       0.773   3.422  -6.290  1.00  0.00     0.083 A 
ATOM     25  C   UNL     1      -1.684   2.261  -6.956  1.00  0.00     0.004 A 
ATOM     26  C   UNL     1      -0.341   4.228  -6.540  1.00  0.00     0.024 A 
ATOM     27  Cl  UNL     1       2.285   4.193  -5.976  1.00  0.00    -0.080 Cl
ATOM     28  C   UNL     1      -1.570   3.647  -6.861  1.00  0.00     0.002 A 
ENDBRANCH  21  22
ENDBRANCH  17  21
ENDBRANCH   9  12
ENDBRANCH   6   8
ENDBRANCH   5   6
ENDBRANCH   4   5
ENDBRANCH   3   4
ENDBRANCH   2   3
ENDBRANCH   1   2
BRANCH   1  29
ATOM     29  C   UNL     1       4.766   2.237   2.133  1.00  0.00     0.188 C 
BRANCH  29  30
ATOM     30  O   UNL     1       6.153   2.406   2.062  1.00  0.00    -0.376 OA
BRANCH  30  31
ATOM     31  C   UNL     1       6.775   3.302   2.963  1.00  0.00     0.202 C 
BRANCH  31  32
ATOM     32  C   UNL     1       6.032   4.279   3.906  1.00  0.00     0.261 C 
BRANCH  32  33
ATOM     33  O   UNL     1       4.636   4.067   4.175  1.00  0.00    -0.460 OA
BRANCH  33  34
ATOM     34  C   UNL     1       3.767   4.888   3.528  1.00  0.00     0.338 C 
ATOM     35  O   UNL     1       4.051   5.780   2.740  1.00  0.00    -0.246 OA
BRANCH  34  36
ATOM     36  C   UNL     1       2.385   4.395   3.723  1.00  0.00     0.060 A 
ATOM     37  C   UNL     1       1.665   3.900   2.621  1.00  0.00     0.016 A 
ATOM     38  C   UNL     1       1.790   4.444   4.982  1.00  0.00     0.016 A 
ATOM     39  C   UNL     1       0.343   3.472   2.774  1.00  0.00     0.010 A 
ATOM     40  C   UNL     1       0.456   4.046   5.126  1.00  0.00     0.010 A 
ATOM     41  C   UNL     1      -0.285   3.587   4.019  1.00  0.00    -0.014 A 
BRANCH  41  42
ATOM     42  C   UNL     1      -1.757   3.421   4.141  1.00  0.00     0.031 A 
ATOM     43  C   UNL     1      -2.617   4.657   4.157  1.00  0.00     0.074 A 
ATOM     44  C   UNL     1      -2.328   2.209   4.253  1.00  0.00     0.049 A 
ATOM     45  N   UNL     1      -3.903   4.780   4.367  1.00  0.00    -0.248 NA
ATOM     46  C   UNL     1      -1.923   5.931   3.909  1.00  0.00     0.031 C 
ATOM     47  C   UNL     1      -1.623   0.933   4.197  1.00  0.00     0.029 A 
ATOM     48  N   UNL     1      -3.643   1.861   4.455  1.00  0.00    -0.354 N 
ATOM     49  C   UNL     1      -4.169   6.141   4.292  1.00  0.00     0.074 A 
ATOM     50  C   UNL     1      -2.908   6.806   4.047  1.00  0.00     0.031 C 
ATOM     51  C   UNL     1      -2.509  -0.062   4.381  1.00  0.00     0.029 A 
ATOM     52  C   UNL     1      -3.837   0.510   4.604  1.00  0.00     0.049 A 
ATOM     53  H   UNL     1      -4.375   2.518   4.490  1.00  0.00     0.167 HD
ATOM     54  C   UNL     1      -5.358   6.778   4.411  1.00  0.00     0.037 A 
ATOM     55  C   UNL     1      -4.953  -0.181   4.912  1.00  0.00     0.037 A 
ATOM     56  C   UNL     1      -6.613   6.115   4.652  1.00  0.00     0.049 A 
ATOM     57  C   UNL     1      -6.253   0.559   5.122  1.00  0.00     0.074 A 
ATOM     58  C   UNL     1      -7.875   6.673   4.765  1.00  0.00     0.029 A 
ATOM     59  N   UNL     1      -6.764   4.748   4.826  1.00  0.00    -0.354 N 
ATOM     60  N   UNL     1      -6.503   1.843   5.033  1.00  0.00    -0.248 NA
ATOM     61  C   UNL     1      -7.428  -0.252   5.476  1.00  0.00     0.031 C 
ATOM     62  C   UNL     1      -8.778   5.652   5.074  1.00  0.00     0.029 A 
ATOM     63  C   UNL     1      -8.093   4.448   5.081  1.00  0.00     0.049 A 
ATOM     64  H   UNL     1      -6.035   4.088   4.777  1.00  0.00     0.167 HD
ATOM     65  C   UNL     1      -7.863   1.988   5.279  1.00  0.00     0.074 A 
ATOM     66  C   UNL     1      -8.388   0.660   5.514  1.00  0.00     0.031 C 
ATOM     67  C   UNL     1      -8.610   3.121   5.304  1.00  0.00     0.037 A 
BRANCH  54  68
ATOM     68  C   UNL     1      -5.355   8.278   4.320  1.00  0.00     0.064 A 
ATOM     69  C   UNL     1      -5.095   8.948   3.115  1.00  0.00     0.173 A 
ATOM     70  C   UNL     1      -5.651   9.055   5.450  1.00  0.00     0.173 A 
ATOM     71  F   UNL     1      -4.793   8.255   2.007  1.00  0.00    -0.203 F 
ATOM     72  C   UNL     1      -5.103  10.340   3.053  1.00  0.00     0.198 A 
ATOM     73  C   UNL     1      -5.692  10.444   5.377  1.00  0.00     0.198 A 
ATOM     74  F   UNL     1      -5.912   8.466   6.627  1.00  0.00    -0.203 F 
ATOM     75  F   UNL     1      -4.801  10.960   1.903  1.00  0.00    -0.200 F 
ATOM     76  C   UNL     1      -5.410  11.086   4.181  1.00  0.00     0.200 A 
ATOM     77  F   UNL     1      -6.005  11.162   6.464  1.00  0.00    -0.200 F 
ATOM     78  F   UNL     1      -5.427  12.424   4.117  1.00  0.00    -0.200 F 
ENDBRANCH  54  68
BRANCH  55  79
ATOM     79  C   UNL     1      -4.897  -1.661   5.055  1.00  0.00     0.064 A 
ATOM     80  C   UNL     1      -5.566  -2.502   4.154  1.00  0.00     0.173 A 
ATOM     81  C   UNL     1      -4.200  -2.265   6.112  1.00  0.00     0.173 A 
ATOM     82  F   UNL     1      -6.277  -1.973   3.147  1.00  0.00    -0.203 F 
ATOM     83  C   UNL     1      -5.556  -3.886   4.315  1.00  0.00     0.198 A 
ATOM     84  C   UNL     1      -4.164  -3.651   6.254  1.00  0.00     0.198 A 
ATOM     85  F   UNL     1      -3.553  -1.508   7.011  1.00  0.00    -0.203 F 
ATOM     86  F   UNL     1      -6.251  -4.662   3.472  1.00  0.00    -0.200 F 
ATOM     87  C   UNL     1      -4.848  -4.460   5.360  1.00  0.00     0.200 A 
ATOM     88  F   UNL     1      -3.474  -4.202   7.262  1.00  0.00    -0.200 F 
ATOM     89  F   UNL     1      -4.838  -5.791   5.515  1.00  0.00    -0.200 F 
ENDBRANCH  55  79
BRANCH  67  90
ATOM     90  C   UNL     1     -10.087   2.978   5.548  1.00  0.00     0.064 A 
ATOM     91  C   UNL     1     -10.601   2.600   6.797  1.00  0.00     0.173 A 
ATOM     92  C   UNL     1     -11.004   3.270   4.525  1.00  0.00     0.173 A 
ATOM     93  F   UNL     1      -9.771   2.299   7.806  1.00  0.00    -0.203 F 
ATOM     94  C   UNL     1     -11.975   2.492   7.004  1.00  0.00     0.198 A 
ATOM     95  C   UNL     1     -12.377   3.196   4.746  1.00  0.00     0.198 A 
ATOM     96  F   UNL     1     -10.569   3.647   3.313  1.00  0.00    -0.203 F 
ATOM     97  F   UNL     1     -12.441   2.080   8.191  1.00  0.00    -0.200 F 
ATOM     98  C   UNL     1     -12.861   2.798   5.982  1.00  0.00     0.200 A 
ATOM     99  F   UNL     1     -13.231   3.511   3.762  1.00  0.00    -0.200 F 
ATOM    100  F   UNL     1     -14.182   2.704   6.187  1.00  0.00    -0.200 F 
ENDBRANCH  67  90
ENDBRANCH  41  42
ENDBRANCH  34  36
ENDBRANCH  33  34
ENDBRANCH  32  33
ENDBRANCH  31  32
ENDBRANCH  30  31
ENDBRANCH  29  30
ENDBRANCH   1  29
TORSDOF 22
