REMARK SMILES C[C@H](NC(=O)N1CCN(/C=C/c2ccccc2)CC1)C(=O)OCCOCCOCCOC(=O)c1ccc(-c2c3nc(c(-c4c(F)c(F)c(F)c(F)c4F)c4ccc([nH]4)c(-c4c(F)c(F)c(F)c(F)c4F)c4nc(c(-c5c(F)c(F)c(F)c(F)c5F)c5ccc2[nH]5)C=C4)C=C3)cc1
REMARK SMILES IDX 26 1 25 2 24 3 23 4 22 5 20 6 21 7 2 8 1 9 3 10 4 11 5 13
REMARK SMILES IDX 6 14 7 15 19 16 8 17 18 18 9 19 10 20 11 21 12 22 13 23
REMARK SMILES IDX 17 24 14 25 16 26 15 27 27 28 28 29 29 30 30 31 31 32 32 33
REMARK SMILES IDX 33 34 34 35 35 36 96 37 36 38 95 39 37 40 38 41 39 42 89 43
REMARK SMILES IDX 40 44 94 45 88 46 90 47 41 48 93 49 87 50 86 51 42 53 74 54
REMARK SMILES IDX 54 55 73 56 55 57 58 58 72 59 91 60 56 61 57 62 71 64 92 65
REMARK SMILES IDX 59 66 43 67 44 68 52 69 45 70 46 71 50 72 53 73 47 74 48 75
REMARK SMILES IDX 51 76 49 77 75 78 76 79 84 80 77 81 78 82 82 83 85 84 79 85
REMARK SMILES IDX 80 86 83 87 81 88 60 89 61 90 69 91 62 92 63 93 67 94 70 95
REMARK SMILES IDX 64 96 65 97 68 98 66 99
REMARK H PARENT 3 12 90 52 58 63
REMARK Flexibility Score: inf
ROOT
ATOM      1  C   UNL     1      -2.428  -0.451   1.862  1.00  0.00     0.188 C 
ENDROOT
BRANCH   1   2
ATOM      2  O   UNL     1      -3.804  -0.198   1.627  1.00  0.00    -0.376 OA
BRANCH   2   3
ATOM      3  C   UNL     1      -4.226   0.480   0.449  1.00  0.00     0.202 C 
BRANCH   3   4
ATOM      4  C   UNL     1      -3.483   1.719  -0.080  1.00  0.00     0.261 C 
BRANCH   4   5
ATOM      5  O   UNL     1      -2.064   1.576  -0.254  1.00  0.00    -0.462 OA
BRANCH   5   6
ATOM      6  C   UNL     1      -1.292   2.280   0.615  1.00  0.00     0.328 C 
ATOM      7  O   UNL     1      -1.726   2.987   1.519  1.00  0.00    -0.250 OA
BRANCH   6   8
ATOM      8  C   UNL     1       0.209   2.189   0.303  1.00  0.00     0.190 C 
ATOM      9  C   UNL     1       0.557   3.572  -0.226  1.00  0.00     0.043 C 
BRANCH   8  10
ATOM     10  N   UNL     1       0.625   1.117  -0.601  1.00  0.00    -0.325 N 
ATOM     11  C   UNL     1       1.831   0.733  -1.074  1.00  0.00     0.318 C 
ATOM     12  H   UNL     1      -0.122   0.566  -0.929  1.00  0.00     0.166 HD
ATOM     13  O   UNL     1       1.848  -0.178  -1.903  1.00  0.00    -0.249 OA
ATOM     14  N   UNL     1       2.958   1.427  -0.756  1.00  0.00    -0.321 N 
ATOM     15  C   UNL     1       3.913   1.700  -1.820  1.00  0.00     0.143 C 
ATOM     16  C   UNL     1       3.419   1.910   0.540  1.00  0.00     0.143 C 
ATOM     17  C   UNL     1       4.036   3.217  -1.991  1.00  0.00     0.137 C 
ATOM     18  C   UNL     1       3.827   3.398   0.536  1.00  0.00     0.137 C 
ATOM     19  N   UNL     1       4.425   3.898  -0.731  1.00  0.00    -0.374 N 
BRANCH  19  20
ATOM     20  C   UNL     1       5.088   5.119  -0.733  1.00  0.00     0.081 C 
ATOM     21  C   UNL     1       5.551   5.843  -1.762  1.00  0.00     0.025 C 
BRANCH  21  22
ATOM     22  C   UNL     1       6.359   7.059  -1.595  1.00  0.00    -0.024 A 
ATOM     23  C   UNL     1       6.278   8.086  -2.543  1.00  0.00     0.008 A 
ATOM     24  C   UNL     1       7.301   7.167  -0.562  1.00  0.00     0.008 A 
ATOM     25  C   UNL     1       7.111   9.205  -2.447  1.00  0.00     0.001 A 
ATOM     26  C   UNL     1       8.131   8.283  -0.465  1.00  0.00     0.001 A 
ATOM     27  C   UNL     1       8.037   9.302  -1.409  1.00  0.00     0.000 A 
ENDBRANCH  21  22
ENDBRANCH  19  20
ENDBRANCH   8  10
ENDBRANCH   6   8
ENDBRANCH   5   6
ENDBRANCH   4   5
ENDBRANCH   3   4
ENDBRANCH   2   3
ENDBRANCH   1   2
BRANCH   1  28
ATOM     28  C   UNL     1      -1.569  -1.094   0.760  1.00  0.00     0.188 C 
BRANCH  28  29
ATOM     29  O   UNL     1      -2.179  -1.127  -0.508  1.00  0.00    -0.376 OA
BRANCH  29  30
ATOM     30  C   UNL     1      -2.755  -2.354  -0.943  1.00  0.00     0.202 C 
BRANCH  30  31
ATOM     31  C   UNL     1      -3.455  -3.342   0.019  1.00  0.00     0.261 C 
BRANCH  31  32
ATOM     32  O   UNL     1      -2.987  -3.409   1.375  1.00  0.00    -0.460 OA
BRANCH  32  33
ATOM     33  C   UNL     1      -1.919  -4.204   1.630  1.00  0.00     0.338 C 
ATOM     34  O   UNL     1      -1.313  -4.898   0.841  1.00  0.00    -0.246 OA
BRANCH  33  35
ATOM     35  C   UNL     1      -1.462  -3.899   3.008  1.00  0.00     0.060 A 
ATOM     36  C   UNL     1      -0.202  -3.307   3.188  1.00  0.00     0.016 A 
ATOM     37  C   UNL     1      -2.273  -4.173   4.110  1.00  0.00     0.016 A 
ATOM     38  C   UNL     1       0.256  -3.002   4.471  1.00  0.00     0.010 A 
ATOM     39  C   UNL     1      -1.799  -3.897   5.398  1.00  0.00     0.010 A 
ATOM     40  C   UNL     1      -0.522  -3.336   5.586  1.00  0.00    -0.014 A 
BRANCH  40  41
ATOM     41  C   UNL     1       0.077  -3.297   6.943  1.00  0.00     0.031 A 
ATOM     42  C   UNL     1       0.638  -4.575   7.505  1.00  0.00     0.074 A 
ATOM     43  C   UNL     1       0.140  -2.162   7.660  1.00  0.00     0.049 A 
ATOM     44  N   UNL     1       1.138  -4.819   8.689  1.00  0.00    -0.248 NA
ATOM     45  C   UNL     1       0.627  -5.739   6.604  1.00  0.00     0.031 C 
ATOM     46  C   UNL     1      -0.318  -0.850   7.210  1.00  0.00     0.029 A 
ATOM     47  N   UNL     1       0.607  -1.939   8.933  1.00  0.00    -0.354 N 
ATOM     48  C   UNL     1       1.492  -6.162   8.678  1.00  0.00     0.074 A 
ATOM     49  C   UNL     1       1.123  -6.688   7.382  1.00  0.00     0.031 C 
ATOM     50  C   UNL     1      -0.126   0.040   8.201  1.00  0.00     0.029 A 
ATOM     51  C   UNL     1       0.432  -0.648   9.365  1.00  0.00     0.049 A 
ATOM     52  H   UNL     1       1.027  -2.639   9.483  1.00  0.00     0.167 HD
ATOM     53  C   UNL     1       2.077  -6.890   9.658  1.00  0.00     0.037 A 
ATOM     54  C   UNL     1       0.668  -0.096  10.573  1.00  0.00     0.037 A 
ATOM     55  C   UNL     1       2.437  -6.367  10.949  1.00  0.00     0.049 A 
ATOM     56  C   UNL     1       1.239  -0.950  11.680  1.00  0.00     0.074 A 
ATOM     57  C   UNL     1       3.043  -7.021  12.007  1.00  0.00     0.029 A 
ATOM     58  N   UNL     1       2.214  -5.061  11.361  1.00  0.00    -0.354 N 
ATOM     59  N   UNL     1       1.588  -2.214  11.658  1.00  0.00    -0.248 NA
ATOM     60  C   UNL     1       1.449  -0.297  12.980  1.00  0.00     0.031 C 
ATOM     61  C   UNL     1       3.132  -6.129  13.079  1.00  0.00     0.029 A 
ATOM     62  C   UNL     1       2.645  -4.898  12.668  1.00  0.00     0.049 A 
ATOM     63  H   UNL     1       1.810  -4.355  10.807  1.00  0.00     0.167 HD
ATOM     64  C   UNL     1       2.090  -2.496  12.924  1.00  0.00     0.074 A 
ATOM     65  C   UNL     1       2.011  -1.268  13.686  1.00  0.00     0.031 C 
ATOM     66  C   UNL     1       2.574  -3.666  13.411  1.00  0.00     0.037 A 
BRANCH  53  67
ATOM     67  C   UNL     1       2.332  -8.343   9.381  1.00  0.00     0.064 A 
ATOM     68  C   UNL     1       3.307  -8.761   8.462  1.00  0.00     0.173 A 
ATOM     69  C   UNL     1       1.607  -9.332  10.063  1.00  0.00     0.173 A 
ATOM     70  F   UNL     1       4.016  -7.856   7.771  1.00  0.00    -0.203 F 
ATOM     71  C   UNL     1       3.526 -10.115   8.217  1.00  0.00     0.198 A 
ATOM     72  C   UNL     1       1.853 -10.684   9.840  1.00  0.00     0.198 A 
ATOM     73  F   UNL     1       0.665  -8.987  10.954  1.00  0.00    -0.203 F 
ATOM     74  F   UNL     1       4.426 -10.490   7.297  1.00  0.00    -0.200 F 
ATOM     75  C   UNL     1       2.805 -11.074   8.912  1.00  0.00     0.200 A 
ATOM     76  F   UNL     1       1.164 -11.609  10.523  1.00  0.00    -0.200 F 
ATOM     77  F   UNL     1       3.024 -12.376   8.681  1.00  0.00    -0.200 F 
ENDBRANCH  53  67
BRANCH  54  78
ATOM     78  C   UNL     1       0.349   1.337  10.817  1.00  0.00     0.064 A 
ATOM     79  C   UNL     1       1.363   2.271  11.072  1.00  0.00     0.173 A 
ATOM     80  C   UNL     1      -0.977   1.794  10.838  1.00  0.00     0.173 A 
ATOM     81  F   UNL     1       2.645   1.879  11.092  1.00  0.00    -0.203 F 
ATOM     82  C   UNL     1       1.061   3.601  11.360  1.00  0.00     0.198 A 
ATOM     83  C   UNL     1      -1.276   3.131  11.095  1.00  0.00     0.198 A 
ATOM     84  F   UNL     1      -1.986   0.941  10.608  1.00  0.00    -0.203 F 
ATOM     85  F   UNL     1       2.047   4.460  11.656  1.00  0.00    -0.200 F 
ATOM     86  C   UNL     1      -0.257   4.032  11.366  1.00  0.00     0.200 A 
ATOM     87  F   UNL     1      -2.550   3.544  11.090  1.00  0.00    -0.200 F 
ATOM     88  F   UNL     1      -0.546   5.310  11.644  1.00  0.00    -0.200 F 
ENDBRANCH  54  78
BRANCH  66  89
ATOM     89  C   UNL     1       3.106  -3.667  14.818  1.00  0.00     0.064 A 
ATOM     90  C   UNL     1       2.261  -3.548  15.931  1.00  0.00     0.173 A 
ATOM     91  C   UNL     1       4.479  -3.836  15.054  1.00  0.00     0.173 A 
ATOM     92  F   UNL     1       0.942  -3.373  15.762  1.00  0.00    -0.203 F 
ATOM     93  C   UNL     1       2.775  -3.568  17.226  1.00  0.00     0.198 A 
ATOM     94  C   UNL     1       4.985  -3.891  16.350  1.00  0.00     0.198 A 
ATOM     95  F   UNL     1       5.332  -3.965  14.026  1.00  0.00    -0.203 F 
ATOM     96  F   UNL     1       1.954  -3.399  18.272  1.00  0.00    -0.200 F 
ATOM     97  C   UNL     1       4.134  -3.748  17.434  1.00  0.00     0.200 A 
ATOM     98  F   UNL     1       6.297  -4.082  16.548  1.00  0.00    -0.200 F 
ATOM     99  F   UNL     1       4.625  -3.775  18.681  1.00  0.00    -0.200 F 
ENDBRANCH  66  89
ENDBRANCH  40  41
ENDBRANCH  33  35
ENDBRANCH  32  33
ENDBRANCH  31  32
ENDBRANCH  30  31
ENDBRANCH  29  30
ENDBRANCH  28  29
ENDBRANCH   1  28
TORSDOF 20
