REMARK SMILES CCc1cc(OCCC(=O)OCCOCCOCCOC(=O)c2ccc(-c3c4nc(c(-c5c(F)c(F)c(F)c(F)c5F)c5ccc([nH]5)c(-c5c(F)c(F)c(F)c(F)c5F)c5nc(c(-c6c(F)c(F)c(F)c(F)c6F)c6ccc3[nH]6)C=C5)C=C4)cc2)nc(-c2cnccn2)n1
REMARK SMILES IDX 15 1 14 2 13 3 12 4 11 5 9 6 10 7 8 8 7 9 6 10 5 11 3 12
REMARK SMILES IDX 4 13 94 14 87 15 86 16 2 17 1 18 88 19 89 20 93 21 90 22
REMARK SMILES IDX 92 23 91 24 16 25 17 26 18 27 19 28 20 29 21 30 22 31 23 32
REMARK SMILES IDX 24 33 85 34 25 35 84 36 26 37 27 38 28 39 78 40 29 41 83 42
REMARK SMILES IDX 77 43 79 44 30 45 82 46 76 47 75 48 31 50 63 51 43 52 62 53
REMARK SMILES IDX 44 54 47 55 61 56 80 57 45 58 46 59 60 61 81 62 48 63 32 64
REMARK SMILES IDX 33 65 41 66 34 67 35 68 39 69 42 70 36 71 37 72 40 73 38 74
REMARK SMILES IDX 64 75 65 76 73 77 66 78 67 79 71 80 74 81 68 82 69 83 72 84
REMARK SMILES IDX 70 85 49 86 50 87 58 88 51 89 52 90 56 91 59 92 53 93 54 94
REMARK SMILES IDX 57 95 55 96
REMARK H PARENT 79 49 47 60
REMARK Flexibility Score: inf
ROOT
ATOM      1  C   UNL     1       2.705   0.188   1.273  1.00  0.00     0.188 C 
ENDROOT
BRANCH   1   2
ATOM      2  O   UNL     1       3.011   0.564  -0.073  1.00  0.00    -0.376 OA
BRANCH   2   3
ATOM      3  C   UNL     1       3.138  -0.382  -1.135  1.00  0.00     0.202 C 
BRANCH   3   4
ATOM      4  C   UNL     1       4.301  -1.386  -1.204  1.00  0.00     0.261 C 
BRANCH   4   5
ATOM      5  O   UNL     1       4.351  -2.254  -0.069  1.00  0.00    -0.463 OA
BRANCH   5   6
ATOM      6  C   UNL     1       5.215  -1.925   0.915  1.00  0.00     0.309 C 
ATOM      7  O   UNL     1       6.037  -1.020   0.849  1.00  0.00    -0.252 OA
BRANCH   6   8
ATOM      8  C   UNL     1       5.035  -2.798   2.132  1.00  0.00     0.164 C 
BRANCH   8   9
ATOM      9  C   UNL     1       3.599  -3.266   2.410  1.00  0.00     0.243 C 
BRANCH   9  10
ATOM     10  O   UNL     1       3.187  -4.285   1.501  1.00  0.00    -0.477 OA
BRANCH  10  11
ATOM     11  C   UNL     1       2.013  -4.167   0.804  1.00  0.00     0.217 A 
ATOM     12  C   UNL     1       0.427  -3.059  -0.624  1.00  0.00     0.048 A 
ATOM     13  C   UNL     1       1.526  -3.004   0.220  1.00  0.00     0.092 A 
ATOM     14  N   UNL     1      -0.133  -4.247  -0.863  1.00  0.00    -0.231 NA
ATOM     15  C   UNL     1       0.419  -5.338  -0.295  1.00  0.00     0.183 A 
ATOM     16  N   UNL     1       1.452  -5.350   0.560  1.00  0.00    -0.192 NA
BRANCH  12  17
ATOM     17  C   UNL     1      -0.186  -1.952  -1.469  1.00  0.00     0.053 C 
ATOM     18  C   UNL     1      -0.368  -0.489  -1.065  1.00  0.00     0.011 C 
ENDBRANCH  12  17
BRANCH  15  19
ATOM     19  C   UNL     1      -0.083  -6.611  -0.771  1.00  0.00     0.126 A 
ATOM     20  C   UNL     1      -0.794  -7.466   0.056  1.00  0.00     0.143 A 
ATOM     21  N   UNL     1       0.130  -6.899  -2.090  1.00  0.00    -0.250 NA
ATOM     22  N   UNL     1      -1.332  -8.628  -0.389  1.00  0.00    -0.261 NA
ATOM     23  C   UNL     1      -0.394  -8.057  -2.527  1.00  0.00     0.132 A 
ATOM     24  C   UNL     1      -1.113  -8.898  -1.697  1.00  0.00     0.131 A 
ENDBRANCH  15  19
ENDBRANCH  10  11
ENDBRANCH   9  10
ENDBRANCH   8   9
ENDBRANCH   6   8
ENDBRANCH   5   6
ENDBRANCH   4   5
ENDBRANCH   3   4
ENDBRANCH   2   3
ENDBRANCH   1   2
BRANCH   1  25
ATOM     25  C   UNL     1       1.213   0.128   1.747  1.00  0.00     0.188 C 
BRANCH  25  26
ATOM     26  O   UNL     1       0.770  -1.154   2.211  1.00  0.00    -0.376 OA
BRANCH  26  27
ATOM     27  C   UNL     1      -0.610  -1.567   2.180  1.00  0.00     0.202 C 
BRANCH  27  28
ATOM     28  C   UNL     1      -1.791  -0.675   2.592  1.00  0.00     0.261 C 
BRANCH  28  29
ATOM     29  O   UNL     1      -1.406   0.606   3.040  1.00  0.00    -0.460 OA
BRANCH  29  30
ATOM     30  C   UNL     1      -0.860   0.581   4.278  1.00  0.00     0.338 C 
ATOM     31  O   UNL     1      -0.847  -0.334   5.068  1.00  0.00    -0.246 OA
BRANCH  30  32
ATOM     32  C   UNL     1      -0.047   1.804   4.381  1.00  0.00     0.060 A 
ATOM     33  C   UNL     1       1.202   1.673   4.999  1.00  0.00     0.016 A 
ATOM     34  C   UNL     1      -0.441   3.002   3.768  1.00  0.00     0.016 A 
ATOM     35  C   UNL     1       2.030   2.776   5.090  1.00  0.00     0.010 A 
ATOM     36  C   UNL     1       0.379   4.115   3.877  1.00  0.00     0.010 A 
ATOM     37  C   UNL     1       1.572   4.009   4.608  1.00  0.00    -0.014 A 
BRANCH  37  38
ATOM     38  C   UNL     1       2.138   5.216   5.227  1.00  0.00     0.031 A 
ATOM     39  C   UNL     1       1.436   5.730   6.452  1.00  0.00     0.074 A 
ATOM     40  C   UNL     1       3.273   5.761   4.770  1.00  0.00     0.049 A 
ATOM     41  N   UNL     1       1.724   6.751   7.212  1.00  0.00    -0.248 NA
ATOM     42  C   UNL     1       0.238   4.984   6.883  1.00  0.00     0.031 C 
ATOM     43  C   UNL     1       4.044   5.282   3.626  1.00  0.00     0.029 A 
ATOM     44  N   UNL     1       3.973   6.839   5.233  1.00  0.00    -0.354 N 
ATOM     45  C   UNL     1       0.747   6.766   8.198  1.00  0.00     0.074 A 
ATOM     46  C   UNL     1      -0.170   5.688   7.924  1.00  0.00     0.031 C 
ATOM     47  C   UNL     1       5.119   6.075   3.471  1.00  0.00     0.029 A 
ATOM     48  C   UNL     1       5.086   7.124   4.488  1.00  0.00     0.049 A 
ATOM     49  H   UNL     1       3.704   7.359   6.024  1.00  0.00     0.167 HD
ATOM     50  C   UNL     1       0.636   7.603   9.253  1.00  0.00     0.037 A 
ATOM     51  C   UNL     1       5.960   8.137   4.620  1.00  0.00     0.037 A 
ATOM     52  C   UNL     1       1.557   8.675   9.504  1.00  0.00     0.049 A 
ATOM     53  C   UNL     1       5.772   9.104   5.762  1.00  0.00     0.074 A 
ATOM     54  C   UNL     1       1.548   9.601  10.527  1.00  0.00     0.029 A 
ATOM     55  N   UNL     1       2.656   8.963   8.704  1.00  0.00    -0.354 N 
ATOM     56  N   UNL     1       4.851   9.118   6.699  1.00  0.00    -0.248 NA
ATOM     57  C   UNL     1       6.755  10.187   5.873  1.00  0.00     0.031 C 
ATOM     58  C   UNL     1       2.608  10.488  10.314  1.00  0.00     0.029 A 
ATOM     59  C   UNL     1       3.322  10.068   9.202  1.00  0.00     0.049 A 
ATOM     60  H   UNL     1       2.920   8.457   7.903  1.00  0.00     0.167 HD
ATOM     61  C   UNL     1       5.167  10.183   7.533  1.00  0.00     0.074 A 
ATOM     62  C   UNL     1       6.373  10.780   6.994  1.00  0.00     0.031 C 
ATOM     63  C   UNL     1       4.528  10.628   8.645  1.00  0.00     0.037 A 
BRANCH  50  64
ATOM     64  C   UNL     1      -0.538   7.411  10.167  1.00  0.00     0.064 A 
ATOM     65  C   UNL     1      -0.662   6.284  10.995  1.00  0.00     0.173 A 
ATOM     66  C   UNL     1      -1.564   8.367  10.207  1.00  0.00     0.173 A 
ATOM     67  F   UNL     1       0.274   5.322  10.973  1.00  0.00    -0.203 F 
ATOM     68  C   UNL     1      -1.780   6.110  11.809  1.00  0.00     0.198 A 
ATOM     69  C   UNL     1      -2.662   8.208  11.047  1.00  0.00     0.198 A 
ATOM     70  F   UNL     1      -1.503   9.456   9.426  1.00  0.00    -0.203 F 
ATOM     71  F   UNL     1      -1.905   4.997  12.544  1.00  0.00    -0.200 F 
ATOM     72  C   UNL     1      -2.773   7.077  11.841  1.00  0.00     0.200 A 
ATOM     73  F   UNL     1      -3.617   9.147  11.082  1.00  0.00    -0.200 F 
ATOM     74  F   UNL     1      -3.845   6.912  12.628  1.00  0.00    -0.200 F 
ENDBRANCH  50  64
BRANCH  51  75
ATOM     75  C   UNL     1       7.079   8.286   3.655  1.00  0.00     0.064 A 
ATOM     76  C   UNL     1       8.412   8.126   4.056  1.00  0.00     0.173 A 
ATOM     77  C   UNL     1       6.837   8.610   2.311  1.00  0.00     0.173 A 
ATOM     78  F   UNL     1       8.696   7.834   5.334  1.00  0.00    -0.203 F 
ATOM     79  C   UNL     1       9.461   8.313   3.158  1.00  0.00     0.198 A 
ATOM     80  C   UNL     1       7.885   8.765   1.407  1.00  0.00     0.198 A 
ATOM     81  F   UNL     1       5.579   8.772   1.875  1.00  0.00    -0.203 F 
ATOM     82  F   UNL     1      10.728   8.211   3.582  1.00  0.00    -0.200 F 
ATOM     83  C   UNL     1       9.197   8.628   1.834  1.00  0.00     0.200 A 
ATOM     84  F   UNL     1       7.623   9.055   0.125  1.00  0.00    -0.200 F 
ATOM     85  F   UNL     1      10.206   8.809   0.971  1.00  0.00    -0.200 F 
ENDBRANCH  51  75
BRANCH  63  86
ATOM     86  C   UNL     1       5.162  11.772   9.384  1.00  0.00     0.064 A 
ATOM     87  C   UNL     1       5.215  13.067   8.849  1.00  0.00     0.173 A 
ATOM     88  C   UNL     1       5.707  11.566  10.662  1.00  0.00     0.173 A 
ATOM     89  F   UNL     1       4.714  13.315   7.629  1.00  0.00    -0.203 F 
ATOM     90  C   UNL     1       5.835  14.101   9.544  1.00  0.00     0.198 A 
ATOM     91  C   UNL     1       6.287  12.612  11.371  1.00  0.00     0.198 A 
ATOM     92  F   UNL     1       5.667  10.350  11.227  1.00  0.00    -0.203 F 
ATOM     93  F   UNL     1       5.940  15.313   8.982  1.00  0.00    -0.200 F 
ATOM     94  C   UNL     1       6.365  13.875  10.805  1.00  0.00     0.200 A 
ATOM     95  F   UNL     1       6.778  12.395  12.599  1.00  0.00    -0.200 F 
ATOM     96  F   UNL     1       6.961  14.872  11.472  1.00  0.00    -0.200 F 
ENDBRANCH  63  86
ENDBRANCH  37  38
ENDBRANCH  30  32
ENDBRANCH  29  30
ENDBRANCH  28  29
ENDBRANCH  27  28
ENDBRANCH  26  27
ENDBRANCH  25  26
ENDBRANCH   1  25
TORSDOF 22
