REMARK SMILES COC(=O)c1sc(SCC(=O)OCCOCCOCCOC(=O)c2ccc(-c3c4nc(c(-c5c(F)c(F)c(F)c(F)c5F)c5ccc([nH]5)c(-c5c(F)c(F)c(F)c(F)c5F)c5nc(c(-c6c(F)c(F)c(F)c(F)c6F)c6ccc3[nH]6)C=C5)C=C4)cc2)c(NC(=O)c2ccccc2)c1O
REMARK SMILES IDX 16 1 15 2 14 3 13 4 12 5 10 6 11 7 9 8 8 9 7 10 5 11 6 12
REMARK SMILES IDX 97 13 87 14 3 15 4 16 2 17 1 18 98 19 88 21 89 22 90 24
REMARK SMILES IDX 91 25 92 26 96 27 93 28 95 29 94 30 17 31 18 32 19 33 20 34
REMARK SMILES IDX 21 35 22 36 23 37 24 38 25 39 86 40 26 41 85 42 27 43 28 44
REMARK SMILES IDX 29 45 79 46 30 47 84 48 78 49 80 50 31 51 83 52 77 53 76 54
REMARK SMILES IDX 32 56 64 57 44 58 63 59 45 60 48 61 62 62 81 63 46 64 47 65
REMARK SMILES IDX 61 67 82 68 49 69 33 70 34 71 42 72 35 73 36 74 40 75 43 76
REMARK SMILES IDX 37 77 38 78 41 79 39 80 65 81 66 82 74 83 67 84 68 85 72 86
REMARK SMILES IDX 75 87 69 88 70 89 73 90 71 91 50 92 51 93 59 94 52 95 53 96
REMARK SMILES IDX 57 97 60 98 54 99 55 100 58 101 56 102
REMARK H PARENT 98 20 88 23 80 55 48 66
REMARK Flexibility Score: inf
ROOT
ATOM      1  C   UNL     1      -3.208   2.884  -6.436  1.00  0.00     0.188 C 
ENDROOT
BRANCH   1   2
ATOM      2  O   UNL     1      -3.313   2.473  -7.789  1.00  0.00    -0.376 OA
BRANCH   2   3
ATOM      3  C   UNL     1      -2.667   3.284  -8.775  1.00  0.00     0.202 C 
BRANCH   3   4
ATOM      4  C   UNL     1      -2.901   4.802  -8.697  1.00  0.00     0.261 C 
BRANCH   4   5
ATOM      5  O   UNL     1      -1.956   5.508  -7.848  1.00  0.00    -0.463 OA
BRANCH   5   6
ATOM      6  C   UNL     1      -2.459   6.594  -7.166  1.00  0.00     0.316 C 
ATOM      7  O   UNL     1      -3.657   6.865  -7.120  1.00  0.00    -0.251 OA
BRANCH   6   8
ATOM      8  C   UNL     1      -1.228   7.676  -6.646  1.00  0.00     0.198 C 
BRANCH   8   9
ATOM      9  S   UNL     1      -0.128   7.991  -4.329  1.00  0.00    -0.101 SA
BRANCH   9  10
ATOM     10  C   UNL     1       0.187   6.513  -3.263  1.00  0.00     0.089 A 
ATOM     11  C   UNL     1       1.306   4.772  -1.848  1.00  0.00     0.157 A 
ATOM     12  S   UNL     1       1.806   6.132  -2.776  1.00  0.00    -0.116 S 
ATOM     13  C   UNL     1      -0.069   4.722  -1.789  1.00  0.00     0.166 A 
ATOM     14  C   UNL     1      -0.710   5.627  -2.676  1.00  0.00     0.109 A 
BRANCH  11  15
ATOM     15  C   UNL     1       2.281   3.857  -1.279  1.00  0.00     0.352 C 
ATOM     16  O   UNL     1       3.499   3.967  -1.310  1.00  0.00    -0.245 OA
BRANCH  15  17
ATOM     17  O   UNL     1       1.611   2.795  -0.729  1.00  0.00    -0.465 OA
ATOM     18  C   UNL     1       2.378   1.674  -0.270  1.00  0.00     0.282 C 
ENDBRANCH  15  17
ENDBRANCH  11  15
BRANCH  13  19
ATOM     19  O   UNL     1      -0.763   3.812  -1.069  1.00  0.00    -0.504 OA
ATOM     20  H   UNL     1      -0.311   3.228  -0.491  1.00  0.00     0.293 HD
ENDBRANCH  13  19
BRANCH  14  21
ATOM     21  N   UNL     1      -2.071   5.494  -2.905  1.00  0.00    -0.317 N 
ATOM     22  C   UNL     1      -2.752   5.996  -3.970  1.00  0.00     0.255 C 
ATOM     23  H   UNL     1      -2.591   4.992  -2.236  1.00  0.00     0.170 HD
ATOM     24  O   UNL     1      -3.954   5.838  -4.128  1.00  0.00    -0.269 OA
BRANCH  22  25
ATOM     25  C   UNL     1      -1.950   6.747  -4.938  1.00  0.00     0.040 A 
ATOM     26  C   UNL     1      -2.306   8.508  -5.022  1.00  0.00     0.014 A 
ATOM     27  C   UNL     1      -0.394   6.098  -5.669  1.00  0.00     0.014 A 
ATOM     28  C   UNL     1      -1.096   9.628  -5.729  1.00  0.00     0.001 A 
ATOM     29  C   UNL     1       0.815   7.237  -6.358  1.00  0.00     0.001 A 
ATOM     30  C   UNL     1       0.433   8.991  -6.407  1.00  0.00     0.000 A 
ENDBRANCH  22  25
ENDBRANCH  14  21
ENDBRANCH   9  10
ENDBRANCH   8   9
ENDBRANCH   6   8
ENDBRANCH   5   6
ENDBRANCH   4   5
ENDBRANCH   3   4
ENDBRANCH   2   3
ENDBRANCH   1   2
BRANCH   1  31
ATOM     31  C   UNL     1      -1.798   3.049  -5.875  1.00  0.00     0.188 C 
BRANCH  31  32
ATOM     32  O   UNL     1      -0.749   2.862  -6.813  1.00  0.00    -0.376 OA
BRANCH  32  33
ATOM     33  C   UNL     1       0.357   2.073  -6.392  1.00  0.00     0.202 C 
BRANCH  33  34
ATOM     34  C   UNL     1       0.044   0.570  -6.430  1.00  0.00     0.261 C 
BRANCH  34  35
ATOM     35  O   UNL     1      -1.015   0.206  -5.539  1.00  0.00    -0.460 OA
BRANCH  35  36
ATOM     36  C   UNL     1      -0.698   0.445  -4.255  1.00  0.00     0.338 C 
ATOM     37  O   UNL     1       0.365   0.842  -3.803  1.00  0.00    -0.246 OA
BRANCH  36  38
ATOM     38  C   UNL     1      -1.853   0.191  -3.395  1.00  0.00     0.060 A 
ATOM     39  C   UNL     1      -1.990   1.126  -2.364  1.00  0.00     0.016 A 
ATOM     40  C   UNL     1      -2.113  -1.163  -3.220  1.00  0.00     0.016 A 
ATOM     41  C   UNL     1      -1.970   0.662  -1.069  1.00  0.00     0.010 A 
ATOM     42  C   UNL     1      -2.134  -1.623  -1.925  1.00  0.00     0.010 A 
ATOM     43  C   UNL     1      -1.910  -0.715  -0.874  1.00  0.00    -0.014 A 
BRANCH  43  44
ATOM     44  C   UNL     1      -1.629  -1.231   0.462  1.00  0.00     0.031 A 
ATOM     45  C   UNL     1      -2.729  -1.086   1.456  1.00  0.00     0.074 A 
ATOM     46  C   UNL     1      -0.544  -2.023   0.620  1.00  0.00     0.049 A 
ATOM     47  N   UNL     1      -2.667  -1.085   2.751  1.00  0.00    -0.248 NA
ATOM     48  C   UNL     1      -4.095  -0.896   0.921  1.00  0.00     0.031 C 
ATOM     49  C   UNL     1       0.458  -2.350  -0.406  1.00  0.00     0.029 A 
ATOM     50  N   UNL     1      -0.241  -2.889   1.634  1.00  0.00    -0.354 N 
ATOM     51  C   UNL     1      -3.990  -1.088   3.180  1.00  0.00     0.074 A 
ATOM     52  C   UNL     1      -4.824  -0.869   2.030  1.00  0.00     0.031 C 
ATOM     53  C   UNL     1       1.037  -3.526  -0.090  1.00  0.00     0.029 A 
ATOM     54  C   UNL     1       0.493  -3.982   1.177  1.00  0.00     0.049 A 
ATOM     55  H   UNL     1      -0.508  -2.757   2.572  1.00  0.00     0.167 HD
ATOM     56  C   UNL     1      -4.367  -1.512   4.412  1.00  0.00     0.037 A 
ATOM     57  C   UNL     1       0.518  -5.230   1.705  1.00  0.00     0.037 A 
ATOM     58  C   UNL     1      -3.359  -1.338   5.408  1.00  0.00     0.049 A 
ATOM     59  C   UNL     1      -0.045  -5.167   3.074  1.00  0.00     0.074 A 
ATOM     60  C   UNL     1      -2.656  -0.243   5.876  1.00  0.00     0.029 A 
ATOM     61  N   UNL     1      -2.722  -2.432   5.931  1.00  0.00    -0.354 N 
ATOM     62  N   UNL     1       0.540  -4.622   4.102  1.00  0.00    -0.248 NA
ATOM     63  C   UNL     1      -1.468  -5.437   3.233  1.00  0.00     0.031 C 
ATOM     64  C   UNL     1      -1.382  -0.745   6.262  1.00  0.00     0.029 A 
ATOM     65  C   UNL     1      -1.389  -2.111   5.992  1.00  0.00     0.049 A 
ATOM     66  H   UNL     1      -3.138  -3.280   6.208  1.00  0.00     0.167 HD
ATOM     67  C   UNL     1      -0.498  -4.124   4.872  1.00  0.00     0.074 A 
ATOM     68  C   UNL     1      -1.702  -4.761   4.358  1.00  0.00     0.031 C 
ATOM     69  C   UNL     1      -0.326  -3.028   5.664  1.00  0.00     0.037 A 
BRANCH  56  70
ATOM     70  C   UNL     1      -5.599  -2.347   4.582  1.00  0.00     0.064 A 
ATOM     71  C   UNL     1      -6.256  -2.420   5.816  1.00  0.00     0.173 A 
ATOM     72  C   UNL     1      -6.027  -3.260   3.589  1.00  0.00     0.173 A 
ATOM     73  F   UNL     1      -5.868  -1.645   6.839  1.00  0.00    -0.203 F 
ATOM     74  C   UNL     1      -7.287  -3.338   6.037  1.00  0.00     0.198 A 
ATOM     75  C   UNL     1      -7.088  -4.134   3.793  1.00  0.00     0.198 A 
ATOM     76  F   UNL     1      -5.370  -3.385   2.425  1.00  0.00    -0.203 F 
ATOM     77  F   UNL     1      -7.842  -3.434   7.252  1.00  0.00    -0.200 F 
ATOM     78  C   UNL     1      -7.710  -4.184   5.023  1.00  0.00     0.200 A 
ATOM     79  F   UNL     1      -7.462  -4.963   2.808  1.00  0.00    -0.200 F 
ATOM     80  F   UNL     1      -8.682  -5.078   5.244  1.00  0.00    -0.200 F 
ENDBRANCH  56  70
BRANCH  57  81
ATOM     81  C   UNL     1       0.730  -6.521   1.000  1.00  0.00     0.064 A 
ATOM     82  C   UNL     1       1.078  -7.679   1.713  1.00  0.00     0.173 A 
ATOM     83  C   UNL     1       0.392  -6.707  -0.356  1.00  0.00     0.173 A 
ATOM     84  F   UNL     1       1.345  -7.609   3.025  1.00  0.00    -0.203 F 
ATOM     85  C   UNL     1       1.103  -8.939   1.105  1.00  0.00     0.198 A 
ATOM     86  C   UNL     1       0.445  -7.959  -0.970  1.00  0.00     0.198 A 
ATOM     87  F   UNL     1      -0.081  -5.696  -1.099  1.00  0.00    -0.203 F 
ATOM     88  F   UNL     1       1.389 -10.027   1.834  1.00  0.00    -0.200 F 
ATOM     89  C   UNL     1       0.793  -9.077  -0.238  1.00  0.00     0.200 A 
ATOM     90  F   UNL     1       0.106  -8.081  -2.262  1.00  0.00    -0.200 F 
ATOM     91  F   UNL     1       0.789 -10.287  -0.814  1.00  0.00    -0.200 F 
ENDBRANCH  57  81
BRANCH  69  92
ATOM     92  C   UNL     1       1.077  -2.569   5.929  1.00  0.00     0.064 A 
ATOM     93  C   UNL     1       1.939  -2.099   4.923  1.00  0.00     0.173 A 
ATOM     94  C   UNL     1       1.513  -2.467   7.256  1.00  0.00     0.173 A 
ATOM     95  F   UNL     1       1.545  -2.057   3.644  1.00  0.00    -0.203 F 
ATOM     96  C   UNL     1       3.204  -1.604   5.232  1.00  0.00     0.198 A 
ATOM     97  C   UNL     1       2.764  -1.937   7.564  1.00  0.00     0.198 A 
ATOM     98  F   UNL     1       0.704  -2.838   8.261  1.00  0.00    -0.203 F 
ATOM     99  F   UNL     1       4.012  -1.173   4.252  1.00  0.00    -0.200 F 
ATOM    100  C   UNL     1       3.613  -1.519   6.552  1.00  0.00     0.200 A 
ATOM    101  F   UNL     1       3.135  -1.806   8.845  1.00  0.00    -0.200 F 
ATOM    102  F   UNL     1       4.814  -1.004   6.851  1.00  0.00    -0.200 F 
ENDBRANCH  69  92
ENDBRANCH  43  44
ENDBRANCH  36  38
ENDBRANCH  35  36
ENDBRANCH  34  35
ENDBRANCH  33  34
ENDBRANCH  32  33
ENDBRANCH  31  32
ENDBRANCH   1  31
TORSDOF 24
