REMARK SMILES C[C@H]1CN([C@@H](C(=O)OCCOCCOCCOC(=O)c2ccc(-c3c4nc(c(-c5c(F)c(F)c(F)c(F)c5F)c5ccc([nH]5)c(-c5c(F)c(F)c(F)c(F)c5F)c5nc(c(-c6c(F)c(F)c(F)c(F)c6F)c6ccc3[nH]6)C=C5)C=C4)cc2)C(C)(C)C)S(=O)(=O)C1
REMARK SMILES IDX 13 1 12 2 11 3 10 4 9 5 8 6 6 7 7 8 5 9 4 10 1 11 2 12 3 13
REMARK SMILES IDX 90 14 87 15 88 16 89 17 83 18 84 19 85 20 86 21 14 22 15 23
REMARK SMILES IDX 16 24 17 25 18 26 19 27 20 28 21 29 82 30 22 31 81 32 23 33
REMARK SMILES IDX 24 34 25 35 75 36 26 37 80 38 74 39 76 40 27 41 79 42 73 43
REMARK SMILES IDX 72 44 28 46 60 47 40 48 59 49 41 50 44 51 58 52 77 53 42 54
REMARK SMILES IDX 43 55 57 57 78 58 45 59 29 60 30 61 38 62 31 63 32 64 36 65
REMARK SMILES IDX 39 66 33 67 34 68 37 69 35 70 61 71 62 72 70 73 63 74 64 75
REMARK SMILES IDX 68 76 71 77 65 78 66 79 69 80 67 81 46 82 47 83 55 84 48 85
REMARK SMILES IDX 49 86 53 87 56 88 50 89 51 90 54 91 52 92
REMARK H PARENT 76 45 44 56
REMARK Flexibility Score: inf
ROOT
ATOM      1  C   UNL     1       0.092  -3.339  -2.771  1.00  0.00     0.188 C 
ENDROOT
BRANCH   1   2
ATOM      2  C   UNL     1      -1.019  -4.088  -3.521  1.00  0.00     0.188 C 
BRANCH   2   3
ATOM      3  O   UNL     1      -1.859  -3.361  -4.414  1.00  0.00    -0.376 OA
BRANCH   3   4
ATOM      4  C   UNL     1      -2.249  -2.039  -4.058  1.00  0.00     0.202 C 
BRANCH   4   5
ATOM      5  C   UNL     1      -3.164  -1.923  -2.841  1.00  0.00     0.261 C 
BRANCH   5   6
ATOM      6  O   UNL     1      -2.489  -2.345  -1.642  1.00  0.00    -0.462 OA
BRANCH   6   7
ATOM      7  C   UNL     1      -3.203  -3.087  -0.752  1.00  0.00     0.325 C 
ATOM      8  O   UNL     1      -4.389  -3.349  -0.925  1.00  0.00    -0.250 OA
BRANCH   7   9
ATOM      9  C   UNL     1      -2.394  -3.483   0.536  1.00  0.00     0.188 C 
BRANCH   9  10
ATOM     10  N   UNL     1      -1.031  -2.806   0.514  1.00  0.00    -0.187 NA
ATOM     11  C   UNL     1       0.482  -0.169  -0.884  1.00  0.00     0.010 C 
ATOM     12  C   UNL     1       0.362  -0.802   0.504  1.00  0.00     0.017 C 
ATOM     13  C   UNL     1      -1.067  -1.329   0.783  1.00  0.00     0.107 C 
ATOM     14  C   UNL     1       1.351  -1.959   0.696  1.00  0.00     0.159 C 
ATOM     15  S   UNL     1       0.392  -3.340   1.258  1.00  0.00     0.215 S 
ATOM     16  O   UNL     1       0.236  -3.224   2.688  1.00  0.00    -0.212 OA
ATOM     17  O   UNL     1       0.889  -4.529   0.617  1.00  0.00    -0.212 OA
ENDBRANCH   9  10
BRANCH   9  18
ATOM     18  C   UNL     1      -2.499  -5.038   0.869  1.00  0.00    -0.011 C 
ATOM     19  C   UNL     1      -2.352  -5.256   2.393  1.00  0.00     0.013 C 
ATOM     20  C   UNL     1      -3.911  -5.604   0.537  1.00  0.00     0.013 C 
ATOM     21  C   UNL     1      -1.521  -5.968   0.132  1.00  0.00     0.013 C 
ENDBRANCH   9  18
ENDBRANCH   7   9
ENDBRANCH   6   7
ENDBRANCH   5   6
ENDBRANCH   4   5
ENDBRANCH   3   4
ENDBRANCH   2   3
ENDBRANCH   1   2
BRANCH   1  22
ATOM     22  O   UNL     1       0.732  -2.252  -3.425  1.00  0.00    -0.376 OA
BRANCH  22  23
ATOM     23  C   UNL     1       1.271  -2.502  -4.716  1.00  0.00     0.202 C 
BRANCH  23  24
ATOM     24  C   UNL     1       2.623  -3.206  -4.670  1.00  0.00     0.261 C 
BRANCH  24  25
ATOM     25  O   UNL     1       2.447  -4.609  -4.400  1.00  0.00    -0.460 OA
BRANCH  25  26
ATOM     26  C   UNL     1       2.957  -5.042  -3.224  1.00  0.00     0.338 C 
ATOM     27  O   UNL     1       3.595  -4.399  -2.408  1.00  0.00    -0.246 OA
BRANCH  26  28
ATOM     28  C   UNL     1       2.455  -6.403  -2.962  1.00  0.00     0.060 A 
ATOM     29  C   UNL     1       1.824  -6.630  -1.738  1.00  0.00     0.016 A 
ATOM     30  C   UNL     1       2.643  -7.449  -3.863  1.00  0.00     0.016 A 
ATOM     31  C   UNL     1       1.402  -7.903  -1.380  1.00  0.00     0.010 A 
ATOM     32  C   UNL     1       2.236  -8.737  -3.501  1.00  0.00     0.010 A 
ATOM     33  C   UNL     1       1.640  -8.972  -2.246  1.00  0.00    -0.014 A 
BRANCH  33  34
ATOM     34  C   UNL     1       1.442 -10.352  -1.754  1.00  0.00     0.031 A 
ATOM     35  C   UNL     1       2.651 -11.134  -1.328  1.00  0.00     0.074 A 
ATOM     36  C   UNL     1       0.211 -10.874  -1.629  1.00  0.00     0.049 A 
ATOM     37  N   UNL     1       2.757 -12.395  -1.002  1.00  0.00    -0.248 NA
ATOM     38  C   UNL     1       3.916 -10.383  -1.259  1.00  0.00     0.031 C 
ATOM     39  C   UNL     1      -1.039 -10.165  -1.895  1.00  0.00     0.029 A 
ATOM     40  N   UNL     1      -0.188 -12.130  -1.249  1.00  0.00    -0.354 N 
ATOM     41  C   UNL     1       4.102 -12.596  -0.720  1.00  0.00     0.074 A 
ATOM     42  C   UNL     1       4.776 -11.332  -0.923  1.00  0.00     0.031 C 
ATOM     43  C   UNL     1      -2.068 -11.003  -1.686  1.00  0.00     0.029 A 
ATOM     44  C   UNL     1      -1.544 -12.321  -1.333  1.00  0.00     0.049 A 
ATOM     45  H   UNL     1       0.438 -12.827  -0.946  1.00  0.00     0.167 HD
ATOM     46  C   UNL     1       4.715 -13.738  -0.329  1.00  0.00     0.037 A 
ATOM     47  C   UNL     1      -2.268 -13.448  -1.189  1.00  0.00     0.037 A 
ATOM     48  C   UNL     1       4.023 -14.983  -0.121  1.00  0.00     0.049 A 
ATOM     49  C   UNL     1      -1.550 -14.734  -0.864  1.00  0.00     0.074 A 
ATOM     50  C   UNL     1       4.541 -16.209   0.253  1.00  0.00     0.029 A 
ATOM     51  N   UNL     1       2.653 -15.155  -0.272  1.00  0.00    -0.354 N 
ATOM     52  N   UNL     1      -0.273 -14.940  -0.646  1.00  0.00    -0.248 NA
ATOM     53  C   UNL     1      -2.374 -15.946  -0.773  1.00  0.00     0.031 C 
ATOM     54  C   UNL     1       3.494 -17.137   0.269  1.00  0.00     0.029 A 
ATOM     55  C   UNL     1       2.312 -16.475  -0.027  1.00  0.00     0.049 A 
ATOM     56  H   UNL     1       2.018 -14.444  -0.518  1.00  0.00     0.167 HD
ATOM     57  C   UNL     1      -0.144 -16.293  -0.363  1.00  0.00     0.074 A 
ATOM     58  C   UNL     1      -1.477 -16.857  -0.422  1.00  0.00     0.031 C 
ATOM     59  C   UNL     1       0.974 -17.009  -0.082  1.00  0.00     0.037 A 
BRANCH  46  60
ATOM     60  C   UNL     1       6.207 -13.703  -0.168  1.00  0.00     0.064 A 
ATOM     61  C   UNL     1       6.831 -12.999   0.873  1.00  0.00     0.173 A 
ATOM     62  C   UNL     1       7.027 -14.392  -1.075  1.00  0.00     0.173 A 
ATOM     63  F   UNL     1       6.096 -12.307   1.757  1.00  0.00    -0.203 F 
ATOM     64  C   UNL     1       8.220 -12.958   0.978  1.00  0.00     0.198 A 
ATOM     65  C   UNL     1       8.413 -14.377  -0.947  1.00  0.00     0.198 A 
ATOM     66  F   UNL     1       6.484 -15.082  -2.089  1.00  0.00    -0.203 F 
ATOM     67  F   UNL     1       8.796 -12.229   1.944  1.00  0.00    -0.200 F 
ATOM     68  C   UNL     1       9.009 -13.652   0.073  1.00  0.00     0.200 A 
ATOM     69  F   UNL     1       9.172 -15.059  -1.816  1.00  0.00    -0.200 F 
ATOM     70  F   UNL     1      10.345 -13.614   0.177  1.00  0.00    -0.200 F 
ENDBRANCH  46  60
BRANCH  47  71
ATOM     71  C   UNL     1      -3.741 -13.426  -1.403  1.00  0.00     0.064 A 
ATOM     72  C   UNL     1      -4.631 -13.705  -0.356  1.00  0.00     0.173 A 
ATOM     73  C   UNL     1      -4.289 -13.157  -2.667  1.00  0.00     0.173 A 
ATOM     74  F   UNL     1      -4.159 -13.997   0.865  1.00  0.00    -0.203 F 
ATOM     75  C   UNL     1      -6.008 -13.738  -0.571  1.00  0.00     0.198 A 
ATOM     76  C   UNL     1      -5.667 -13.156  -2.872  1.00  0.00     0.198 A 
ATOM     77  F   UNL     1      -3.484 -12.891  -3.706  1.00  0.00    -0.203 F 
ATOM     78  F   UNL     1      -6.832 -14.065   0.434  1.00  0.00    -0.200 F 
ATOM     79  C   UNL     1      -6.525 -13.457  -1.826  1.00  0.00     0.200 A 
ATOM     80  F   UNL     1      -6.161 -12.872  -4.085  1.00  0.00    -0.200 F 
ATOM     81  F   UNL     1      -7.849 -13.489  -2.031  1.00  0.00    -0.200 F 
ENDBRANCH  47  71
BRANCH  59  82
ATOM     82  C   UNL     1       0.797 -18.468   0.230  1.00  0.00     0.064 A 
ATOM     83  C   UNL     1       0.436 -19.398  -0.756  1.00  0.00     0.173 A 
ATOM     84  C   UNL     1       1.033 -18.947   1.528  1.00  0.00     0.173 A 
ATOM     85  F   UNL     1       0.186 -18.990  -2.010  1.00  0.00    -0.203 F 
ATOM     86  C   UNL     1       0.288 -20.747  -0.447  1.00  0.00     0.198 A 
ATOM     87  C   UNL     1       0.920 -20.301   1.825  1.00  0.00     0.198 A 
ATOM     88  F   UNL     1       1.390 -18.101   2.507  1.00  0.00    -0.203 F 
ATOM     89  F   UNL     1      -0.112 -21.609  -1.392  1.00  0.00    -0.200 F 
ATOM     90  C   UNL     1       0.539 -21.199   0.840  1.00  0.00     0.200 A 
ATOM     91  F   UNL     1       1.182 -20.738   3.065  1.00  0.00    -0.200 F 
ATOM     92  F   UNL     1       0.405 -22.500   1.133  1.00  0.00    -0.200 F 
ENDBRANCH  59  82
ENDBRANCH  33  34
ENDBRANCH  26  28
ENDBRANCH  25  26
ENDBRANCH  24  25
ENDBRANCH  23  24
ENDBRANCH  22  23
ENDBRANCH   1  22
TORSDOF 19
