REMARK SMILES Cc1ccccc1OCC(=O)c1nc(C)c(C(=O)OCCOCCOCCOC(=O)c2ccc(-c3c4nc(c(-c5c(F)c(F)c(F)c(F)c5F)c5ccc([nH]5)c(-c5c(F)c(F)c(F)c(F)c5F)c5nc(c(-c6c(F)c(F)c(F)c(F)c6F)c6ccc3[nH]6)C=C5)C=C4)cc2)s1
REMARK SMILES IDX 23 1 22 2 21 3 20 4 19 5 17 6 18 7 16 8 12 9 13 10 94 11
REMARK SMILES IDX 14 12 15 13 10 14 11 15 9 16 8 17 7 18 1 19 2 20 3 21 4 22
REMARK SMILES IDX 6 23 5 24 24 25 25 26 26 27 27 28 28 29 29 30 30 31 31 32
REMARK SMILES IDX 32 33 93 34 33 35 92 36 34 37 35 38 36 39 86 40 37 41 91 42
REMARK SMILES IDX 85 43 87 44 38 45 90 46 84 47 83 48 39 50 71 51 51 52 70 53
REMARK SMILES IDX 52 54 55 55 69 56 88 57 53 58 54 59 68 61 89 62 56 63 40 64
REMARK SMILES IDX 41 65 49 66 42 67 43 68 47 69 50 70 44 71 45 72 48 73 46 74
REMARK SMILES IDX 72 75 73 76 81 77 74 78 75 79 79 80 82 81 76 82 77 83 80 84
REMARK SMILES IDX 78 85 57 86 58 87 66 88 59 89 60 90 64 91 67 92 61 93 62 94
REMARK SMILES IDX 65 95 63 96
REMARK H PARENT 87 49 55 60
REMARK Flexibility Score: inf
ROOT
ATOM      1  C   UNL     1      -2.179   8.065   5.869  1.00  0.00     0.188 C 
ENDROOT
BRANCH   1   2
ATOM      2  O   UNL     1      -2.416   6.657   5.907  1.00  0.00    -0.376 OA
BRANCH   2   3
ATOM      3  C   UNL     1      -1.867   5.995   7.028  1.00  0.00     0.202 C 
BRANCH   3   4
ATOM      4  C   UNL     1      -0.457   5.523   6.730  1.00  0.00     0.261 C 
BRANCH   4   5
ATOM      5  O   UNL     1      -0.186   5.050   5.300  1.00  0.00    -0.459 OA
BRANCH   5   6
ATOM      6  C   UNL     1       0.088   4.523   4.091  1.00  0.00     0.350 C 
ATOM      7  O   UNL     1      -0.089   5.287   3.141  1.00  0.00    -0.245 OA
BRANCH   6   8
ATOM      8  C   UNL     1       0.502   3.102   3.846  1.00  0.00     0.136 A 
ATOM      9  C   UNL     1       1.096   1.440   2.160  1.00  0.00     0.164 A 
ATOM     10  N   UNL     1       1.222   0.936   3.362  1.00  0.00    -0.237 NA
ATOM     11  S   UNL     1      -0.149   2.591   2.236  1.00  0.00    -0.103 S 
ATOM     12  C   UNL     1       1.461   2.068   4.117  1.00  0.00     0.064 A 
ATOM     13  C   UNL     1       2.857   1.941   4.674  1.00  0.00     0.068 C 
BRANCH   9  14
ATOM     14  C   UNL     1       2.178   1.486   1.184  1.00  0.00     0.228 C 
ATOM     15  O   UNL     1       3.312   1.046   1.419  1.00  0.00    -0.288 OA
BRANCH  14  16
ATOM     16  C   UNL     1       1.936   2.247  -0.130  1.00  0.00     0.313 C 
BRANCH  16  17
ATOM     17  O   UNL     1       0.962   1.879  -1.092  1.00  0.00    -0.485 OA
BRANCH  17  18
ATOM     18  C   UNL     1       0.268   0.737  -0.811  1.00  0.00     0.122 A 
ATOM     19  C   UNL     1       2.309  -0.804  -0.976  1.00  0.00     0.048 C 
ATOM     20  C   UNL     1       0.853  -0.533  -0.720  1.00  0.00    -0.009 A 
ATOM     21  C   UNL     1       0.039  -1.612  -0.343  1.00  0.00     0.007 A 
ATOM     22  C   UNL     1      -1.327  -1.439  -0.114  1.00  0.00     0.001 A 
ATOM     23  C   UNL     1      -1.109   0.902  -0.625  1.00  0.00     0.047 A 
ATOM     24  C   UNL     1      -1.905  -0.182  -0.264  1.00  0.00     0.004 A 
ENDBRANCH  17  18
ENDBRANCH  16  17
ENDBRANCH  14  16
ENDBRANCH   9  14
ENDBRANCH   6   8
ENDBRANCH   5   6
ENDBRANCH   4   5
ENDBRANCH   3   4
ENDBRANCH   2   3
ENDBRANCH   1   2
BRANCH   1  25
ATOM     25  C   UNL     1      -0.705   8.496   5.873  1.00  0.00     0.188 C 
BRANCH  25  26
ATOM     26  O   UNL     1      -0.152   8.332   7.185  1.00  0.00    -0.376 OA
BRANCH  26  27
ATOM     27  C   UNL     1       0.356   9.483   7.841  1.00  0.00     0.202 C 
BRANCH  27  28
ATOM     28  C   UNL     1       1.597  10.086   7.175  1.00  0.00     0.261 C 
BRANCH  28  29
ATOM     29  O   UNL     1       2.668   9.135   7.292  1.00  0.00    -0.460 OA
BRANCH  29  30
ATOM     30  C   UNL     1       2.924   8.428   6.168  1.00  0.00     0.338 C 
ATOM     31  O   UNL     1       2.848   8.843   5.023  1.00  0.00    -0.246 OA
BRANCH  30  32
ATOM     32  C   UNL     1       3.021   6.988   6.528  1.00  0.00     0.060 A 
ATOM     33  C   UNL     1       2.942   6.081   5.492  1.00  0.00     0.016 A 
ATOM     34  C   UNL     1       2.914   6.512   7.841  1.00  0.00     0.016 A 
ATOM     35  C   UNL     1       2.573   4.761   5.773  1.00  0.00     0.010 A 
ATOM     36  C   UNL     1       2.504   5.187   8.095  1.00  0.00     0.010 A 
ATOM     37  C   UNL     1       2.206   4.298   7.051  1.00  0.00    -0.014 A 
BRANCH  37  38
ATOM     38  C   UNL     1       1.484   3.006   7.431  1.00  0.00     0.031 A 
ATOM     39  C   UNL     1       2.301   1.869   7.952  1.00  0.00     0.074 A 
ATOM     40  C   UNL     1       0.156   2.639   7.412  1.00  0.00     0.049 A 
ATOM     41  N   UNL     1       1.883   0.637   8.018  1.00  0.00    -0.248 NA
ATOM     42  C   UNL     1       3.721   2.017   8.257  1.00  0.00     0.031 C 
ATOM     43  C   UNL     1      -0.445   1.877   8.520  1.00  0.00     0.029 A 
ATOM     44  N   UNL     1      -0.977   2.927   6.648  1.00  0.00    -0.354 N 
ATOM     45  C   UNL     1       2.814  -0.033   8.758  1.00  0.00     0.074 A 
ATOM     46  C   UNL     1       4.008   0.750   8.564  1.00  0.00     0.031 C 
ATOM     47  C   UNL     1      -1.739   1.643   8.273  1.00  0.00     0.029 A 
ATOM     48  C   UNL     1      -2.074   2.144   6.954  1.00  0.00     0.049 A 
ATOM     49  H   UNL     1      -0.993   3.625   5.954  1.00  0.00     0.167 HD
ATOM     50  C   UNL     1       2.414  -0.958   9.683  1.00  0.00     0.037 A 
ATOM     51  C   UNL     1      -3.080   1.724   6.133  1.00  0.00     0.037 A 
ATOM     52  C   UNL     1       0.969  -1.299   9.598  1.00  0.00     0.049 A 
ATOM     53  C   UNL     1      -3.200   0.219   6.218  1.00  0.00     0.074 A 
ATOM     54  C   UNL     1      -0.097  -1.155  10.479  1.00  0.00     0.029 A 
ATOM     55  N   UNL     1       0.390  -1.753   8.411  1.00  0.00    -0.354 N 
ATOM     56  N   UNL     1      -2.613  -0.462   7.157  1.00  0.00    -0.248 NA
ATOM     57  C   UNL     1      -3.805  -0.658   5.213  1.00  0.00     0.031 C 
ATOM     58  C   UNL     1      -1.279  -1.647   9.861  1.00  0.00     0.029 A 
ATOM     59  C   UNL     1      -0.958  -2.060   8.583  1.00  0.00     0.049 A 
ATOM     60  H   UNL     1       0.874  -1.844   7.558  1.00  0.00     0.167 HD
ATOM     61  C   UNL     1      -2.542  -1.768   6.800  1.00  0.00     0.074 A 
ATOM     62  C   UNL     1      -3.351  -1.864   5.601  1.00  0.00     0.031 C 
ATOM     63  C   UNL     1      -1.749  -2.631   7.493  1.00  0.00     0.037 A 
BRANCH  50  64
ATOM     64  C   UNL     1       3.261  -1.324  10.918  1.00  0.00     0.064 A 
ATOM     65  C   UNL     1       2.703  -2.099  11.961  1.00  0.00     0.173 A 
ATOM     66  C   UNL     1       4.571  -0.872  11.206  1.00  0.00     0.173 A 
ATOM     67  F   UNL     1       1.533  -2.734  11.813  1.00  0.00    -0.203 F 
ATOM     68  C   UNL     1       3.329  -2.273  13.204  1.00  0.00     0.198 A 
ATOM     69  C   UNL     1       5.197  -1.045  12.443  1.00  0.00     0.198 A 
ATOM     70  F   UNL     1       5.351  -0.268  10.314  1.00  0.00    -0.203 F 
ATOM     71  F   UNL     1       2.712  -2.974  14.164  1.00  0.00    -0.200 F 
ATOM     72  C   UNL     1       4.566  -1.724  13.454  1.00  0.00     0.200 A 
ATOM     73  F   UNL     1       6.423  -0.536  12.635  1.00  0.00    -0.200 F 
ATOM     74  F   UNL     1       5.160  -1.870  14.645  1.00  0.00    -0.200 F 
ENDBRANCH  50  64
BRANCH  51  75
ATOM     75  C   UNL     1      -3.480   2.571   4.976  1.00  0.00     0.064 A 
ATOM     76  C   UNL     1      -4.072   3.825   5.229  1.00  0.00     0.173 A 
ATOM     77  C   UNL     1      -3.240   2.265   3.635  1.00  0.00     0.173 A 
ATOM     78  F   UNL     1      -4.450   4.140   6.478  1.00  0.00    -0.203 F 
ATOM     79  C   UNL     1      -4.282   4.769   4.218  1.00  0.00     0.198 A 
ATOM     80  C   UNL     1      -3.467   3.204   2.617  1.00  0.00     0.198 A 
ATOM     81  F   UNL     1      -2.736   1.073   3.291  1.00  0.00    -0.203 F 
ATOM     82  F   UNL     1      -4.816   5.964   4.508  1.00  0.00    -0.200 F 
ATOM     83  C   UNL     1      -3.939   4.471   2.914  1.00  0.00     0.200 A 
ATOM     84  F   UNL     1      -3.189   2.887   1.343  1.00  0.00    -0.200 F 
ATOM     85  F   UNL     1      -4.076   5.387   1.946  1.00  0.00    -0.200 F 
ENDBRANCH  51  75
BRANCH  63  86
ATOM     86  C   UNL     1      -1.710  -4.098   7.212  1.00  0.00     0.064 A 
ATOM     87  C   UNL     1      -2.867  -4.841   6.921  1.00  0.00     0.173 A 
ATOM     88  C   UNL     1      -0.517  -4.830   7.365  1.00  0.00     0.173 A 
ATOM     89  F   UNL     1      -4.067  -4.247   6.838  1.00  0.00    -0.203 F 
ATOM     90  C   UNL     1      -2.823  -6.223   6.744  1.00  0.00     0.198 A 
ATOM     91  C   UNL     1      -0.486  -6.216   7.237  1.00  0.00     0.198 A 
ATOM     92  F   UNL     1       0.645  -4.218   7.632  1.00  0.00    -0.203 F 
ATOM     93  F   UNL     1      -3.942  -6.889   6.423  1.00  0.00    -0.200 F 
ATOM     94  C   UNL     1      -1.635  -6.912   6.914  1.00  0.00     0.200 A 
ATOM     95  F   UNL     1       0.665  -6.875   7.434  1.00  0.00    -0.200 F 
ATOM     96  F   UNL     1      -1.600  -8.243   6.773  1.00  0.00    -0.200 F 
ENDBRANCH  63  86
ENDBRANCH  37  38
ENDBRANCH  30  32
ENDBRANCH  29  30
ENDBRANCH  28  29
ENDBRANCH  27  28
ENDBRANCH  26  27
ENDBRANCH  25  26
ENDBRANCH   1  25
TORSDOF 21
