REMARK SMILES CS(=O)(=O)c1ccc(N2N=C(C(=O)OCCOCCOCCOC(=O)c3ccc(-c4c5nc(c(-c6c(F)c(F)c(F)c(F)c6F)c6ccc([nH]6)c(-c6c(F)c(F)c(F)c(F)c6F)c6nc(c(-c7c(F)c(F)c(F)c(F)c7F)c7ccc4[nH]7)C=C6)C=C5)cc3)C[C@H]2c2ccco2)cc1
REMARK SMILES IDX 18 1 17 2 16 3 15 4 14 5 12 6 13 7 11 8 9 9 10 10 90 11
REMARK SMILES IDX 89 12 8 13 5 14 6 15 97 16 7 17 96 18 2 19 1 20 3 21 4 22
REMARK SMILES IDX 91 23 92 24 95 25 93 26 94 27 19 28 20 29 21 30 22 31 23 32
REMARK SMILES IDX 24 33 25 34 26 35 27 36 88 37 28 38 87 39 29 40 30 41 31 42
REMARK SMILES IDX 81 43 32 44 86 45 80 46 82 47 33 48 85 49 79 50 78 51 34 53
REMARK SMILES IDX 66 54 46 55 65 56 47 57 50 58 64 59 83 60 48 61 49 62 63 64
REMARK SMILES IDX 84 65 51 66 35 67 36 68 44 69 37 70 38 71 42 72 45 73 39 74
REMARK SMILES IDX 40 75 43 76 41 77 67 78 68 79 76 80 69 81 70 82 74 83 77 84
REMARK SMILES IDX 71 85 72 86 75 87 73 88 52 89 53 90 61 91 54 92 55 93 59 94
REMARK SMILES IDX 62 95 56 96 57 97 60 98 58 99
REMARK H PARENT 82 52 50 63
REMARK Flexibility Score: inf
ROOT
ATOM      1  C   UNL     1       4.432   3.933   8.469  1.00  0.00     0.188 C 
ENDROOT
BRANCH   1   2
ATOM      2  O   UNL     1       5.431   4.386   9.367  1.00  0.00    -0.376 OA
BRANCH   2   3
ATOM      3  C   UNL     1       5.323   5.669   9.969  1.00  0.00     0.202 C 
BRANCH   3   4
ATOM      4  C   UNL     1       4.866   6.895   9.161  1.00  0.00     0.261 C 
BRANCH   4   5
ATOM      5  O   UNL     1       3.718   6.668   8.331  1.00  0.00    -0.459 OA
BRANCH   5   6
ATOM      6  C   UNL     1       3.895   6.890   7.012  1.00  0.00     0.354 C 
ATOM      7  O   UNL     1       4.861   7.379   6.458  1.00  0.00    -0.245 OA
BRANCH   6   8
ATOM      8  C   UNL     1       2.740   6.292   6.245  1.00  0.00     0.148 C 
ATOM      9  N   UNL     1       1.646   5.181   4.813  1.00  0.00    -0.254 N 
ATOM     10  N   UNL     1       2.900   5.402   5.308  1.00  0.00    -0.169 NA
ATOM     11  C   UNL     1       0.667   6.180   5.293  1.00  0.00     0.180 C 
ATOM     12  C   UNL     1       1.327   6.622   6.607  1.00  0.00     0.101 C 
BRANCH   9  13
ATOM     13  C   UNL     1       1.473   4.387   3.686  1.00  0.00     0.060 A 
ATOM     14  C   UNL     1       0.887   2.755   1.458  1.00  0.00     0.067 A 
ATOM     15  C   UNL     1       1.098   2.170   2.706  1.00  0.00     0.022 A 
ATOM     16  C   UNL     1       1.037   4.134   1.299  1.00  0.00     0.022 A 
ATOM     17  C   UNL     1       1.393   2.990   3.808  1.00  0.00     0.029 A 
ATOM     18  C   UNL     1       1.344   4.932   2.404  1.00  0.00     0.029 A 
BRANCH  14  19
ATOM     19  S   UNL     1       0.374   1.809   0.042  1.00  0.00     0.175 S 
ATOM     20  C   UNL     1       1.068   0.191   0.201  1.00  0.00     0.163 C 
ATOM     21  O   UNL     1       0.992   2.421  -1.121  1.00  0.00    -0.224 OA
ATOM     22  O   UNL     1      -1.068   1.689   0.141  1.00  0.00    -0.224 OA
ENDBRANCH  14  19
ENDBRANCH   9  13
BRANCH  11  23
ATOM     23  C   UNL     1       0.387   7.366   4.413  1.00  0.00     0.128 A 
ATOM     24  C   UNL     1      -0.475   7.576   3.353  1.00  0.00     0.048 A 
ATOM     25  O   UNL     1       1.083   8.516   4.665  1.00  0.00    -0.467 OA
ATOM     26  C   UNL     1      -0.273   8.911   2.927  1.00  0.00     0.042 A 
ATOM     27  C   UNL     1       0.669   9.446   3.771  1.00  0.00     0.195 A 
ENDBRANCH  11  23
ENDBRANCH   6   8
ENDBRANCH   5   6
ENDBRANCH   4   5
ENDBRANCH   3   4
ENDBRANCH   2   3
ENDBRANCH   1   2
BRANCH   1  28
ATOM     28  C   UNL     1       2.950   3.943   8.896  1.00  0.00     0.188 C 
BRANCH  28  29
ATOM     29  O   UNL     1       2.650   4.562  10.122  1.00  0.00    -0.376 OA
BRANCH  29  30
ATOM     30  C   UNL     1       2.711   3.815  11.327  1.00  0.00     0.202 C 
BRANCH  30  31
ATOM     31  C   UNL     1       3.218   2.363  11.477  1.00  0.00     0.261 C 
BRANCH  31  32
ATOM     32  O   UNL     1       3.725   1.685  10.325  1.00  0.00    -0.460 OA
BRANCH  32  33
ATOM     33  C   UNL     1       2.889   0.802   9.724  1.00  0.00     0.338 C 
ATOM     34  O   UNL     1       1.734   0.549  10.022  1.00  0.00    -0.246 OA
BRANCH  33  35
ATOM     35  C   UNL     1       3.554   0.309   8.503  1.00  0.00     0.060 A 
ATOM     36  C   UNL     1       3.123   0.771   7.251  1.00  0.00     0.016 A 
ATOM     37  C   UNL     1       4.617  -0.588   8.601  1.00  0.00     0.016 A 
ATOM     38  C   UNL     1       3.777   0.356   6.090  1.00  0.00     0.010 A 
ATOM     39  C   UNL     1       5.248  -1.028   7.435  1.00  0.00     0.010 A 
ATOM     40  C   UNL     1       4.830  -0.562   6.175  1.00  0.00    -0.014 A 
BRANCH  40  41
ATOM     41  C   UNL     1       5.442  -1.125   4.949  1.00  0.00     0.031 A 
ATOM     42  C   UNL     1       5.024  -2.491   4.492  1.00  0.00     0.074 A 
ATOM     43  C   UNL     1       6.383  -0.444   4.272  1.00  0.00     0.049 A 
ATOM     44  N   UNL     1       5.519  -3.239   3.539  1.00  0.00    -0.248 NA
ATOM     45  C   UNL     1       3.889  -3.096   5.207  1.00  0.00     0.031 C 
ATOM     46  C   UNL     1       6.831   0.911   4.582  1.00  0.00     0.029 A 
ATOM     47  N   UNL     1       7.150  -0.817   3.195  1.00  0.00    -0.354 N 
ATOM     48  C   UNL     1       4.772  -4.408   3.552  1.00  0.00     0.074 A 
ATOM     49  C   UNL     1       3.798  -4.278   4.615  1.00  0.00     0.031 C 
ATOM     50  C   UNL     1       7.818   1.248   3.733  1.00  0.00     0.029 A 
ATOM     51  C   UNL     1       8.102   0.114   2.855  1.00  0.00     0.049 A 
ATOM     52  H   UNL     1       7.030  -1.667   2.715  1.00  0.00     0.167 HD
ATOM     53  C   UNL     1       4.891  -5.491   2.748  1.00  0.00     0.037 A 
ATOM     54  C   UNL     1       9.112   0.039   1.966  1.00  0.00     0.037 A 
ATOM     55  C   UNL     1       5.872  -5.617   1.701  1.00  0.00     0.049 A 
ATOM     56  C   UNL     1       9.293  -1.222   1.157  1.00  0.00     0.074 A 
ATOM     57  C   UNL     1       6.056  -6.663   0.815  1.00  0.00     0.029 A 
ATOM     58  N   UNL     1       6.846  -4.672   1.412  1.00  0.00    -0.354 N 
ATOM     59  N   UNL     1       8.566  -2.314   1.149  1.00  0.00    -0.248 NA
ATOM     60  C   UNL     1      10.440  -1.263   0.237  1.00  0.00     0.031 C 
ATOM     61  C   UNL     1       7.183  -6.382   0.035  1.00  0.00     0.029 A 
ATOM     62  C   UNL     1       7.660  -5.130   0.389  1.00  0.00     0.049 A 
ATOM     63  H   UNL     1       6.944  -3.804   1.867  1.00  0.00     0.167 HD
ATOM     64  C   UNL     1       9.151  -3.157   0.211  1.00  0.00     0.074 A 
ATOM     65  C   UNL     1      10.282  -2.445  -0.343  1.00  0.00     0.031 C 
ATOM     66  C   UNL     1       8.783  -4.410  -0.157  1.00  0.00     0.037 A 
BRANCH  53  67
ATOM     67  C   UNL     1       3.962  -6.644   2.992  1.00  0.00     0.064 A 
ATOM     68  C   UNL     1       2.592  -6.564   2.704  1.00  0.00     0.173 A 
ATOM     69  C   UNL     1       4.459  -7.860   3.487  1.00  0.00     0.173 A 
ATOM     70  F   UNL     1       2.064  -5.420   2.243  1.00  0.00    -0.203 F 
ATOM     71  C   UNL     1       1.749  -7.650   2.927  1.00  0.00     0.198 A 
ATOM     72  C   UNL     1       3.619  -8.954   3.677  1.00  0.00     0.198 A 
ATOM     73  F   UNL     1       5.763  -7.992   3.775  1.00  0.00    -0.203 F 
ATOM     74  F   UNL     1       0.435  -7.535   2.691  1.00  0.00    -0.200 F 
ATOM     75  C   UNL     1       2.264  -8.846   3.405  1.00  0.00     0.200 A 
ATOM     76  F   UNL     1       4.122 -10.112   4.126  1.00  0.00    -0.200 F 
ATOM     77  F   UNL     1       1.453  -9.892   3.610  1.00  0.00    -0.200 F 
ENDBRANCH  53  67
BRANCH  54  78
ATOM     78  C   UNL     1      10.060   1.176   1.817  1.00  0.00     0.064 A 
ATOM     79  C   UNL     1      10.124   1.912   0.626  1.00  0.00     0.173 A 
ATOM     80  C   UNL     1      10.942   1.530   2.849  1.00  0.00     0.173 A 
ATOM     81  F   UNL     1       9.326   1.591  -0.403  1.00  0.00    -0.203 F 
ATOM     82  C   UNL     1      11.045   2.946   0.467  1.00  0.00     0.198 A 
ATOM     83  C   UNL     1      11.840   2.586   2.701  1.00  0.00     0.198 A 
ATOM     84  F   UNL     1      10.932   0.851   4.006  1.00  0.00    -0.203 F 
ATOM     85  F   UNL     1      11.123   3.595  -0.703  1.00  0.00    -0.200 F 
ATOM     86  C   UNL     1      11.897   3.287   1.506  1.00  0.00     0.200 A 
ATOM     87  F   UNL     1      12.657   2.915   3.711  1.00  0.00    -0.200 F 
ATOM     88  F   UNL     1      12.783   4.280   1.352  1.00  0.00    -0.200 F 
ENDBRANCH  54  78
BRANCH  66  89
ATOM     89  C   UNL     1       9.591  -5.087  -1.228  1.00  0.00     0.064 A 
ATOM     90  C   UNL     1      10.893  -5.550  -0.986  1.00  0.00     0.173 A 
ATOM     91  C   UNL     1       9.032  -5.335  -2.491  1.00  0.00     0.173 A 
ATOM     92  F   UNL     1      11.480  -5.328   0.200  1.00  0.00    -0.203 F 
ATOM     93  C   UNL     1      11.611  -6.218  -1.976  1.00  0.00     0.198 A 
ATOM     94  C   UNL     1       9.739  -6.032  -3.466  1.00  0.00     0.198 A 
ATOM     95  F   UNL     1       7.787  -4.921  -2.773  1.00  0.00    -0.203 F 
ATOM     96  F   UNL     1      12.868  -6.615  -1.736  1.00  0.00    -0.200 F 
ATOM     97  C   UNL     1      11.030  -6.468  -3.210  1.00  0.00     0.200 A 
ATOM     98  F   UNL     1       9.169  -6.289  -4.652  1.00  0.00    -0.200 F 
ATOM     99  F   UNL     1      11.716  -7.127  -4.154  1.00  0.00    -0.200 F 
ENDBRANCH  66  89
ENDBRANCH  40  41
ENDBRANCH  33  35
ENDBRANCH  32  33
ENDBRANCH  31  32
ENDBRANCH  30  31
ENDBRANCH  29  30
ENDBRANCH  28  29
ENDBRANCH   1  28
TORSDOF 20
