REMARK SMILES O=C(NC(=S)Nc1cc(C(=O)OCCOCCOCCOC(=O)c2ccc(-c3c4nc(c(-c5c(F)c(F)c(F)c(F)c5F)c5ccc([nH]5)c(-c5c(F)c(F)c(F)c(F)c5F)c5nc(c(-c6c(F)c(F)c(F)c(F)c6F)c6ccc3[nH]6)C=C5)C=C4)cc2)ccc1Br)c1ccc(F)cc1
REMARK SMILES IDX 16 1 15 2 14 3 13 4 12 5 10 6 11 7 9 8 7 9 8 10 89 11 88 12
REMARK SMILES IDX 90 13 87 14 6 15 4 17 5 18 3 19 1 20 2 21 91 23 92 24 97 25
REMARK SMILES IDX 93 26 96 27 94 28 95 29 17 30 18 31 19 32 20 33 21 34 22 35
REMARK SMILES IDX 23 36 24 37 25 38 86 39 26 40 85 41 27 42 28 43 29 44 79 45
REMARK SMILES IDX 30 46 84 47 78 48 80 49 31 50 83 51 77 52 76 53 32 55 64 56
REMARK SMILES IDX 44 57 63 58 45 59 48 60 62 61 81 62 46 63 47 64 61 66 82 67
REMARK SMILES IDX 49 68 33 69 34 70 42 71 35 72 36 73 40 74 43 75 37 76 38 77
REMARK SMILES IDX 41 78 39 79 65 80 66 81 74 82 67 83 68 84 72 85 75 86 69 87
REMARK SMILES IDX 70 88 73 89 71 90 50 91 51 92 59 93 52 94 53 95 57 96 60 97
REMARK SMILES IDX 54 98 55 99 58 100 56 101
REMARK H PARENT 6 16 3 22 80 54 48 65
REMARK Flexibility Score: inf
ROOT
ATOM      1  C   UNL     1       6.057   6.324  -0.715  1.00  0.00     0.188 C 
ENDROOT
BRANCH   1   2
ATOM      2  O   UNL     1       5.508   7.321  -1.570  1.00  0.00    -0.376 OA
BRANCH   2   3
ATOM      3  C   UNL     1       4.298   7.935  -1.120  1.00  0.00     0.202 C 
BRANCH   3   4
ATOM      4  C   UNL     1       3.023   7.128  -1.402  1.00  0.00     0.261 C 
BRANCH   4   5
ATOM      5  O   UNL     1       2.912   5.959  -0.565  1.00  0.00    -0.460 OA
BRANCH   5   6
ATOM      6  C   UNL     1       3.074   4.782  -1.208  1.00  0.00     0.338 C 
ATOM      7  O   UNL     1       3.237   4.585  -2.399  1.00  0.00    -0.246 OA
BRANCH   6   8
ATOM      8  C   UNL     1       3.227   3.698  -0.229  1.00  0.00     0.062 A 
ATOM      9  C   UNL     1       4.728   0.800   0.411  1.00  0.00     0.055 A 
ATOM     10  C   UNL     1       4.661   2.444  -0.727  1.00  0.00     0.043 A 
ATOM     11  C   UNL     1       3.407   0.650   1.871  1.00  0.00     0.041 A 
ATOM     12  C   UNL     1       1.979   1.921   2.367  1.00  0.00     0.019 A 
ATOM     13  Br  UNL     1       3.455  -0.948   2.928  1.00  0.00    -0.049 Br
ATOM     14  C   UNL     1       1.899   3.554   1.209  1.00  0.00     0.017 A 
BRANCH   9  15
ATOM     15  N   UNL     1       5.199  -0.359  -0.213  1.00  0.00    -0.331 N 
ATOM     16  H   UNL     1       6.151  -0.395  -0.463  1.00  0.00     0.169 HD
BRANCH  15  17
ATOM     17  C   UNL     1       4.426  -1.434  -0.495  1.00  0.00     0.177 C 
ATOM     18  S   UNL     1       5.169  -2.865  -0.934  1.00  0.00    -0.040 S 
BRANCH  17  19
ATOM     19  N   UNL     1       3.038  -1.372  -0.521  1.00  0.00    -0.299 N 
ATOM     20  O   UNL     1       0.798  -0.961  -0.605  1.00  0.00    -0.269 OA
ATOM     21  C   UNL     1       1.931  -0.486  -0.494  1.00  0.00     0.257 C 
ATOM     22  H   UNL     1       2.692  -2.292  -0.582  1.00  0.00     0.172 HD
BRANCH  21  23
ATOM     23  C   UNL     1       1.980   0.995  -0.440  1.00  0.00     0.040 A 
ATOM     24  C   UNL     1       3.099   1.569  -0.139  1.00  0.00     0.017 A 
ATOM     25  C   UNL     1       2.273   1.812   0.518  1.00  0.00     0.017 A 
ATOM     26  C   UNL     1       4.393   2.515   1.137  1.00  0.00     0.040 A 
ATOM     27  C   UNL     1       3.540   2.783   1.799  1.00  0.00     0.040 A 
ATOM     28  C   UNL     1       4.704   2.944   2.307  1.00  0.00     0.123 A 
ATOM     29  F   UNL     1       5.293   4.108   2.568  1.00  0.00    -0.207 F 
ENDBRANCH  21  23
ENDBRANCH  17  19
ENDBRANCH  15  17
ENDBRANCH   9  15
ENDBRANCH   6   8
ENDBRANCH   5   6
ENDBRANCH   4   5
ENDBRANCH   3   4
ENDBRANCH   2   3
ENDBRANCH   1   2
BRANCH   1  30
ATOM     30  C   UNL     1       6.773   6.845   0.532  1.00  0.00     0.188 C 
BRANCH  30  31
ATOM     31  O   UNL     1       5.870   7.481   1.435  1.00  0.00    -0.376 OA
BRANCH  31  32
ATOM     32  C   UNL     1       6.189   7.343   2.824  1.00  0.00     0.202 C 
BRANCH  32  33
ATOM     33  C   UNL     1       7.555   7.920   3.223  1.00  0.00     0.261 C 
BRANCH  33  34
ATOM     34  O   UNL     1       8.635   7.105   2.729  1.00  0.00    -0.460 OA
BRANCH  34  35
ATOM     35  C   UNL     1       8.744   5.883   3.306  1.00  0.00     0.338 C 
ATOM     36  O   UNL     1       8.198   5.509   4.329  1.00  0.00    -0.246 OA
BRANCH  35  37
ATOM     37  C   UNL     1       9.446   4.984   2.362  1.00  0.00     0.060 A 
ATOM     38  C   UNL     1       9.028   3.648   2.291  1.00  0.00     0.016 A 
ATOM     39  C   UNL     1      10.454   5.453   1.512  1.00  0.00     0.016 A 
ATOM     40  C   UNL     1       9.637   2.773   1.390  1.00  0.00     0.010 A 
ATOM     41  C   UNL     1      11.067   4.577   0.616  1.00  0.00     0.010 A 
ATOM     42  C   UNL     1      10.677   3.230   0.568  1.00  0.00    -0.014 A 
BRANCH  42  43
ATOM     43  C   UNL     1      11.476   2.269  -0.223  1.00  0.00     0.031 A 
ATOM     44  C   UNL     1      12.673   1.634   0.425  1.00  0.00     0.074 A 
ATOM     45  C   UNL     1      11.161   1.984  -1.497  1.00  0.00     0.049 A 
ATOM     46  N   UNL     1      13.529   0.779  -0.071  1.00  0.00    -0.248 NA
ATOM     47  C   UNL     1      12.940   2.016   1.822  1.00  0.00     0.031 C 
ATOM     48  C   UNL     1      10.025   2.533  -2.235  1.00  0.00     0.029 A 
ATOM     49  N   UNL     1      11.789   1.165  -2.402  1.00  0.00    -0.354 N 
ATOM     50  C   UNL     1      14.422   0.507   0.955  1.00  0.00     0.074 A 
ATOM     51  C   UNL     1      14.027   1.309   2.092  1.00  0.00     0.031 C 
ATOM     52  C   UNL     1      10.045   2.046  -3.489  1.00  0.00     0.029 A 
ATOM     53  C   UNL     1      11.203   1.165  -3.643  1.00  0.00     0.049 A 
ATOM     54  H   UNL     1      12.584   0.628  -2.182  1.00  0.00     0.167 HD
ATOM     55  C   UNL     1      15.472  -0.345   0.954  1.00  0.00     0.037 A 
ATOM     56  C   UNL     1      11.576   0.537  -4.774  1.00  0.00     0.037 A 
ATOM     57  C   UNL     1      15.885  -1.127  -0.176  1.00  0.00     0.049 A 
ATOM     58  C   UNL     1      12.808  -0.328  -4.776  1.00  0.00     0.074 A 
ATOM     59  C   UNL     1      16.908  -2.054  -0.260  1.00  0.00     0.029 A 
ATOM     60  N   UNL     1      15.300  -1.057  -1.430  1.00  0.00    -0.354 N 
ATOM     61  N   UNL     1      13.611  -0.626  -3.784  1.00  0.00    -0.248 NA
ATOM     62  C   UNL     1      13.190  -0.935  -6.060  1.00  0.00     0.031 C 
ATOM     63  C   UNL     1      16.966  -2.520  -1.579  1.00  0.00     0.029 A 
ATOM     64  C   UNL     1      15.963  -1.898  -2.306  1.00  0.00     0.049 A 
ATOM     65  H   UNL     1      14.528  -0.492  -1.663  1.00  0.00     0.167 HD
ATOM     66  C   UNL     1      14.582  -1.463  -4.318  1.00  0.00     0.074 A 
ATOM     67  C   UNL     1      14.266  -1.632  -5.721  1.00  0.00     0.031 C 
ATOM     68  C   UNL     1      15.639  -2.043  -3.700  1.00  0.00     0.037 A 
BRANCH  55  69
ATOM     69  C   UNL     1      16.246  -0.467   2.227  1.00  0.00     0.064 A 
ATOM     70  C   UNL     1      15.769  -1.246   3.290  1.00  0.00     0.173 A 
ATOM     71  C   UNL     1      17.473   0.191   2.383  1.00  0.00     0.173 A 
ATOM     72  F   UNL     1      14.588  -1.874   3.189  1.00  0.00    -0.203 F 
ATOM     73  C   UNL     1      16.491  -1.353   4.475  1.00  0.00     0.198 A 
ATOM     74  C   UNL     1      18.198   0.072   3.565  1.00  0.00     0.198 A 
ATOM     75  F   UNL     1      17.961   0.955   1.394  1.00  0.00    -0.203 F 
ATOM     76  F   UNL     1      16.004  -2.077   5.491  1.00  0.00    -0.200 F 
ATOM     77  C   UNL     1      17.706  -0.697   4.610  1.00  0.00     0.200 A 
ATOM     78  F   UNL     1      19.370   0.709   3.698  1.00  0.00    -0.200 F 
ATOM     79  F   UNL     1      18.398  -0.796   5.753  1.00  0.00    -0.200 F 
ENDBRANCH  55  69
BRANCH  56  80
ATOM     80  C   UNL     1      10.784   0.711  -6.016  1.00  0.00     0.064 A 
ATOM     81  C   UNL     1       9.957  -0.317  -6.488  1.00  0.00     0.173 A 
ATOM     82  C   UNL     1      10.867   1.889  -6.770  1.00  0.00     0.173 A 
ATOM     83  F   UNL     1       9.872  -1.471  -5.811  1.00  0.00    -0.203 F 
ATOM     84  C   UNL     1       9.248  -0.175  -7.679  1.00  0.00     0.198 A 
ATOM     85  C   UNL     1      10.146   2.035  -7.953  1.00  0.00     0.198 A 
ATOM     86  F   UNL     1      11.655   2.894  -6.360  1.00  0.00    -0.203 F 
ATOM     87  F   UNL     1       8.490  -1.184  -8.129  1.00  0.00    -0.200 F 
ATOM     88  C   UNL     1       9.341   1.001  -8.409  1.00  0.00     0.200 A 
ATOM     89  F   UNL     1      10.240   3.171  -8.657  1.00  0.00    -0.200 F 
ATOM     90  F   UNL     1       8.665   1.133  -9.558  1.00  0.00    -0.200 F 
ENDBRANCH  56  80
BRANCH  68  91
ATOM     91  C   UNL     1      16.530  -2.911  -4.532  1.00  0.00     0.064 A 
ATOM     92  C   UNL     1      17.497  -2.354  -5.380  1.00  0.00     0.173 A 
ATOM     93  C   UNL     1      16.456  -4.308  -4.439  1.00  0.00     0.173 A 
ATOM     94  F   UNL     1      17.594  -1.022  -5.510  1.00  0.00    -0.203 F 
ATOM     95  C   UNL     1      18.356  -3.167  -6.113  1.00  0.00     0.198 A 
ATOM     96  C   UNL     1      17.327  -5.118  -5.161  1.00  0.00     0.198 A 
ATOM     97  F   UNL     1      15.547  -4.884  -3.638  1.00  0.00    -0.203 F 
ATOM     98  F   UNL     1      19.259  -2.617  -6.936  1.00  0.00    -0.200 F 
ATOM     99  C   UNL     1      18.274  -4.548  -5.998  1.00  0.00     0.200 A 
ATOM    100  F   UNL     1      17.251  -6.451  -5.045  1.00  0.00    -0.200 F 
ATOM    101  F   UNL     1      19.107  -5.330  -6.699  1.00  0.00    -0.200 F 
ENDBRANCH  68  91
ENDBRANCH  42  43
ENDBRANCH  35  37
ENDBRANCH  34  35
ENDBRANCH  33  34
ENDBRANCH  32  33
ENDBRANCH  31  32
ENDBRANCH  30  31
ENDBRANCH   1  30
TORSDOF 21
