REMARK SMILES O=C(/C=C/c1ccc(O)cc1)NC[C@@H]1CC[C@H](C(=O)OCCOCCOCCOC(=O)c2ccc(-c3c4nc(c(-c5c(F)c(F)c(F)c(F)c5F)c5ccc([nH]5)c(-c5c(F)c(F)c(F)c(F)c5F)c5nc(c(-c6c(F)c(F)c(F)c(F)c6F)c6ccc3[nH]6)C=C5)C=C4)cc2)O1
REMARK SMILES IDX 23 1 22 2 21 3 20 4 18 5 19 6 17 7 14 8 15 9 95 10 16 11
REMARK SMILES IDX 13 12 12 13 1 14 2 15 3 17 4 18 5 19 6 20 11 21 7 22 10 23
REMARK SMILES IDX 8 24 9 25 24 27 25 28 26 29 27 30 28 31 29 32 30 33 31 34
REMARK SMILES IDX 32 35 33 36 94 37 34 38 93 39 35 40 36 41 37 42 87 43 38 44
REMARK SMILES IDX 92 45 86 46 88 47 39 48 91 49 85 50 84 51 40 53 72 54 52 55
REMARK SMILES IDX 71 56 53 57 56 58 70 59 89 60 54 61 55 62 69 64 90 65 57 66
REMARK SMILES IDX 41 67 42 68 50 69 43 70 44 71 48 72 51 73 45 74 46 75 49 76
REMARK SMILES IDX 47 77 73 78 74 79 82 80 75 81 76 82 80 83 83 84 77 85 78 86
REMARK SMILES IDX 81 87 79 88 58 89 59 90 67 91 60 92 61 93 65 94 68 95 62 96
REMARK SMILES IDX 63 97 66 98 64 99
REMARK H PARENT 12 16 9 26 88 52 56 63
REMARK Flexibility Score: inf
ROOT
ATOM      1  O   UNL     1      -2.018  -6.497  -4.043  1.00  0.00    -0.376 OA
ENDROOT
BRANCH   1   2
ATOM      2  C   UNL     1      -2.310  -5.740  -2.864  1.00  0.00     0.202 C 
BRANCH   2   3
ATOM      3  C   UNL     1      -1.141  -5.326  -1.949  1.00  0.00     0.261 C 
BRANCH   3   4
ATOM      4  O   UNL     1      -0.165  -4.473  -2.593  1.00  0.00    -0.461 OA
BRANCH   4   5
ATOM      5  C   UNL     1       1.137  -4.819  -2.429  1.00  0.00     0.335 C 
ATOM      6  O   UNL     1       1.512  -5.739  -1.708  1.00  0.00    -0.249 OA
BRANCH   5   7
ATOM      7  C   UNL     1       2.118  -4.012  -3.302  1.00  0.00     0.228 C 
ATOM      8  C   UNL     1       3.034  -2.296  -2.030  1.00  0.00     0.138 C 
ATOM      9  C   UNL     1       1.946  -1.677  -2.895  1.00  0.00     0.037 C 
ATOM     10  O   UNL     1       3.243  -3.646  -2.487  1.00  0.00    -0.361 OA
ATOM     11  C   UNL     1       1.719  -2.707  -3.964  1.00  0.00     0.047 C 
BRANCH   8  12
ATOM     12  C   UNL     1       2.667  -2.291  -0.540  1.00  0.00     0.148 C 
BRANCH  12  13
ATOM     13  N   UNL     1       3.143  -1.084   0.100  1.00  0.00    -0.350 N 
ATOM     14  O   UNL     1       1.257   0.177  -0.258  1.00  0.00    -0.270 OA
ATOM     15  C   UNL     1       2.422   0.079   0.104  1.00  0.00     0.244 C 
ATOM     16  H   UNL     1       4.018  -1.100   0.550  1.00  0.00     0.163 HD
BRANCH  15  17
ATOM     17  C   UNL     1       3.149   1.270   0.605  1.00  0.00     0.072 C 
ATOM     18  C   UNL     1       4.480   1.414   0.510  1.00  0.00     0.014 C 
BRANCH  18  19
ATOM     19  C   UNL     1       5.203   2.611   0.949  1.00  0.00    -0.025 A 
ATOM     20  C   UNL     1       4.891   3.273   2.144  1.00  0.00     0.012 A 
ATOM     21  C   UNL     1       6.283   3.062   0.179  1.00  0.00     0.012 A 
ATOM     22  C   UNL     1       5.631   4.386   2.550  1.00  0.00     0.047 A 
ATOM     23  C   UNL     1       7.021   4.175   0.583  1.00  0.00     0.047 A 
ATOM     24  C   UNL     1       6.689   4.829   1.762  1.00  0.00     0.115 A 
BRANCH  24  25
ATOM     25  O   UNL     1       7.437   5.910   2.120  1.00  0.00    -0.508 OA
ATOM     26  H   UNL     1       7.241   6.375   2.909  1.00  0.00     0.293 HD
ENDBRANCH  24  25
ENDBRANCH  18  19
ENDBRANCH  15  17
ENDBRANCH  12  13
ENDBRANCH   8  12
ENDBRANCH   5   7
ENDBRANCH   4   5
ENDBRANCH   3   4
ENDBRANCH   2   3
ENDBRANCH   1   2
BRANCH   1  27
ATOM     27  C   UNL     1      -0.925  -6.075  -4.842  1.00  0.00     0.188 C 
BRANCH  27  28
ATOM     28  C   UNL     1      -0.927  -4.629  -5.345  1.00  0.00     0.188 C 
BRANCH  28  29
ATOM     29  O   UNL     1      -1.778  -3.758  -4.642  1.00  0.00    -0.376 OA
BRANCH  29  30
ATOM     30  C   UNL     1      -2.783  -3.014  -5.315  1.00  0.00     0.202 C 
BRANCH  30  31
ATOM     31  C   UNL     1      -3.636  -3.625  -6.449  1.00  0.00     0.261 C 
BRANCH  31  32
ATOM     32  O   UNL     1      -2.968  -4.407  -7.455  1.00  0.00    -0.460 OA
BRANCH  32  33
ATOM     33  C   UNL     1      -2.104  -3.773  -8.285  1.00  0.00     0.338 C 
ATOM     34  O   UNL     1      -1.905  -2.571  -8.354  1.00  0.00    -0.246 OA
BRANCH  33  35
ATOM     35  C   UNL     1      -1.214  -4.816  -8.869  1.00  0.00     0.060 A 
ATOM     36  C   UNL     1       0.170  -4.723  -8.643  1.00  0.00     0.016 A 
ATOM     37  C   UNL     1      -1.738  -5.936  -9.516  1.00  0.00     0.016 A 
ATOM     38  C   UNL     1       1.027  -5.748  -9.058  1.00  0.00     0.010 A 
ATOM     39  C   UNL     1      -0.875  -6.945  -9.962  1.00  0.00     0.010 A 
ATOM     40  C   UNL     1       0.513  -6.854  -9.745  1.00  0.00    -0.014 A 
BRANCH  40  41
ATOM     41  C   UNL     1       1.421  -7.852 -10.370  1.00  0.00     0.031 A 
ATOM     42  C   UNL     1       1.726  -7.723 -11.836  1.00  0.00     0.074 A 
ATOM     43  C   UNL     1       1.950  -8.870  -9.665  1.00  0.00     0.049 A 
ATOM     44  N   UNL     1       2.366  -8.542 -12.632  1.00  0.00    -0.248 NA
ATOM     45  C   UNL     1       1.238  -6.500 -12.494  1.00  0.00     0.031 C 
ATOM     46  C   UNL     1       1.779  -9.085  -8.231  1.00  0.00     0.029 A 
ATOM     47  N   UNL     1       2.722  -9.932 -10.076  1.00  0.00    -0.354 N 
ATOM     48  C   UNL     1       2.353  -7.938 -13.882  1.00  0.00     0.074 A 
ATOM     49  C   UNL     1       1.619  -6.698 -13.747  1.00  0.00     0.031 C 
ATOM     50  C   UNL     1       2.400 -10.227  -7.886  1.00  0.00     0.029 A 
ATOM     51  C   UNL     1       2.971 -10.847  -9.081  1.00  0.00     0.049 A 
ATOM     52  H   UNL     1       3.063 -10.027 -10.995  1.00  0.00     0.167 HD
ATOM     53  C   UNL     1       2.910  -8.374 -15.037  1.00  0.00     0.037 A 
ATOM     54  C   UNL     1       3.552 -12.063  -9.140  1.00  0.00     0.037 A 
ATOM     55  C   UNL     1       3.629  -9.613 -15.175  1.00  0.00     0.049 A 
ATOM     56  C   UNL     1       4.067 -12.580 -10.463  1.00  0.00     0.074 A 
ATOM     57  C   UNL     1       4.234 -10.137 -16.304  1.00  0.00     0.029 A 
ATOM     58  N   UNL     1       3.832 -10.527 -14.152  1.00  0.00    -0.354 N 
ATOM     59  N   UNL     1       4.070 -11.998 -11.638  1.00  0.00    -0.248 NA
ATOM     60  C   UNL     1       4.654 -13.930 -10.469  1.00  0.00     0.031 C 
ATOM     61  C   UNL     1       4.750 -11.396 -15.980  1.00  0.00     0.029 A 
ATOM     62  C   UNL     1       4.522 -11.629 -14.634  1.00  0.00     0.049 A 
ATOM     63  H   UNL     1       3.530 -10.412 -13.222  1.00  0.00     0.167 HD
ATOM     64  C   UNL     1       4.674 -12.895 -12.511  1.00  0.00     0.074 A 
ATOM     65  C   UNL     1       5.048 -14.053 -11.728  1.00  0.00     0.031 C 
ATOM     66  C   UNL     1       4.892 -12.775 -13.844  1.00  0.00     0.037 A 
BRANCH  53  67
ATOM     67  C   UNL     1       2.742  -7.516 -16.257  1.00  0.00     0.064 A 
ATOM     68  C   UNL     1       3.414  -6.292 -16.393  1.00  0.00     0.173 A 
ATOM     69  C   UNL     1       1.941  -7.949 -17.325  1.00  0.00     0.173 A 
ATOM     70  F   UNL     1       4.181  -5.827 -15.395  1.00  0.00    -0.203 F 
ATOM     71  C   UNL     1       3.273  -5.524 -17.546  1.00  0.00     0.198 A 
ATOM     72  C   UNL     1       1.828  -7.192 -18.488  1.00  0.00     0.198 A 
ATOM     73  F   UNL     1       1.281  -9.114 -17.247  1.00  0.00    -0.203 F 
ATOM     74  F   UNL     1       3.890  -4.337 -17.637  1.00  0.00    -0.200 F 
ATOM     75  C   UNL     1       2.489  -5.978 -18.595  1.00  0.00     0.200 A 
ATOM     76  F   UNL     1       1.082  -7.641 -19.506  1.00  0.00    -0.200 F 
ATOM     77  F   UNL     1       2.366  -5.244 -19.709  1.00  0.00    -0.200 F 
ENDBRANCH  53  67
BRANCH  54  78
ATOM     78  C   UNL     1       3.633 -12.916  -7.921  1.00  0.00     0.064 A 
ATOM     79  C   UNL     1       4.868 -13.270  -7.359  1.00  0.00     0.173 A 
ATOM     80  C   UNL     1       2.476 -13.442  -7.325  1.00  0.00     0.173 A 
ATOM     81  F   UNL     1       6.006 -12.824  -7.911  1.00  0.00    -0.203 F 
ATOM     82  C   UNL     1       4.944 -14.135  -6.269  1.00  0.00     0.198 A 
ATOM     83  C   UNL     1       2.551 -14.278  -6.213  1.00  0.00     0.198 A 
ATOM     84  F   UNL     1       1.268 -13.147  -7.828  1.00  0.00    -0.203 F 
ATOM     85  F   UNL     1       6.140 -14.509  -5.795  1.00  0.00    -0.200 F 
ATOM     86  C   UNL     1       3.785 -14.633  -5.692  1.00  0.00     0.200 A 
ATOM     87  F   UNL     1       1.427 -14.749  -5.655  1.00  0.00    -0.200 F 
ATOM     88  F   UNL     1       3.859 -15.468  -4.647  1.00  0.00    -0.200 F 
ENDBRANCH  54  78
BRANCH  66  89
ATOM     89  C   UNL     1       5.585 -13.912 -14.543  1.00  0.00     0.064 A 
ATOM     90  C   UNL     1       4.946 -15.142 -14.758  1.00  0.00     0.173 A 
ATOM     91  C   UNL     1       6.883 -13.751 -15.054  1.00  0.00     0.173 A 
ATOM     92  F   UNL     1       3.711 -15.354 -14.280  1.00  0.00    -0.203 F 
ATOM     93  C   UNL     1       5.588 -16.175 -15.437  1.00  0.00     0.198 A 
ATOM     94  C   UNL     1       7.509 -14.774 -15.761  1.00  0.00     0.198 A 
ATOM     95  F   UNL     1       7.538 -12.592 -14.885  1.00  0.00    -0.203 F 
ATOM     96  F   UNL     1       4.974 -17.357 -15.590  1.00  0.00    -0.200 F 
ATOM     97  C   UNL     1       6.865 -15.988 -15.946  1.00  0.00     0.200 A 
ATOM     98  F   UNL     1       8.736 -14.585 -16.267  1.00  0.00    -0.200 F 
ATOM     99  F   UNL     1       7.475 -16.978 -16.610  1.00  0.00    -0.200 F 
ENDBRANCH  66  89
ENDBRANCH  40  41
ENDBRANCH  33  35
ENDBRANCH  32  33
ENDBRANCH  31  32
ENDBRANCH  30  31
ENDBRANCH  29  30
ENDBRANCH  28  29
ENDBRANCH  27  28
ENDBRANCH   1  27
TORSDOF 22
