REMARK SMILES Cc1ccc(Cl)c(Nc2ccccc2C(=O)N[C@@H](C)C(=O)OCCOCCOCCOC(=O)c2ccc(-c3c4nc(c(-c5c(F)c(F)c(F)c(F)c5F)c5ccc([nH]5)c(-c5c(F)c(F)c(F)c(F)c5F)c5nc(c(-c6c(F)c(F)c(F)c(F)c6F)c6ccc3[nH]6)C=C5)C=C4)cc2)c1Cl
REMARK SMILES IDX 26 1 25 2 24 3 23 4 22 5 20 6 21 7 18 8 19 9 17 10 15 11
REMARK SMILES IDX 16 12 14 14 9 15 10 16 11 17 13 18 12 19 8 20 7 22 1 23 2 24
REMARK SMILES IDX 3 25 97 26 4 27 98 28 5 29 6 30 27 31 28 32 29 33 30 34
REMARK SMILES IDX 31 35 32 36 33 37 34 38 35 39 96 40 36 41 95 42 37 43 38 44
REMARK SMILES IDX 39 45 89 46 40 47 94 48 88 49 90 50 41 51 93 52 87 53 86 54
REMARK SMILES IDX 42 56 74 57 54 58 73 59 55 60 58 61 72 62 91 63 56 64 57 65
REMARK SMILES IDX 71 67 92 68 59 69 43 70 44 71 52 72 45 73 46 74 50 75 53 76
REMARK SMILES IDX 47 77 48 78 51 79 49 80 75 81 76 82 84 83 77 84 78 85 82 86
REMARK SMILES IDX 85 87 79 88 80 89 83 90 81 91 60 92 61 93 69 94 62 95 63 96
REMARK SMILES IDX 67 97 70 98 64 99 65 100 68 101 66 102
REMARK H PARENT 17 13 8 21 90 55 58 66
REMARK Flexibility Score: inf
ROOT
ATOM      1  C   UNL     1       2.053   2.440  -1.435  1.00  0.00     0.188 C 
ENDROOT
BRANCH   1   2
ATOM      2  O   UNL     1       0.616   2.632  -1.230  1.00  0.00    -0.376 OA
BRANCH   2   3
ATOM      3  C   UNL     1       0.072   3.605  -0.305  1.00  0.00     0.202 C 
BRANCH   3   4
ATOM      4  C   UNL     1      -1.335   3.294   0.567  1.00  0.00     0.261 C 
BRANCH   4   5
ATOM      5  O   UNL     1      -1.396   2.170   1.571  1.00  0.00    -0.462 OA
BRANCH   5   6
ATOM      6  C   UNL     1      -2.402   1.203   1.627  1.00  0.00     0.328 C 
ATOM      7  O   UNL     1      -3.540   1.452   1.225  1.00  0.00    -0.250 OA
BRANCH   6   8
ATOM      8  C   UNL     1      -1.965  -0.396   2.037  1.00  0.00     0.189 C 
ATOM      9  C   UNL     1      -3.102  -1.091   2.785  1.00  0.00     0.043 C 
BRANCH   8  10
ATOM     10  N   UNL     1      -0.694  -0.914   2.638  1.00  0.00    -0.339 N 
ATOM     11  C   UNL     1       0.115  -2.057   2.577  1.00  0.00     0.254 C 
ATOM     12  O   UNL     1       0.931  -2.049   3.519  1.00  0.00    -0.269 OA
ATOM     13  H   UNL     1      -0.314  -0.255   3.263  1.00  0.00     0.164 HD
BRANCH  11  14
ATOM     14  C   UNL     1       0.272  -3.252   1.589  1.00  0.00     0.063 A 
ATOM     15  C   UNL     1      -0.457  -3.713   0.460  1.00  0.00     0.051 A 
ATOM     16  C   UNL     1       0.068  -4.763  -0.371  1.00  0.00     0.027 A 
ATOM     17  C   UNL     1       1.282  -5.384  -0.131  1.00  0.00     0.002 A 
ATOM     18  C   UNL     1       1.479  -3.995   1.833  1.00  0.00     0.016 A 
ATOM     19  C   UNL     1       1.980  -5.017   0.998  1.00  0.00     0.001 A 
BRANCH  15  20
ATOM     20  N   UNL     1      -1.551  -3.077  -0.163  1.00  0.00    -0.352 N 
ATOM     21  H   UNL     1      -2.457  -3.419   0.014  1.00  0.00     0.167 HD
BRANCH  20  22
ATOM     22  C   UNL     1      -1.402  -1.961  -1.038  1.00  0.00     0.077 A 
ATOM     23  C   UNL     1       0.427   0.592   0.515  1.00  0.00     0.046 C 
ATOM     24  C   UNL     1      -0.435   0.116  -0.621  1.00  0.00    -0.030 A 
ATOM     25  C   UNL     1      -1.493   0.743  -1.293  1.00  0.00     0.006 A 
ATOM     26  C   UNL     1      -0.257  -1.192  -0.947  1.00  0.00     0.069 A 
ATOM     27  C   UNL     1      -2.523  -0.007  -1.862  1.00  0.00     0.023 A 
ATOM     28  Cl  UNL     1       1.339  -1.800  -1.097  1.00  0.00    -0.082 Cl
ATOM     29  C   UNL     1      -2.531  -1.367  -1.609  1.00  0.00     0.066 A 
ATOM     30  Cl  UNL     1      -3.955  -2.283  -1.909  1.00  0.00    -0.082 Cl
ENDBRANCH  20  22
ENDBRANCH  15  20
ENDBRANCH  11  14
ENDBRANCH   8  10
ENDBRANCH   6   8
ENDBRANCH   5   6
ENDBRANCH   4   5
ENDBRANCH   3   4
ENDBRANCH   2   3
ENDBRANCH   1   2
BRANCH   1  31
ATOM     31  C   UNL     1       2.946   1.583  -0.458  1.00  0.00     0.188 C 
BRANCH  31  32
ATOM     32  O   UNL     1       3.340   2.157   0.780  1.00  0.00    -0.376 OA
BRANCH  32  33
ATOM     33  C   UNL     1       4.169   3.297   0.647  1.00  0.00     0.202 C 
BRANCH  33  34
ATOM     34  C   UNL     1       5.565   3.082   0.005  1.00  0.00     0.261 C 
BRANCH  34  35
ATOM     35  O   UNL     1       5.640   2.141  -1.099  1.00  0.00    -0.460 OA
BRANCH  35  36
ATOM     36  C   UNL     1       6.140   0.906  -0.814  1.00  0.00     0.338 C 
ATOM     37  O   UNL     1       6.731   0.587   0.224  1.00  0.00    -0.246 OA
BRANCH  36  38
ATOM     38  C   UNL     1       5.710  -0.119  -1.807  1.00  0.00     0.060 A 
ATOM     39  C   UNL     1       4.817  -1.121  -1.390  1.00  0.00     0.016 A 
ATOM     40  C   UNL     1       6.211  -0.159  -3.109  1.00  0.00     0.016 A 
ATOM     41  C   UNL     1       4.412  -2.139  -2.264  1.00  0.00     0.010 A 
ATOM     42  C   UNL     1       5.833  -1.209  -3.973  1.00  0.00     0.010 A 
ATOM     43  C   UNL     1       4.931  -2.209  -3.557  1.00  0.00    -0.014 A 
BRANCH  43  44
ATOM     44  C   UNL     1       4.753  -3.461  -4.345  1.00  0.00     0.031 A 
ATOM     45  C   UNL     1       5.853  -4.480  -4.264  1.00  0.00     0.074 A 
ATOM     46  C   UNL     1       3.636  -3.764  -5.035  1.00  0.00     0.049 A 
ATOM     47  N   UNL     1       6.106  -5.510  -5.027  1.00  0.00    -0.248 NA
ATOM     48  C   UNL     1       6.793  -4.312  -3.144  1.00  0.00     0.031 C 
ATOM     49  C   UNL     1       2.394  -2.997  -5.028  1.00  0.00     0.029 A 
ATOM     50  N   UNL     1       3.375  -4.814  -5.889  1.00  0.00    -0.354 N 
ATOM     51  C   UNL     1       7.268  -6.074  -4.515  1.00  0.00     0.074 A 
ATOM     52  C   UNL     1       7.652  -5.294  -3.361  1.00  0.00     0.031 C 
ATOM     53  C   UNL     1       1.515  -3.582  -5.864  1.00  0.00     0.029 A 
ATOM     54  C   UNL     1       2.162  -4.712  -6.530  1.00  0.00     0.049 A 
ATOM     55  H   UNL     1       3.997  -5.565  -6.026  1.00  0.00     0.167 HD
ATOM     56  C   UNL     1       7.965  -7.132  -4.990  1.00  0.00     0.037 A 
ATOM     57  C   UNL     1       1.674  -5.404  -7.582  1.00  0.00     0.037 A 
ATOM     58  C   UNL     1       7.552  -7.910  -6.126  1.00  0.00     0.049 A 
ATOM     59  C   UNL     1       2.536  -6.477  -8.211  1.00  0.00     0.074 A 
ATOM     60  C   UNL     1       8.200  -8.968  -6.735  1.00  0.00     0.029 A 
ATOM     61  N   UNL     1       6.368  -7.708  -6.821  1.00  0.00    -0.354 N 
ATOM     62  N   UNL     1       3.702  -6.938  -7.825  1.00  0.00    -0.248 NA
ATOM     63  C   UNL     1       2.029  -7.103  -9.443  1.00  0.00     0.031 C 
ATOM     64  C   UNL     1       7.435  -9.368  -7.836  1.00  0.00     0.029 A 
ATOM     65  C   UNL     1       6.280  -8.601  -7.874  1.00  0.00     0.049 A 
ATOM     66  H   UNL     1       5.690  -7.029  -6.598  1.00  0.00     0.167 HD
ATOM     67  C   UNL     1       4.059  -7.913  -8.749  1.00  0.00     0.074 A 
ATOM     68  C   UNL     1       2.975  -7.994  -9.706  1.00  0.00     0.031 C 
ATOM     69  C   UNL     1       5.184  -8.669  -8.808  1.00  0.00     0.037 A 
BRANCH  56  70
ATOM     70  C   UNL     1       9.287  -7.430  -4.346  1.00  0.00     0.064 A 
ATOM     71  C   UNL     1       9.395  -7.955  -3.050  1.00  0.00     0.173 A 
ATOM     72  C   UNL     1      10.475  -7.157  -5.044  1.00  0.00     0.173 A 
ATOM     73  F   UNL     1       8.292  -8.207  -2.329  1.00  0.00    -0.203 F 
ATOM     74  C   UNL     1      10.643  -8.164  -2.466  1.00  0.00     0.198 A 
ATOM     75  C   UNL     1      11.719  -7.400  -4.470  1.00  0.00     0.198 A 
ATOM     76  F   UNL     1      10.428  -6.649  -6.285  1.00  0.00    -0.203 F 
ATOM     77  F   UNL     1      10.723  -8.605  -1.202  1.00  0.00    -0.200 F 
ATOM     78  C   UNL     1      11.802  -7.893  -3.177  1.00  0.00     0.200 A 
ATOM     79  F   UNL     1      12.836  -7.145  -5.164  1.00  0.00    -0.200 F 
ATOM     80  F   UNL     1      13.001  -8.094  -2.613  1.00  0.00    -0.200 F 
ENDBRANCH  56  70
BRANCH  57  81
ATOM     81  C   UNL     1       0.359  -5.042  -8.189  1.00  0.00     0.064 A 
ATOM     82  C   UNL     1      -0.705  -5.954  -8.232  1.00  0.00     0.173 A 
ATOM     83  C   UNL     1       0.158  -3.791  -8.797  1.00  0.00     0.173 A 
ATOM     84  F   UNL     1      -0.558  -7.179  -7.707  1.00  0.00    -0.203 F 
ATOM     85  C   UNL     1      -1.908  -5.636  -8.865  1.00  0.00     0.198 A 
ATOM     86  C   UNL     1      -1.056  -3.461  -9.398  1.00  0.00     0.198 A 
ATOM     87  F   UNL     1       1.146  -2.884  -8.812  1.00  0.00    -0.203 F 
ATOM     88  F   UNL     1      -2.886  -6.549  -8.940  1.00  0.00    -0.200 F 
ATOM     89  C   UNL     1      -2.085  -4.387  -9.440  1.00  0.00     0.200 A 
ATOM     90  F   UNL     1      -1.222  -2.249  -9.946  1.00  0.00    -0.200 F 
ATOM     91  F   UNL     1      -3.240  -4.081 -10.047  1.00  0.00    -0.200 F 
ENDBRANCH  57  81
BRANCH  69  92
ATOM     92  C   UNL     1       5.291  -9.673  -9.920  1.00  0.00     0.064 A 
ATOM     93  C   UNL     1       5.513  -9.281 -11.248  1.00  0.00     0.173 A 
ATOM     94  C   UNL     1       5.245 -11.048  -9.640  1.00  0.00     0.173 A 
ATOM     95  F   UNL     1       5.553  -7.979 -11.569  1.00  0.00    -0.203 F 
ATOM     96  C   UNL     1       5.668 -10.228 -12.257  1.00  0.00     0.198 A 
ATOM     97  C   UNL     1       5.433 -11.991 -10.645  1.00  0.00     0.198 A 
ATOM     98  F   UNL     1       5.044 -11.476  -8.384  1.00  0.00    -0.203 F 
ATOM     99  F   UNL     1       5.839  -9.830 -13.525  1.00  0.00    -0.200 F 
ATOM    100  C   UNL     1       5.639 -11.581 -11.953  1.00  0.00     0.200 A 
ATOM    101  F   UNL     1       5.424 -13.298 -10.346  1.00  0.00    -0.200 F 
ATOM    102  F   UNL     1       5.806 -12.490 -12.923  1.00  0.00    -0.200 F 
ENDBRANCH  69  92
ENDBRANCH  43  44
ENDBRANCH  36  38
ENDBRANCH  35  36
ENDBRANCH  34  35
ENDBRANCH  33  34
ENDBRANCH  32  33
ENDBRANCH  31  32
ENDBRANCH   1  31
TORSDOF 21
