REMARK SMILES O=C(OCCOCCOCCOC(=O)[C@@H](CCCCl)[P@TB4](=O)(c1ccccc1)c1ccccc1)c1ccc(-c2c3nc(c(-c4c(F)c(F)c(F)c(F)c4F)c4ccc([nH]4)c(-c4c(F)c(F)c(F)c(F)c4F)c4nc(c(-c5c(F)c(F)c(F)c(F)c5F)c5ccc2[nH]5)C=C4)C=C3)cc1
REMARK SMILES IDX 8 1 7 2 6 3 5 4 4 5 3 6 2 7 1 8 34 9 35 10 96 11 36 12 95 13
REMARK SMILES IDX 37 14 38 15 39 16 89 17 40 18 94 19 88 20 90 21 41 22 93 23
REMARK SMILES IDX 87 24 86 25 42 27 74 28 54 29 73 30 55 31 58 32 72 33 91 34
REMARK SMILES IDX 56 35 57 36 71 38 92 39 59 40 43 41 44 42 52 43 45 44 46 45
REMARK SMILES IDX 50 46 53 47 47 48 48 49 51 50 49 51 75 52 76 53 84 54 77 55
REMARK SMILES IDX 78 56 82 57 85 58 79 59 80 60 83 61 81 62 60 63 61 64 69 65
REMARK SMILES IDX 62 66 63 67 67 68 70 69 64 70 65 71 68 72 66 73 9 74 10 75
REMARK SMILES IDX 11 76 12 77 13 78 14 79 15 80 16 81 17 82 18 83 19 84 20 85
REMARK SMILES IDX 21 86 22 87 23 88 27 89 24 90 26 91 25 92 28 93 29 94 33 95
REMARK SMILES IDX 30 96 32 97 31 98
REMARK H PARENT 90 26 58 37
REMARK Flexibility Score: inf
ROOT
ATOM      1  C   UNL     1       2.157  -2.006   1.983  1.00  0.00       nan C 
ENDROOT
BRANCH   1   2
ATOM      2  C   UNL     1       2.391  -0.944   0.906  1.00  0.00       nan C 
BRANCH   2   3
ATOM      3  O   UNL     1       3.680  -0.943   0.291  1.00  0.00       nan OA
BRANCH   3   4
ATOM      4  C   UNL     1       4.695  -0.296   1.045  1.00  0.00       nan C 
BRANCH   4   5
ATOM      5  C   UNL     1       4.684   1.234   0.944  1.00  0.00       nan C 
BRANCH   5   6
ATOM      6  O   UNL     1       3.523   1.851   0.349  1.00  0.00       inf OA
BRANCH   6   7
ATOM      7  C   UNL     1       2.881   1.621  -0.820  1.00  0.00     0.338 C 
ATOM      8  O   UNL     1       1.694   1.940  -0.898  1.00  0.00    -0.246 OA
BRANCH   7   9
ATOM      9  C   UNL     1       3.534   1.078  -2.055  1.00  0.00     0.060 A 
ATOM     10  C   UNL     1       4.866   0.692  -2.159  1.00  0.00     0.016 A 
ATOM     11  C   UNL     1       2.740   0.996  -3.223  1.00  0.00     0.016 A 
ATOM     12  C   UNL     1       5.389   0.256  -3.380  1.00  0.00     0.010 A 
ATOM     13  C   UNL     1       3.264   0.570  -4.457  1.00  0.00     0.010 A 
ATOM     14  C   UNL     1       4.605   0.203  -4.546  1.00  0.00    -0.014 A 
BRANCH  14  15
ATOM     15  C   UNL     1       5.323  -0.073  -5.818  1.00  0.00     0.031 A 
ATOM     16  C   UNL     1       6.190   0.990  -6.368  1.00  0.00     0.074 A 
ATOM     17  C   UNL     1       5.240  -1.209  -6.532  1.00  0.00     0.049 A 
ATOM     18  N   UNL     1       6.995   0.919  -7.388  1.00  0.00    -0.248 NA
ATOM     19  C   UNL     1       6.064   2.317  -5.753  1.00  0.00     0.031 C 
ATOM     20  C   UNL     1       4.163  -2.149  -6.381  1.00  0.00     0.029 A 
ATOM     21  N   UNL     1       6.032  -1.766  -7.526  1.00  0.00    -0.354 N 
ATOM     22  C   UNL     1       7.434   2.205  -7.585  1.00  0.00     0.074 A 
ATOM     23  C   UNL     1       6.848   3.030  -6.544  1.00  0.00     0.031 C 
ATOM     24  C   UNL     1       4.397  -3.185  -7.197  1.00  0.00     0.029 A 
ATOM     25  C   UNL     1       5.696  -3.079  -7.807  1.00  0.00     0.049 A 
ATOM     26  H   UNL     1       6.755  -1.279  -7.983  1.00  0.00     0.167 HD
ATOM     27  C   UNL     1       8.201   2.653  -8.600  1.00  0.00     0.037 A 
ATOM     28  C   UNL     1       6.347  -4.089  -8.436  1.00  0.00     0.037 A 
ATOM     29  C   UNL     1       8.664   1.835  -9.691  1.00  0.00     0.049 A 
ATOM     30  C   UNL     1       7.365  -3.626  -9.424  1.00  0.00     0.074 A 
ATOM     31  C   UNL     1       9.399   2.221 -10.796  1.00  0.00     0.029 A 
ATOM     32  N   UNL     1       8.409   0.473  -9.842  1.00  0.00    -0.354 N 
ATOM     33  N   UNL     1       7.806  -2.407  -9.595  1.00  0.00    -0.248 NA
ATOM     34  C   UNL     1       7.819  -4.593 -10.430  1.00  0.00     0.031 C 
ATOM     35  C   UNL     1       9.566   1.106 -11.626  1.00  0.00     0.029 A 
ATOM     36  C   UNL     1       8.993   0.004 -11.013  1.00  0.00     0.049 A 
ATOM     37  H   UNL     1       7.891  -0.077  -9.210  1.00  0.00     0.167 HD
ATOM     38  C   UNL     1       8.494  -2.424 -10.786  1.00  0.00     0.074 A 
ATOM     39  C   UNL     1       8.512  -3.805 -11.242  1.00  0.00     0.031 C 
ATOM     40  C   UNL     1       8.995  -1.367 -11.465  1.00  0.00     0.037 A 
BRANCH  27  41
ATOM     41  C   UNL     1       8.452   4.124  -8.586  1.00  0.00     0.064 A 
ATOM     42  C   UNL     1       9.249   4.720  -7.595  1.00  0.00     0.173 A 
ATOM     43  C   UNL     1       7.768   4.957  -9.480  1.00  0.00     0.173 A 
ATOM     44  F   UNL     1       9.863   3.959  -6.675  1.00  0.00    -0.203 F 
ATOM     45  C   UNL     1       9.318   6.103  -7.477  1.00  0.00     0.198 A 
ATOM     46  C   UNL     1       7.869   6.340  -9.381  1.00  0.00     0.198 A 
ATOM     47  F   UNL     1       6.961   4.431 -10.414  1.00  0.00    -0.203 F 
ATOM     48  F   UNL     1      10.000   6.653  -6.463  1.00  0.00    -0.200 F 
ATOM     49  C   UNL     1       8.632   6.911  -8.373  1.00  0.00     0.200 A 
ATOM     50  F   UNL     1       7.195   7.120 -10.236  1.00  0.00    -0.200 F 
ATOM     51  F   UNL     1       8.681   8.244  -8.244  1.00  0.00    -0.200 F 
ENDBRANCH  27  41
BRANCH  28  52
ATOM     52  C   UNL     1       6.024  -5.558  -8.281  1.00  0.00     0.064 A 
ATOM     53  C   UNL     1       7.021  -6.491  -7.916  1.00  0.00     0.173 A 
ATOM     54  C   UNL     1       4.743  -6.092  -8.483  1.00  0.00     0.173 A 
ATOM     55  F   UNL     1       8.296  -6.094  -7.782  1.00  0.00    -0.203 F 
ATOM     56  C   UNL     1       6.737  -7.853  -7.730  1.00  0.00     0.198 A 
ATOM     57  C   UNL     1       4.441  -7.431  -8.216  1.00  0.00     0.198 A 
ATOM     58  F   UNL     1       3.764  -5.324  -8.980  1.00  0.00    -0.203 F 
ATOM     59  F   UNL     1       7.726  -8.717  -7.458  1.00  0.00    -0.200 F 
ATOM     60  C   UNL     1       5.439  -8.315  -7.849  1.00  0.00     0.200 A 
ATOM     61  F   UNL     1       3.178  -7.862  -8.340  1.00  0.00    -0.200 F 
ATOM     62  F   UNL     1       5.157  -9.612  -7.657  1.00  0.00    -0.200 F 
ENDBRANCH  28  52
BRANCH  40  63
ATOM     63  C   UNL     1       9.662  -1.702 -12.758  1.00  0.00     0.064 A 
ATOM     64  C   UNL     1       8.936  -2.088 -13.895  1.00  0.00     0.173 A 
ATOM     65  C   UNL     1      11.060  -1.700 -12.828  1.00  0.00     0.173 A 
ATOM     66  F   UNL     1       7.596  -2.147 -13.857  1.00  0.00    -0.203 F 
ATOM     67  C   UNL     1       9.595  -2.494 -15.051  1.00  0.00     0.198 A 
ATOM     68  C   UNL     1      11.713  -2.077 -13.994  1.00  0.00     0.198 A 
ATOM     69  F   UNL     1      11.788  -1.357 -11.755  1.00  0.00    -0.203 F 
ATOM     70  F   UNL     1       8.891  -2.933 -16.104  1.00  0.00    -0.200 F 
ATOM     71  C   UNL     1      10.982  -2.484 -15.100  1.00  0.00     0.200 A 
ATOM     72  F   UNL     1      13.052  -2.071 -14.037  1.00  0.00    -0.200 F 
ATOM     73  F   UNL     1      11.616  -2.890 -16.208  1.00  0.00    -0.200 F 
ENDBRANCH  40  63
ENDBRANCH  14  15
ENDBRANCH   7   9
ENDBRANCH   6   7
ENDBRANCH   5   6
ENDBRANCH   4   5
ENDBRANCH   3   4
ENDBRANCH   2   3
ENDBRANCH   1   2
BRANCH   1  74
ATOM     74  O   UNL     1       3.340  -2.362   2.689  1.00  0.00       nan OA
BRANCH  74  75
ATOM     75  C   UNL     1       3.702  -3.732   2.515  1.00  0.00       nan C 
BRANCH  75  76
ATOM     76  C   UNL     1       4.443  -4.045   1.210  1.00  0.00       nan C 
BRANCH  76  77
ATOM     77  O   UNL     1       3.873  -3.568  -0.024  1.00  0.00       nan OA
BRANCH  77  78
ATOM     78  C   UNL     1       2.724  -4.145  -0.467  1.00  0.00       nan C 
ATOM     79  O   UNL     1       1.945  -4.749   0.247  1.00  0.00       nan OA
BRANCH  78  80
ATOM     80  C   UNL     1       2.603  -4.092  -2.002  1.00  0.00       nan C 
BRANCH  80  81
ATOM     81  C   UNL     1       3.352  -2.938  -2.689  1.00  0.00       nan C 
BRANCH  81  82
ATOM     82  C   UNL     1       4.836  -3.155  -3.028  1.00  0.00       nan C 
BRANCH  82  83
ATOM     83  C   UNL     1       5.314  -4.188  -4.056  1.00  0.00       nan C 
ATOM     84  Cl  UNL     1       4.089  -4.953  -5.091  1.00  0.00       nan Cl
ENDBRANCH  82  83
ENDBRANCH  81  82
ENDBRANCH  80  81
BRANCH  80  85
ATOM     85  P   UNL     1       3.213  -5.696  -2.636  1.00  0.00       nan P 
ATOM     86  O   UNL     1       4.213  -5.827  -1.464  1.00  0.00       nan OA
BRANCH  85  87
ATOM     87  C   UNL     1       1.435  -6.435  -2.213  1.00  0.00       nan A 
ATOM     88  C   UNL     1       0.300  -5.924  -2.878  1.00  0.00       nan A 
ATOM     89  C   UNL     1       1.288  -7.486  -1.294  1.00  0.00       nan A 
ATOM     90  C   UNL     1      -0.966  -6.435  -2.593  1.00  0.00       nan A 
ATOM     91  C   UNL     1       0.024  -8.038  -1.076  1.00  0.00       nan A 
ATOM     92  C   UNL     1      -1.101  -7.504  -1.709  1.00  0.00       nan A 
ENDBRANCH  85  87
BRANCH  85  93
ATOM     93  C   UNL     1       3.824  -7.301  -3.270  1.00  0.00       nan A 
ATOM     94  C   UNL     1       2.985  -8.312  -3.789  1.00  0.00       nan A 
ATOM     95  C   UNL     1       5.206  -7.603  -3.307  1.00  0.00       nan A 
ATOM     96  C   UNL     1       3.473  -9.556  -4.214  1.00  0.00       nan A 
ATOM     97  C   UNL     1       5.709  -8.809  -3.817  1.00  0.00       nan A 
ATOM     98  C   UNL     1       4.838  -9.799  -4.243  1.00  0.00       nan A 
ENDBRANCH  85  93
ENDBRANCH  80  85
ENDBRANCH  78  80
ENDBRANCH  77  78
ENDBRANCH  76  77
ENDBRANCH  75  76
ENDBRANCH  74  75
ENDBRANCH   1  74
TORSDOF 23
