REMARK SMILES CCCC[C@H](C(=O)OCCOCCOCCOC(=O)c1ccc(-c2c3nc(c(-c4c(F)c(F)c(F)c(F)c4F)c4ccc([nH]4)c(-c4c(F)c(F)c(F)c(F)c4F)c4nc(c(-c5c(F)c(F)c(F)c(F)c5F)c5ccc2[nH]5)C=C4)C=C3)cc1)c1ccccn1
REMARK SMILES IDX 12 1 11 2 10 3 9 4 8 5 6 6 7 7 5 8 4 9 3 10 2 11 1 12 83 13
REMARK SMILES IDX 84 14 88 15 85 16 87 17 86 18 13 19 14 20 15 21 16 22 17 23
REMARK SMILES IDX 18 24 19 25 20 26 21 27 82 28 22 29 81 30 23 31 24 32 25 33
REMARK SMILES IDX 75 34 26 35 80 36 74 37 76 38 27 39 79 40 73 41 72 42 28 44
REMARK SMILES IDX 60 45 40 46 59 47 41 48 44 49 58 50 77 51 42 52 43 53 57 55
REMARK SMILES IDX 78 56 45 57 29 58 30 59 38 60 31 61 32 62 36 63 39 64 33 65
REMARK SMILES IDX 34 66 37 67 35 68 61 69 62 70 70 71 63 72 64 73 68 74 71 75
REMARK SMILES IDX 65 76 66 77 69 78 67 79 46 80 47 81 55 82 48 83 49 84 53 85
REMARK SMILES IDX 56 86 50 87 51 88 54 89 52 90
REMARK H PARENT 76 43 44 54
REMARK Flexibility Score: inf
ROOT
ATOM      1  C   UNL     1       2.004   0.056   4.596  1.00  0.00     0.188 C 
ENDROOT
BRANCH   1   2
ATOM      2  O   UNL     1       3.185  -0.323   3.900  1.00  0.00    -0.376 OA
BRANCH   2   3
ATOM      3  C   UNL     1       3.391   0.235   2.604  1.00  0.00     0.202 C 
BRANCH   3   4
ATOM      4  C   UNL     1       2.250   0.085   1.585  1.00  0.00     0.261 C 
BRANCH   4   5
ATOM      5  O   UNL     1       0.944   0.461   2.083  1.00  0.00    -0.463 OA
BRANCH   5   6
ATOM      6  C   UNL     1      -0.088  -0.362   1.764  1.00  0.00     0.315 C 
ATOM      7  O   UNL     1       0.044  -1.327   1.010  1.00  0.00    -0.251 OA
BRANCH   6   8
ATOM      8  C   UNL     1      -1.423  -0.118   2.493  1.00  0.00     0.148 C 
BRANCH   8   9
ATOM      9  C   UNL     1      -1.672  -1.371   3.389  1.00  0.00     0.022 C 
BRANCH   9  10
ATOM     10  C   UNL     1      -3.110  -1.698   3.841  1.00  0.00     0.001 C 
BRANCH  10  11
ATOM     11  C   UNL     1      -4.234  -1.335   2.876  1.00  0.00    -0.003 C 
ATOM     12  C   UNL     1      -4.240  -2.216   1.640  1.00  0.00     0.004 C 
ENDBRANCH  10  11
ENDBRANCH   9  10
ENDBRANCH   8   9
BRANCH   8  13
ATOM     13  C   UNL     1      -1.643   1.241   3.152  1.00  0.00     0.055 A 
ATOM     14  C   UNL     1      -2.214   1.388   4.422  1.00  0.00     0.025 A 
ATOM     15  N   UNL     1      -1.355   2.341   2.412  1.00  0.00    -0.260 NA
ATOM     16  C   UNL     1      -2.496   2.655   4.934  1.00  0.00     0.003 A 
ATOM     17  C   UNL     1      -1.586   3.565   2.955  1.00  0.00     0.111 A 
ATOM     18  C   UNL     1      -2.153   3.772   4.198  1.00  0.00     0.020 A 
ENDBRANCH   8  13
ENDBRANCH   6   8
ENDBRANCH   5   6
ENDBRANCH   4   5
ENDBRANCH   3   4
ENDBRANCH   2   3
ENDBRANCH   1   2
BRANCH   1  19
ATOM     19  C   UNL     1       1.589   1.534   4.586  1.00  0.00     0.188 C 
BRANCH  19  20
ATOM     20  O   UNL     1       2.566   2.396   4.042  1.00  0.00    -0.376 OA
BRANCH  20  21
ATOM     21  C   UNL     1       2.534   3.737   4.496  1.00  0.00     0.202 C 
BRANCH  21  22
ATOM     22  C   UNL     1       3.278   3.875   5.832  1.00  0.00     0.261 C 
BRANCH  22  23
ATOM     23  O   UNL     1       2.783   3.033   6.899  1.00  0.00    -0.460 OA
BRANCH  23  24
ATOM     24  C   UNL     1       1.546   3.330   7.372  1.00  0.00     0.338 C 
ATOM     25  O   UNL     1       0.869   4.292   7.072  1.00  0.00    -0.246 OA
BRANCH  24  26
ATOM     26  C   UNL     1       1.017   2.150   8.114  1.00  0.00     0.060 A 
ATOM     27  C   UNL     1      -0.233   1.649   7.727  1.00  0.00     0.016 A 
ATOM     28  C   UNL     1       1.712   1.532   9.153  1.00  0.00     0.016 A 
ATOM     29  C   UNL     1      -0.822   0.578   8.402  1.00  0.00     0.010 A 
ATOM     30  C   UNL     1       1.114   0.466   9.847  1.00  0.00     0.010 A 
ATOM     31  C   UNL     1      -0.174   0.009   9.505  1.00  0.00    -0.014 A 
BRANCH  31  32
ATOM     32  C   UNL     1      -0.934  -0.910  10.399  1.00  0.00     0.031 A 
ATOM     33  C   UNL     1      -1.484  -0.365  11.694  1.00  0.00     0.074 A 
ATOM     34  C   UNL     1      -1.202  -2.183  10.053  1.00  0.00     0.049 A 
ATOM     35  N   UNL     1      -2.172  -0.969  12.631  1.00  0.00    -0.248 NA
ATOM     36  C   UNL     1      -1.223   1.057  11.964  1.00  0.00     0.031 C 
ATOM     37  C   UNL     1      -0.784  -2.830   8.813  1.00  0.00     0.029 A 
ATOM     38  N   UNL     1      -1.898  -3.162  10.724  1.00  0.00    -0.354 N 
ATOM     39  C   UNL     1      -2.414  -0.006  13.604  1.00  0.00     0.074 A 
ATOM     40  C   UNL     1      -1.772   1.212  13.159  1.00  0.00     0.031 C 
ATOM     41  C   UNL     1      -1.227  -4.100   8.812  1.00  0.00     0.029 A 
ATOM     42  C   UNL     1      -1.931  -4.368  10.066  1.00  0.00     0.049 A 
ATOM     43  H   UNL     1      -2.333  -3.012  11.595  1.00  0.00     0.167 HD
ATOM     44  C   UNL     1      -3.116  -0.118  14.757  1.00  0.00     0.037 A 
ATOM     45  C   UNL     1      -2.450  -5.555  10.441  1.00  0.00     0.037 A 
ATOM     46  C   UNL     1      -3.761  -1.325  15.206  1.00  0.00     0.049 A 
ATOM     47  C   UNL     1      -3.161  -5.675  11.768  1.00  0.00     0.074 A 
ATOM     48  C   UNL     1      -4.506  -1.529  16.355  1.00  0.00     0.029 A 
ATOM     49  N   UNL     1      -3.731  -2.536  14.532  1.00  0.00    -0.354 N 
ATOM     50  N   UNL     1      -3.400  -4.755  12.670  1.00  0.00    -0.248 NA
ATOM     51  C   UNL     1      -3.682  -7.005  12.122  1.00  0.00     0.031 C 
ATOM     52  C   UNL     1      -4.871  -2.878  16.409  1.00  0.00     0.029 A 
ATOM     53  C   UNL     1      -4.418  -3.499  15.256  1.00  0.00     0.049 A 
ATOM     54  H   UNL     1      -3.287  -2.691  13.667  1.00  0.00     0.167 HD
ATOM     55  C   UNL     1      -4.124  -5.383  13.678  1.00  0.00     0.074 A 
ATOM     56  C   UNL     1      -4.304  -6.759  13.265  1.00  0.00     0.031 C 
ATOM     57  C   UNL     1      -4.598  -4.867  14.840  1.00  0.00     0.037 A 
BRANCH  44  58
ATOM     58  C   UNL     1      -3.196   1.097  15.640  1.00  0.00     0.064 A 
ATOM     59  C   UNL     1      -3.934   2.233  15.275  1.00  0.00     0.173 A 
ATOM     60  C   UNL     1      -2.550   1.109  16.886  1.00  0.00     0.173 A 
ATOM     61  F   UNL     1      -4.559   2.281  14.088  1.00  0.00    -0.203 F 
ATOM     62  C   UNL     1      -3.995   3.347  16.109  1.00  0.00     0.198 A 
ATOM     63  C   UNL     1      -2.642   2.211  17.733  1.00  0.00     0.198 A 
ATOM     64  F   UNL     1      -1.835   0.048  17.288  1.00  0.00    -0.203 F 
ATOM     65  F   UNL     1      -4.660   4.442  15.714  1.00  0.00    -0.200 F 
ATOM     66  C   UNL     1      -3.357   3.332  17.340  1.00  0.00     0.200 A 
ATOM     67  F   UNL     1      -2.038   2.187  18.928  1.00  0.00    -0.200 F 
ATOM     68  F   UNL     1      -3.424   4.401  18.145  1.00  0.00    -0.200 F 
ENDBRANCH  44  58
BRANCH  45  69
ATOM     69  C   UNL     1      -2.310  -6.746   9.557  1.00  0.00     0.064 A 
ATOM     70  C   UNL     1      -3.429  -7.349   8.966  1.00  0.00     0.173 A 
ATOM     71  C   UNL     1      -1.056  -7.330   9.320  1.00  0.00     0.173 A 
ATOM     72  F   UNL     1      -4.654  -6.850   9.187  1.00  0.00    -0.203 F 
ATOM     73  C   UNL     1      -3.303  -8.502   8.192  1.00  0.00     0.198 A 
ATOM     74  C   UNL     1      -0.927  -8.462   8.518  1.00  0.00     0.198 A 
ATOM     75  F   UNL     1       0.046  -6.800   9.868  1.00  0.00    -0.203 F 
ATOM     76  F   UNL     1      -4.397  -9.091   7.689  1.00  0.00    -0.200 F 
ATOM     77  C   UNL     1      -2.052  -9.053   7.963  1.00  0.00     0.200 A 
ATOM     78  F   UNL     1       0.285  -8.985   8.291  1.00  0.00    -0.200 F 
ATOM     79  F   UNL     1      -1.931 -10.161   7.218  1.00  0.00    -0.200 F 
ENDBRANCH  45  69
BRANCH  57  80
ATOM     80  C   UNL     1      -5.399  -5.780  15.730  1.00  0.00     0.064 A 
ATOM     81  C   UNL     1      -4.816  -6.868  16.398  1.00  0.00     0.173 A 
ATOM     82  C   UNL     1      -6.771  -5.554  15.927  1.00  0.00     0.173 A 
ATOM     83  F   UNL     1      -3.511  -7.137  16.240  1.00  0.00    -0.203 F 
ATOM     84  C   UNL     1      -5.584  -7.720  17.190  1.00  0.00     0.198 A 
ATOM     85  C   UNL     1      -7.527  -6.385  16.750  1.00  0.00     0.198 A 
ATOM     86  F   UNL     1      -7.381  -4.523  15.325  1.00  0.00    -0.203 F 
ATOM     87  F   UNL     1      -5.017  -8.793  17.761  1.00  0.00    -0.200 F 
ATOM     88  C   UNL     1      -6.936  -7.475  17.370  1.00  0.00     0.200 A 
ATOM     89  F   UNL     1      -8.830  -6.134  16.938  1.00  0.00    -0.200 F 
ATOM     90  F   UNL     1      -7.673  -8.296  18.131  1.00  0.00    -0.200 F 
ENDBRANCH  57  80
ENDBRANCH  31  32
ENDBRANCH  24  26
ENDBRANCH  23  24
ENDBRANCH  22  23
ENDBRANCH  21  22
ENDBRANCH  20  21
ENDBRANCH  19  20
ENDBRANCH   1  19
TORSDOF 21
