REMARK SMILES Cc1ccccc1C(=O)Nc1ccc(OCC(=O)OCCOCCOCCOC(=O)c2ccc(-c3c4nc(c(-c5c(F)c(F)c(F)c(F)c5F)c5ccc([nH]5)c(-c5c(F)c(F)c(F)c(F)c5F)c5nc(c(-c6c(F)c(F)c(F)c(F)c6F)c6ccc3[nH]6)C=C5)C=C4)cc2)c(-c2nc3ccccc3s2)c1
REMARK SMILES IDX 23 1 22 2 21 3 20 4 19 5 17 6 18 7 16 8 15 9 14 10 11 11
REMARK SMILES IDX 12 12 104 13 13 14 94 15 10 16 8 17 9 18 7 20 1 21 2 22 3 23
REMARK SMILES IDX 4 24 6 25 5 26 95 27 96 28 103 29 97 30 102 31 98 32 101 33
REMARK SMILES IDX 99 34 100 35 24 36 25 37 26 38 27 39 28 40 29 41 30 42 31 43
REMARK SMILES IDX 32 44 93 45 33 46 92 47 34 48 35 49 36 50 86 51 37 52 91 53
REMARK SMILES IDX 85 54 87 55 38 56 90 57 84 58 83 59 39 61 71 62 51 63 70 64
REMARK SMILES IDX 52 65 55 66 69 67 88 68 53 69 54 70 68 72 89 73 56 74 40 75
REMARK SMILES IDX 41 76 49 77 42 78 43 79 47 80 50 81 44 82 45 83 48 84 46 85
REMARK SMILES IDX 72 86 73 87 81 88 74 89 75 90 79 91 82 92 76 93 77 94 80 95
REMARK SMILES IDX 78 96 57 97 58 98 66 99 59 100 60 101 64 102 67 103 61 104
REMARK SMILES IDX 62 105 65 106 63 107
REMARK H PARENT 10 19 87 60 55 71
REMARK Flexibility Score: inf
ROOT
ATOM      1  C   UNL     1       0.592  -2.972  -0.141  1.00  0.00     0.188 C 
ENDROOT
BRANCH   1   2
ATOM      2  O   UNL     1      -0.315  -3.939   0.207  1.00  0.00    -0.376 OA
BRANCH   2   3
ATOM      3  C   UNL     1       0.324  -4.747   1.232  1.00  0.00     0.202 C 
BRANCH   3   4
ATOM      4  C   UNL     1       2.127  -5.250   1.347  1.00  0.00     0.261 C 
BRANCH   4   5
ATOM      5  O   UNL     1       3.778  -4.564   0.776  1.00  0.00    -0.461 OA
BRANCH   5   6
ATOM      6  C   UNL     1       5.226  -4.716  -0.304  1.00  0.00     0.344 C 
ATOM      7  O   UNL     1       5.280  -5.334  -1.417  1.00  0.00    -0.248 OA
BRANCH   6   8
ATOM      8  C   UNL     1       6.371  -3.756  -0.198  1.00  0.00     0.352 C 
BRANCH   8   9
ATOM      9  O   UNL     1       6.277  -2.394   0.149  1.00  0.00    -0.481 OA
BRANCH   9  10
ATOM     10  C   UNL     1       5.281  -1.409  -0.266  1.00  0.00     0.130 A 
ATOM     11  C   UNL     1       3.711   1.885  -0.977  1.00  0.00     0.042 A 
ATOM     12  C   UNL     1       5.143   1.674   0.069  1.00  0.00     0.030 A 
ATOM     13  C   UNL     1       3.192   0.584  -1.906  1.00  0.00     0.041 A 
ATOM     14  C   UNL     1       5.991   0.132   0.401  1.00  0.00     0.049 A 
ATOM     15  C   UNL     1       3.649  -1.177  -1.539  1.00  0.00     0.055 A 
BRANCH  11  16
ATOM     16  N   UNL     1       2.604   2.981  -0.616  1.00  0.00    -0.322 N 
ATOM     17  C   UNL     1       1.054   3.246  -0.590  1.00  0.00     0.255 C 
ATOM     18  O   UNL     1       0.742   4.438  -0.409  1.00  0.00    -0.269 OA
ATOM     19  H   UNL     1       3.063   3.789  -0.289  1.00  0.00     0.170 HD
BRANCH  17  20
ATOM     20  C   UNL     1      -0.212   2.272  -0.340  1.00  0.00     0.043 A 
ATOM     21  C   UNL     1       1.161   1.782   1.581  1.00  0.00     0.045 C 
ATOM     22  C   UNL     1       0.004   1.373   0.622  1.00  0.00    -0.038 A 
ATOM     23  C   UNL     1      -0.750   0.133   0.383  1.00  0.00     0.004 A 
ATOM     24  C   UNL     1      -2.032  -0.017  -0.057  1.00  0.00     0.000 A 
ATOM     25  C   UNL     1      -1.655   2.340  -0.436  1.00  0.00     0.014 A 
ATOM     26  C   UNL     1      -2.572   1.202  -0.229  1.00  0.00     0.001 A 
ENDBRANCH  17  20
ENDBRANCH  11  16
BRANCH  15  27
ATOM     27  C   UNL     1       3.607  -1.569  -3.403  1.00  0.00     0.128 A 
ATOM     28  N   UNL     1       2.890  -0.994  -4.386  1.00  0.00    -0.236 NA
ATOM     29  S   UNL     1       4.593  -2.930  -4.360  1.00  0.00    -0.114 S 
ATOM     30  C   UNL     1       2.620  -1.938  -5.454  1.00  0.00     0.082 A 
ATOM     31  C   UNL     1       3.318  -3.139  -5.423  1.00  0.00     0.055 A 
ATOM     32  C   UNL     1       1.478  -1.918  -6.292  1.00  0.00     0.030 A 
ATOM     33  C   UNL     1       2.902  -4.348  -6.041  1.00  0.00     0.021 A 
ATOM     34  C   UNL     1       0.995  -3.123  -6.861  1.00  0.00     0.002 A 
ATOM     35  C   UNL     1       1.677  -4.330  -6.705  1.00  0.00     0.002 A 
ENDBRANCH  15  27
ENDBRANCH   9  10
ENDBRANCH   8   9
ENDBRANCH   6   8
ENDBRANCH   5   6
ENDBRANCH   4   5
ENDBRANCH   3   4
ENDBRANCH   2   3
ENDBRANCH   1   2
BRANCH   1  36
ATOM     36  C   UNL     1       1.499  -2.756   0.973  1.00  0.00     0.188 C 
BRANCH  36  37
ATOM     37  O   UNL     1       1.717  -3.020   2.338  1.00  0.00    -0.376 OA
BRANCH  37  38
ATOM     38  C   UNL     1       1.052  -2.210   3.243  1.00  0.00     0.202 C 
BRANCH  38  39
ATOM     39  C   UNL     1       0.639  -0.907   2.639  1.00  0.00     0.261 C 
BRANCH  39  40
ATOM     40  O   UNL     1       1.442  -0.496   1.315  1.00  0.00    -0.460 OA
BRANCH  40  41
ATOM     41  C   UNL     1       2.180  -0.134   0.164  1.00  0.00     0.338 C 
ATOM     42  O   UNL     1       1.468  -0.165  -0.842  1.00  0.00    -0.246 OA
BRANCH  41  43
ATOM     43  C   UNL     1       3.957  -0.070   0.018  1.00  0.00     0.060 A 
ATOM     44  C   UNL     1       5.160  -0.298  -1.618  1.00  0.00     0.016 A 
ATOM     45  C   UNL     1       3.815  -1.089   1.186  1.00  0.00     0.016 A 
ATOM     46  C   UNL     1       5.179  -2.217  -1.985  1.00  0.00     0.010 A 
ATOM     47  C   UNL     1       3.831  -2.533   0.627  1.00  0.00     0.010 A 
ATOM     48  C   UNL     1       3.934  -3.291  -1.027  1.00  0.00    -0.014 A 
BRANCH  48  49
ATOM     49  C   UNL     1       3.090  -5.135  -0.990  1.00  0.00     0.031 A 
ATOM     50  C   UNL     1       4.096  -6.404   0.198  1.00  0.00     0.074 A 
ATOM     51  C   UNL     1       1.605  -5.664  -1.203  1.00  0.00     0.049 A 
ATOM     52  N   UNL     1       5.148  -7.204  -0.092  1.00  0.00    -0.248 NA
ATOM     53  C   UNL     1       4.845  -5.883   1.841  1.00  0.00     0.031 C 
ATOM     54  C   UNL     1       0.727  -7.039  -0.877  1.00  0.00     0.029 A 
ATOM     55  N   UNL     1       0.402  -5.122  -1.814  1.00  0.00    -0.354 N 
ATOM     56  C   UNL     1       5.766  -7.617   1.130  1.00  0.00     0.074 A 
ATOM     57  C   UNL     1       6.013  -6.496   1.925  1.00  0.00     0.031 C 
ATOM     58  C   UNL     1      -0.325  -7.241  -1.753  1.00  0.00     0.029 A 
ATOM     59  C   UNL     1      -0.362  -6.075  -2.565  1.00  0.00     0.049 A 
ATOM     60  H   UNL     1       0.134  -4.180  -1.719  1.00  0.00     0.167 HD
ATOM     61  C   UNL     1       5.258  -8.700   1.787  1.00  0.00     0.037 A 
ATOM     62  C   UNL     1      -0.178  -6.091  -3.910  1.00  0.00     0.037 A 
ATOM     63  C   UNL     1       4.097  -9.146   1.023  1.00  0.00     0.049 A 
ATOM     64  C   UNL     1       1.004  -7.133  -4.048  1.00  0.00     0.074 A 
ATOM     65  C   UNL     1       2.738  -9.085   1.213  1.00  0.00     0.029 A 
ATOM     66  N   UNL     1       4.259  -9.251  -0.349  1.00  0.00    -0.354 N 
ATOM     67  N   UNL     1       1.850  -7.500  -3.103  1.00  0.00    -0.248 NA
ATOM     68  C   UNL     1       1.226  -7.889  -5.253  1.00  0.00     0.031 C 
ATOM     69  C   UNL     1       2.140  -9.305  -0.078  1.00  0.00     0.029 A 
ATOM     70  C   UNL     1       3.105  -9.300  -1.083  1.00  0.00     0.049 A 
ATOM     71  H   UNL     1       5.148  -9.287  -0.770  1.00  0.00     0.167 HD
ATOM     72  C   UNL     1       2.571  -8.602  -3.446  1.00  0.00     0.074 A 
ATOM     73  C   UNL     1       2.295  -8.618  -4.883  1.00  0.00     0.031 C 
ATOM     74  C   UNL     1       3.258  -9.436  -2.563  1.00  0.00     0.037 A 
BRANCH  61  75
ATOM     75  C   UNL     1       5.602  -9.157   3.199  1.00  0.00     0.064 A 
ATOM     76  C   UNL     1       5.021 -10.385   3.542  1.00  0.00     0.173 A 
ATOM     77  C   UNL     1       6.481  -8.620   4.187  1.00  0.00     0.173 A 
ATOM     78  F   UNL     1       4.175 -11.003   2.710  1.00  0.00    -0.203 F 
ATOM     79  C   UNL     1       5.314 -11.066   4.712  1.00  0.00     0.198 A 
ATOM     80  C   UNL     1       6.776  -9.316   5.375  1.00  0.00     0.198 A 
ATOM     81  F   UNL     1       7.101  -7.437   4.062  1.00  0.00    -0.203 F 
ATOM     82  F   UNL     1       4.742 -12.258   4.918  1.00  0.00    -0.200 F 
ATOM     83  C   UNL     1       6.205 -10.547   5.622  1.00  0.00     0.200 A 
ATOM     84  F   UNL     1       7.642  -8.803   6.266  1.00  0.00    -0.200 F 
ATOM     85  F   UNL     1       6.522 -11.246   6.719  1.00  0.00    -0.200 F 
ENDBRANCH  61  75
BRANCH  62  86
ATOM     86  C   UNL     1      -0.137  -4.607  -4.223  1.00  0.00     0.064 A 
ATOM     87  C   UNL     1      -1.245  -3.705  -4.151  1.00  0.00     0.173 A 
ATOM     88  C   UNL     1       1.066  -4.061  -3.848  1.00  0.00     0.173 A 
ATOM     89  F   UNL     1      -2.494  -4.165  -4.293  1.00  0.00    -0.203 F 
ATOM     90  C   UNL     1      -1.105  -2.347  -3.773  1.00  0.00     0.198 A 
ATOM     91  C   UNL     1       1.085  -2.823  -3.265  1.00  0.00     0.198 A 
ATOM     92  F   UNL     1       2.147  -4.839  -3.652  1.00  0.00    -0.203 F 
ATOM     93  F   UNL     1      -2.157  -1.529  -3.637  1.00  0.00    -0.200 F 
ATOM     94  C   UNL     1       0.103  -1.889  -3.364  1.00  0.00     0.200 A 
ATOM     95  F   UNL     1       2.049  -2.650  -2.394  1.00  0.00    -0.200 F 
ATOM     96  F   UNL     1       0.321  -0.621  -3.004  1.00  0.00    -0.200 F 
ENDBRANCH  62  86
BRANCH  74  97
ATOM     97  C   UNL     1       4.209 -10.571  -3.037  1.00  0.00     0.064 A 
ATOM     98  C   UNL     1       4.135 -11.131  -4.315  1.00  0.00     0.173 A 
ATOM     99  C   UNL     1       5.206 -11.206  -2.230  1.00  0.00     0.173 A 
ATOM    100  F   UNL     1       3.075 -10.956  -5.102  1.00  0.00    -0.203 F 
ATOM    101  C   UNL     1       5.046 -12.065  -4.805  1.00  0.00     0.198 A 
ATOM    102  C   UNL     1       6.053 -12.211  -2.685  1.00  0.00     0.198 A 
ATOM    103  F   UNL     1       5.425 -10.954  -0.937  1.00  0.00    -0.203 F 
ATOM    104  F   UNL     1       4.932 -12.471  -6.075  1.00  0.00    -0.200 F 
ATOM    105  C   UNL     1       5.991 -12.626  -3.985  1.00  0.00     0.200 A 
ATOM    106  F   UNL     1       6.914 -12.780  -1.828  1.00  0.00    -0.200 F 
ATOM    107  F   UNL     1       6.777 -13.614  -4.421  1.00  0.00    -0.200 F 
ENDBRANCH  74  97
ENDBRANCH  48  49
ENDBRANCH  41  43
ENDBRANCH  40  41
ENDBRANCH  39  40
ENDBRANCH  38  39
ENDBRANCH  37  38
ENDBRANCH  36  37
ENDBRANCH   1  36
TORSDOF 22
