REMARK SMILES CCOc1ccccc1N1CCN(c2ncc(N)cc2C(=O)OCCOCCOCCOC(=O)c2ccc(-c3c4nc(c(-c5c(F)c(F)c(F)c(F)c5F)c5ccc([nH]5)c(-c5c(F)c(F)c(F)c(F)c5F)c5nc(c(-c6c(F)c(F)c(F)c(F)c6F)c6ccc3[nH]6)C=C5)C=C4)cc2)CC1
REMARK SMILES IDX 27 1 26 2 25 3 24 4 23 5 21 6 22 7 20 8 14 9 15 10 16 11
REMARK SMILES IDX 19 12 17 13 13 14 10 15 11 16 99 17 12 18 98 19 9 20 4 21
REMARK SMILES IDX 5 22 6 23 8 24 7 25 3 26 2 27 1 28 18 29 28 32 29 33 30 34
REMARK SMILES IDX 31 35 32 36 33 37 34 38 35 39 36 40 97 41 37 42 96 43 38 44
REMARK SMILES IDX 39 45 40 46 90 47 41 48 95 49 89 50 91 51 42 52 94 53 88 54
REMARK SMILES IDX 87 55 43 57 75 58 55 59 74 60 56 61 59 62 73 63 92 64 57 65
REMARK SMILES IDX 58 66 72 68 93 69 60 70 44 71 45 72 53 73 46 74 47 75 51 76
REMARK SMILES IDX 54 77 48 78 49 79 52 80 50 81 76 82 77 83 85 84 78 85 79 86
REMARK SMILES IDX 83 87 86 88 80 89 81 90 84 91 82 92 61 93 62 94 70 95 63 96
REMARK SMILES IDX 64 97 68 98 71 99 65 100 66 101 69 102 67 103
REMARK H PARENT 18 30 18 31 91 56 59 67
REMARK Flexibility Score: inf
ROOT
ATOM      1  C   UNL     1       0.316   4.439  -1.222  1.00  0.00     0.188 C 
ENDROOT
BRANCH   1   2
ATOM      2  O   UNL     1       0.891   5.620  -1.781  1.00  0.00    -0.376 OA
BRANCH   2   3
ATOM      3  C   UNL     1       2.244   5.467  -2.212  1.00  0.00     0.202 C 
BRANCH   3   4
ATOM      4  C   UNL     1       2.312   5.229  -3.719  1.00  0.00     0.261 C 
BRANCH   4   5
ATOM      5  O   UNL     1       1.648   4.004  -4.083  1.00  0.00    -0.460 OA
BRANCH   5   6
ATOM      6  C   UNL     1       2.410   3.040  -4.652  1.00  0.00     0.342 C 
ATOM      7  O   UNL     1       3.615   3.079  -4.844  1.00  0.00    -0.246 OA
BRANCH   6   8
ATOM      8  C   UNL     1       1.543   1.899  -4.993  1.00  0.00     0.104 A 
ATOM      9  C   UNL     1       1.749   0.666  -4.361  1.00  0.00     0.143 A 
ATOM     10  N   UNL     1       0.995  -0.414  -4.662  1.00  0.00    -0.236 NA
ATOM     11  C   UNL     1      -0.013  -0.238  -5.554  1.00  0.00     0.139 A 
ATOM     12  C   UNL     1       0.489   2.054  -5.897  1.00  0.00     0.046 A 
ATOM     13  C   UNL     1      -0.322   0.965  -6.190  1.00  0.00     0.051 A 
BRANCH   9  14
ATOM     14  N   UNL     1       2.527   0.618  -3.206  1.00  0.00    -0.352 N 
ATOM     15  N   UNL     1       3.468   0.202  -0.559  1.00  0.00    -0.365 N 
ATOM     16  C   UNL     1       4.252  -0.312  -1.691  1.00  0.00     0.138 C 
ATOM     17  C   UNL     1       2.616   1.368  -0.864  1.00  0.00     0.138 C 
ATOM     18  C   UNL     1       3.330  -0.578  -2.918  1.00  0.00     0.139 C 
ATOM     19  C   UNL     1       1.723   1.075  -2.066  1.00  0.00     0.139 C 
BRANCH  15  20
ATOM     20  C   UNL     1       3.909   0.166   0.755  1.00  0.00     0.079 A 
ATOM     21  C   UNL     1       2.964   0.077   1.795  1.00  0.00     0.142 A 
ATOM     22  C   UNL     1       3.331   0.338   3.116  1.00  0.00     0.048 A 
ATOM     23  C   UNL     1       4.672   0.485   3.452  1.00  0.00     0.004 A 
ATOM     24  C   UNL     1       5.255   0.295   1.112  1.00  0.00     0.030 A 
ATOM     25  C   UNL     1       5.637   0.429   2.453  1.00  0.00     0.002 A 
BRANCH  21  26
ATOM     26  O   UNL     1       1.644  -0.227   1.511  1.00  0.00    -0.492 OA
BRANCH  26  27
ATOM     27  C   UNL     1       1.510  -1.539   0.919  1.00  0.00     0.226 C 
ATOM     28  C   UNL     1       0.460  -1.566  -0.174  1.00  0.00     0.049 C 
ENDBRANCH  26  27
ENDBRANCH  21  26
ENDBRANCH  15  20
ENDBRANCH   9  14
BRANCH  13  29
ATOM     29  N   UNL     1      -1.427   1.105  -7.008  1.00  0.00    -0.397 N 
ATOM     30  H   UNL     1      -1.994   0.325  -7.208  1.00  0.00     0.156 HD
ATOM     31  H   UNL     1      -1.648   1.984  -7.391  1.00  0.00     0.156 HD
ENDBRANCH  13  29
ENDBRANCH   6   8
ENDBRANCH   5   6
ENDBRANCH   4   5
ENDBRANCH   3   4
ENDBRANCH   2   3
ENDBRANCH   1   2
BRANCH   1  32
ATOM     32  C   UNL     1      -0.925   3.972  -1.999  1.00  0.00     0.188 C 
BRANCH  32  33
ATOM     33  O   UNL     1      -2.065   4.830  -2.066  1.00  0.00    -0.376 OA
BRANCH  33  34
ATOM     34  C   UNL     1      -2.139   5.912  -1.153  1.00  0.00     0.202 C 
BRANCH  34  35
ATOM     35  C   UNL     1      -2.646   5.574   0.255  1.00  0.00     0.261 C 
BRANCH  35  36
ATOM     36  O   UNL     1      -2.124   4.363   0.838  1.00  0.00    -0.460 OA
BRANCH  36  37
ATOM     37  C   UNL     1      -2.915   3.274   0.670  1.00  0.00     0.338 C 
ATOM     38  O   UNL     1      -3.938   3.216   0.006  1.00  0.00    -0.246 OA
BRANCH  37  39
ATOM     39  C   UNL     1      -2.399   2.092   1.408  1.00  0.00     0.060 A 
ATOM     40  C   UNL     1      -2.605   0.832   0.837  1.00  0.00     0.016 A 
ATOM     41  C   UNL     1      -1.869   2.180   2.701  1.00  0.00     0.016 A 
ATOM     42  C   UNL     1      -2.328  -0.328   1.569  1.00  0.00     0.010 A 
ATOM     43  C   UNL     1      -1.614   1.009   3.444  1.00  0.00     0.010 A 
ATOM     44  C   UNL     1      -1.866  -0.259   2.898  1.00  0.00    -0.014 A 
BRANCH  44  45
ATOM     45  C   UNL     1      -1.815  -1.527   3.693  1.00  0.00     0.031 A 
ATOM     46  C   UNL     1      -3.092  -2.185   4.093  1.00  0.00     0.074 A 
ATOM     47  C   UNL     1      -0.672  -2.128   4.072  1.00  0.00     0.049 A 
ATOM     48  N   UNL     1      -3.267  -3.343   4.671  1.00  0.00    -0.248 NA
ATOM     49  C   UNL     1      -4.318  -1.396   3.912  1.00  0.00     0.031 C 
ATOM     50  C   UNL     1       0.624  -1.506   3.996  1.00  0.00     0.029 A 
ATOM     51  N   UNL     1      -0.387  -3.406   4.507  1.00  0.00    -0.354 N 
ATOM     52  C   UNL     1      -4.601  -3.377   5.029  1.00  0.00     0.074 A 
ATOM     53  C   UNL     1      -5.210  -2.165   4.517  1.00  0.00     0.031 C 
ATOM     54  C   UNL     1       1.582  -2.438   4.129  1.00  0.00     0.029 A 
ATOM     55  C   UNL     1       0.956  -3.723   4.379  1.00  0.00     0.049 A 
ATOM     56  H   UNL     1      -1.063  -4.024   4.868  1.00  0.00     0.167 HD
ATOM     57  C   UNL     1      -5.224  -4.296   5.802  1.00  0.00     0.037 A 
ATOM     58  C   UNL     1       1.583  -4.918   4.406  1.00  0.00     0.037 A 
ATOM     59  C   UNL     1      -4.587  -5.469   6.342  1.00  0.00     0.049 A 
ATOM     60  C   UNL     1       0.804  -6.068   4.975  1.00  0.00     0.074 A 
ATOM     61  C   UNL     1      -5.119  -6.437   7.175  1.00  0.00     0.029 A 
ATOM     62  N   UNL     1      -3.268  -5.834   6.102  1.00  0.00    -0.354 N 
ATOM     63  N   UNL     1      -0.460  -6.102   5.317  1.00  0.00    -0.248 NA
ATOM     64  C   UNL     1       1.549  -7.296   5.287  1.00  0.00     0.031 C 
ATOM     65  C   UNL     1      -4.118  -7.375   7.456  1.00  0.00     0.029 A 
ATOM     66  C   UNL     1      -2.975  -7.020   6.759  1.00  0.00     0.049 A 
ATOM     67  H   UNL     1      -2.634  -5.325   5.548  1.00  0.00     0.167 HD
ATOM     68  C   UNL     1      -0.636  -7.302   5.981  1.00  0.00     0.074 A 
ATOM     69  C   UNL     1       0.616  -8.026   5.883  1.00  0.00     0.031 C 
ATOM     70  C   UNL     1      -1.718  -7.720   6.678  1.00  0.00     0.037 A 
BRANCH  57  71
ATOM     71  C   UNL     1      -6.631  -3.978   6.198  1.00  0.00     0.064 A 
ATOM     72  C   UNL     1      -7.690  -4.030   5.282  1.00  0.00     0.173 A 
ATOM     73  C   UNL     1      -6.909  -3.556   7.508  1.00  0.00     0.173 A 
ATOM     74  F   UNL     1      -7.465  -4.390   4.010  1.00  0.00    -0.203 F 
ATOM     75  C   UNL     1      -8.973  -3.640   5.655  1.00  0.00     0.198 A 
ATOM     76  C   UNL     1      -8.198  -3.196   7.885  1.00  0.00     0.198 A 
ATOM     77  F   UNL     1      -5.925  -3.474   8.416  1.00  0.00    -0.203 F 
ATOM     78  F   UNL     1      -9.959  -3.631   4.747  1.00  0.00    -0.200 F 
ATOM     79  C   UNL     1      -9.227  -3.228   6.956  1.00  0.00     0.200 A 
ATOM     80  F   UNL     1      -8.440  -2.798   9.141  1.00  0.00    -0.200 F 
ATOM     81  F   UNL     1     -10.461  -2.843   7.309  1.00  0.00    -0.200 F 
ENDBRANCH  57  71
BRANCH  58  82
ATOM     82  C   UNL     1       2.984  -5.115   3.918  1.00  0.00     0.064 A 
ATOM     83  C   UNL     1       3.240  -6.021   2.869  1.00  0.00     0.173 A 
ATOM     84  C   UNL     1       4.092  -4.458   4.468  1.00  0.00     0.173 A 
ATOM     85  F   UNL     1       2.231  -6.715   2.322  1.00  0.00    -0.203 F 
ATOM     86  C   UNL     1       4.536  -6.260   2.405  1.00  0.00     0.198 A 
ATOM     87  C   UNL     1       5.382  -4.661   3.971  1.00  0.00     0.198 A 
ATOM     88  F   UNL     1       3.934  -3.619   5.502  1.00  0.00    -0.203 F 
ATOM     89  F   UNL     1       4.747  -7.176   1.449  1.00  0.00    -0.200 F 
ATOM     90  C   UNL     1       5.605  -5.568   2.947  1.00  0.00     0.200 A 
ATOM     91  F   UNL     1       6.413  -3.987   4.499  1.00  0.00    -0.200 F 
ATOM     92  F   UNL     1       6.849  -5.790   2.500  1.00  0.00    -0.200 F 
ENDBRANCH  58  82
BRANCH  70  93
ATOM     93  C   UNL     1      -1.568  -9.002   7.434  1.00  0.00     0.064 A 
ATOM     94  C   UNL     1      -0.802  -9.065   8.609  1.00  0.00     0.173 A 
ATOM     95  C   UNL     1      -2.200 -10.170   6.992  1.00  0.00     0.173 A 
ATOM     96  F   UNL     1      -0.162  -7.975   9.059  1.00  0.00    -0.203 F 
ATOM     97  C   UNL     1      -0.659 -10.262   9.304  1.00  0.00     0.198 A 
ATOM     98  C   UNL     1      -2.072 -11.360   7.701  1.00  0.00     0.198 A 
ATOM     99  F   UNL     1      -2.939 -10.156   5.873  1.00  0.00    -0.203 F 
ATOM    100  F   UNL     1       0.111 -10.312  10.400  1.00  0.00    -0.200 F 
ATOM    101  C   UNL     1      -1.297 -11.407   8.851  1.00  0.00     0.200 A 
ATOM    102  F   UNL     1      -2.691 -12.466   7.266  1.00  0.00    -0.200 F 
ATOM    103  F   UNL     1      -1.157 -12.561   9.519  1.00  0.00    -0.200 F 
ENDBRANCH  70  93
ENDBRANCH  44  45
ENDBRANCH  37  39
ENDBRANCH  36  37
ENDBRANCH  35  36
ENDBRANCH  34  35
ENDBRANCH  33  34
ENDBRANCH  32  33
ENDBRANCH   1  32
TORSDOF 22
