REMARK SMILES O=C(OCCOCCOCCOC(=O)[C@H]1Cc2[nH]cnc2CN1C(=O)c1ccncc1Cl)c1ccc(-c2c3nc(c(-c4c(F)c(F)c(F)c(F)c4F)c4ccc([nH]4)c(-c4c(F)c(F)c(F)c(F)c4F)c4nc(c(-c5c(F)c(F)c(F)c(F)c5F)c5ccc2[nH]5)C=C4)C=C3)cc1
REMARK SMILES IDX 7 1 6 2 5 3 4 4 3 5 2 6 1 7 33 8 34 9 95 10 35 11 94 12
REMARK SMILES IDX 36 13 37 14 38 15 88 16 39 17 93 18 87 19 89 20 40 21 92 22
REMARK SMILES IDX 86 23 85 24 41 26 73 27 53 28 72 29 54 30 57 31 71 32 90 33
REMARK SMILES IDX 55 34 56 35 70 37 91 38 58 39 42 40 43 41 51 42 44 43 45 44
REMARK SMILES IDX 49 45 52 46 46 47 47 48 50 49 48 50 74 51 75 52 83 53 76 54
REMARK SMILES IDX 77 55 81 56 84 57 78 58 79 59 82 60 80 61 59 62 60 63 68 64
REMARK SMILES IDX 61 65 62 66 66 67 69 68 63 69 64 70 67 71 65 72 8 73 9 74
REMARK SMILES IDX 10 75 11 76 12 77 13 78 14 79 15 80 16 81 23 82 17 83 22 84
REMARK SMILES IDX 18 85 21 86 19 87 20 89 24 90 25 91 26 92 27 93 31 94 28 95
REMARK SMILES IDX 30 96 32 97 29 98
REMARK H PARENT 89 25 57 36 18 88
REMARK Flexibility Score: inf
ROOT
ATOM      1  C   UNL     1       2.389  -0.973  -0.129  1.00  0.00     0.188 C 
ENDROOT
BRANCH   1   2
ATOM      2  O   UNL     1       3.645  -0.734  -0.742  1.00  0.00    -0.376 OA
BRANCH   2   3
ATOM      3  C   UNL     1       4.758  -0.310   0.048  1.00  0.00     0.202 C 
BRANCH   3   4
ATOM      4  C   UNL     1       4.684   0.385   1.430  1.00  0.00     0.261 C 
BRANCH   4   5
ATOM      5  O   UNL     1       3.445   0.631   2.109  1.00  0.00    -0.460 OA
BRANCH   5   6
ATOM      6  C   UNL     1       2.311   1.233   1.702  1.00  0.00     0.338 C 
ATOM      7  O   UNL     1       1.254   0.991   2.265  1.00  0.00    -0.246 OA
BRANCH   6   8
ATOM      8  C   UNL     1       2.289   2.167   0.559  1.00  0.00     0.060 A 
ATOM      9  C   UNL     1       3.384   2.950   0.218  1.00  0.00     0.016 A 
ATOM     10  C   UNL     1       1.018   2.418  -0.001  1.00  0.00     0.016 A 
ATOM     11  C   UNL     1       3.163   4.114  -0.479  1.00  0.00     0.010 A 
ATOM     12  C   UNL     1       0.791   3.586  -0.695  1.00  0.00     0.010 A 
ATOM     13  C   UNL     1       1.851   4.468  -0.815  1.00  0.00    -0.014 A 
BRANCH  13  14
ATOM     14  C   UNL     1       1.651   5.835  -1.236  1.00  0.00     0.031 A 
ATOM     15  C   UNL     1       2.239   6.131  -2.553  1.00  0.00     0.074 A 
ATOM     16  C   UNL     1       1.064   6.745  -0.438  1.00  0.00     0.049 A 
ATOM     17  N   UNL     1       3.325   6.786  -2.788  1.00  0.00    -0.248 NA
ATOM     18  C   UNL     1       1.663   5.461  -3.725  1.00  0.00     0.031 C 
ATOM     19  C   UNL     1       0.270   6.529   0.774  1.00  0.00     0.029 A 
ATOM     20  N   UNL     1       1.016   8.094  -0.598  1.00  0.00    -0.354 N 
ATOM     21  C   UNL     1       3.464   6.791  -4.169  1.00  0.00     0.074 A 
ATOM     22  C   UNL     1       2.526   5.822  -4.676  1.00  0.00     0.031 C 
ATOM     23  C   UNL     1      -0.366   7.679   1.099  1.00  0.00     0.029 A 
ATOM     24  C   UNL     1       0.089   8.735   0.211  1.00  0.00     0.049 A 
ATOM     25  H   UNL     1       1.591   8.576  -1.234  1.00  0.00     0.167 HD
ATOM     26  C   UNL     1       4.161   7.781  -4.787  1.00  0.00     0.037 A 
ATOM     27  C   UNL     1      -0.312  10.024   0.084  1.00  0.00     0.037 A 
ATOM     28  C   UNL     1       5.038   8.458  -3.864  1.00  0.00     0.049 A 
ATOM     29  C   UNL     1       0.739  10.743  -0.684  1.00  0.00     0.074 A 
ATOM     30  C   UNL     1       6.108   8.068  -3.081  1.00  0.00     0.029 A 
ATOM     31  N   UNL     1       4.634   9.672  -3.364  1.00  0.00    -0.354 N 
ATOM     32  N   UNL     1       1.926  11.006  -0.210  1.00  0.00    -0.248 NA
ATOM     33  C   UNL     1       0.634  10.752  -2.137  1.00  0.00     0.031 C 
ATOM     34  C   UNL     1       5.984   8.823  -1.878  1.00  0.00     0.029 A 
ATOM     35  C   UNL     1       4.887   9.673  -2.017  1.00  0.00     0.049 A 
ATOM     36  H   UNL     1       4.235  10.409  -3.881  1.00  0.00     0.167 HD
ATOM     37  C   UNL     1       2.788  10.778  -1.272  1.00  0.00     0.074 A 
ATOM     38  C   UNL     1       1.932  10.707  -2.453  1.00  0.00     0.031 C 
ATOM     39  C   UNL     1       4.075  10.378  -1.055  1.00  0.00     0.037 A 
BRANCH  26  40
ATOM     40  C   UNL     1       3.750   8.390  -6.103  1.00  0.00     0.064 A 
ATOM     41  C   UNL     1       4.599   9.335  -6.710  1.00  0.00     0.173 A 
ATOM     42  C   UNL     1       2.438   8.325  -6.622  1.00  0.00     0.173 A 
ATOM     43  F   UNL     1       5.861   9.492  -6.283  1.00  0.00    -0.203 F 
ATOM     44  C   UNL     1       4.139  10.209  -7.697  1.00  0.00     0.198 A 
ATOM     45  C   UNL     1       2.000   9.161  -7.645  1.00  0.00     0.198 A 
ATOM     46  F   UNL     1       1.494   7.541  -6.091  1.00  0.00    -0.203 F 
ATOM     47  F   UNL     1       4.942  11.181  -8.149  1.00  0.00    -0.200 F 
ATOM     48  C   UNL     1       2.838  10.126  -8.158  1.00  0.00     0.200 A 
ATOM     49  F   UNL     1       0.729   9.076  -8.062  1.00  0.00    -0.200 F 
ATOM     50  F   UNL     1       2.375  11.006  -9.055  1.00  0.00    -0.200 F 
ENDBRANCH  26  40
BRANCH  27  51
ATOM     51  C   UNL     1      -1.674  10.579   0.273  1.00  0.00     0.064 A 
ATOM     52  C   UNL     1      -1.885  11.966   0.345  1.00  0.00     0.173 A 
ATOM     53  C   UNL     1      -2.822   9.782   0.098  1.00  0.00     0.173 A 
ATOM     54  F   UNL     1      -0.843  12.802   0.465  1.00  0.00    -0.203 F 
ATOM     55  C   UNL     1      -3.163  12.522   0.218  1.00  0.00     0.198 A 
ATOM     56  C   UNL     1      -4.097  10.336  -0.021  1.00  0.00     0.198 A 
ATOM     57  F   UNL     1      -2.722   8.455  -0.064  1.00  0.00    -0.203 F 
ATOM     58  F   UNL     1      -3.317  13.854   0.223  1.00  0.00    -0.200 F 
ATOM     59  C   UNL     1      -4.266  11.707   0.024  1.00  0.00     0.200 A 
ATOM     60  F   UNL     1      -5.150   9.538  -0.247  1.00  0.00    -0.200 F 
ATOM     61  F   UNL     1      -5.481  12.241  -0.164  1.00  0.00    -0.200 F 
ENDBRANCH  27  51
BRANCH  39  62
ATOM     62  C   UNL     1       4.609  10.471   0.346  1.00  0.00     0.064 A 
ATOM     63  C   UNL     1       4.091   9.749   1.437  1.00  0.00     0.173 A 
ATOM     64  C   UNL     1       5.775  11.217   0.561  1.00  0.00     0.173 A 
ATOM     65  F   UNL     1       3.043   8.928   1.286  1.00  0.00    -0.203 F 
ATOM     66  C   UNL     1       4.690   9.816   2.694  1.00  0.00     0.198 A 
ATOM     67  C   UNL     1       6.393  11.250   1.807  1.00  0.00     0.198 A 
ATOM     68  F   UNL     1       6.347  11.878  -0.459  1.00  0.00    -0.203 F 
ATOM     69  F   UNL     1       4.173   9.128   3.723  1.00  0.00    -0.200 F 
ATOM     70  C   UNL     1       5.844  10.561   2.876  1.00  0.00     0.200 A 
ATOM     71  F   UNL     1       7.539  11.927   1.963  1.00  0.00    -0.200 F 
ATOM     72  F   UNL     1       6.446  10.589   4.073  1.00  0.00    -0.200 F 
ENDBRANCH  39  62
ENDBRANCH  13  14
ENDBRANCH   6   8
ENDBRANCH   5   6
ENDBRANCH   4   5
ENDBRANCH   3   4
ENDBRANCH   2   3
ENDBRANCH   1   2
BRANCH   1  73
ATOM     73  C   UNL     1       1.686  -2.303  -0.358  1.00  0.00     0.188 C 
BRANCH  73  74
ATOM     74  O   UNL     1       2.225  -3.416   0.347  1.00  0.00    -0.376 OA
BRANCH  74  75
ATOM     75  C   UNL     1       3.636  -3.551   0.359  1.00  0.00     0.202 C 
BRANCH  75  76
ATOM     76  C   UNL     1       4.264  -3.952  -0.972  1.00  0.00     0.261 C 
BRANCH  76  77
ATOM     77  O   UNL     1       4.002  -3.091  -2.101  1.00  0.00    -0.462 OA
BRANCH  77  78
ATOM     78  C   UNL     1       2.996  -3.497  -2.926  1.00  0.00     0.329 C 
ATOM     79  O   UNL     1       2.261  -4.451  -2.698  1.00  0.00    -0.250 OA
BRANCH  78  80
ATOM     80  C   UNL     1       2.920  -2.706  -4.230  1.00  0.00     0.201 C 
ATOM     81  C   UNL     1       3.413  -1.230  -4.164  1.00  0.00     0.093 C 
ATOM     82  N   UNL     1       3.332  -3.406  -5.501  1.00  0.00    -0.318 N 
ATOM     83  C   UNL     1       3.150  -0.610  -5.496  1.00  0.00     0.042 A 
ATOM     84  C   UNL     1       2.813  -2.802  -6.752  1.00  0.00     0.179 C 
ATOM     85  N   UNL     1       3.076   0.709  -5.839  1.00  0.00    -0.348 N 
ATOM     86  C   UNL     1       2.889  -1.311  -6.656  1.00  0.00     0.081 A 
ATOM     87  C   UNL     1       2.777   0.755  -7.178  1.00  0.00     0.197 A 
ATOM     88  H   UNL     1       3.212   1.480  -5.242  1.00  0.00     0.167 HD
ATOM     89  N   UNL     1       2.651  -0.449  -7.693  1.00  0.00    -0.240 NA
BRANCH  82  90
ATOM     90  C   UNL     1       4.239  -4.452  -5.656  1.00  0.00     0.256 C 
ATOM     91  O   UNL     1       4.641  -4.854  -6.746  1.00  0.00    -0.269 OA
BRANCH  90  92
ATOM     92  C   UNL     1       4.780  -5.173  -4.499  1.00  0.00     0.061 A 
ATOM     93  C   UNL     1       6.017  -4.766  -3.992  1.00  0.00     0.035 A 
ATOM     94  C   UNL     1       4.138  -6.297  -3.979  1.00  0.00     0.072 A 
ATOM     95  C   UNL     1       6.537  -5.470  -2.922  1.00  0.00     0.112 A 
ATOM     96  C   UNL     1       4.724  -6.904  -2.880  1.00  0.00     0.132 A 
ATOM     97  Cl  UNL     1       2.660  -6.922  -4.605  1.00  0.00    -0.082 Cl
ATOM     98  N   UNL     1       5.904  -6.507  -2.331  1.00  0.00    -0.263 NA
ENDBRANCH  90  92
ENDBRANCH  82  90
ENDBRANCH  78  80
ENDBRANCH  77  78
ENDBRANCH  76  77
ENDBRANCH  75  76
ENDBRANCH  74  75
ENDBRANCH  73  74
ENDBRANCH   1  73
TORSDOF 19
