REMARK SMILES CCC1C[NH+]([C@H](CCOC)C(=O)OCCOCCOCCOC(=O)c2ccc(-c3c4nc(c(-c5c(F)c(F)c(F)c(F)c5F)c5ccc([nH]5)c(-c5c(F)c(F)c(F)c(F)c5F)c5nc(c(-c6c(F)c(F)c(F)c(F)c6F)c6ccc3[nH]6)C=C5)C=C4)cc2)C1
REMARK SMILES IDX 17 1 16 2 15 3 14 4 13 5 11 6 12 7 6 8 5 9 3 10 4 11 88 12
REMARK SMILES IDX 2 14 1 15 7 16 8 17 9 18 10 19 18 20 19 21 20 22 21 23 22 24
REMARK SMILES IDX 23 25 24 26 25 27 26 28 87 29 27 30 86 31 28 32 29 33 30 34
REMARK SMILES IDX 80 35 31 36 85 37 79 38 81 39 32 40 84 41 78 42 77 43 33 45
REMARK SMILES IDX 65 46 45 47 64 48 46 49 49 50 63 51 82 52 47 53 48 54 62 56
REMARK SMILES IDX 83 57 50 58 34 59 35 60 43 61 36 62 37 63 41 64 44 65 38 66
REMARK SMILES IDX 39 67 42 68 40 69 66 70 67 71 75 72 68 73 69 74 73 75 76 76
REMARK SMILES IDX 70 77 71 78 74 79 72 80 51 81 52 82 60 83 53 84 54 85 58 86
REMARK SMILES IDX 61 87 55 88 56 89 59 90 57 91
REMARK H PARENT 5 13 81 44 49 55
REMARK Flexibility Score: inf
ROOT
ATOM      1  C   UNL     1       1.049   3.875   6.365  1.00  0.00     0.188 C 
ENDROOT
BRANCH   1   2
ATOM      2  O   UNL     1       1.817   5.037   6.190  1.00  0.00    -0.376 OA
BRANCH   2   3
ATOM      3  C   UNL     1       2.626   5.136   5.026  1.00  0.00     0.202 C 
BRANCH   3   4
ATOM      4  C   UNL     1       3.320   3.904   4.400  1.00  0.00     0.261 C 
BRANCH   4   5
ATOM      5  O   UNL     1       2.471   2.768   4.110  1.00  0.00    -0.459 OA
BRANCH   5   6
ATOM      6  C   UNL     1       2.607   1.712   4.948  1.00  0.00     0.365 C 
ATOM      7  O   UNL     1       3.494   1.661   5.804  1.00  0.00    -0.245 OA
BRANCH   6   8
ATOM      8  C   UNL     1       1.547   0.576   4.825  1.00  0.00     0.297 C 
BRANCH   8   9
ATOM      9  N   UNL     1       2.366  -0.588   4.615  1.00  0.00    -0.322 N 
ATOM     10  C   UNL     1       3.158  -2.220   2.315  1.00  0.00     0.099 C 
ATOM     11  C   UNL     1       3.607  -0.286   3.115  1.00  0.00     0.272 C 
ATOM     12  C   UNL     1       1.701  -2.323   3.918  1.00  0.00     0.272 C 
ATOM     13  H   UNL     1       2.644  -0.677   5.592  1.00  0.00     0.348 HD
BRANCH  10  14
ATOM     14  C   UNL     1       2.716  -2.293   0.826  1.00  0.00     0.012 C 
ATOM     15  C   UNL     1       3.525  -1.292   0.015  1.00  0.00     0.004 C 
ENDBRANCH  10  14
ENDBRANCH   8   9
BRANCH   8  16
ATOM     16  C   UNL     1       0.420   0.496   3.866  1.00  0.00     0.106 C 
BRANCH  16  17
ATOM     17  C   UNL     1       1.008  -0.095   2.645  1.00  0.00     0.166 C 
BRANCH  17  18
ATOM     18  O   UNL     1       2.090  -1.064   2.854  1.00  0.00    -0.384 OA
ATOM     19  C   UNL     1       3.545  -1.942   4.112  1.00  0.00     0.194 C 
ENDBRANCH  17  18
ENDBRANCH  16  17
ENDBRANCH   8  16
ENDBRANCH   6   8
ENDBRANCH   5   6
ENDBRANCH   4   5
ENDBRANCH   3   4
ENDBRANCH   2   3
ENDBRANCH   1   2
BRANCH   1  20
ATOM     20  C   UNL     1       0.032   3.516   5.293  1.00  0.00     0.188 C 
BRANCH  20  21
ATOM     21  O   UNL     1       0.207   3.826   3.936  1.00  0.00    -0.376 OA
BRANCH  21  22
ATOM     22  C   UNL     1      -0.368   4.980   3.345  1.00  0.00     0.202 C 
BRANCH  22  23
ATOM     23  C   UNL     1      -1.401   5.928   4.014  1.00  0.00     0.261 C 
BRANCH  23  24
ATOM     24  O   UNL     1      -1.966   5.614   5.302  1.00  0.00    -0.460 OA
BRANCH  24  25
ATOM     25  C   UNL     1      -2.874   4.598   5.348  1.00  0.00     0.338 C 
ATOM     26  O   UNL     1      -3.359   4.030   4.385  1.00  0.00    -0.246 OA
BRANCH  25  27
ATOM     27  C   UNL     1      -2.923   4.045   6.745  1.00  0.00     0.060 A 
ATOM     28  C   UNL     1      -2.698   2.665   6.931  1.00  0.00     0.016 A 
ATOM     29  C   UNL     1      -3.119   4.856   7.860  1.00  0.00     0.016 A 
ATOM     30  C   UNL     1      -2.767   2.087   8.203  1.00  0.00     0.010 A 
ATOM     31  C   UNL     1      -3.228   4.270   9.133  1.00  0.00     0.010 A 
ATOM     32  C   UNL     1      -3.115   2.875   9.304  1.00  0.00    -0.014 A 
BRANCH  32  33
ATOM     33  C   UNL     1      -3.590   2.225  10.561  1.00  0.00     0.031 A 
ATOM     34  C   UNL     1      -5.074   2.204  10.837  1.00  0.00     0.074 A 
ATOM     35  C   UNL     1      -2.751   1.621  11.423  1.00  0.00     0.049 A 
ATOM     36  N   UNL     1      -5.729   1.741  11.873  1.00  0.00    -0.248 NA
ATOM     37  C   UNL     1      -5.937   2.796   9.802  1.00  0.00     0.031 C 
ATOM     38  C   UNL     1      -1.305   1.514  11.260  1.00  0.00     0.029 A 
ATOM     39  N   UNL     1      -3.003   0.988  12.619  1.00  0.00    -0.354 N 
ATOM     40  C   UNL     1      -7.072   2.001  11.620  1.00  0.00     0.074 A 
ATOM     41  C   UNL     1      -7.135   2.700  10.356  1.00  0.00     0.031 C 
ATOM     42  C   UNL     1      -0.794   0.861  12.319  1.00  0.00     0.029 A 
ATOM     43  C   UNL     1      -1.870   0.540  13.255  1.00  0.00     0.049 A 
ATOM     44  H   UNL     1      -3.909   0.867  12.984  1.00  0.00     0.167 HD
ATOM     45  C   UNL     1      -8.156   1.677  12.366  1.00  0.00     0.037 A 
ATOM     46  C   UNL     1      -1.716  -0.038  14.465  1.00  0.00     0.037 A 
ATOM     47  C   UNL     1      -8.094   0.989  13.630  1.00  0.00     0.049 A 
ATOM     48  C   UNL     1      -2.932  -0.304  15.321  1.00  0.00     0.074 A 
ATOM     49  C   UNL     1      -9.137   0.606  14.455  1.00  0.00     0.029 A 
ATOM     50  N   UNL     1      -6.923   0.594  14.260  1.00  0.00    -0.354 N 
ATOM     51  N   UNL     1      -4.197  -0.071  15.068  1.00  0.00    -0.248 NA
ATOM     52  C   UNL     1      -2.693  -0.926  16.632  1.00  0.00     0.031 C 
ATOM     53  C   UNL     1      -8.595   0.064  15.624  1.00  0.00     0.029 A 
ATOM     54  C   UNL     1      -7.218   0.006  15.481  1.00  0.00     0.049 A 
ATOM     55  H   UNL     1      -6.016   0.714  13.895  1.00  0.00     0.167 HD
ATOM     56  C   UNL     1      -4.905  -0.558  16.161  1.00  0.00     0.074 A 
ATOM     57  C   UNL     1      -3.928  -1.115  17.072  1.00  0.00     0.031 C 
ATOM     58  C   UNL     1      -6.244  -0.552  16.385  1.00  0.00     0.037 A 
BRANCH  45  59
ATOM     59  C   UNL     1      -9.507   2.104  11.857  1.00  0.00     0.064 A 
ATOM     60  C   UNL     1     -10.070   1.564  10.690  1.00  0.00     0.173 A 
ATOM     61  C   UNL     1     -10.267   3.046  12.569  1.00  0.00     0.173 A 
ATOM     62  F   UNL     1      -9.388   0.664   9.964  1.00  0.00    -0.203 F 
ATOM     63  C   UNL     1     -11.319   1.981  10.234  1.00  0.00     0.198 A 
ATOM     64  C   UNL     1     -11.534   3.426  12.136  1.00  0.00     0.198 A 
ATOM     65  F   UNL     1      -9.786   3.590  13.698  1.00  0.00    -0.203 F 
ATOM     66  F   UNL     1     -11.804   1.500   9.081  1.00  0.00    -0.200 F 
ATOM     67  C   UNL     1     -12.053   2.904  10.962  1.00  0.00     0.200 A 
ATOM     68  F   UNL     1     -12.251   4.300  12.855  1.00  0.00    -0.200 F 
ATOM     69  F   UNL     1     -13.259   3.296  10.529  1.00  0.00    -0.200 F 
ENDBRANCH  45  59
BRANCH  46  70
ATOM     70  C   UNL     1      -0.356  -0.395  14.960  1.00  0.00     0.064 A 
ATOM     71  C   UNL     1       0.003  -1.729  15.207  1.00  0.00     0.173 A 
ATOM     72  C   UNL     1       0.598   0.594  15.242  1.00  0.00     0.173 A 
ATOM     73  F   UNL     1      -0.880  -2.713  14.982  1.00  0.00    -0.203 F 
ATOM     74  C   UNL     1       1.247  -2.055  15.746  1.00  0.00     0.198 A 
ATOM     75  C   UNL     1       1.857   0.264  15.740  1.00  0.00     0.198 A 
ATOM     76  F   UNL     1       0.308   1.887  15.033  1.00  0.00    -0.203 F 
ATOM     77  F   UNL     1       1.533  -3.330  16.041  1.00  0.00    -0.200 F 
ATOM     78  C   UNL     1       2.176  -1.059  16.005  1.00  0.00     0.200 A 
ATOM     79  F   UNL     1       2.756   1.229  15.973  1.00  0.00    -0.200 F 
ATOM     80  F   UNL     1       3.371  -1.372  16.523  1.00  0.00    -0.200 F 
ENDBRANCH  46  70
BRANCH  58  81
ATOM     81  C   UNL     1      -6.744  -1.236  17.631  1.00  0.00     0.064 A 
ATOM     82  C   UNL     1      -6.442  -0.770  18.920  1.00  0.00     0.173 A 
ATOM     83  C   UNL     1      -7.549  -2.384  17.528  1.00  0.00     0.173 A 
ATOM     84  F   UNL     1      -5.678   0.321  19.083  1.00  0.00    -0.203 F 
ATOM     85  C   UNL     1      -6.869  -1.462  20.052  1.00  0.00     0.198 A 
ATOM     86  C   UNL     1      -8.018  -3.041  18.662  1.00  0.00     0.198 A 
ATOM     87  F   UNL     1      -7.888  -2.869  16.324  1.00  0.00    -0.203 F 
ATOM     88  F   UNL     1      -6.489  -1.048  21.269  1.00  0.00    -0.200 F 
ATOM     89  C   UNL     1      -7.660  -2.592  19.923  1.00  0.00     0.200 A 
ATOM     90  F   UNL     1      -8.809  -4.116  18.532  1.00  0.00    -0.200 F 
ATOM     91  F   UNL     1      -8.069  -3.256  21.013  1.00  0.00    -0.200 F 
ENDBRANCH  58  81
ENDBRANCH  32  33
ENDBRANCH  25  27
ENDBRANCH  24  25
ENDBRANCH  23  24
ENDBRANCH  22  23
ENDBRANCH  21  22
ENDBRANCH  20  21
ENDBRANCH   1  20
TORSDOF 22
