REMARK SMILES CN1C(=O)C(=Cc2ccc(OCc3cccc(C(=O)OCCOCCOCCOC(=O)c4ccc(-c5c6nc(c(-c7c(F)c(F)c(F)c(F)c7F)c7ccc([nH]7)c(-c7c(F)c(F)c(F)c(F)c7F)c7nc(c(-c8c(F)c(F)c(F)c(F)c8F)c8ccc5[nH]8)C=C7)C=C6)cc4)c3)c(Cl)c2)C(=O)N(C)C1=S
REMARK SMILES IDX 24 1 23 2 22 3 21 4 20 5 18 6 19 7 17 8 13 9 14 10 95 11
REMARK SMILES IDX 15 12 16 13 12 14 11 15 10 16 7 17 8 18 98 19 9 20 96 21
REMARK SMILES IDX 97 22 6 23 1 24 2 25 3 26 103 27 4 28 5 29 101 30 104 31
REMARK SMILES IDX 99 32 102 33 100 34 25 35 26 36 27 37 28 38 29 39 30 40
REMARK SMILES IDX 31 41 32 42 33 43 94 44 34 45 93 46 35 47 36 48 37 49 87 50
REMARK SMILES IDX 38 51 92 52 86 53 88 54 39 55 91 56 85 57 84 58 40 60 72 61
REMARK SMILES IDX 52 62 71 63 53 64 56 65 70 66 89 67 54 68 55 69 69 71 90 72
REMARK SMILES IDX 57 73 41 74 42 75 50 76 43 77 44 78 48 79 51 80 45 81 46 82
REMARK SMILES IDX 49 83 47 84 73 85 74 86 82 87 75 88 76 89 80 90 83 91 77 92
REMARK SMILES IDX 78 93 81 94 79 95 58 96 59 97 67 98 60 99 61 100 65 101
REMARK SMILES IDX 68 102 62 103 63 104 66 105 64 106
REMARK H PARENT 88 59 56 70
REMARK Flexibility Score: inf
ROOT
ATOM      1  C   UNL     1      -2.521   9.691   7.619  1.00  0.00     0.188 C 
ENDROOT
BRANCH   1   2
ATOM      2  O   UNL     1      -3.155  10.638   6.779  1.00  0.00    -0.376 OA
BRANCH   2   3
ATOM      3  C   UNL     1      -3.684  10.249   5.521  1.00  0.00     0.202 C 
BRANCH   3   4
ATOM      4  C   UNL     1      -2.938   9.293   4.576  1.00  0.00     0.261 C 
BRANCH   4   5
ATOM      5  O   UNL     1      -2.331   8.158   5.201  1.00  0.00    -0.460 OA
BRANCH   5   6
ATOM      6  C   UNL     1      -0.974   8.156   5.241  1.00  0.00     0.338 C 
ATOM      7  O   UNL     1      -0.229   8.997   4.766  1.00  0.00    -0.246 OA
BRANCH   6   8
ATOM      8  C   UNL     1      -0.494   7.044   6.099  1.00  0.00     0.060 A 
ATOM      9  C   UNL     1      -0.668   4.747   6.893  1.00  0.00    -0.010 A 
ATOM     10  C   UNL     1       0.499   4.936   7.643  1.00  0.00     0.007 A 
ATOM     11  C   UNL     1      -1.186   5.835   6.174  1.00  0.00     0.023 A 
ATOM     12  C   UNL     1       1.145   6.176   7.648  1.00  0.00     0.001 A 
ATOM     13  C   UNL     1       0.667   7.221   6.855  1.00  0.00     0.016 A 
BRANCH   9  14
ATOM     14  C   UNL     1      -1.326   3.385   6.786  1.00  0.00     0.265 C 
BRANCH  14  15
ATOM     15  O   UNL     1      -0.741   2.492   5.819  1.00  0.00    -0.487 OA
BRANCH  15  16
ATOM     16  C   UNL     1      -0.490   2.983   4.565  1.00  0.00     0.138 A 
ATOM     17  C   UNL     1       0.342   3.953   2.066  1.00  0.00    -0.023 A 
ATOM     18  C   UNL     1       1.188   3.127   2.813  1.00  0.00     0.012 A 
ATOM     19  C   UNL     1      -0.929   4.260   2.550  1.00  0.00     0.032 A 
ATOM     20  C   UNL     1       0.777   2.661   4.064  1.00  0.00     0.048 A 
ATOM     21  C   UNL     1      -1.374   3.704   3.752  1.00  0.00     0.083 A 
ATOM     22  Cl  UNL     1      -3.072   3.815   4.061  1.00  0.00    -0.080 Cl
BRANCH  17  23
ATOM     23  C   UNL     1       0.685   4.317   0.691  1.00  0.00     0.027 C 
ATOM     24  C   UNL     1       0.457  -0.183  -0.322  1.00  0.00     0.156 C 
ATOM     25  N   UNL     1       0.573   1.161  -0.891  1.00  0.00    -0.288 N 
ATOM     26  C   UNL     1      -0.089   2.140  -0.171  1.00  0.00     0.265 C 
ATOM     27  C   UNL     1       1.247   1.399  -2.103  1.00  0.00     0.185 C 
ATOM     28  O   UNL     1      -1.062   1.926   0.545  1.00  0.00    -0.268 OA
ATOM     29  C   UNL     1       0.486   3.479  -0.344  1.00  0.00     0.106 C 
ATOM     30  N   UNL     1       1.472   2.759  -2.415  1.00  0.00    -0.288 N 
ATOM     31  S   UNL     1       1.727   0.125  -3.112  1.00  0.00    -0.040 S 
ATOM     32  C   UNL     1       1.040   3.845  -1.649  1.00  0.00     0.265 C 
ATOM     33  C   UNL     1       2.276   3.177  -3.565  1.00  0.00     0.156 C 
ATOM     34  O   UNL     1       1.153   5.022  -1.986  1.00  0.00    -0.268 OA
ENDBRANCH  17  23
ENDBRANCH  15  16
ENDBRANCH  14  15
ENDBRANCH   9  14
ENDBRANCH   6   8
ENDBRANCH   5   6
ENDBRANCH   4   5
ENDBRANCH   3   4
ENDBRANCH   2   3
ENDBRANCH   1   2
BRANCH   1  35
ATOM     35  C   UNL     1      -3.233   8.377   8.003  1.00  0.00     0.188 C 
BRANCH  35  36
ATOM     36  O   UNL     1      -4.474   8.109   7.402  1.00  0.00    -0.376 OA
BRANCH  36  37
ATOM     37  C   UNL     1      -5.660   8.701   7.904  1.00  0.00     0.202 C 
BRANCH  37  38
ATOM     38  C   UNL     1      -5.767   9.633   9.130  1.00  0.00     0.261 C 
BRANCH  38  39
ATOM     39  O   UNL     1      -4.566  10.146   9.711  1.00  0.00    -0.460 OA
BRANCH  39  40
ATOM     40  C   UNL     1      -4.173   9.564  10.867  1.00  0.00     0.338 C 
ATOM     41  O   UNL     1      -4.714   8.634  11.454  1.00  0.00    -0.246 OA
BRANCH  40  42
ATOM     42  C   UNL     1      -2.854  10.097  11.251  1.00  0.00     0.060 A 
ATOM     43  C   UNL     1      -1.744   9.242  11.219  1.00  0.00     0.016 A 
ATOM     44  C   UNL     1      -2.719  11.420  11.674  1.00  0.00     0.016 A 
ATOM     45  C   UNL     1      -0.496   9.700  11.639  1.00  0.00     0.010 A 
ATOM     46  C   UNL     1      -1.472  11.870  12.117  1.00  0.00     0.010 A 
ATOM     47  C   UNL     1      -0.364  11.004  12.134  1.00  0.00    -0.014 A 
BRANCH  47  48
ATOM     48  C   UNL     1       0.876  11.398  12.848  1.00  0.00     0.031 A 
ATOM     49  C   UNL     1       0.878  11.360  14.351  1.00  0.00     0.074 A 
ATOM     50  C   UNL     1       1.983  11.768  12.182  1.00  0.00     0.049 A 
ATOM     51  N   UNL     1       1.815  11.713  15.194  1.00  0.00    -0.248 NA
ATOM     52  C   UNL     1      -0.349  10.859  14.990  1.00  0.00     0.031 C 
ATOM     53  C   UNL     1       2.122  11.807  10.729  1.00  0.00     0.029 A 
ATOM     54  N   UNL     1       3.200  12.198  12.651  1.00  0.00    -0.354 N 
ATOM     55  C   UNL     1       1.285  11.490  16.459  1.00  0.00     0.074 A 
ATOM     56  C   UNL     1      -0.064  11.002  16.274  1.00  0.00     0.031 C 
ATOM     57  C   UNL     1       3.353  12.253  10.422  1.00  0.00     0.029 A 
ATOM     58  C   UNL     1       4.073  12.563  11.657  1.00  0.00     0.049 A 
ATOM     59  H   UNL     1       3.425  12.239  13.608  1.00  0.00     0.167 HD
ATOM     60  C   UNL     1       1.874  11.669  17.666  1.00  0.00     0.037 A 
ATOM     61  C   UNL     1       5.302  13.111  11.739  1.00  0.00     0.037 A 
ATOM     62  C   UNL     1       3.215  12.160  17.847  1.00  0.00     0.049 A 
ATOM     63  C   UNL     1       5.910  13.372  13.095  1.00  0.00     0.074 A 
ATOM     64  C   UNL     1       3.910  12.357  19.027  1.00  0.00     0.029 A 
ATOM     65  N   UNL     1       4.060  12.545  16.816  1.00  0.00    -0.354 N 
ATOM     66  N   UNL     1       5.418  13.131  14.286  1.00  0.00    -0.248 NA
ATOM     67  C   UNL     1       7.250  13.977  13.115  1.00  0.00     0.031 C 
ATOM     68  C   UNL     1       5.151  12.921  18.715  1.00  0.00     0.029 A 
ATOM     69  C   UNL     1       5.259  13.008  17.336  1.00  0.00     0.049 A 
ATOM     70  H   UNL     1       3.841  12.497  15.858  1.00  0.00     0.167 HD
ATOM     71  C   UNL     1       6.397  13.520  15.193  1.00  0.00     0.074 A 
ATOM     72  C   UNL     1       7.517  14.003  14.413  1.00  0.00     0.031 C 
ATOM     73  C   UNL     1       6.372  13.478  16.549  1.00  0.00     0.037 A 
BRANCH  60  74
ATOM     74  C   UNL     1       1.052  11.366  18.887  1.00  0.00     0.064 A 
ATOM     75  C   UNL     1       0.677  10.056  19.223  1.00  0.00     0.173 A 
ATOM     76  C   UNL     1       0.649  12.402  19.743  1.00  0.00     0.173 A 
ATOM     77  F   UNL     1       1.025   9.029  18.432  1.00  0.00    -0.203 F 
ATOM     78  C   UNL     1      -0.101   9.800  20.349  1.00  0.00     0.198 A 
ATOM     79  C   UNL     1      -0.099  12.138  20.887  1.00  0.00     0.198 A 
ATOM     80  F   UNL     1       0.983  13.673  19.472  1.00  0.00    -0.203 F 
ATOM     81  F   UNL     1      -0.497   8.548  20.617  1.00  0.00    -0.200 F 
ATOM     82  C   UNL     1      -0.482  10.840  21.184  1.00  0.00     0.200 A 
ATOM     83  F   UNL     1      -0.453  13.143  21.700  1.00  0.00    -0.200 F 
ATOM     84  F   UNL     1      -1.226  10.591  22.270  1.00  0.00    -0.200 F 
ENDBRANCH  60  74
BRANCH  61  85
ATOM     85  C   UNL     1       6.043  13.461  10.497  1.00  0.00     0.064 A 
ATOM     86  C   UNL     1       7.211  12.777  10.134  1.00  0.00     0.173 A 
ATOM     87  C   UNL     1       5.609  14.499   9.659  1.00  0.00     0.173 A 
ATOM     88  F   UNL     1       7.683  11.795  10.917  1.00  0.00    -0.203 F 
ATOM     89  C   UNL     1       7.927  13.129   8.991  1.00  0.00     0.198 A 
ATOM     90  C   UNL     1       6.308  14.829   8.500  1.00  0.00     0.198 A 
ATOM     91  F   UNL     1       4.501  15.189   9.963  1.00  0.00    -0.203 F 
ATOM     92  F   UNL     1       9.068  12.492   8.696  1.00  0.00    -0.200 F 
ATOM     93  C   UNL     1       7.471  14.150   8.171  1.00  0.00     0.200 A 
ATOM     94  F   UNL     1       5.858  15.810   7.705  1.00  0.00    -0.200 F 
ATOM     95  F   UNL     1       8.158  14.486   7.071  1.00  0.00    -0.200 F 
ENDBRANCH  61  85
BRANCH  73  96
ATOM     96  C   UNL     1       7.611  13.916  17.282  1.00  0.00     0.064 A 
ATOM     97  C   UNL     1       8.019  15.258  17.318  1.00  0.00     0.173 A 
ATOM     98  C   UNL     1       8.379  12.981  17.994  1.00  0.00     0.173 A 
ATOM     99  F   UNL     1       7.329  16.192  16.646  1.00  0.00    -0.203 F 
ATOM    100  C   UNL     1       9.165  15.641  18.011  1.00  0.00     0.198 A 
ATOM    101  C   UNL     1       9.503  13.372  18.716  1.00  0.00     0.198 A 
ATOM    102  F   UNL     1       8.030  11.685  18.003  1.00  0.00    -0.203 F 
ATOM    103  F   UNL     1       9.566  16.919  17.985  1.00  0.00    -0.200 F 
ATOM    104  C   UNL     1       9.901  14.700  18.715  1.00  0.00     0.200 A 
ATOM    105  F   UNL     1      10.201  12.463  19.411  1.00  0.00    -0.200 F 
ATOM    106  F   UNL     1      10.999  15.071  19.389  1.00  0.00    -0.200 F 
ENDBRANCH  73  96
ENDBRANCH  47  48
ENDBRANCH  40  42
ENDBRANCH  39  40
ENDBRANCH  38  39
ENDBRANCH  37  38
ENDBRANCH  36  37
ENDBRANCH  35  36
ENDBRANCH   1  35
TORSDOF 21
