REMARK SMILES Cc1ccc(C)c(Oc2cccc(F)c2C(=O)OCCOCCOCCOC(=O)c2ccc(-c3c4nc(c(-c5c(F)c(F)c(F)c(F)c5F)c5ccc([nH]5)c(-c5c(F)c(F)c(F)c(F)c5F)c5nc(c(-c6c(F)c(F)c(F)c(F)c6F)c6ccc3[nH]6)C=C5)C=C4)cc2)c1
REMARK SMILES IDX 22 1 21 2 20 3 19 4 18 5 16 6 17 7 15 8 9 9 10 10 11 11
REMARK SMILES IDX 13 12 12 13 14 14 8 15 7 16 1 17 2 18 3 19 93 20 4 21 5 22
REMARK SMILES IDX 6 23 23 24 24 25 25 26 26 27 27 28 28 29 29 30 30 31 31 32
REMARK SMILES IDX 92 33 32 34 91 35 33 36 34 37 35 38 85 39 36 40 90 41 84 42
REMARK SMILES IDX 86 43 37 44 89 45 83 46 82 47 38 49 70 50 50 51 69 52 51 53
REMARK SMILES IDX 54 54 68 55 87 56 52 57 53 58 67 60 88 61 55 62 39 63 40 64
REMARK SMILES IDX 48 65 41 66 42 67 46 68 49 69 43 70 44 71 47 72 45 73 71 74
REMARK SMILES IDX 72 75 80 76 73 77 74 78 78 79 81 80 75 81 76 82 79 83 77 84
REMARK SMILES IDX 56 85 57 86 65 87 58 88 59 89 63 90 66 91 60 92 61 93 64 94
REMARK SMILES IDX 62 95
REMARK H PARENT 86 48 54 59
REMARK Flexibility Score: inf
ROOT
ATOM      1  C   UNL     1      -4.996   2.483   1.408  1.00  0.00     0.188 C 
ENDROOT
BRANCH   1   2
ATOM      2  O   UNL     1      -4.946   1.661   2.582  1.00  0.00    -0.376 OA
BRANCH   2   3
ATOM      3  C   UNL     1      -4.330   2.241   3.733  1.00  0.00     0.202 C 
BRANCH   3   4
ATOM      4  C   UNL     1      -2.791   2.218   3.768  1.00  0.00     0.261 C 
BRANCH   4   5
ATOM      5  O   UNL     1      -2.186   2.637   2.534  1.00  0.00    -0.459 OA
BRANCH   5   6
ATOM      6  C   UNL     1      -0.828   2.559   2.514  1.00  0.00     0.345 C 
ATOM      7  O   UNL     1      -0.115   2.074   3.373  1.00  0.00    -0.246 OA
BRANCH   6   8
ATOM      8  C   UNL     1      -0.332   3.335   1.361  1.00  0.00     0.138 A 
ATOM      9  C   UNL     1      -0.686   3.045   0.041  1.00  0.00     0.144 A 
ATOM     10  C   UNL     1      -0.260   3.865  -1.013  1.00  0.00     0.048 A 
ATOM     11  C   UNL     1       0.592   4.938  -0.757  1.00  0.00     0.007 A 
ATOM     12  C   UNL     1       0.536   4.398   1.596  1.00  0.00     0.141 A 
ATOM     13  C   UNL     1       1.002   5.195   0.550  1.00  0.00     0.040 A 
ATOM     14  F   UNL     1       0.928   4.702   2.838  1.00  0.00    -0.206 F 
BRANCH   9  15
ATOM     15  O   UNL     1      -1.370   1.902  -0.293  1.00  0.00    -0.456 OA
BRANCH  15  16
ATOM     16  C   UNL     1      -0.648   0.721  -0.213  1.00  0.00     0.130 A 
ATOM     17  C   UNL     1       2.952  -0.528  -0.044  1.00  0.00     0.044 C 
ATOM     18  C   UNL     1       1.453  -0.519  -0.093  1.00  0.00    -0.047 A 
ATOM     19  C   UNL     1       0.725  -1.705   0.012  1.00  0.00     0.004 A 
ATOM     20  C   UNL     1       0.758   0.683  -0.235  1.00  0.00     0.050 A 
ATOM     21  C   UNL     1      -0.673  -1.681  -0.003  1.00  0.00     0.007 A 
ATOM     22  C   UNL     1      -1.376  -0.470  -0.107  1.00  0.00    -0.008 A 
ATOM     23  C   UNL     1      -2.877  -0.500  -0.084  1.00  0.00     0.048 C 
ENDBRANCH  15  16
ENDBRANCH   9  15
ENDBRANCH   6   8
ENDBRANCH   5   6
ENDBRANCH   4   5
ENDBRANCH   3   4
ENDBRANCH   2   3
ENDBRANCH   1   2
BRANCH   1  24
ATOM     24  C   UNL     1      -6.022   3.626   1.456  1.00  0.00     0.188 C 
BRANCH  24  25
ATOM     25  O   UNL     1      -5.584   4.644   2.345  1.00  0.00    -0.376 OA
BRANCH  25  26
ATOM     26  C   UNL     1      -6.562   5.607   2.691  1.00  0.00     0.202 C 
BRANCH  26  27
ATOM     27  C   UNL     1      -7.030   6.537   1.563  1.00  0.00     0.261 C 
BRANCH  27  28
ATOM     28  O   UNL     1      -6.140   7.025   0.519  1.00  0.00    -0.460 OA
BRANCH  28  29
ATOM     29  C   UNL     1      -4.798   7.092   0.436  1.00  0.00     0.338 C 
ATOM     30  O   UNL     1      -4.210   7.154  -0.640  1.00  0.00    -0.246 OA
BRANCH  29  31
ATOM     31  C   UNL     1      -4.039   7.023   1.682  1.00  0.00     0.060 A 
ATOM     32  C   UNL     1      -3.084   6.018   1.763  1.00  0.00     0.016 A 
ATOM     33  C   UNL     1      -4.346   7.834   2.785  1.00  0.00     0.016 A 
ATOM     34  C   UNL     1      -2.581   5.709   3.008  1.00  0.00     0.010 A 
ATOM     35  C   UNL     1      -3.838   7.499   4.042  1.00  0.00     0.010 A 
ATOM     36  C   UNL     1      -3.002   6.389   4.157  1.00  0.00    -0.014 A 
BRANCH  36  37
ATOM     37  C   UNL     1      -2.265   6.024   5.372  1.00  0.00     0.031 A 
ATOM     38  C   UNL     1      -0.827   6.400   5.278  1.00  0.00     0.074 A 
ATOM     39  C   UNL     1      -2.772   5.359   6.433  1.00  0.00     0.049 A 
ATOM     40  N   UNL     1       0.194   5.690   5.629  1.00  0.00    -0.248 NA
ATOM     41  C   UNL     1      -0.485   7.677   4.614  1.00  0.00     0.031 C 
ATOM     42  C   UNL     1      -4.176   5.026   6.657  1.00  0.00     0.029 A 
ATOM     43  N   UNL     1      -2.151   4.886   7.571  1.00  0.00    -0.354 N 
ATOM     44  C   UNL     1       1.298   6.489   5.361  1.00  0.00     0.074 A 
ATOM     45  C   UNL     1       0.844   7.656   4.654  1.00  0.00     0.031 C 
ATOM     46  C   UNL     1      -4.330   4.588   7.926  1.00  0.00     0.029 A 
ATOM     47  C   UNL     1      -3.035   4.555   8.593  1.00  0.00     0.049 A 
ATOM     48  H   UNL     1      -1.174   4.792   7.652  1.00  0.00     0.167 HD
ATOM     49  C   UNL     1       2.418   6.349   6.105  1.00  0.00     0.037 A 
ATOM     50  C   UNL     1      -2.766   4.345   9.909  1.00  0.00     0.037 A 
ATOM     51  C   UNL     1       2.683   4.987   6.457  1.00  0.00     0.049 A 
ATOM     52  C   UNL     1      -1.331   4.015  10.079  1.00  0.00     0.074 A 
ATOM     53  C   UNL     1       3.254   3.894   5.844  1.00  0.00     0.029 A 
ATOM     54  N   UNL     1       1.996   4.525   7.540  1.00  0.00    -0.354 N 
ATOM     55  N   UNL     1      -0.797   2.856   9.819  1.00  0.00    -0.248 NA
ATOM     56  C   UNL     1      -0.389   5.088  10.396  1.00  0.00     0.031 C 
ATOM     57  C   UNL     1       2.877   2.748   6.603  1.00  0.00     0.029 A 
ATOM     58  C   UNL     1       2.081   3.163   7.663  1.00  0.00     0.049 A 
ATOM     59  H   UNL     1       1.497   5.103   8.161  1.00  0.00     0.167 HD
ATOM     60  C   UNL     1       0.523   3.149   9.551  1.00  0.00     0.074 A 
ATOM     61  C   UNL     1       0.757   4.480  10.087  1.00  0.00     0.031 C 
ATOM     62  C   UNL     1       1.205   2.479   8.585  1.00  0.00     0.037 A 
BRANCH  49  63
ATOM     63  C   UNL     1       2.844   7.506   6.975  1.00  0.00     0.064 A 
ATOM     64  C   UNL     1       1.945   8.506   7.426  1.00  0.00     0.173 A 
ATOM     65  C   UNL     1       4.104   7.499   7.586  1.00  0.00     0.173 A 
ATOM     66  F   UNL     1       0.653   8.515   7.069  1.00  0.00    -0.203 F 
ATOM     67  C   UNL     1       2.308   9.476   8.351  1.00  0.00     0.198 A 
ATOM     68  C   UNL     1       4.446   8.439   8.564  1.00  0.00     0.198 A 
ATOM     69  F   UNL     1       4.997   6.543   7.290  1.00  0.00    -0.203 F 
ATOM     70  F   UNL     1       1.414  10.406   8.718  1.00  0.00    -0.200 F 
ATOM     71  C   UNL     1       3.555   9.435   8.931  1.00  0.00     0.200 A 
ATOM     72  F   UNL     1       5.629   8.352   9.185  1.00  0.00    -0.200 F 
ATOM     73  F   UNL     1       3.877  10.325   9.879  1.00  0.00    -0.200 F 
ENDBRANCH  49  63
BRANCH  50  74
ATOM     74  C   UNL     1      -3.631   4.548  11.109  1.00  0.00     0.064 A 
ATOM     75  C   UNL     1      -4.726   5.433  11.104  1.00  0.00     0.173 A 
ATOM     76  C   UNL     1      -3.237   4.074  12.378  1.00  0.00     0.173 A 
ATOM     77  F   UNL     1      -5.144   6.015   9.972  1.00  0.00    -0.203 F 
ATOM     78  C   UNL     1      -5.370   5.829  12.278  1.00  0.00     0.198 A 
ATOM     79  C   UNL     1      -3.867   4.491  13.556  1.00  0.00     0.198 A 
ATOM     80  F   UNL     1      -2.183   3.254  12.504  1.00  0.00    -0.203 F 
ATOM     81  F   UNL     1      -6.383   6.705  12.213  1.00  0.00    -0.200 F 
ATOM     82  C   UNL     1      -4.929   5.375  13.505  1.00  0.00     0.200 A 
ATOM     83  F   UNL     1      -3.404   4.078  14.745  1.00  0.00    -0.200 F 
ATOM     84  F   UNL     1      -5.497   5.821  14.634  1.00  0.00    -0.200 F 
ENDBRANCH  50  74
BRANCH  62  85
ATOM     85  C   UNL     1       0.910   1.034   8.377  1.00  0.00     0.064 A 
ATOM     86  C   UNL     1       1.960   0.127   8.600  1.00  0.00     0.173 A 
ATOM     87  C   UNL     1      -0.313   0.518   7.926  1.00  0.00     0.173 A 
ATOM     88  F   UNL     1       3.155   0.571   9.023  1.00  0.00    -0.203 F 
ATOM     89  C   UNL     1       1.804  -1.234   8.370  1.00  0.00     0.198 A 
ATOM     90  C   UNL     1      -0.478  -0.854   7.733  1.00  0.00     0.198 A 
ATOM     91  F   UNL     1      -1.345   1.327   7.642  1.00  0.00    -0.203 F 
ATOM     92  F   UNL     1       2.839  -2.065   8.552  1.00  0.00    -0.200 F 
ATOM     93  C   UNL     1       0.582  -1.725   7.944  1.00  0.00     0.200 A 
ATOM     94  F   UNL     1      -1.662  -1.337   7.330  1.00  0.00    -0.200 F 
ATOM     95  F   UNL     1       0.429  -3.039   7.729  1.00  0.00    -0.200 F 
ENDBRANCH  62  85
ENDBRANCH  36  37
ENDBRANCH  29  31
ENDBRANCH  28  29
ENDBRANCH  27  28
ENDBRANCH  26  27
ENDBRANCH  25  26
ENDBRANCH  24  25
ENDBRANCH   1  24
TORSDOF 19
