REMARK SMILES CC1=C(C)C[C@@H](C(=O)OCCOCCOCCOC(=O)c2ccc(-c3c4nc(c(-c5c(F)c(F)c(F)c(F)c5F)c5ccc([nH]5)c(-c5c(F)c(F)c(F)c(F)c5F)c5nc(c(-c6c(F)c(F)c(F)c(F)c6F)c6ccc3[nH]6)C=C5)C=C4)cc2)[C@@H](C(=O)N2CCN(c3cccc(C(F)(F)F)c3)CC2)C1
REMARK SMILES IDX 13 1 12 2 11 3 10 4 9 5 7 6 8 7 6 8 1 9 2 10 3 11 103 12
REMARK SMILES IDX 4 13 5 14 84 15 85 16 86 17 87 18 88 19 102 20 89 21 101 22
REMARK SMILES IDX 90 23 91 24 92 25 100 26 93 27 95 28 94 29 96 30 97 31 98 32
REMARK SMILES IDX 99 33 14 34 15 35 16 36 17 37 18 38 19 39 20 40 21 41 22 42
REMARK SMILES IDX 83 43 23 44 82 45 24 46 25 47 26 48 76 49 27 50 81 51 75 52
REMARK SMILES IDX 77 53 28 54 80 55 74 56 73 57 29 59 61 60 41 61 60 62 42 63
REMARK SMILES IDX 45 64 59 65 78 66 43 67 44 68 58 70 79 71 46 72 30 73 31 74
REMARK SMILES IDX 39 75 32 76 33 77 37 78 40 79 34 80 35 81 38 82 36 83 62 84
REMARK SMILES IDX 63 85 71 86 64 87 65 88 69 89 72 90 66 91 67 92 70 93 68 94
REMARK SMILES IDX 47 95 48 96 56 97 49 98 50 99 54 100 57 101 51 102 52 103
REMARK SMILES IDX 55 104 53 105
REMARK H PARENT 77 58 45 69
REMARK Flexibility Score: inf
ROOT
ATOM      1  C   UNL     1      -3.501   3.201  -5.252  1.00  0.00     0.188 C 
ENDROOT
BRANCH   1   2
ATOM      2  O   UNL     1      -4.282   2.007  -5.201  1.00  0.00    -0.376 OA
BRANCH   2   3
ATOM      3  C   UNL     1      -4.714   1.521  -3.939  1.00  0.00     0.202 C 
BRANCH   3   4
ATOM      4  C   UNL     1      -3.789   0.470  -3.303  1.00  0.00     0.261 C 
BRANCH   4   5
ATOM      5  O   UNL     1      -2.437   0.886  -2.986  1.00  0.00    -0.463 OA
BRANCH   5   6
ATOM      6  C   UNL     1      -1.553   0.793  -4.001  1.00  0.00     0.310 C 
ATOM      7  O   UNL     1      -1.867   0.502  -5.156  1.00  0.00    -0.252 OA
BRANCH   6   8
ATOM      8  C   UNL     1      -0.076   0.878  -3.643  1.00  0.00     0.116 C 
ATOM      9  C   UNL     1       1.074  -0.357   0.405  1.00  0.00     0.039 C 
ATOM     10  C   UNL     1       0.902  -0.099  -1.067  1.00  0.00    -0.074 C 
ATOM     11  C   UNL     1       0.437  -0.977  -1.977  1.00  0.00    -0.073 C 
ATOM     12  C   UNL     1       1.375   1.264  -1.513  1.00  0.00     0.045 C 
ATOM     13  C   UNL     1       0.002  -2.390  -1.707  1.00  0.00     0.039 C 
ATOM     14  C   UNL     1       0.392  -0.571  -3.427  1.00  0.00     0.046 C 
ATOM     15  C   UNL     1       0.616   1.897  -2.707  1.00  0.00     0.097 C 
BRANCH  15  16
ATOM     16  C   UNL     1      -0.150   3.085  -2.120  1.00  0.00     0.227 C 
ATOM     17  O   UNL     1      -1.122   2.894  -1.389  1.00  0.00    -0.275 OA
ATOM     18  N   UNL     1       0.408   4.372  -2.259  1.00  0.00    -0.339 N 
ATOM     19  C   UNL     1      -0.188   5.429  -1.422  1.00  0.00     0.141 C 
ATOM     20  C   UNL     1       1.100   4.834  -3.479  1.00  0.00     0.141 C 
ATOM     21  C   UNL     1       0.659   6.707  -1.303  1.00  0.00     0.138 C 
ATOM     22  C   UNL     1       1.773   6.232  -3.443  1.00  0.00     0.138 C 
ATOM     23  N   UNL     1       0.999   7.181  -2.647  1.00  0.00    -0.368 N 
BRANCH  23  24
ATOM     24  C   UNL     1       1.075   8.540  -2.895  1.00  0.00     0.037 A 
ATOM     25  C   UNL     1       1.667   9.439  -2.001  1.00  0.00     0.026 A 
ATOM     26  C   UNL     1       0.450   9.078  -4.029  1.00  0.00     0.039 A 
ATOM     27  C   UNL     1       1.601  10.822  -2.205  1.00  0.00     0.003 A 
ATOM     28  C   UNL     1       0.309  10.466  -4.217  1.00  0.00     0.058 A 
ATOM     29  C   UNL     1       0.907  11.335  -3.297  1.00  0.00     0.013 A 
BRANCH  28  30
ATOM     30  C   UNL     1      -0.511  11.034  -5.347  1.00  0.00     0.416 C 
ATOM     31  F   UNL     1      -1.491  11.879  -4.916  1.00  0.00    -0.166 F 
ATOM     32  F   UNL     1       0.246  11.764  -6.217  1.00  0.00    -0.166 F 
ATOM     33  F   UNL     1      -1.137  10.102  -6.115  1.00  0.00    -0.166 F 
ENDBRANCH  28  30
ENDBRANCH  23  24
ENDBRANCH  15  16
ENDBRANCH   6   8
ENDBRANCH   5   6
ENDBRANCH   4   5
ENDBRANCH   3   4
ENDBRANCH   2   3
ENDBRANCH   1   2
BRANCH   1  34
ATOM     34  C   UNL     1      -3.068   3.875  -3.945  1.00  0.00     0.188 C 
BRANCH  34  35
ATOM     35  O   UNL     1      -4.172   4.412  -3.221  1.00  0.00    -0.376 OA
BRANCH  35  36
ATOM     36  C   UNL     1      -4.138   5.827  -3.072  1.00  0.00     0.202 C 
BRANCH  36  37
ATOM     37  C   UNL     1      -4.667   6.512  -4.331  1.00  0.00     0.261 C 
BRANCH  37  38
ATOM     38  O   UNL     1      -3.773   6.346  -5.453  1.00  0.00    -0.460 OA
BRANCH  38  39
ATOM     39  C   UNL     1      -2.693   7.148  -5.428  1.00  0.00     0.338 C 
ATOM     40  O   UNL     1      -2.429   7.989  -4.583  1.00  0.00    -0.246 OA
BRANCH  39  41
ATOM     41  C   UNL     1      -1.821   6.847  -6.576  1.00  0.00     0.060 A 
ATOM     42  C   UNL     1      -0.955   5.751  -6.542  1.00  0.00     0.016 A 
ATOM     43  C   UNL     1      -1.766   7.744  -7.639  1.00  0.00     0.016 A 
ATOM     44  C   UNL     1       0.018   5.588  -7.528  1.00  0.00     0.010 A 
ATOM     45  C   UNL     1      -0.830   7.550  -8.655  1.00  0.00     0.010 A 
ATOM     46  C   UNL     1       0.087   6.484  -8.600  1.00  0.00    -0.014 A 
BRANCH  46  47
ATOM     47  C   UNL     1       1.103   6.343  -9.673  1.00  0.00     0.031 A 
ATOM     48  C   UNL     1       2.116   7.430  -9.888  1.00  0.00     0.074 A 
ATOM     49  C   UNL     1       1.079   5.280 -10.498  1.00  0.00     0.049 A 
ATOM     50  N   UNL     1       2.869   7.669 -10.931  1.00  0.00    -0.248 NA
ATOM     51  C   UNL     1       2.301   8.378  -8.778  1.00  0.00     0.031 C 
ATOM     52  C   UNL     1       0.200   4.120 -10.363  1.00  0.00     0.029 A 
ATOM     53  N   UNL     1       1.796   5.027 -11.642  1.00  0.00    -0.354 N 
ATOM     54  C   UNL     1       3.572   8.827 -10.631  1.00  0.00     0.074 A 
ATOM     55  C   UNL     1       3.175   9.230  -9.297  1.00  0.00     0.031 C 
ATOM     56  C   UNL     1       0.411   3.288 -11.394  1.00  0.00     0.029 A 
ATOM     57  C   UNL     1       1.373   3.900 -12.304  1.00  0.00     0.049 A 
ATOM     58  H   UNL     1       2.537   5.594 -11.956  1.00  0.00     0.167 HD
ATOM     59  C   UNL     1       4.452   9.499 -11.411  1.00  0.00     0.037 A 
ATOM     60  C   UNL     1       1.665   3.449 -13.539  1.00  0.00     0.037 A 
ATOM     61  C   UNL     1       4.863   9.072 -12.724  1.00  0.00     0.049 A 
ATOM     62  C   UNL     1       2.595   4.240 -14.414  1.00  0.00     0.074 A 
ATOM     63  C   UNL     1       5.762   9.673 -13.588  1.00  0.00     0.029 A 
ATOM     64  N   UNL     1       4.400   7.930 -13.361  1.00  0.00    -0.354 N 
ATOM     65  N   UNL     1       3.213   5.367 -14.156  1.00  0.00    -0.248 NA
ATOM     66  C   UNL     1       2.851   3.708 -15.760  1.00  0.00     0.031 C 
ATOM     67  C   UNL     1       5.816   8.913 -14.762  1.00  0.00     0.029 A 
ATOM     68  C   UNL     1       4.981   7.818 -14.614  1.00  0.00     0.049 A 
ATOM     69  H   UNL     1       3.753   7.293 -12.979  1.00  0.00     0.167 HD
ATOM     70  C   UNL     1       3.934   5.677 -15.301  1.00  0.00     0.074 A 
ATOM     71  C   UNL     1       3.691   4.609 -16.250  1.00  0.00     0.031 C 
ATOM     72  C   UNL     1       4.723   6.751 -15.546  1.00  0.00     0.037 A 
BRANCH  59  73
ATOM     73  C   UNL     1       4.992  10.796 -10.889  1.00  0.00     0.064 A 
ATOM     74  C   UNL     1       5.962  10.846  -9.879  1.00  0.00     0.173 A 
ATOM     75  C   UNL     1       4.550  12.011 -11.438  1.00  0.00     0.173 A 
ATOM     76  F   UNL     1       6.405   9.714  -9.313  1.00  0.00    -0.203 F 
ATOM     77  C   UNL     1       6.457  12.066  -9.424  1.00  0.00     0.198 A 
ATOM     78  C   UNL     1       5.063  13.227 -10.997  1.00  0.00     0.198 A 
ATOM     79  F   UNL     1       3.625  12.016 -12.410  1.00  0.00    -0.203 F 
ATOM     80  F   UNL     1       7.358  12.094  -8.432  1.00  0.00    -0.200 F 
ATOM     81  C   UNL     1       6.012  13.254  -9.987  1.00  0.00     0.200 A 
ATOM     82  F   UNL     1       4.639  14.372 -11.549  1.00  0.00    -0.200 F 
ATOM     83  F   UNL     1       6.495  14.426  -9.551  1.00  0.00    -0.200 F 
ENDBRANCH  59  73
BRANCH  60  84
ATOM     84  C   UNL     1       1.000   2.221 -14.043  1.00  0.00     0.064 A 
ATOM     85  C   UNL     1       1.717   1.030 -14.213  1.00  0.00     0.173 A 
ATOM     86  C   UNL     1      -0.371   2.209 -14.344  1.00  0.00     0.173 A 
ATOM     87  F   UNL     1       3.035   1.002 -13.965  1.00  0.00    -0.203 F 
ATOM     88  C   UNL     1       1.088  -0.127 -14.667  1.00  0.00     0.198 A 
ATOM     89  C   UNL     1      -1.004   1.046 -14.771  1.00  0.00     0.198 A 
ATOM     90  F   UNL     1      -1.099   3.327 -14.199  1.00  0.00    -0.203 F 
ATOM     91  F   UNL     1       1.802  -1.246 -14.852  1.00  0.00    -0.200 F 
ATOM     92  C   UNL     1      -0.273  -0.121 -14.937  1.00  0.00     0.200 A 
ATOM     93  F   UNL     1      -2.321   1.054 -15.019  1.00  0.00    -0.200 F 
ATOM     94  F   UNL     1      -0.879  -1.238 -15.362  1.00  0.00    -0.200 F 
ENDBRANCH  60  84
BRANCH  72  95
ATOM     95  C   UNL     1       5.399   6.811 -16.882  1.00  0.00     0.064 A 
ATOM     96  C   UNL     1       4.693   7.153 -18.044  1.00  0.00     0.173 A 
ATOM     97  C   UNL     1       6.773   6.553 -16.996  1.00  0.00     0.173 A 
ATOM     98  F   UNL     1       3.373   7.389 -17.987  1.00  0.00    -0.203 F 
ATOM     99  C   UNL     1       5.336   7.217 -19.277  1.00  0.00     0.198 A 
ATOM    100  C   UNL     1       7.417   6.640 -18.227  1.00  0.00     0.198 A 
ATOM    101  F   UNL     1       7.491   6.224 -15.912  1.00  0.00    -0.203 F 
ATOM    102  F   UNL     1       4.636   7.508 -20.382  1.00  0.00    -0.200 F 
ATOM    103  C   UNL     1       6.698   6.967 -19.367  1.00  0.00     0.200 A 
ATOM    104  F   UNL     1       8.734   6.405 -18.310  1.00  0.00    -0.200 F 
ATOM    105  F   UNL     1       7.316   7.032 -20.554  1.00  0.00    -0.200 F 
ENDBRANCH  72  95
ENDBRANCH  46  47
ENDBRANCH  39  41
ENDBRANCH  38  39
ENDBRANCH  37  38
ENDBRANCH  36  37
ENDBRANCH  35  36
ENDBRANCH  34  35
ENDBRANCH   1  34
TORSDOF 20
