REMARK SMILES O=C(OCCOCCOCCOC(=O)c1cccc(NC(=S)N/N=C\c2c[nH]c3ccccc23)c1)c1ccc(-c2c3nc(c(-c4c(F)c(F)c(F)c(F)c4F)c4ccc([nH]4)c(-c4c(F)c(F)c(F)c(F)c4F)c4nc(c(-c5c(F)c(F)c(F)c(F)c5F)c5ccc2[nH]5)C=C4)C=C3)cc1
REMARK SMILES IDX 9 1 8 2 7 3 6 4 5 5 4 6 3 7 2 8 1 9 36 10 37 11 98 12 38 13
REMARK SMILES IDX 97 14 39 15 40 16 41 17 91 18 42 19 96 20 90 21 92 22 43 23
REMARK SMILES IDX 95 24 89 25 88 26 44 28 76 29 56 30 75 31 57 32 60 33 74 34
REMARK SMILES IDX 93 35 58 36 59 37 73 39 94 40 61 41 45 42 46 43 54 44 47 45
REMARK SMILES IDX 48 46 52 47 55 48 49 49 50 50 53 51 51 52 77 53 78 54 86 55
REMARK SMILES IDX 79 56 80 57 84 58 87 59 81 60 82 61 85 62 83 63 62 64 63 65
REMARK SMILES IDX 71 66 64 67 65 68 69 69 72 70 66 71 67 72 70 73 68 74 10 75
REMARK SMILES IDX 11 76 12 77 13 78 14 79 15 80 16 81 35 82 17 83 19 84 18 85
REMARK SMILES IDX 20 86 21 88 22 89 23 90 24 92 25 93 26 94 27 95 34 96 28 97
REMARK SMILES IDX 29 98 33 99 30 101 32 102 31 103
REMARK H PARENT 92 27 60 38 20 87 23 91 28 100
REMARK Flexibility Score: inf
ROOT
ATOM      1  O   UNL     1       2.606   3.293  -3.132  1.00  0.00    -0.376 OA
ENDROOT
BRANCH   1   2
ATOM      2  C   UNL     1       1.919   2.541  -2.142  1.00  0.00     0.188 C 
BRANCH   2   3
ATOM      3  C   UNL     1       2.593   1.295  -1.575  1.00  0.00     0.188 C 
BRANCH   3   4
ATOM      4  O   UNL     1       3.881   1.494  -0.998  1.00  0.00    -0.376 OA
BRANCH   4   5
ATOM      5  C   UNL     1       4.837   0.466  -1.278  1.00  0.00     0.202 C 
BRANCH   5   6
ATOM      6  C   UNL     1       4.421  -0.998  -1.018  1.00  0.00     0.261 C 
BRANCH   6   7
ATOM      7  O   UNL     1       3.043  -1.228  -0.643  1.00  0.00    -0.460 OA
BRANCH   7   8
ATOM      8  C   UNL     1       2.392  -1.150   0.540  1.00  0.00     0.338 C 
ATOM      9  O   UNL     1       1.199  -1.443   0.588  1.00  0.00    -0.246 OA
BRANCH   8  10
ATOM     10  C   UNL     1       3.057  -0.740   1.802  1.00  0.00     0.060 A 
ATOM     11  C   UNL     1       4.124   0.143   1.852  1.00  0.00     0.016 A 
ATOM     12  C   UNL     1       2.535  -1.206   3.017  1.00  0.00     0.016 A 
ATOM     13  C   UNL     1       4.794   0.405   3.033  1.00  0.00     0.010 A 
ATOM     14  C   UNL     1       3.137  -0.853   4.234  1.00  0.00     0.010 A 
ATOM     15  C   UNL     1       4.311  -0.085   4.241  1.00  0.00    -0.014 A 
BRANCH  15  16
ATOM     16  C   UNL     1       5.142   0.090   5.454  1.00  0.00     0.031 A 
ATOM     17  C   UNL     1       5.793  -1.113   6.059  1.00  0.00     0.074 A 
ATOM     18  C   UNL     1       5.537   1.304   5.883  1.00  0.00     0.049 A 
ATOM     19  N   UNL     1       6.530  -1.197   7.134  1.00  0.00    -0.248 NA
ATOM     20  C   UNL     1       5.649  -2.377   5.319  1.00  0.00     0.031 C 
ATOM     21  C   UNL     1       5.256   2.566   5.209  1.00  0.00     0.029 A 
ATOM     22  N   UNL     1       6.333   1.667   6.945  1.00  0.00    -0.354 N 
ATOM     23  C   UNL     1       6.941  -2.516   7.199  1.00  0.00     0.074 A 
ATOM     24  C   UNL     1       6.346  -3.208   6.076  1.00  0.00     0.031 C 
ATOM     25  C   UNL     1       5.914   3.541   5.852  1.00  0.00     0.029 A 
ATOM     26  C   UNL     1       6.471   3.027   7.078  1.00  0.00     0.049 A 
ATOM     27  H   UNL     1       6.760   1.017   7.549  1.00  0.00     0.167 HD
ATOM     28  C   UNL     1       7.760  -3.090   8.108  1.00  0.00     0.037 A 
ATOM     29  C   UNL     1       6.908   3.762   8.115  1.00  0.00     0.037 A 
ATOM     30  C   UNL     1       8.360  -2.399   9.215  1.00  0.00     0.049 A 
ATOM     31  C   UNL     1       7.505   3.063   9.281  1.00  0.00     0.074 A 
ATOM     32  C   UNL     1       9.184  -2.904  10.205  1.00  0.00     0.029 A 
ATOM     33  N   UNL     1       8.191  -1.051   9.488  1.00  0.00    -0.354 N 
ATOM     34  N   UNL     1       7.735   1.791   9.442  1.00  0.00    -0.248 NA
ATOM     35  C   UNL     1       7.925   3.918  10.401  1.00  0.00     0.031 C 
ATOM     36  C   UNL     1       9.447  -1.882  11.122  1.00  0.00     0.029 A 
ATOM     37  C   UNL     1       8.850  -0.723  10.663  1.00  0.00     0.049 A 
ATOM     38  H   UNL     1       7.679  -0.421   8.931  1.00  0.00     0.167 HD
ATOM     39  C   UNL     1       8.369   1.692  10.662  1.00  0.00     0.074 A 
ATOM     40  C   UNL     1       8.458   3.026  11.215  1.00  0.00     0.031 C 
ATOM     41  C   UNL     1       8.882   0.588  11.242  1.00  0.00     0.037 A 
BRANCH  28  42
ATOM     42  C   UNL     1       7.968  -4.564   7.985  1.00  0.00     0.064 A 
ATOM     43  C   UNL     1       8.739  -5.132   6.961  1.00  0.00     0.173 A 
ATOM     44  C   UNL     1       7.360  -5.421   8.913  1.00  0.00     0.173 A 
ATOM     45  F   UNL     1       9.310  -4.353   6.030  1.00  0.00    -0.203 F 
ATOM     46  C   UNL     1       8.873  -6.513   6.858  1.00  0.00     0.198 A 
ATOM     47  C   UNL     1       7.523  -6.797   8.826  1.00  0.00     0.198 A 
ATOM     48  F   UNL     1       6.602  -4.920   9.900  1.00  0.00    -0.203 F 
ATOM     49  F   UNL     1       9.562  -7.044   5.838  1.00  0.00    -0.200 F 
ATOM     50  C   UNL     1       8.272  -7.343   7.795  1.00  0.00     0.200 A 
ATOM     51  F   UNL     1       6.945  -7.595   9.734  1.00  0.00    -0.200 F 
ATOM     52  F   UNL     1       8.403  -8.673   7.694  1.00  0.00    -0.200 F 
ENDBRANCH  28  42
BRANCH  29  53
ATOM     53  C   UNL     1       6.639   5.207   8.287  1.00  0.00     0.064 A 
ATOM     54  C   UNL     1       7.574   6.206   7.987  1.00  0.00     0.173 A 
ATOM     55  C   UNL     1       5.484   5.575   9.002  1.00  0.00     0.173 A 
ATOM     56  F   UNL     1       8.722   5.888   7.373  1.00  0.00    -0.203 F 
ATOM     57  C   UNL     1       7.349   7.531   8.373  1.00  0.00     0.198 A 
ATOM     58  C   UNL     1       5.280   6.889   9.407  1.00  0.00     0.198 A 
ATOM     59  F   UNL     1       4.565   4.651   9.321  1.00  0.00    -0.203 F 
ATOM     60  F   UNL     1       8.252   8.477   8.083  1.00  0.00    -0.200 F 
ATOM     61  C   UNL     1       6.201   7.871   9.079  1.00  0.00     0.200 A 
ATOM     62  F   UNL     1       4.193   7.197  10.119  1.00  0.00    -0.200 F 
ATOM     63  F   UNL     1       5.975   9.143   9.436  1.00  0.00    -0.200 F 
ENDBRANCH  29  53
BRANCH  41  64
ATOM     64  C   UNL     1       9.637   0.822  12.506  1.00  0.00     0.064 A 
ATOM     65  C   UNL     1       8.995   1.199  13.694  1.00  0.00     0.173 A 
ATOM     66  C   UNL     1      11.037   0.769  12.490  1.00  0.00     0.173 A 
ATOM     67  F   UNL     1       7.660   1.329  13.729  1.00  0.00    -0.203 F 
ATOM     68  C   UNL     1       9.736   1.550  14.816  1.00  0.00     0.198 A 
ATOM     69  C   UNL     1      11.772   1.081  13.626  1.00  0.00     0.198 A 
ATOM     70  F   UNL     1      11.691   0.449  11.363  1.00  0.00    -0.203 F 
ATOM     71  F   UNL     1       9.111   2.001  15.913  1.00  0.00    -0.200 F 
ATOM     72  C   UNL     1      11.121   1.482  14.784  1.00  0.00     0.200 A 
ATOM     73  F   UNL     1      13.109   1.021  13.591  1.00  0.00    -0.200 F 
ATOM     74  F   UNL     1      11.834   1.831  15.863  1.00  0.00    -0.200 F 
ENDBRANCH  41  64
ENDBRANCH  15  16
ENDBRANCH   8  10
ENDBRANCH   7   8
ENDBRANCH   6   7
ENDBRANCH   5   6
ENDBRANCH   4   5
ENDBRANCH   3   4
ENDBRANCH   2   3
ENDBRANCH   1   2
BRANCH   1  75
ATOM     75  C   UNL     1       3.959   3.659  -2.889  1.00  0.00     0.202 C 
BRANCH  75  76
ATOM     76  C   UNL     1       4.263   4.643  -1.753  1.00  0.00     0.261 C 
BRANCH  76  77
ATOM     77  O   UNL     1       3.689   4.284  -0.498  1.00  0.00    -0.460 OA
BRANCH  77  78
ATOM     78  C   UNL     1       2.520   4.901  -0.188  1.00  0.00     0.338 C 
ATOM     79  O   UNL     1       1.895   5.717  -0.823  1.00  0.00    -0.246 OA
BRANCH  78  80
ATOM     80  C   UNL     1       2.168   4.429   1.152  1.00  0.00     0.062 A 
ATOM     81  C   UNL     1       1.103   3.584   1.460  1.00  0.00     0.016 A 
ATOM     82  C   UNL     1       2.972   4.942   2.142  1.00  0.00     0.041 A 
ATOM     83  C   UNL     1       0.880   3.230   2.796  1.00  0.00     0.003 A 
ATOM     84  C   UNL     1       2.684   4.669   3.464  1.00  0.00     0.041 A 
ATOM     85  C   UNL     1       1.674   3.779   3.807  1.00  0.00     0.026 A 
BRANCH  84  86
ATOM     86  N   UNL     1       3.492   5.385   4.315  1.00  0.00    -0.331 N 
ATOM     87  H   UNL     1       4.353   5.623   3.902  1.00  0.00     0.169 HD
BRANCH  86  88
ATOM     88  C   UNL     1       3.389   5.831   5.559  1.00  0.00     0.191 C 
ATOM     89  S   UNL     1       4.764   6.702   5.984  1.00  0.00    -0.039 S 
BRANCH  88  90
ATOM     90  N   UNL     1       2.272   5.763   6.323  1.00  0.00    -0.254 N 
ATOM     91  H   UNL     1       2.379   5.692   7.299  1.00  0.00     0.193 HD
BRANCH  90  92
ATOM     92  N   UNL     1       0.989   5.789   5.806  1.00  0.00    -0.181 NA
ATOM     93  C   UNL     1       0.316   6.916   5.746  1.00  0.00     0.143 C 
BRANCH  93  94
ATOM     94  C   UNL     1       0.822   8.275   6.009  1.00  0.00     0.020 A 
ATOM     95  C   UNL     1       2.110   8.630   5.658  1.00  0.00     0.093 A 
ATOM     96  C   UNL     1       0.723   9.106   7.182  1.00  0.00     0.008 A 
ATOM     97  N   UNL     1       2.698   8.592   6.939  1.00  0.00    -0.361 N 
ATOM     98  C   UNL     1       1.684   8.421   7.937  1.00  0.00     0.046 A 
ATOM     99  C   UNL     1       0.825  10.523   7.426  1.00  0.00     0.011 A 
ATOM    100  H   UNL     1       3.663   8.671   7.122  1.00  0.00     0.166 HD
ATOM    101  C   UNL     1       1.835   8.681   9.290  1.00  0.00     0.027 A 
ATOM    102  C   UNL     1       1.513  10.961   8.586  1.00  0.00     0.001 A 
ATOM    103  C   UNL     1       1.940  10.040   9.548  1.00  0.00     0.002 A 
ENDBRANCH  93  94
ENDBRANCH  90  92
ENDBRANCH  88  90
ENDBRANCH  86  88
ENDBRANCH  84  86
ENDBRANCH  78  80
ENDBRANCH  77  78
ENDBRANCH  76  77
ENDBRANCH  75  76
ENDBRANCH   1  75
TORSDOF 22
