REMARK SMILES CCc1n[nH]c(C(=O)N[C@@]2(C(=O)OCCOCCOCCOC(=O)c3ccc(-c4c5nc(c(-c6c(F)c(F)c(F)c(F)c6F)c6ccc([nH]6)c(-c6c(F)c(F)c(F)c(F)c6F)c6nc(c(-c7c(F)c(F)c(F)c(F)c7F)c7ccc4[nH]7)C=C6)C=C5)cc3)CCCC[C@H]2C)n1
REMARK SMILES IDX 17 1 16 2 15 3 14 4 13 5 11 6 12 7 10 8 88 9 92 10 89 11
REMARK SMILES IDX 91 12 93 13 90 14 9 15 7 16 8 17 6 19 3 20 4 21 94 22 5 23
REMARK SMILES IDX 2 25 1 26 18 27 19 28 20 29 21 30 22 31 23 32 24 33 25 34
REMARK SMILES IDX 26 35 87 36 27 37 86 38 28 39 29 40 30 41 80 42 31 43 85 44
REMARK SMILES IDX 79 45 81 46 32 47 84 48 78 49 77 50 33 52 65 53 45 54 64 55
REMARK SMILES IDX 46 56 49 57 63 58 82 59 47 60 48 61 62 63 83 64 50 65 34 66
REMARK SMILES IDX 35 67 43 68 36 69 37 70 41 71 44 72 38 73 39 74 42 75 40 76
REMARK SMILES IDX 66 77 67 78 75 79 68 80 69 81 73 82 76 83 70 84 71 85 74 86
REMARK SMILES IDX 72 87 51 88 52 89 60 90 53 91 54 92 58 93 61 94 55 95 56 96
REMARK SMILES IDX 59 97 57 98
REMARK H PARENT 9 18 5 24 81 51 49 62
REMARK Flexibility Score: inf
ROOT
ATOM      1  C   UNL     1       1.596   9.474   1.693  1.00  0.00     0.188 C 
ENDROOT
BRANCH   1   2
ATOM      2  O   UNL     1       0.555  10.239   2.288  1.00  0.00    -0.376 OA
BRANCH   2   3
ATOM      3  C   UNL     1      -0.433   9.598   3.084  1.00  0.00     0.202 C 
BRANCH   3   4
ATOM      4  C   UNL     1      -1.452   8.716   2.348  1.00  0.00     0.261 C 
BRANCH   4   5
ATOM      5  O   UNL     1      -0.983   7.444   1.843  1.00  0.00    -0.461 OA
BRANCH   5   6
ATOM      6  C   UNL     1      -0.729   7.337   0.505  1.00  0.00     0.332 C 
ATOM      7  O   UNL     1      -0.763   8.286  -0.276  1.00  0.00    -0.249 OA
BRANCH   6   8
ATOM      8  C   UNL     1      -0.515   5.841   0.005  1.00  0.00     0.141 C 
ATOM      9  C   UNL     1      -1.991   5.435  -0.194  1.00  0.00     0.041 C 
ATOM     10  C   UNL     1       0.254   4.960   1.057  1.00  0.00     0.023 C 
ATOM     11  C   UNL     1      -2.224   3.957  -0.361  1.00  0.00     0.003 C 
ATOM     12  C   UNL     1      -0.276   3.527   1.255  1.00  0.00     0.006 C 
ATOM     13  C   UNL     1       1.799   4.896   0.924  1.00  0.00     0.011 C 
ATOM     14  C   UNL     1      -1.706   3.204   0.849  1.00  0.00     0.000 C 
BRANCH   8  15
ATOM     15  N   UNL     1       0.177   6.035  -1.321  1.00  0.00    -0.333 N 
ATOM     16  C   UNL     1       0.839   5.299  -2.277  1.00  0.00     0.289 C 
ATOM     17  O   UNL     1       1.324   5.951  -3.208  1.00  0.00    -0.266 OA
ATOM     18  H   UNL     1       0.143   6.983  -1.585  1.00  0.00     0.165 HD
BRANCH  16  19
ATOM     19  C   UNL     1       1.079   3.879  -2.181  1.00  0.00     0.214 A 
ATOM     20  C   UNL     1       1.170   1.838  -1.580  1.00  0.00     0.151 A 
ATOM     21  N   UNL     1       2.239   1.957  -2.374  1.00  0.00    -0.158 NA
ATOM     22  N   UNL     1       0.416   2.985  -1.489  1.00  0.00    -0.207 NA
ATOM     23  N   UNL     1       2.121   3.236  -2.795  1.00  0.00    -0.255 N 
ATOM     24  H   UNL     1       2.712   3.654  -3.461  1.00  0.00     0.192 HD
BRANCH  20  25
ATOM     25  C   UNL     1       0.893   0.704  -0.651  1.00  0.00     0.076 C 
ATOM     26  C   UNL     1       1.531  -0.633  -0.950  1.00  0.00     0.012 C 
ENDBRANCH  20  25
ENDBRANCH  16  19
ENDBRANCH   8  15
ENDBRANCH   6   8
ENDBRANCH   5   6
ENDBRANCH   4   5
ENDBRANCH   3   4
ENDBRANCH   2   3
ENDBRANCH   1   2
BRANCH   1  27
ATOM     27  C   UNL     1       1.915   8.095   2.259  1.00  0.00     0.188 C 
BRANCH  27  28
ATOM     28  O   UNL     1       1.821   8.029   3.666  1.00  0.00    -0.376 OA
BRANCH  28  29
ATOM     29  C   UNL     1       2.948   7.521   4.356  1.00  0.00     0.202 C 
BRANCH  29  30
ATOM     30  C   UNL     1       4.140   8.485   4.339  1.00  0.00     0.261 C 
BRANCH  30  31
ATOM     31  O   UNL     1       4.626   8.847   3.030  1.00  0.00    -0.460 OA
BRANCH  31  32
ATOM     32  C   UNL     1       5.160   7.862   2.266  1.00  0.00     0.338 C 
ATOM     33  O   UNL     1       5.325   6.701   2.579  1.00  0.00    -0.246 OA
BRANCH  32  34
ATOM     34  C   UNL     1       5.280   8.388   0.882  1.00  0.00     0.060 A 
ATOM     35  C   UNL     1       4.649   7.708  -0.173  1.00  0.00     0.016 A 
ATOM     36  C   UNL     1       5.989   9.562   0.632  1.00  0.00     0.016 A 
ATOM     37  C   UNL     1       4.747   8.188  -1.483  1.00  0.00     0.010 A 
ATOM     38  C   UNL     1       6.106  10.028  -0.679  1.00  0.00     0.010 A 
ATOM     39  C   UNL     1       5.511   9.331  -1.749  1.00  0.00    -0.014 A 
BRANCH  39  40
ATOM     40  C   UNL     1       5.864   9.721  -3.138  1.00  0.00     0.031 A 
ATOM     41  C   UNL     1       7.248   9.399  -3.632  1.00  0.00     0.074 A 
ATOM     42  C   UNL     1       5.008  10.388  -3.932  1.00  0.00     0.049 A 
ATOM     43  N   UNL     1       7.871   9.812  -4.705  1.00  0.00    -0.248 NA
ATOM     44  C   UNL     1       8.040   8.493  -2.786  1.00  0.00     0.031 C 
ATOM     45  C   UNL     1       3.619  10.701  -3.608  1.00  0.00     0.029 A 
ATOM     46  N   UNL     1       5.201  10.949  -5.172  1.00  0.00    -0.354 N 
ATOM     47  C   UNL     1       9.136   9.241  -4.648  1.00  0.00     0.074 A 
ATOM     48  C   UNL     1       9.198   8.468  -3.427  1.00  0.00     0.031 C 
ATOM     49  C   UNL     1       3.092  11.424  -4.612  1.00  0.00     0.029 A 
ATOM     50  C   UNL     1       4.121  11.670  -5.621  1.00  0.00     0.049 A 
ATOM     51  H   UNL     1       6.033  10.844  -5.689  1.00  0.00     0.167 HD
ATOM     52  C   UNL     1      10.153   9.354  -5.535  1.00  0.00     0.037 A 
ATOM     53  C   UNL     1       3.997  12.473  -6.698  1.00  0.00     0.037 A 
ATOM     54  C   UNL     1      10.082  10.119  -6.751  1.00  0.00     0.049 A 
ATOM     55  C   UNL     1       5.175  12.662  -7.625  1.00  0.00     0.074 A 
ATOM     56  C   UNL     1      11.053  10.285  -7.722  1.00  0.00     0.029 A 
ATOM     57  N   UNL     1       8.976  10.851  -7.159  1.00  0.00    -0.354 N 
ATOM     58  N   UNL     1       6.370  12.126  -7.568  1.00  0.00    -0.248 NA
ATOM     59  C   UNL     1       4.987  13.575  -8.763  1.00  0.00     0.031 C 
ATOM     60  C   UNL     1      10.558  11.168  -8.687  1.00  0.00     0.029 A 
ATOM     61  C   UNL     1       9.253  11.494  -8.354  1.00  0.00     0.049 A 
ATOM     62  H   UNL     1       8.123  10.905  -6.672  1.00  0.00     0.167 HD
ATOM     63  C   UNL     1       7.059  12.601  -8.678  1.00  0.00     0.074 A 
ATOM     64  C   UNL     1       6.150  13.471  -9.393  1.00  0.00     0.031 C 
ATOM     65  C   UNL     1       8.329  12.336  -9.071  1.00  0.00     0.037 A 
BRANCH  52  66
ATOM     66  C   UNL     1      11.445   8.667  -5.202  1.00  0.00     0.064 A 
ATOM     67  C   UNL     1      11.568   7.269  -5.214  1.00  0.00     0.173 A 
ATOM     68  C   UNL     1      12.588   9.422  -4.897  1.00  0.00     0.173 A 
ATOM     69  F   UNL     1      10.503   6.500  -5.485  1.00  0.00    -0.203 F 
ATOM     70  C   UNL     1      12.779   6.654  -4.906  1.00  0.00     0.198 A 
ATOM     71  C   UNL     1      13.806   8.805  -4.623  1.00  0.00     0.198 A 
ATOM     72  F   UNL     1      12.528  10.762  -4.875  1.00  0.00    -0.203 F 
ATOM     73  F   UNL     1      12.860   5.317  -4.871  1.00  0.00    -0.200 F 
ATOM     74  C   UNL     1      13.898   7.422  -4.619  1.00  0.00     0.200 A 
ATOM     75  F   UNL     1      14.889   9.550  -4.362  1.00  0.00    -0.200 F 
ATOM     76  F   UNL     1      15.064   6.829  -4.330  1.00  0.00    -0.200 F 
ENDBRANCH  52  66
BRANCH  53  77
ATOM     77  C   UNL     1       2.718  13.191  -6.950  1.00  0.00     0.064 A 
ATOM     78  C   UNL     1       1.928  12.890  -8.069  1.00  0.00     0.173 A 
ATOM     79  C   UNL     1       2.273  14.212  -6.096  1.00  0.00     0.173 A 
ATOM     80  F   UNL     1       2.326  11.946  -8.934  1.00  0.00    -0.203 F 
ATOM     81  C   UNL     1       0.754  13.594  -8.334  1.00  0.00     0.198 A 
ATOM     82  C   UNL     1       1.083  14.893  -6.344  1.00  0.00     0.198 A 
ATOM     83  F   UNL     1       2.994  14.548  -5.017  1.00  0.00    -0.203 F 
ATOM     84  F   UNL     1       0.049  13.324  -9.441  1.00  0.00    -0.200 F 
ATOM     85  C   UNL     1       0.329  14.590  -7.467  1.00  0.00     0.200 A 
ATOM     86  F   UNL     1       0.671  15.849  -5.500  1.00  0.00    -0.200 F 
ATOM     87  F   UNL     1      -0.799  15.266  -7.723  1.00  0.00    -0.200 F 
ENDBRANCH  53  77
BRANCH  65  88
ATOM     88  C   UNL     1       8.805  12.932 -10.366  1.00  0.00     0.064 A 
ATOM     89  C   UNL     1       9.098  14.297 -10.493  1.00  0.00     0.173 A 
ATOM     90  C   UNL     1       9.055  12.102 -11.471  1.00  0.00     0.173 A 
ATOM     91  F   UNL     1       8.866  15.135  -9.471  1.00  0.00    -0.203 F 
ATOM     92  C   UNL     1       9.611  14.811 -11.682  1.00  0.00     0.198 A 
ATOM     93  C   UNL     1       9.597  12.613 -12.646  1.00  0.00     0.198 A 
ATOM     94  F   UNL     1       8.801  10.786 -11.399  1.00  0.00    -0.203 F 
ATOM     95  F   UNL     1       9.852  16.125 -11.793  1.00  0.00    -0.200 F 
ATOM     96  C   UNL     1       9.871  13.968 -12.752  1.00  0.00     0.200 A 
ATOM     97  F   UNL     1       9.866  11.793 -13.671  1.00  0.00    -0.200 F 
ATOM     98  F   UNL     1      10.386  14.461 -13.887  1.00  0.00    -0.200 F 
ENDBRANCH  65  88
ENDBRANCH  39  40
ENDBRANCH  32  34
ENDBRANCH  31  32
ENDBRANCH  30  31
ENDBRANCH  29  30
ENDBRANCH  28  29
ENDBRANCH  27  28
ENDBRANCH   1  27
TORSDOF 20
