REMARK SMILES COc1cccc(C(=O)/C=C(/Nc2cc(C)c(C)cc2[N+](=O)[O-])C(=O)OCCOCCOCCOC(=O)c2ccc(-c3c4nc(c(-c5c(F)c(F)c(F)c(F)c5F)c5ccc([nH]5)c(-c5c(F)c(F)c(F)c(F)c5F)c5nc(c(-c6c(F)c(F)c(F)c(F)c6F)c6ccc3[nH]6)C=C5)C=C4)cc2)c1
REMARK SMILES IDX 30 1 29 2 28 3 27 4 26 5 24 6 25 7 11 8 10 9 8 10 9 11 7 12
REMARK SMILES IDX 3 13 4 14 101 15 5 16 6 17 2 18 1 19 12 20 13 22 14 23 20 24
REMARK SMILES IDX 15 25 19 26 16 27 17 28 18 29 21 30 22 31 23 32 31 33 32 34
REMARK SMILES IDX 33 35 34 36 35 37 36 38 37 39 38 40 39 41 100 42 40 43 99 44
REMARK SMILES IDX 41 45 42 46 43 47 93 48 44 49 98 50 92 51 94 52 45 53 97 54
REMARK SMILES IDX 91 55 90 56 46 58 78 59 58 60 77 61 59 62 62 63 76 64 95 65
REMARK SMILES IDX 60 66 61 67 75 69 96 70 63 71 47 72 48 73 56 74 49 75 50 76
REMARK SMILES IDX 54 77 57 78 51 79 52 80 55 81 53 82 79 83 80 84 88 85 81 86
REMARK SMILES IDX 82 87 86 88 89 89 83 90 84 91 87 92 85 93 64 94 65 95 73 96
REMARK SMILES IDX 66 97 67 98 71 99 74 100 68 101 69 102 72 103 70 104
REMARK H PARENT 12 21 94 57 62 68
REMARK Flexibility Score: inf
ROOT
ATOM      1  C   UNL     1       1.795  -2.576  -0.632  1.00  0.00     0.188 C 
ENDROOT
BRANCH   1   2
ATOM      2  O   UNL     1       0.771  -1.650  -0.268  1.00  0.00    -0.376 OA
BRANCH   2   3
ATOM      3  C   UNL     1       0.953  -0.272  -0.593  1.00  0.00     0.202 C 
BRANCH   3   4
ATOM      4  C   UNL     1       1.827   0.478   0.389  1.00  0.00     0.261 C 
BRANCH   4   5
ATOM      5  O   UNL     1       3.045  -0.235   0.423  1.00  0.00    -0.459 OA
BRANCH   5   6
ATOM      6  C   UNL     1       3.695  -0.241   1.598  1.00  0.00     0.354 C 
ATOM      7  O   UNL     1       3.515   0.449   2.578  1.00  0.00    -0.244 OA
BRANCH   6   8
ATOM      8  C   UNL     1       4.824  -1.152   1.398  1.00  0.00     0.129 C 
ATOM      9  C   UNL     1       4.672  -2.349   2.002  1.00  0.00     0.086 C 
BRANCH   9  10
ATOM     10  C   UNL     1       3.623  -3.067   2.862  1.00  0.00     0.188 C 
ATOM     11  O   UNL     1       4.021  -4.108   3.402  1.00  0.00    -0.289 OA
BRANCH  10  12
ATOM     12  C   UNL     1       2.135  -2.807   2.969  1.00  0.00     0.026 A 
ATOM     13  C   UNL     1       0.104  -1.442   3.169  1.00  0.00     0.119 A 
ATOM     14  C   UNL     1      -0.708  -2.565   3.131  1.00  0.00     0.046 A 
ATOM     15  C   UNL     1       1.505  -1.583   3.188  1.00  0.00     0.058 A 
ATOM     16  C   UNL     1      -0.110  -3.819   3.083  1.00  0.00     0.005 A 
ATOM     17  C   UNL     1       1.288  -3.932   2.982  1.00  0.00     0.012 A 
BRANCH  13  18
ATOM     18  O   UNL     1      -0.413  -0.186   3.345  1.00  0.00    -0.497 OA
ATOM     19  C   UNL     1      -1.251   0.261   2.275  1.00  0.00     0.278 C 
ENDBRANCH  13  18
ENDBRANCH  10  12
ENDBRANCH   9  10
BRANCH   8  20
ATOM     20  N   UNL     1       5.837  -0.698   0.520  1.00  0.00    -0.344 N 
ATOM     21  H   UNL     1       6.651  -1.247   0.449  1.00  0.00     0.167 HD
BRANCH  20  22
ATOM     22  C   UNL     1       5.779   0.500  -0.277  1.00  0.00     0.118 A 
ATOM     23  C   UNL     1       5.958   0.380  -1.671  1.00  0.00     0.037 A 
ATOM     24  C   UNL     1       5.290   1.753   0.159  1.00  0.00     0.292 A 
ATOM     25  C   UNL     1       5.531   1.386  -2.583  1.00  0.00    -0.046 A 
ATOM     26  C   UNL     1       4.731   2.687  -0.735  1.00  0.00     0.091 A 
ATOM     27  C   UNL     1       5.897   1.256  -4.039  1.00  0.00     0.045 C 
ATOM     28  C   UNL     1       4.782   2.477  -2.112  1.00  0.00    -0.041 A 
ATOM     29  C   UNL     1       4.091   3.462  -3.017  1.00  0.00     0.045 C 
BRANCH  24  30
ATOM     30  N   UNL     1       5.424   2.193   1.551  1.00  0.00     0.064 N 
ATOM     31  O   UNL     1       4.601   3.025   1.966  1.00  0.00    -0.258 OA
ATOM     32  O   UNL     1       6.389   1.764   2.198  1.00  0.00    -0.258 OA
ENDBRANCH  24  30
ENDBRANCH  20  22
ENDBRANCH   8  20
ENDBRANCH   6   8
ENDBRANCH   5   6
ENDBRANCH   4   5
ENDBRANCH   3   4
ENDBRANCH   2   3
ENDBRANCH   1   2
BRANCH   1  33
ATOM     33  C   UNL     1       2.515  -2.437  -1.985  1.00  0.00     0.188 C 
BRANCH  33  34
ATOM     34  O   UNL     1       1.817  -1.954  -3.126  1.00  0.00    -0.376 OA
BRANCH  34  35
ATOM     35  C   UNL     1       0.419  -2.175  -3.250  1.00  0.00     0.202 C 
BRANCH  35  36
ATOM     36  C   UNL     1      -0.002  -3.572  -3.687  1.00  0.00     0.261 C 
BRANCH  36  37
ATOM     37  O   UNL     1       0.166  -4.529  -2.631  1.00  0.00    -0.460 OA
BRANCH  37  38
ATOM     38  C   UNL     1       1.216  -5.365  -2.781  1.00  0.00     0.338 C 
ATOM     39  O   UNL     1       2.011  -5.402  -3.705  1.00  0.00    -0.246 OA
BRANCH  38  40
ATOM     40  C   UNL     1       1.373  -6.191  -1.572  1.00  0.00     0.060 A 
ATOM     41  C   UNL     1       2.662  -6.324  -1.042  1.00  0.00     0.016 A 
ATOM     42  C   UNL     1       0.299  -6.904  -1.034  1.00  0.00     0.016 A 
ATOM     43  C   UNL     1       2.901  -7.247  -0.031  1.00  0.00     0.010 A 
ATOM     44  C   UNL     1       0.541  -7.837  -0.025  1.00  0.00     0.010 A 
ATOM     45  C   UNL     1       1.854  -8.054   0.432  1.00  0.00    -0.014 A 
BRANCH  45  46
ATOM     46  C   UNL     1       2.180  -9.268   1.214  1.00  0.00     0.031 A 
ATOM     47  C   UNL     1       2.267 -10.581   0.487  1.00  0.00     0.074 A 
ATOM     48  C   UNL     1       2.446  -9.193   2.527  1.00  0.00     0.049 A 
ATOM     49  N   UNL     1       2.546 -11.772   0.952  1.00  0.00    -0.248 NA
ATOM     50  C   UNL     1       2.011 -10.548  -0.963  1.00  0.00     0.031 C 
ATOM     51  C   UNL     1       2.454  -7.963   3.309  1.00  0.00     0.029 A 
ATOM     52  N   UNL     1       2.764 -10.171   3.433  1.00  0.00    -0.354 N 
ATOM     53  C   UNL     1       2.496 -12.624  -0.143  1.00  0.00     0.074 A 
ATOM     54  C   UNL     1       2.125 -11.826  -1.290  1.00  0.00     0.031 C 
ATOM     55  C   UNL     1       2.746  -8.255   4.587  1.00  0.00     0.029 A 
ATOM     56  C   UNL     1       2.925  -9.698   4.712  1.00  0.00     0.049 A 
ATOM     57  H   UNL     1       2.866 -11.119   3.190  1.00  0.00     0.167 HD
ATOM     58  C   UNL     1       2.748 -13.953  -0.185  1.00  0.00     0.037 A 
ATOM     59  C   UNL     1       3.182 -10.366   5.851  1.00  0.00     0.037 A 
ATOM     60  C   UNL     1       3.116 -14.735   0.966  1.00  0.00     0.049 A 
ATOM     61  C   UNL     1       3.382 -11.858   5.785  1.00  0.00     0.074 A 
ATOM     62  C   UNL     1       3.412 -16.085   1.034  1.00  0.00     0.029 A 
ATOM     63  N   UNL     1       3.228 -14.235   2.256  1.00  0.00    -0.354 N 
ATOM     64  N   UNL     1       3.366 -12.654   4.742  1.00  0.00    -0.248 NA
ATOM     65  C   UNL     1       3.655 -12.541   7.056  1.00  0.00     0.031 C 
ATOM     66  C   UNL     1       3.636 -16.414   2.374  1.00  0.00     0.029 A 
ATOM     67  C   UNL     1       3.557 -15.257   3.132  1.00  0.00     0.049 A 
ATOM     68  H   UNL     1       3.095 -13.293   2.510  1.00  0.00     0.167 HD
ATOM     69  C   UNL     1       3.670 -13.921   5.223  1.00  0.00     0.074 A 
ATOM     70  C   UNL     1       3.881 -13.782   6.650  1.00  0.00     0.031 C 
ATOM     71  C   UNL     1       3.769 -15.094   4.549  1.00  0.00     0.037 A 
BRANCH  58  72
ATOM     72  C   UNL     1       2.598 -14.650  -1.506  1.00  0.00     0.064 A 
ATOM     73  C   UNL     1       3.490 -14.435  -2.568  1.00  0.00     0.173 A 
ATOM     74  C   UNL     1       1.562 -15.577  -1.700  1.00  0.00     0.173 A 
ATOM     75  F   UNL     1       4.487 -13.546  -2.443  1.00  0.00    -0.203 F 
ATOM     76  C   UNL     1       3.337 -15.105  -3.780  1.00  0.00     0.198 A 
ATOM     77  C   UNL     1       1.432 -16.269  -2.901  1.00  0.00     0.198 A 
ATOM     78  F   UNL     1       0.679 -15.820  -0.720  1.00  0.00    -0.203 F 
ATOM     79  F   UNL     1       4.173 -14.848  -4.796  1.00  0.00    -0.200 F 
ATOM     80  C   UNL     1       2.315 -16.028  -3.942  1.00  0.00     0.200 A 
ATOM     81  F   UNL     1       0.450 -17.169  -3.051  1.00  0.00    -0.200 F 
ATOM     82  F   UNL     1       2.177 -16.680  -5.104  1.00  0.00    -0.200 F 
ENDBRANCH  58  72
BRANCH  59  83
ATOM     83  C   UNL     1       3.270  -9.639   7.146  1.00  0.00     0.064 A 
ATOM     84  C   UNL     1       4.475  -9.574   7.860  1.00  0.00     0.173 A 
ATOM     85  C   UNL     1       2.141  -9.034   7.718  1.00  0.00     0.173 A 
ATOM     86  F   UNL     1       5.578 -10.158   7.367  1.00  0.00    -0.203 F 
ATOM     87  C   UNL     1       4.539  -8.964   9.111  1.00  0.00     0.198 A 
ATOM     88  C   UNL     1       2.215  -8.395   8.954  1.00  0.00     0.198 A 
ATOM     89  F   UNL     1       0.963  -9.069   7.079  1.00  0.00    -0.203 F 
ATOM     90  F   UNL     1       5.687  -8.979   9.802  1.00  0.00    -0.200 F 
ATOM     91  C   UNL     1       3.410  -8.372   9.656  1.00  0.00     0.200 A 
ATOM     92  F   UNL     1       1.122  -7.817   9.473  1.00  0.00    -0.200 F 
ATOM     93  F   UNL     1       3.469  -7.797  10.864  1.00  0.00    -0.200 F 
ENDBRANCH  59  83
BRANCH  71  94
ATOM     94  C   UNL     1       4.178 -16.305   5.342  1.00  0.00     0.064 A 
ATOM     95  C   UNL     1       3.343 -16.872   6.316  1.00  0.00     0.173 A 
ATOM     96  C   UNL     1       5.426 -16.908   5.117  1.00  0.00     0.173 A 
ATOM     97  F   UNL     1       2.144 -16.329   6.578  1.00  0.00    -0.203 F 
ATOM     98  C   UNL     1       3.764 -17.963   7.072  1.00  0.00     0.198 A 
ATOM     99  C   UNL     1       5.825 -18.025   5.845  1.00  0.00     0.198 A 
ATOM    100  F   UNL     1       6.258 -16.417   4.187  1.00  0.00    -0.203 F 
ATOM    101  F   UNL     1       2.981 -18.438   8.051  1.00  0.00    -0.200 F 
ATOM    102  C   UNL     1       5.001 -18.541   6.833  1.00  0.00     0.200 A 
ATOM    103  F   UNL     1       7.012 -18.595   5.597  1.00  0.00    -0.200 F 
ATOM    104  F   UNL     1       5.404 -19.590   7.562  1.00  0.00    -0.200 F 
ENDBRANCH  71  94
ENDBRANCH  45  46
ENDBRANCH  38  40
ENDBRANCH  37  38
ENDBRANCH  36  37
ENDBRANCH  35  36
ENDBRANCH  34  35
ENDBRANCH  33  34
ENDBRANCH   1  33
TORSDOF 23
