REMARK SMILES C[C@@](COc1ccccc1)(NC(=O)CN1CSCC1=O)C(=O)OCCOCCOCCOC(=O)c1ccc(-c2c3nc(c(-c4c(F)c(F)c(F)c(F)c4F)c4ccc([nH]4)c(-c4c(F)c(F)c(F)c(F)c4F)c4nc(c(-c5c(F)c(F)c(F)c(F)c5F)c5ccc2[nH]5)C=C4)C=C3)cc1
REMARK SMILES IDX 27 1 26 2 25 3 24 4 23 5 21 6 22 7 2 8 1 9 3 10 4 11 5 12
REMARK SMILES IDX 6 13 10 14 7 15 9 16 8 17 11 18 12 19 13 21 14 22 15 23
REMARK SMILES IDX 16 24 19 25 17 26 18 27 20 28 28 29 29 30 30 31 31 32 32 33
REMARK SMILES IDX 33 34 34 35 35 36 36 37 97 38 37 39 96 40 38 41 39 42 40 43
REMARK SMILES IDX 90 44 41 45 95 46 89 47 91 48 42 49 94 50 88 51 87 52 43 54
REMARK SMILES IDX 75 55 55 56 74 57 56 58 59 59 73 60 92 61 57 62 58 63 72 65
REMARK SMILES IDX 93 66 60 67 44 68 45 69 53 70 46 71 47 72 51 73 54 74 48 75
REMARK SMILES IDX 49 76 52 77 50 78 76 79 77 80 85 81 78 82 79 83 83 84 86 85
REMARK SMILES IDX 80 86 81 87 84 88 82 89 61 90 62 91 70 92 63 93 64 94 68 95
REMARK SMILES IDX 71 96 65 97 66 98 69 99 67 100
REMARK H PARENT 11 20 91 53 59 64
REMARK Flexibility Score: inf
ROOT
ATOM      1  C   UNL     1       0.603   0.372  -3.803  1.00  0.00     0.188 C 
ENDROOT
BRANCH   1   2
ATOM      2  O   UNL     1       1.897  -0.953  -4.529  1.00  0.00    -0.376 OA
BRANCH   2   3
ATOM      3  C   UNL     1       2.234  -2.538  -4.586  1.00  0.00     0.202 C 
BRANCH   3   4
ATOM      4  C   UNL     1       2.686  -3.474  -3.334  1.00  0.00     0.261 C 
BRANCH   4   5
ATOM      5  O   UNL     1       1.833  -3.443  -2.132  1.00  0.00    -0.461 OA
BRANCH   5   6
ATOM      6  C   UNL     1       2.281  -3.184  -0.868  1.00  0.00     0.335 C 
ATOM      7  O   UNL     1       3.459  -3.278  -0.547  1.00  0.00    -0.249 OA
BRANCH   6   8
ATOM      8  C   UNL     1       1.187  -2.465   0.029  1.00  0.00     0.169 C 
ATOM      9  C   UNL     1       1.622  -0.995   0.226  1.00  0.00     0.051 C 
BRANCH   8  10
ATOM     10  C   UNL     1       1.178  -3.081   1.471  1.00  0.00     0.269 C 
BRANCH  10  11
ATOM     11  O   UNL     1       0.032  -2.583   2.240  1.00  0.00    -0.491 OA
BRANCH  11  12
ATOM     12  C   UNL     1       0.258  -1.441   2.969  1.00  0.00     0.119 A 
ATOM     13  C   UNL     1       1.149  -1.424   4.038  1.00  0.00     0.046 A 
ATOM     14  C   UNL     1      -0.423  -0.269   2.612  1.00  0.00     0.046 A 
ATOM     15  C   UNL     1       1.424  -0.220   4.696  1.00  0.00     0.004 A 
ATOM     16  C   UNL     1      -0.126   0.939   3.252  1.00  0.00     0.004 A 
ATOM     17  C   UNL     1       0.806   0.964   4.289  1.00  0.00     0.000 A 
ENDBRANCH  11  12
ENDBRANCH  10  11
ENDBRANCH   8  10
BRANCH   8  18
ATOM     18  N   UNL     1      -0.235  -2.566  -0.419  1.00  0.00    -0.336 N 
ATOM     19  C   UNL     1      -0.976  -2.470  -1.543  1.00  0.00     0.240 C 
ATOM     20  H   UNL     1      -0.817  -2.765   0.351  1.00  0.00     0.164 HD
ATOM     21  O   UNL     1      -2.201  -2.485  -1.360  1.00  0.00    -0.273 OA
BRANCH  19  22
ATOM     22  C   UNL     1      -0.420  -2.592  -2.949  1.00  0.00     0.220 C 
BRANCH  22  23
ATOM     23  N   UNL     1       0.508  -1.583  -3.466  1.00  0.00    -0.323 N 
ATOM     24  C   UNL     1       2.086  -0.765  -2.689  1.00  0.00     0.190 C 
ATOM     25  C   UNL     1       0.205  -1.198  -5.214  1.00  0.00     0.233 C 
ATOM     26  S   UNL     1       3.008   0.768  -4.233  1.00  0.00    -0.130 SA
ATOM     27  C   UNL     1       1.404   0.232  -5.885  1.00  0.00     0.171 C 
ATOM     28  O   UNL     1      -0.645  -1.771  -5.908  1.00  0.00    -0.274 OA
ENDBRANCH  22  23
ENDBRANCH  19  22
ENDBRANCH   8  18
ENDBRANCH   6   8
ENDBRANCH   5   6
ENDBRANCH   4   5
ENDBRANCH   3   4
ENDBRANCH   2   3
ENDBRANCH   1   2
BRANCH   1  29
ATOM     29  C   UNL     1      -0.969   0.605  -4.118  1.00  0.00     0.188 C 
BRANCH  29  30
ATOM     30  O   UNL     1      -1.889  -0.429  -3.860  1.00  0.00    -0.376 OA
BRANCH  30  31
ATOM     31  C   UNL     1      -3.137  -0.476  -4.557  1.00  0.00     0.202 C 
BRANCH  31  32
ATOM     32  C   UNL     1      -3.364   0.400  -5.806  1.00  0.00     0.261 C 
BRANCH  32  33
ATOM     33  O   UNL     1      -3.017   1.790  -5.647  1.00  0.00    -0.460 OA
BRANCH  33  34
ATOM     34  C   UNL     1      -3.530   2.422  -4.569  1.00  0.00     0.338 C 
ATOM     35  O   UNL     1      -4.548   2.128  -3.970  1.00  0.00    -0.246 OA
BRANCH  34  36
ATOM     36  C   UNL     1      -2.493   3.361  -4.056  1.00  0.00     0.060 A 
ATOM     37  C   UNL     1      -2.378   3.486  -2.662  1.00  0.00     0.016 A 
ATOM     38  C   UNL     1      -1.554   3.986  -4.892  1.00  0.00     0.016 A 
ATOM     39  C   UNL     1      -1.386   4.293  -2.108  1.00  0.00     0.010 A 
ATOM     40  C   UNL     1      -0.575   4.820  -4.340  1.00  0.00     0.010 A 
ATOM     41  C   UNL     1      -0.542   5.031  -2.950  1.00  0.00    -0.014 A 
BRANCH  41  42
ATOM     42  C   UNL     1      -0.010   6.311  -2.420  1.00  0.00     0.031 A 
ATOM     43  C   UNL     1      -0.959   7.484  -2.475  1.00  0.00     0.074 A 
ATOM     44  C   UNL     1       1.202   6.437  -1.856  1.00  0.00     0.049 A 
ATOM     45  N   UNL     1      -0.818   8.703  -2.024  1.00  0.00    -0.248 NA
ATOM     46  C   UNL     1      -2.261   7.237  -3.123  1.00  0.00     0.031 C 
ATOM     47  C   UNL     1       2.194   5.376  -1.709  1.00  0.00     0.029 A 
ATOM     48  N   UNL     1       1.798   7.538  -1.290  1.00  0.00    -0.354 N 
ATOM     49  C   UNL     1      -2.016   9.345  -2.312  1.00  0.00     0.074 A 
ATOM     50  C   UNL     1      -2.858   8.407  -3.012  1.00  0.00     0.031 C 
ATOM     51  C   UNL     1       3.282   5.881  -1.095  1.00  0.00     0.029 A 
ATOM     52  C   UNL     1       3.066   7.302  -0.821  1.00  0.00     0.049 A 
ATOM     53  H   UNL     1       1.356   8.415  -1.228  1.00  0.00     0.167 HD
ATOM     54  C   UNL     1      -2.397  10.606  -2.013  1.00  0.00     0.037 A 
ATOM     55  C   UNL     1       3.942   8.150  -0.246  1.00  0.00     0.037 A 
ATOM     56  C   UNL     1      -1.548  11.561  -1.367  1.00  0.00     0.049 A 
ATOM     57  C   UNL     1       3.533   9.587  -0.013  1.00  0.00     0.074 A 
ATOM     58  C   UNL     1      -1.810  12.882  -1.060  1.00  0.00     0.029 A 
ATOM     59  N   UNL     1      -0.255  11.293  -0.947  1.00  0.00    -0.354 N 
ATOM     60  N   UNL     1       2.388  10.178  -0.258  1.00  0.00    -0.248 NA
ATOM     61  C   UNL     1       4.543  10.474   0.585  1.00  0.00     0.031 C 
ATOM     62  C   UNL     1      -0.654  13.428  -0.492  1.00  0.00     0.029 A 
ATOM     63  C   UNL     1       0.305  12.431  -0.397  1.00  0.00     0.049 A 
ATOM     64  H   UNL     1       0.198  10.422  -1.028  1.00  0.00     0.167 HD
ATOM     65  C   UNL     1       2.527  11.488   0.188  1.00  0.00     0.074 A 
ATOM     66  C   UNL     1       3.865  11.603   0.729  1.00  0.00     0.031 C 
ATOM     67  C   UNL     1       1.632  12.508   0.155  1.00  0.00     0.037 A 
BRANCH  54  68
ATOM     68  C   UNL     1      -3.776  11.012  -2.435  1.00  0.00     0.064 A 
ATOM     69  C   UNL     1      -4.917  10.506  -1.792  1.00  0.00     0.173 A 
ATOM     70  C   UNL     1      -3.960  11.877  -3.522  1.00  0.00     0.173 A 
ATOM     71  F   UNL     1      -4.790   9.645  -0.771  1.00  0.00    -0.203 F 
ATOM     72  C   UNL     1      -6.194  10.833  -2.240  1.00  0.00     0.198 A 
ATOM     73  C   UNL     1      -5.239  12.222  -3.950  1.00  0.00     0.198 A 
ATOM     74  F   UNL     1      -2.901  12.371  -4.180  1.00  0.00    -0.203 F 
ATOM     75  F   UNL     1      -7.268  10.290  -1.651  1.00  0.00    -0.200 F 
ATOM     76  C   UNL     1      -6.353  11.694  -3.316  1.00  0.00     0.200 A 
ATOM     77  F   UNL     1      -5.392  13.054  -4.990  1.00  0.00    -0.200 F 
ATOM     78  F   UNL     1      -7.582  12.003  -3.751  1.00  0.00    -0.200 F 
ENDBRANCH  54  68
BRANCH  55  79
ATOM     79  C   UNL     1       5.299   7.684   0.153  1.00  0.00     0.064 A 
ATOM     80  C   UNL     1       5.681   7.628   1.502  1.00  0.00     0.173 A 
ATOM     81  C   UNL     1       6.263   7.347  -0.809  1.00  0.00     0.173 A 
ATOM     82  F   UNL     1       4.806   7.970   2.459  1.00  0.00    -0.203 F 
ATOM     83  C   UNL     1       6.980   7.282   1.871  1.00  0.00     0.198 A 
ATOM     84  C   UNL     1       7.554   6.974  -0.437  1.00  0.00     0.198 A 
ATOM     85  F   UNL     1       5.954   7.393  -2.113  1.00  0.00    -0.203 F 
ATOM     86  F   UNL     1       7.333   7.297   3.163  1.00  0.00    -0.200 F 
ATOM     87  C   UNL     1       7.915   6.953   0.901  1.00  0.00     0.200 A 
ATOM     88  F   UNL     1       8.453   6.653  -1.378  1.00  0.00    -0.200 F 
ATOM     89  F   UNL     1       9.166   6.630   1.256  1.00  0.00    -0.200 F 
ENDBRANCH  55  79
BRANCH  67  90
ATOM     90  C   UNL     1       2.045  13.815   0.765  1.00  0.00     0.064 A 
ATOM     91  C   UNL     1       2.990  14.651   0.153  1.00  0.00     0.173 A 
ATOM     92  C   UNL     1       1.439  14.262   1.949  1.00  0.00     0.173 A 
ATOM     93  F   UNL     1       3.603  14.264  -0.976  1.00  0.00    -0.203 F 
ATOM     94  C   UNL     1       3.335  15.874   0.721  1.00  0.00     0.198 A 
ATOM     95  C   UNL     1       1.762  15.500   2.496  1.00  0.00     0.198 A 
ATOM     96  F   UNL     1       0.518  13.505   2.565  1.00  0.00    -0.203 F 
ATOM     97  F   UNL     1       4.275  16.636   0.146  1.00  0.00    -0.200 F 
ATOM     98  C   UNL     1       2.715  16.301   1.887  1.00  0.00     0.200 A 
ATOM     99  F   UNL     1       1.149  15.918   3.612  1.00  0.00    -0.200 F 
ATOM    100  F   UNL     1       3.042  17.483   2.427  1.00  0.00    -0.200 F 
ENDBRANCH  67  90
ENDBRANCH  41  42
ENDBRANCH  34  36
ENDBRANCH  33  34
ENDBRANCH  32  33
ENDBRANCH  31  32
ENDBRANCH  30  31
ENDBRANCH  29  30
ENDBRANCH   1  29
TORSDOF 23
