REMARK SMILES C/C=C(\C)[C@H]1C(C)=C[C@H]2CC[C@@H](OS(=O)(=O)[O-])[C@@H](C)[C@H]2[C@H]1/C=C/C=C/C(=O)OCCOCCOCCOC(=O)c1ccc(-c2c3nc(c(-c4c(F)c(F)c(F)c(F)c4F)c4ccc([nH]4)c(-c4c(F)c(F)c(F)c(F)c4F)c4nc(c(-c5c(F)c(F)c(F)c(F)c5F)c5ccc2[nH]5)C=C4)C=C3)cc1
REMARK SMILES IDX 32 1 31 2 30 3 29 4 28 5 26 6 27 7 25 8 24 9 23 10 22 11
REMARK SMILES IDX 21 12 5 13 6 14 7 15 8 16 20 17 9 18 18 19 10 20 12 21 19 22
REMARK SMILES IDX 11 23 3 24 1 25 2 26 4 27 13 28 14 29 15 30 16 31 17 32
REMARK SMILES IDX 33 33 34 34 35 35 36 36 37 37 38 38 39 39 40 40 41 41 102 42
REMARK SMILES IDX 42 43 101 44 43 45 44 46 45 47 95 48 46 49 100 50 94 51
REMARK SMILES IDX 96 52 47 53 99 54 93 55 92 56 48 58 80 59 60 60 79 61 61 62
REMARK SMILES IDX 64 63 78 64 97 65 62 66 63 67 77 69 98 70 65 71 49 72 50 73
REMARK SMILES IDX 58 74 51 75 52 76 56 77 59 78 53 79 54 80 57 81 55 82 81 83
REMARK SMILES IDX 82 84 90 85 83 86 84 87 88 88 91 89 85 90 86 91 89 92 87 93
REMARK SMILES IDX 66 94 67 95 75 96 68 97 69 98 73 99 76 100 70 101 71 102
REMARK SMILES IDX 74 103 72 104
REMARK H PARENT 96 57 64 68
REMARK Flexibility Score: inf
ROOT
ATOM      1  C   UNL     1       3.356  -4.335   2.219  1.00  0.00     0.188 C 
ENDROOT
BRANCH   1   2
ATOM      2  O   UNL     1       4.341  -5.160   1.626  1.00  0.00    -0.376 OA
BRANCH   2   3
ATOM      3  C   UNL     1       5.246  -4.629   0.663  1.00  0.00     0.202 C 
BRANCH   3   4
ATOM      4  C   UNL     1       4.857  -3.499  -0.305  1.00  0.00     0.261 C 
BRANCH   4   5
ATOM      5  O   UNL     1       4.398  -2.306   0.348  1.00  0.00    -0.460 OA
BRANCH   5   6
ATOM      6  C   UNL     1       3.152  -1.919  -0.002  1.00  0.00     0.330 C 
ATOM      7  O   UNL     1       2.457  -2.405  -0.884  1.00  0.00    -0.247 OA
BRANCH   6   8
ATOM      8  C   UNL     1       2.555  -1.040   1.012  1.00  0.00     0.093 C 
ATOM      9  C   UNL     1       3.044   0.055   1.617  1.00  0.00     0.007 C 
BRANCH   9  10
ATOM     10  C   UNL     1       2.162   0.709   2.567  1.00  0.00    -0.004 C 
ATOM     11  C   UNL     1       1.643   1.931   2.378  1.00  0.00    -0.022 C 
BRANCH  11  12
ATOM     12  C   UNL     1       0.316   2.502   2.904  1.00  0.00     0.027 C 
ATOM     13  C   UNL     1      -0.729   2.813   1.699  1.00  0.00     0.047 C 
ATOM     14  C   UNL     1      -2.206   2.665   2.098  1.00  0.00    -0.069 C 
ATOM     15  C   UNL     1      -3.282   2.425   1.072  1.00  0.00     0.040 C 
ATOM     16  C   UNL     1      -2.596   2.700   3.387  1.00  0.00    -0.024 C 
ATOM     17  C   UNL     1      -0.350   1.937   4.241  1.00  0.00     0.009 C 
ATOM     18  C   UNL     1      -1.649   2.747   4.551  1.00  0.00     0.016 C 
ATOM     19  C   UNL     1      -0.596   0.388   4.383  1.00  0.00     0.021 C 
ATOM     20  C   UNL     1      -2.357   2.282   5.846  1.00  0.00     0.011 C 
ATOM     21  C   UNL     1      -1.263   0.051   5.738  1.00  0.00     0.141 C 
ATOM     22  C   UNL     1      -1.326  -0.196   3.184  1.00  0.00     0.011 C 
ATOM     23  C   UNL     1      -2.588   0.772   5.937  1.00  0.00     0.034 C 
BRANCH  13  24
ATOM     24  C   UNL     1      -0.397   2.261   0.271  1.00  0.00    -0.070 C 
ATOM     25  C   UNL     1       0.378   0.348  -1.275  1.00  0.00     0.035 C 
ATOM     26  C   UNL     1      -0.037   0.987   0.012  1.00  0.00    -0.031 C 
ATOM     27  C   UNL     1      -0.428   3.290  -0.838  1.00  0.00     0.040 C 
ENDBRANCH  13  24
BRANCH  21  28
ATOM     28  O   UNL     1      -1.299  -1.307   6.152  1.00  0.00    -0.276 OA
BRANCH  28  29
ATOM     29  S   UNL     1      -1.834  -2.578   5.311  1.00  0.00     0.217 S 
ATOM     30  O   UNL     1      -2.001  -3.683   6.228  1.00  0.00    -0.213 OA
ATOM     31  O   UNL     1      -2.900  -2.214   4.414  1.00  0.00    -0.213 OA
ATOM     32  O   UNL     1      -0.561  -2.967   4.394  1.00  0.00    -0.726 OA
ENDBRANCH  28  29
ENDBRANCH  21  28
ENDBRANCH  11  12
ENDBRANCH   9  10
ENDBRANCH   6   8
ENDBRANCH   5   6
ENDBRANCH   4   5
ENDBRANCH   3   4
ENDBRANCH   2   3
ENDBRANCH   1   2
BRANCH   1  33
ATOM     33  C   UNL     1       3.771  -3.257   3.237  1.00  0.00     0.188 C 
BRANCH  33  34
ATOM     34  O   UNL     1       5.025  -2.642   3.082  1.00  0.00    -0.376 OA
BRANCH  34  35
ATOM     35  C   UNL     1       6.194  -3.265   3.592  1.00  0.00     0.202 C 
BRANCH  35  36
ATOM     36  C   UNL     1       6.239  -4.519   4.497  1.00  0.00     0.261 C 
BRANCH  36  37
ATOM     37  O   UNL     1       5.052  -5.313   4.631  1.00  0.00    -0.460 OA
BRANCH  37  38
ATOM     38  C   UNL     1       4.439  -5.237   5.839  1.00  0.00     0.338 C 
ATOM     39  O   UNL     1       4.787  -4.580   6.806  1.00  0.00    -0.246 OA
BRANCH  38  40
ATOM     40  C   UNL     1       3.138  -5.931   5.786  1.00  0.00     0.060 A 
ATOM     41  C   UNL     1       1.982  -5.149   5.728  1.00  0.00     0.016 A 
ATOM     42  C   UNL     1       3.044  -7.317   5.924  1.00  0.00     0.016 A 
ATOM     43  C   UNL     1       0.733  -5.754   5.816  1.00  0.00     0.010 A 
ATOM     44  C   UNL     1       1.778  -7.918   6.029  1.00  0.00     0.010 A 
ATOM     45  C   UNL     1       0.612  -7.135   5.996  1.00  0.00    -0.014 A 
BRANCH  45  46
ATOM     46  C   UNL     1      -0.734  -7.679   6.323  1.00  0.00     0.031 A 
ATOM     47  C   UNL     1      -1.078  -7.954   7.763  1.00  0.00     0.074 A 
ATOM     48  C   UNL     1      -1.688  -7.793   5.379  1.00  0.00     0.049 A 
ATOM     49  N   UNL     1      -2.178  -8.441   8.281  1.00  0.00    -0.248 NA
ATOM     50  C   UNL     1      -0.042  -7.625   8.755  1.00  0.00     0.031 C 
ATOM     51  C   UNL     1      -1.526  -7.454   3.966  1.00  0.00     0.029 A 
ATOM     52  N   UNL     1      -2.994  -8.212   5.474  1.00  0.00    -0.354 N 
ATOM     53  C   UNL     1      -1.967  -8.475   9.654  1.00  0.00     0.074 A 
ATOM     54  C   UNL     1      -0.622  -7.992   9.887  1.00  0.00     0.031 C 
ATOM     55  C   UNL     1      -2.689  -7.675   3.327  1.00  0.00     0.029 A 
ATOM     56  C   UNL     1      -3.662  -8.218   4.274  1.00  0.00     0.049 A 
ATOM     57  H   UNL     1      -3.411  -8.482   6.324  1.00  0.00     0.167 HD
ATOM     58  C   UNL     1      -2.819  -8.862  10.633  1.00  0.00     0.037 A 
ATOM     59  C   UNL     1      -4.905  -8.643   3.971  1.00  0.00     0.037 A 
ATOM     60  C   UNL     1      -4.160  -9.336  10.407  1.00  0.00     0.049 A 
ATOM     61  C   UNL     1      -5.788  -9.188   5.071  1.00  0.00     0.074 A 
ATOM     62  C   UNL     1      -5.081  -9.798  11.332  1.00  0.00     0.029 A 
ATOM     63  N   UNL     1      -4.776  -9.402   9.166  1.00  0.00    -0.354 N 
ATOM     64  N   UNL     1      -5.564  -9.264   6.360  1.00  0.00    -0.248 NA
ATOM     65  C   UNL     1      -7.103  -9.708   4.665  1.00  0.00     0.031 C 
ATOM     66  C   UNL     1      -6.234 -10.192  10.646  1.00  0.00     0.029 A 
ATOM     67  C   UNL     1      -6.059  -9.912   9.301  1.00  0.00     0.049 A 
ATOM     68  H   UNL     1      -4.364  -9.127   8.316  1.00  0.00     0.167 HD
ATOM     69  C   UNL     1      -6.721  -9.795   6.920  1.00  0.00     0.074 A 
ATOM     70  C   UNL     1      -7.653  -9.999   5.833  1.00  0.00     0.031 C 
ATOM     71  C   UNL     1      -6.988 -10.093   8.216  1.00  0.00     0.037 A 
BRANCH  58  72
ATOM     72  C   UNL     1      -2.316  -8.823  12.047  1.00  0.00     0.064 A 
ATOM     73  C   UNL     1      -2.115  -7.614  12.729  1.00  0.00     0.173 A 
ATOM     74  C   UNL     1      -2.080 -10.017  12.746  1.00  0.00     0.173 A 
ATOM     75  F   UNL     1      -2.309  -6.444  12.102  1.00  0.00    -0.203 F 
ATOM     76  C   UNL     1      -1.680  -7.602  14.053  1.00  0.00     0.198 A 
ATOM     77  C   UNL     1      -1.677 -10.002  14.079  1.00  0.00     0.198 A 
ATOM     78  F   UNL     1      -2.260 -11.202  12.142  1.00  0.00    -0.203 F 
ATOM     79  F   UNL     1      -1.456  -6.435  14.672  1.00  0.00    -0.200 F 
ATOM     80  C   UNL     1      -1.472  -8.795  14.729  1.00  0.00     0.200 A 
ATOM     81  F   UNL     1      -1.492 -11.156  14.734  1.00  0.00    -0.200 F 
ATOM     82  F   UNL     1      -1.069  -8.781  16.007  1.00  0.00    -0.200 F 
ENDBRANCH  58  72
BRANCH  59  83
ATOM     83  C   UNL     1      -5.397  -8.632   2.563  1.00  0.00     0.064 A 
ATOM     84  C   UNL     1      -6.524  -7.885   2.188  1.00  0.00     0.173 A 
ATOM     85  C   UNL     1      -4.809  -9.451   1.586  1.00  0.00     0.173 A 
ATOM     86  F   UNL     1      -7.145  -7.111   3.090  1.00  0.00    -0.203 F 
ATOM     87  C   UNL     1      -7.070  -7.994   0.910  1.00  0.00     0.198 A 
ATOM     88  C   UNL     1      -5.331  -9.526   0.296  1.00  0.00     0.198 A 
ATOM     89  F   UNL     1      -3.734 -10.194   1.887  1.00  0.00    -0.203 F 
ATOM     90  F   UNL     1      -8.200  -7.339   0.608  1.00  0.00    -0.200 F 
ATOM     91  C   UNL     1      -6.472  -8.812  -0.036  1.00  0.00     0.200 A 
ATOM     92  F   UNL     1      -4.742 -10.310  -0.617  1.00  0.00    -0.200 F 
ATOM     93  F   UNL     1      -7.006  -8.929  -1.259  1.00  0.00    -0.200 F 
ENDBRANCH  59  83
BRANCH  71  94
ATOM     94  C   UNL     1      -8.367 -10.606   8.537  1.00  0.00     0.064 A 
ATOM     95  C   UNL     1      -8.819 -11.858   8.092  1.00  0.00     0.173 A 
ATOM     96  C   UNL     1      -9.253  -9.826   9.298  1.00  0.00     0.173 A 
ATOM     97  F   UNL     1      -8.018 -12.642   7.354  1.00  0.00    -0.203 F 
ATOM     98  C   UNL     1     -10.121 -12.284   8.346  1.00  0.00     0.198 A 
ATOM     99  C   UNL     1     -10.540 -10.274   9.586  1.00  0.00     0.198 A 
ATOM    100  F   UNL     1      -8.873  -8.627   9.764  1.00  0.00    -0.203 F 
ATOM    101  F   UNL     1     -10.554 -13.446   7.839  1.00  0.00    -0.200 F 
ATOM    102  C   UNL     1     -10.979 -11.493   9.095  1.00  0.00     0.200 A 
ATOM    103  F   UNL     1     -11.361  -9.517  10.328  1.00  0.00    -0.200 F 
ATOM    104  F   UNL     1     -12.233 -11.902   9.333  1.00  0.00    -0.200 F 
ENDBRANCH  71  94
ENDBRANCH  45  46
ENDBRANCH  38  40
ENDBRANCH  37  38
ENDBRANCH  36  37
ENDBRANCH  35  36
ENDBRANCH  34  35
ENDBRANCH  33  34
ENDBRANCH   1  33
TORSDOF 22
