REMARK SMILES CCC[NH2+][C@]1(C(=O)OCCOCCOCCOC(=O)c2ccc(-c3c4nc(c(-c5c(F)c(F)c(F)c(F)c5F)c5ccc([nH]5)c(-c5c(F)c(F)c(F)c(F)c5F)c5nc(c(-c6c(F)c(F)c(F)c(F)c6F)c6ccc3[nH]6)C=C5)C=C4)cc2)CCC[C@H](n2ccc(C)n2)C1
REMARK SMILES IDX 12 1 11 2 10 3 9 4 8 5 6 6 7 7 5 8 83 9 93 10 84 11 86 12
REMARK SMILES IDX 85 13 4 14 3 17 2 18 1 19 87 20 88 21 92 22 89 23 90 24
REMARK SMILES IDX 91 25 13 26 14 27 15 28 16 29 17 30 18 31 19 32 20 33 21 34
REMARK SMILES IDX 82 35 22 36 81 37 23 38 24 39 25 40 75 41 26 42 80 43 74 44
REMARK SMILES IDX 76 45 27 46 79 47 73 48 72 49 28 51 60 52 40 53 59 54 41 55
REMARK SMILES IDX 44 56 58 57 77 58 42 59 43 60 57 62 78 63 45 64 29 65 30 66
REMARK SMILES IDX 38 67 31 68 32 69 36 70 39 71 33 72 34 73 37 74 35 75 61 76
REMARK SMILES IDX 62 77 70 78 63 79 64 80 68 81 71 82 65 83 66 84 69 85 67 86
REMARK SMILES IDX 46 87 47 88 55 89 48 90 49 91 53 92 56 93 50 94 51 95 54 96
REMARK SMILES IDX 52 97
REMARK H PARENT 4 15 4 16 76 50 44 61
REMARK Flexibility Score: inf
ROOT
ATOM      1  C   UNL     1       0.269  -1.082  -1.799  1.00  0.00     0.188 C 
ENDROOT
BRANCH   1   2
ATOM      2  O   UNL     1       0.266  -0.855  -0.392  1.00  0.00    -0.376 OA
BRANCH   2   3
ATOM      3  C   UNL     1      -0.575   0.155   0.147  1.00  0.00     0.202 C 
BRANCH   3   4
ATOM      4  C   UNL     1      -0.280   1.604  -0.257  1.00  0.00     0.261 C 
BRANCH   4   5
ATOM      5  O   UNL     1      -0.231   1.845  -1.677  1.00  0.00    -0.459 OA
BRANCH   5   6
ATOM      6  C   UNL     1       0.971   2.233  -2.179  1.00  0.00     0.368 C 
ATOM      7  O   UNL     1       1.955   2.448  -1.470  1.00  0.00    -0.245 OA
BRANCH   6   8
ATOM      8  C   UNL     1       1.030   2.433  -3.730  1.00  0.00     0.196 C 
ATOM      9  C   UNL     1       1.220   3.951  -3.947  1.00  0.00     0.081 C 
ATOM     10  C   UNL     1       2.310   1.660  -4.204  1.00  0.00     0.108 C 
ATOM     11  C   UNL     1       1.705   4.309  -5.345  1.00  0.00     0.009 C 
ATOM     12  C   UNL     1       2.869   2.062  -5.592  1.00  0.00     0.114 C 
ATOM     13  C   UNL     1       3.017   3.594  -5.650  1.00  0.00     0.028 C 
BRANCH   8  14
ATOM     14  N   UNL     1      -0.097   1.834  -4.477  1.00  0.00    -0.332 N 
ATOM     15  H   UNL     1       0.250   1.639  -5.416  1.00  0.00     0.347 HD
ATOM     16  H   UNL     1      -0.362   1.049  -3.882  1.00  0.00     0.347 HD
BRANCH  14  17
ATOM     17  C   UNL     1      -1.357   2.540  -4.643  1.00  0.00     0.261 C 
BRANCH  17  18
ATOM     18  C   UNL     1      -2.155   1.962  -5.829  1.00  0.00     0.058 C 
ATOM     19  C   UNL     1      -2.540   0.498  -5.683  1.00  0.00     0.010 C 
ENDBRANCH  17  18
ENDBRANCH  14  17
ENDBRANCH   8  14
BRANCH  12  20
ATOM     20  N   UNL     1       2.175   1.512  -6.760  1.00  0.00    -0.269 N 
ATOM     21  C   UNL     1       2.386   1.860  -8.068  1.00  0.00     0.109 A 
ATOM     22  N   UNL     1       1.270   0.512  -6.637  1.00  0.00    -0.178 NA
ATOM     23  C   UNL     1       1.522   1.104  -8.819  1.00  0.00     0.045 A 
ATOM     24  C   UNL     1       0.859   0.277  -7.892  1.00  0.00     0.059 A 
ATOM     25  C   UNL     1      -0.181  -0.735  -8.197  1.00  0.00     0.069 C 
ENDBRANCH  12  20
ENDBRANCH   6   8
ENDBRANCH   5   6
ENDBRANCH   4   5
ENDBRANCH   3   4
ENDBRANCH   2   3
ENDBRANCH   1   2
BRANCH   1  26
ATOM     26  C   UNL     1      -0.992  -0.793  -2.627  1.00  0.00     0.188 C 
BRANCH  26  27
ATOM     27  O   UNL     1      -2.190  -0.875  -1.876  1.00  0.00    -0.376 OA
BRANCH  27  28
ATOM     28  C   UNL     1      -3.244  -1.599  -2.479  1.00  0.00     0.202 C 
BRANCH  28  29
ATOM     29  C   UNL     1      -3.090  -3.096  -2.215  1.00  0.00     0.261 C 
BRANCH  29  30
ATOM     30  O   UNL     1      -1.836  -3.648  -2.664  1.00  0.00    -0.460 OA
BRANCH  30  31
ATOM     31  C   UNL     1      -1.651  -3.713  -3.997  1.00  0.00     0.338 C 
ATOM     32  O   UNL     1      -2.460  -3.410  -4.870  1.00  0.00    -0.246 OA
BRANCH  31  33
ATOM     33  C   UNL     1      -0.238  -4.046  -4.266  1.00  0.00     0.060 A 
ATOM     34  C   UNL     1       0.513  -3.200  -5.092  1.00  0.00     0.016 A 
ATOM     35  C   UNL     1       0.339  -5.203  -3.740  1.00  0.00     0.016 A 
ATOM     36  C   UNL     1       1.812  -3.549  -5.466  1.00  0.00     0.010 A 
ATOM     37  C   UNL     1       1.641  -5.552  -4.112  1.00  0.00     0.010 A 
ATOM     38  C   UNL     1       2.365  -4.755  -5.019  1.00  0.00    -0.014 A 
BRANCH  38  39
ATOM     39  C   UNL     1       3.598  -5.287  -5.653  1.00  0.00     0.031 A 
ATOM     40  C   UNL     1       3.457  -6.355  -6.707  1.00  0.00     0.074 A 
ATOM     41  C   UNL     1       4.820  -4.832  -5.324  1.00  0.00     0.049 A 
ATOM     42  N   UNL     1       4.380  -7.013  -7.362  1.00  0.00    -0.248 NA
ATOM     43  C   UNL     1       2.081  -6.735  -7.066  1.00  0.00     0.031 C 
ATOM     44  C   UNL     1       5.098  -3.778  -4.352  1.00  0.00     0.029 A 
ATOM     45  N   UNL     1       6.061  -5.213  -5.774  1.00  0.00    -0.354 N 
ATOM     46  C   UNL     1       3.698  -7.888  -8.197  1.00  0.00     0.074 A 
ATOM     47  C   UNL     1       2.286  -7.705  -7.942  1.00  0.00     0.031 C 
ATOM     48  C   UNL     1       6.429  -3.605  -4.268  1.00  0.00     0.029 A 
ATOM     49  C   UNL     1       7.096  -4.554  -5.159  1.00  0.00     0.049 A 
ATOM     50  H   UNL     1       6.195  -5.895  -6.472  1.00  0.00     0.167 HD
ATOM     51  C   UNL     1       4.200  -8.759  -9.105  1.00  0.00     0.037 A 
ATOM     52  C   UNL     1       8.428  -4.715  -5.288  1.00  0.00     0.037 A 
ATOM     53  C   UNL     1       5.604  -8.942  -9.366  1.00  0.00     0.049 A 
ATOM     54  C   UNL     1       8.965  -5.737  -6.261  1.00  0.00     0.074 A 
ATOM     55  C   UNL     1       6.210  -9.788 -10.278  1.00  0.00     0.029 A 
ATOM     56  N   UNL     1       6.622  -8.270  -8.707  1.00  0.00    -0.354 N 
ATOM     57  N   UNL     1       8.315  -6.542  -7.066  1.00  0.00    -0.248 NA
ATOM     58  C   UNL     1      10.428  -5.863  -6.346  1.00  0.00     0.031 C 
ATOM     59  C   UNL     1       7.596  -9.667 -10.135  1.00  0.00     0.029 A 
ATOM     60  C   UNL     1       7.854  -8.700  -9.177  1.00  0.00     0.049 A 
ATOM     61  H   UNL     1       6.490  -7.589  -8.009  1.00  0.00     0.167 HD
ATOM     62  C   UNL     1       9.284  -7.242  -7.774  1.00  0.00     0.074 A 
ATOM     63  C   UNL     1      10.568  -6.756  -7.316  1.00  0.00     0.031 C 
ATOM     64  C   UNL     1       9.126  -8.201  -8.721  1.00  0.00     0.037 A 
BRANCH  51  65
ATOM     65  C   UNL     1       3.220  -9.602  -9.869  1.00  0.00     0.064 A 
ATOM     66  C   UNL     1       2.372  -9.051 -10.842  1.00  0.00     0.173 A 
ATOM     67  C   UNL     1       3.143 -10.984  -9.639  1.00  0.00     0.173 A 
ATOM     68  F   UNL     1       2.395  -7.732 -11.089  1.00  0.00    -0.203 F 
ATOM     69  C   UNL     1       1.465  -9.848 -11.536  1.00  0.00     0.198 A 
ATOM     70  C   UNL     1       2.257 -11.782 -10.357  1.00  0.00     0.198 A 
ATOM     71  F   UNL     1       3.932 -11.562  -8.721  1.00  0.00    -0.203 F 
ATOM     72  F   UNL     1       0.629  -9.291 -12.424  1.00  0.00    -0.200 F 
ATOM     73  C   UNL     1       1.413 -11.213 -11.298  1.00  0.00     0.200 A 
ATOM     74  F   UNL     1       2.217 -13.103 -10.135  1.00  0.00    -0.200 F 
ATOM     75  F   UNL     1       0.544 -11.979 -11.971  1.00  0.00    -0.200 F 
ENDBRANCH  51  65
BRANCH  52  76
ATOM     76  C   UNL     1       9.362  -3.892  -4.474  1.00  0.00     0.064 A 
ATOM     77  C   UNL     1      10.194  -2.936  -5.073  1.00  0.00     0.173 A 
ATOM     78  C   UNL     1       9.470  -4.073  -3.087  1.00  0.00     0.173 A 
ATOM     79  F   UNL     1      10.150  -2.748  -6.400  1.00  0.00    -0.203 F 
ATOM     80  C   UNL     1      11.114  -2.209  -4.320  1.00  0.00     0.198 A 
ATOM     81  C   UNL     1      10.369  -3.323  -2.331  1.00  0.00     0.198 A 
ATOM     82  F   UNL     1       8.703  -4.980  -2.466  1.00  0.00    -0.203 F 
ATOM     83  F   UNL     1      11.937  -1.342  -4.927  1.00  0.00    -0.200 F 
ATOM     84  C   UNL     1      11.197  -2.399  -2.949  1.00  0.00     0.200 A 
ATOM     85  F   UNL     1      10.441  -3.505  -1.005  1.00  0.00    -0.200 F 
ATOM     86  F   UNL     1      12.084  -1.701  -2.227  1.00  0.00    -0.200 F 
ENDBRANCH  52  76
BRANCH  64  87
ATOM     87  C   UNL     1      10.370  -8.754  -9.362  1.00  0.00     0.064 A 
ATOM     88  C   UNL     1      11.267  -9.572  -8.658  1.00  0.00     0.173 A 
ATOM     89  C   UNL     1      10.654  -8.479 -10.709  1.00  0.00     0.173 A 
ATOM     90  F   UNL     1      11.049  -9.857  -7.365  1.00  0.00    -0.203 F 
ATOM     91  C   UNL     1      12.420 -10.062  -9.267  1.00  0.00     0.198 A 
ATOM     92  C   UNL     1      11.790  -8.999 -11.325  1.00  0.00     0.198 A 
ATOM     93  F   UNL     1       9.825  -7.712 -11.433  1.00  0.00    -0.203 F 
ATOM     94  F   UNL     1      13.292 -10.790  -8.557  1.00  0.00    -0.200 F 
ATOM     95  C   UNL     1      12.677  -9.780 -10.601  1.00  0.00     0.200 A 
ATOM     96  F   UNL     1      12.027  -8.740 -12.618  1.00  0.00    -0.200 F 
ATOM     97  F   UNL     1      13.786 -10.254 -11.185  1.00  0.00    -0.200 F 
ENDBRANCH  64  87
ENDBRANCH  38  39
ENDBRANCH  31  33
ENDBRANCH  30  31
ENDBRANCH  29  30
ENDBRANCH  28  29
ENDBRANCH  27  28
ENDBRANCH  26  27
ENDBRANCH   1  26
TORSDOF 21
