REMARK SMILES CC(C)c1ccc(C(=O)OCCOCCOCCOC(=O)c2ccc(-c3c4nc(c(-c5c(F)c(F)c(F)c(F)c5F)c5ccc([nH]5)c(-c5c(F)c(F)c(F)c(F)c5F)c5nc(c(-c6c(F)c(F)c(F)c(F)c6F)c6ccc3[nH]6)C=C5)C=C4)cc2)cc1S(=O)(=O)Nc1cccc(Cl)c1
REMARK SMILES IDX 14 1 13 2 12 3 11 4 10 5 8 6 9 7 7 8 4 9 5 10 86 11 6 12
REMARK SMILES IDX 85 13 2 14 1 15 3 16 87 17 88 18 89 19 90 20 91 22 92 23
REMARK SMILES IDX 97 24 93 25 95 26 94 27 96 28 15 29 16 30 17 31 18 32 19 33
REMARK SMILES IDX 20 34 21 35 22 36 23 37 84 38 24 39 83 40 25 41 26 42 27 43
REMARK SMILES IDX 77 44 28 45 82 46 76 47 78 48 29 49 81 50 75 51 74 52 30 54
REMARK SMILES IDX 62 55 42 56 61 57 43 58 46 59 60 60 79 61 44 62 45 63 59 65
REMARK SMILES IDX 80 66 47 67 31 68 32 69 40 70 33 71 34 72 38 73 41 74 35 75
REMARK SMILES IDX 36 76 39 77 37 78 63 79 64 80 72 81 65 82 66 83 70 84 73 85
REMARK SMILES IDX 67 86 68 87 71 88 69 89 48 90 49 91 57 92 50 93 51 94 55 95
REMARK SMILES IDX 58 96 52 97 53 98 56 99 54 100
REMARK H PARENT 90 21 78 53 46 64
REMARK Flexibility Score: inf
ROOT
ATOM      1  C   UNL     1      -6.369   0.851   0.208  1.00  0.00     0.188 C 
ENDROOT
BRANCH   1   2
ATOM      2  O   UNL     1      -7.764   0.644   0.153  1.00  0.00    -0.376 OA
BRANCH   2   3
ATOM      3  C   UNL     1      -8.296  -0.336  -0.733  1.00  0.00     0.202 C 
BRANCH   3   4
ATOM      4  C   UNL     1      -7.510  -0.950  -1.908  1.00  0.00     0.261 C 
BRANCH   4   5
ATOM      5  O   UNL     1      -6.134  -1.251  -1.636  1.00  0.00    -0.460 OA
BRANCH   5   6
ATOM      6  C   UNL     1      -5.324  -1.198  -2.727  1.00  0.00     0.338 C 
ATOM      7  O   UNL     1      -5.669  -1.122  -3.895  1.00  0.00    -0.246 OA
BRANCH   6   8
ATOM      8  C   UNL     1      -3.975  -0.806  -2.280  1.00  0.00     0.061 A 
ATOM      9  C   UNL     1      -1.548   0.234  -1.489  1.00  0.00    -0.025 A 
ATOM     10  C   UNL     1      -2.640   1.086  -1.755  1.00  0.00     0.006 A 
ATOM     11  C   UNL     1      -1.625  -1.167  -1.636  1.00  0.00     0.092 A 
ATOM     12  C   UNL     1      -3.823   0.576  -2.206  1.00  0.00     0.016 A 
ATOM     13  C   UNL     1      -2.901  -1.683  -1.999  1.00  0.00     0.038 A 
BRANCH   9  14
ATOM     14  C   UNL     1      -0.320   1.008  -1.172  1.00  0.00     0.014 C 
ATOM     15  C   UNL     1      -0.010   0.643   0.277  1.00  0.00     0.012 C 
ATOM     16  C   UNL     1       0.453   0.908  -2.485  1.00  0.00     0.012 C 
ENDBRANCH   9  14
BRANCH  11  17
ATOM     17  S   UNL     1      -0.228  -2.396  -1.599  1.00  0.00     0.262 S 
ATOM     18  O   UNL     1      -0.740  -3.432  -0.715  1.00  0.00    -0.201 OA
ATOM     19  O   UNL     1       0.046  -2.724  -2.982  1.00  0.00    -0.201 OA
BRANCH  17  20
ATOM     20  N   UNL     1       1.298  -2.041  -0.863  1.00  0.00    -0.280 N 
ATOM     21  H   UNL     1       1.512  -2.572  -0.062  1.00  0.00     0.180 HD
BRANCH  20  22
ATOM     22  C   UNL     1       2.307  -1.077  -1.255  1.00  0.00     0.050 A 
ATOM     23  C   UNL     1       2.919  -1.008  -2.507  1.00  0.00     0.027 A 
ATOM     24  C   UNL     1       2.737  -0.170  -0.273  1.00  0.00     0.047 A 
ATOM     25  C   UNL     1       3.699   0.122  -2.842  1.00  0.00     0.004 A 
ATOM     26  C   UNL     1       3.432   0.991  -0.626  1.00  0.00     0.043 A 
ATOM     27  C   UNL     1       3.892   1.158  -1.923  1.00  0.00     0.020 A 
ATOM     28  Cl  UNL     1       3.576   2.284   0.507  1.00  0.00    -0.084 Cl
ENDBRANCH  20  22
ENDBRANCH  17  20
ENDBRANCH  11  17
ENDBRANCH   6   8
ENDBRANCH   5   6
ENDBRANCH   4   5
ENDBRANCH   3   4
ENDBRANCH   2   3
ENDBRANCH   1   2
BRANCH   1  29
ATOM     29  C   UNL     1      -5.501  -0.143   1.007  1.00  0.00     0.188 C 
BRANCH  29  30
ATOM     30  O   UNL     1      -6.009  -1.403   1.386  1.00  0.00    -0.376 OA
BRANCH  30  31
ATOM     31  C   UNL     1      -7.140  -1.495   2.234  1.00  0.00     0.202 C 
BRANCH  31  32
ATOM     32  C   UNL     1      -7.449  -0.503   3.369  1.00  0.00     0.261 C 
BRANCH  32  33
ATOM     33  O   UNL     1      -7.044   0.857   3.176  1.00  0.00    -0.460 OA
BRANCH  33  34
ATOM     34  C   UNL     1      -6.014   1.263   3.953  1.00  0.00     0.338 C 
ATOM     35  O   UNL     1      -5.392   0.605   4.777  1.00  0.00    -0.246 OA
BRANCH  34  36
ATOM     36  C   UNL     1      -5.615   2.622   3.560  1.00  0.00     0.060 A 
ATOM     37  C   UNL     1      -4.363   2.808   2.959  1.00  0.00     0.016 A 
ATOM     38  C   UNL     1      -6.432   3.713   3.857  1.00  0.00     0.016 A 
ATOM     39  C   UNL     1      -3.915   4.094   2.666  1.00  0.00     0.010 A 
ATOM     40  C   UNL     1      -5.972   5.003   3.581  1.00  0.00     0.010 A 
ATOM     41  C   UNL     1      -4.702   5.201   3.010  1.00  0.00    -0.014 A 
BRANCH  41  42
ATOM     42  C   UNL     1      -4.133   6.566   2.920  1.00  0.00     0.031 A 
ATOM     43  C   UNL     1      -3.581   7.205   4.163  1.00  0.00     0.074 A 
ATOM     44  C   UNL     1      -4.099   7.225   1.749  1.00  0.00     0.049 A 
ATOM     45  N   UNL     1      -3.095   8.408   4.336  1.00  0.00    -0.248 NA
ATOM     46  C   UNL     1      -3.581   6.373   5.377  1.00  0.00     0.031 C 
ATOM     47  C   UNL     1      -4.565   6.698   0.469  1.00  0.00     0.029 A 
ATOM     48  N   UNL     1      -3.661   8.492   1.454  1.00  0.00    -0.354 N 
ATOM     49  C   UNL     1      -2.740   8.480   5.676  1.00  0.00     0.074 A 
ATOM     50  C   UNL     1      -3.092   7.212   6.278  1.00  0.00     0.031 C 
ATOM     51  C   UNL     1      -4.403   7.642  -0.474  1.00  0.00     0.029 A 
ATOM     52  C   UNL     1      -3.857   8.850   0.143  1.00  0.00     0.049 A 
ATOM     53  H   UNL     1      -3.246   9.088   2.119  1.00  0.00     0.167 HD
ATOM     54  C   UNL     1      -2.165   9.510   6.343  1.00  0.00     0.037 A 
ATOM     55  C   UNL     1      -3.644  10.027  -0.476  1.00  0.00     0.037 A 
ATOM     56  C   UNL     1      -1.820  10.772   5.742  1.00  0.00     0.049 A 
ATOM     57  C   UNL     1      -3.080  11.186   0.307  1.00  0.00     0.074 A 
ATOM     58  C   UNL     1      -1.216  11.870   6.329  1.00  0.00     0.029 A 
ATOM     59  N   UNL     1      -2.063  11.109   4.419  1.00  0.00    -0.354 N 
ATOM     60  N   UNL     1      -2.717  11.239   1.565  1.00  0.00    -0.248 NA
ATOM     61  C   UNL     1      -2.894  12.450  -0.422  1.00  0.00     0.031 C 
ATOM     62  C   UNL     1      -1.146  12.891   5.376  1.00  0.00     0.029 A 
ATOM     63  C   UNL     1      -1.648  12.409   4.178  1.00  0.00     0.049 A 
ATOM     64  H   UNL     1      -2.469  10.512   3.749  1.00  0.00     0.167 HD
ATOM     65  C   UNL     1      -2.235  12.526   1.772  1.00  0.00     0.074 A 
ATOM     66  C   UNL     1      -2.337  13.217   0.504  1.00  0.00     0.031 C 
ATOM     67  C   UNL     1      -1.750  13.085   2.909  1.00  0.00     0.037 A 
BRANCH  54  68
ATOM     68  C   UNL     1      -1.901   9.324   7.809  1.00  0.00     0.064 A 
ATOM     69  C   UNL     1      -0.908   8.450   8.276  1.00  0.00     0.173 A 
ATOM     70  C   UNL     1      -2.634  10.052   8.758  1.00  0.00     0.173 A 
ATOM     71  F   UNL     1      -0.188   7.721   7.411  1.00  0.00    -0.203 F 
ATOM     72  C   UNL     1      -0.678   8.291   9.641  1.00  0.00     0.198 A 
ATOM     73  C   UNL     1      -2.380   9.914  10.120  1.00  0.00     0.198 A 
ATOM     74  F   UNL     1      -3.593  10.904   8.365  1.00  0.00    -0.203 F 
ATOM     75  F   UNL     1       0.242   7.414  10.066  1.00  0.00    -0.200 F 
ATOM     76  C   UNL     1      -1.409   9.029  10.561  1.00  0.00     0.200 A 
ATOM     77  F   UNL     1      -3.078  10.638  11.006  1.00  0.00    -0.200 F 
ATOM     78  F   UNL     1      -1.182   8.880  11.873  1.00  0.00    -0.200 F 
ENDBRANCH  54  68
BRANCH  55  79
ATOM     79  C   UNL     1      -3.981  10.181  -1.916  1.00  0.00     0.064 A 
ATOM     80  C   UNL     1      -2.978  10.373  -2.877  1.00  0.00     0.173 A 
ATOM     81  C   UNL     1      -5.313  10.165  -2.358  1.00  0.00     0.173 A 
ATOM     82  F   UNL     1      -1.692  10.422  -2.501  1.00  0.00    -0.203 F 
ATOM     83  C   UNL     1      -3.295  10.563  -4.221  1.00  0.00     0.198 A 
ATOM     84  C   UNL     1      -5.627  10.325  -3.706  1.00  0.00     0.198 A 
ATOM     85  F   UNL     1      -6.310   9.988  -1.479  1.00  0.00    -0.203 F 
ATOM     86  F   UNL     1      -2.320  10.794  -5.110  1.00  0.00    -0.200 F 
ATOM     87  C   UNL     1      -4.619  10.533  -4.635  1.00  0.00     0.200 A 
ATOM     88  F   UNL     1      -6.905  10.283  -4.103  1.00  0.00    -0.200 F 
ATOM     89  F   UNL     1      -4.922  10.713  -5.927  1.00  0.00    -0.200 F 
ENDBRANCH  55  79
BRANCH  67  90
ATOM     90  C   UNL     1      -1.254  14.501   2.829  1.00  0.00     0.064 A 
ATOM     91  C   UNL     1      -2.131  15.585   2.672  1.00  0.00     0.173 A 
ATOM     92  C   UNL     1       0.116  14.781   2.957  1.00  0.00     0.173 A 
ATOM     93  F   UNL     1      -3.448  15.371   2.531  1.00  0.00    -0.203 F 
ATOM     94  C   UNL     1      -1.653  16.892   2.618  1.00  0.00     0.198 A 
ATOM     95  C   UNL     1       0.587  16.091   2.936  1.00  0.00     0.198 A 
ATOM     96  F   UNL     1       0.999  13.784   3.117  1.00  0.00    -0.203 F 
ATOM     97  F   UNL     1      -2.505  17.907   2.416  1.00  0.00    -0.200 F 
ATOM     98  C   UNL     1      -0.297  17.145   2.758  1.00  0.00     0.200 A 
ATOM     99  F   UNL     1       1.896  16.334   3.088  1.00  0.00    -0.200 F 
ATOM    100  F   UNL     1       0.160  18.404   2.715  1.00  0.00    -0.200 F 
ENDBRANCH  67  90
ENDBRANCH  41  42
ENDBRANCH  34  36
ENDBRANCH  33  34
ENDBRANCH  32  33
ENDBRANCH  31  32
ENDBRANCH  30  31
ENDBRANCH  29  30
ENDBRANCH   1  29
TORSDOF 21
