REMARK SMILES Cc1csc([C@@H](C)NC(=O)NC[C@H](CC(C)C)C(=O)OCCOCCOCCOC(=O)c2ccc(-c3c4nc(c(-c5c(F)c(F)c(F)c(F)c5F)c5ccc([nH]5)c(-c5c(F)c(F)c(F)c(F)c5F)c5nc(c(-c6c(F)c(F)c(F)c(F)c6F)c6ccc3[nH]6)C=C5)C=C4)cc2)n1
REMARK SMILES IDX 24 1 23 2 22 3 21 4 20 5 18 6 19 7 13 8 12 9 11 10 8 11 9 12
REMARK SMILES IDX 10 14 6 16 7 17 5 18 1 19 2 20 3 21 95 22 4 23 14 24 15 25
REMARK SMILES IDX 16 26 17 27 25 28 26 29 27 30 28 31 29 32 30 33 31 34 32 35
REMARK SMILES IDX 33 36 94 37 34 38 93 39 35 40 36 41 37 42 87 43 38 44 92 45
REMARK SMILES IDX 86 46 88 47 39 48 91 49 85 50 84 51 40 53 72 54 52 55 71 56
REMARK SMILES IDX 53 57 56 58 70 59 89 60 54 61 55 62 69 64 90 65 57 66 41 67
REMARK SMILES IDX 42 68 50 69 43 70 44 71 48 72 51 73 45 74 46 75 49 76 47 77
REMARK SMILES IDX 73 78 74 79 82 80 75 81 76 82 80 83 83 84 77 85 78 86 81 87
REMARK SMILES IDX 79 88 58 89 59 90 67 91 60 92 61 93 65 94 68 95 62 96 63 97
REMARK SMILES IDX 66 98 64 99
REMARK H PARENT 8 13 11 15 88 52 56 63
REMARK Flexibility Score: inf
ROOT
ATOM      1  C   UNL     1       3.641   1.982  -3.436  1.00  0.00     0.188 C 
ENDROOT
BRANCH   1   2
ATOM      2  O   UNL     1       4.554   1.262  -4.247  1.00  0.00    -0.376 OA
BRANCH   2   3
ATOM      3  C   UNL     1       5.566   0.494  -3.610  1.00  0.00     0.202 C 
BRANCH   3   4
ATOM      4  C   UNL     1       6.433   1.163  -2.534  1.00  0.00     0.261 C 
BRANCH   4   5
ATOM      5  O   UNL     1       5.791   1.553  -1.288  1.00  0.00    -0.463 OA
BRANCH   5   6
ATOM      6  C   UNL     1       5.838   2.874  -0.980  1.00  0.00     0.310 C 
ATOM      7  O   UNL     1       6.348   3.719  -1.715  1.00  0.00    -0.252 OA
BRANCH   6   8
ATOM      8  C   UNL     1       5.250   3.300   0.366  1.00  0.00     0.119 C 
BRANCH   8   9
ATOM      9  C   UNL     1       6.368   3.805   1.298  1.00  0.00     0.133 C 
BRANCH   9  10
ATOM     10  N   UNL     1       6.824   2.846   2.287  1.00  0.00    -0.337 N 
ATOM     11  N   UNL     1       8.694   1.660   1.460  1.00  0.00    -0.329 N 
ATOM     12  C   UNL     1       7.782   1.926   2.389  1.00  0.00     0.315 C 
ATOM     13  H   UNL     1       9.299   0.931   1.729  1.00  0.00     0.166 HD
ATOM     14  O   UNL     1       7.816   1.269   3.432  1.00  0.00    -0.249 OA
ATOM     15  H   UNL     1       6.277   2.886   3.105  1.00  0.00     0.165 HD
BRANCH  11  16
ATOM     16  C   UNL     1       9.014   2.182   0.144  1.00  0.00     0.140 C 
ATOM     17  C   UNL     1       9.302   1.017  -0.804  1.00  0.00     0.039 C 
BRANCH  16  18
ATOM     18  C   UNL     1      10.219   3.077   0.229  1.00  0.00     0.115 A 
ATOM     19  C   UNL     1      13.794   3.358   0.137  1.00  0.00     0.067 C 
ATOM     20  C   UNL     1      12.350   3.682   0.199  1.00  0.00     0.049 A 
ATOM     21  C   UNL     1      11.767   4.933   0.174  1.00  0.00     0.090 A 
ATOM     22  N   UNL     1      11.459   2.631   0.264  1.00  0.00    -0.244 NA
ATOM     23  S   UNL     1      10.062   4.789   0.197  1.00  0.00    -0.125 S 
ENDBRANCH  16  18
ENDBRANCH  11  16
ENDBRANCH   9  10
ENDBRANCH   8   9
BRANCH   8  24
ATOM     24  C   UNL     1       4.172   2.459   1.096  1.00  0.00     0.020 C 
BRANCH  24  25
ATOM     25  C   UNL     1       3.035   3.324   1.711  1.00  0.00    -0.017 C 
ATOM     26  C   UNL     1       2.185   4.072   0.678  1.00  0.00     0.007 C 
ATOM     27  C   UNL     1       2.089   2.453   2.547  1.00  0.00     0.007 C 
ENDBRANCH  24  25
ENDBRANCH   8  24
ENDBRANCH   6   8
ENDBRANCH   5   6
ENDBRANCH   4   5
ENDBRANCH   3   4
ENDBRANCH   2   3
ENDBRANCH   1   2
BRANCH   1  28
ATOM     28  C   UNL     1       3.073   1.295  -2.191  1.00  0.00     0.188 C 
BRANCH  28  29
ATOM     29  O   UNL     1       3.414  -0.065  -2.035  1.00  0.00    -0.376 OA
BRANCH  29  30
ATOM     30  C   UNL     1       2.348  -0.998  -2.151  1.00  0.00     0.202 C 
BRANCH  30  31
ATOM     31  C   UNL     1       1.563  -0.986  -3.475  1.00  0.00     0.261 C 
BRANCH  31  32
ATOM     32  O   UNL     1       1.008   0.288  -3.870  1.00  0.00    -0.460 OA
BRANCH  32  33
ATOM     33  C   UNL     1      -0.014   0.783  -3.143  1.00  0.00     0.338 C 
ATOM     34  O   UNL     1      -0.575   0.238  -2.194  1.00  0.00    -0.246 OA
BRANCH  33  35
ATOM     35  C   UNL     1      -0.172   2.213  -3.490  1.00  0.00     0.060 A 
ATOM     36  C   UNL     1       0.155   3.176  -2.525  1.00  0.00     0.016 A 
ATOM     37  C   UNL     1      -0.594   2.618  -4.755  1.00  0.00     0.016 A 
ATOM     38  C   UNL     1       0.096   4.537  -2.818  1.00  0.00     0.010 A 
ATOM     39  C   UNL     1      -0.706   3.987  -5.036  1.00  0.00     0.010 A 
ATOM     40  C   UNL     1      -0.369   4.954  -4.069  1.00  0.00    -0.014 A 
BRANCH  40  41
ATOM     41  C   UNL     1      -0.681   6.388  -4.296  1.00  0.00     0.031 A 
ATOM     42  C   UNL     1      -2.108   6.835  -4.156  1.00  0.00     0.074 A 
ATOM     43  C   UNL     1       0.278   7.288  -4.580  1.00  0.00     0.049 A 
ATOM     44  N   UNL     1      -2.654   7.989  -4.440  1.00  0.00    -0.248 NA
ATOM     45  C   UNL     1      -3.047   5.840  -3.615  1.00  0.00     0.031 C 
ATOM     46  C   UNL     1       1.710   7.009  -4.641  1.00  0.00     0.029 A 
ATOM     47  N   UNL     1       0.181   8.626  -4.880  1.00  0.00    -0.354 N 
ATOM     48  C   UNL     1      -4.003   7.849  -4.140  1.00  0.00     0.074 A 
ATOM     49  C   UNL     1      -4.194   6.499  -3.656  1.00  0.00     0.031 C 
ATOM     50  C   UNL     1       2.359   8.138  -4.979  1.00  0.00     0.029 A 
ATOM     51  C   UNL     1       1.383   9.202  -5.212  1.00  0.00     0.049 A 
ATOM     52  H   UNL     1      -0.668   9.123  -4.858  1.00  0.00     0.167 HD
ATOM     53  C   UNL     1      -4.992   8.765  -4.263  1.00  0.00     0.037 A 
ATOM     54  C   UNL     1       1.655  10.432  -5.694  1.00  0.00     0.037 A 
ATOM     55  C   UNL     1      -4.795  10.110  -4.734  1.00  0.00     0.049 A 
ATOM     56  C   UNL     1       0.521  11.401  -5.928  1.00  0.00     0.074 A 
ATOM     57  C   UNL     1      -5.733  11.115  -4.894  1.00  0.00     0.029 A 
ATOM     58  N   UNL     1      -3.573  10.637  -5.123  1.00  0.00    -0.354 N 
ATOM     59  N   UNL     1      -0.758  11.257  -5.677  1.00  0.00    -0.248 NA
ATOM     60  C   UNL     1       0.869  12.698  -6.527  1.00  0.00     0.031 C 
ATOM     61  C   UNL     1      -5.086  12.233  -5.431  1.00  0.00     0.029 A 
ATOM     62  C   UNL     1      -3.736  11.943  -5.554  1.00  0.00     0.049 A 
ATOM     63  H   UNL     1      -2.715  10.154  -5.097  1.00  0.00     0.167 HD
ATOM     64  C   UNL     1      -1.363  12.445  -6.071  1.00  0.00     0.074 A 
ATOM     65  C   UNL     1      -0.308  13.308  -6.557  1.00  0.00     0.031 C 
ATOM     66  C   UNL     1      -2.675  12.789  -6.037  1.00  0.00     0.037 A 
BRANCH  53  67
ATOM     67  C   UNL     1      -6.387   8.322  -3.934  1.00  0.00     0.064 A 
ATOM     68  C   UNL     1      -6.799   8.083  -2.615  1.00  0.00     0.173 A 
ATOM     69  C   UNL     1      -7.331   8.151  -4.958  1.00  0.00     0.173 A 
ATOM     70  F   UNL     1      -5.930   8.213  -1.601  1.00  0.00    -0.203 F 
ATOM     71  C   UNL     1      -8.098   7.664  -2.336  1.00  0.00     0.198 A 
ATOM     72  C   UNL     1      -8.636   7.761  -4.674  1.00  0.00     0.198 A 
ATOM     73  F   UNL     1      -6.987   8.366  -6.237  1.00  0.00    -0.203 F 
ATOM     74  F   UNL     1      -8.457   7.393  -1.074  1.00  0.00    -0.200 F 
ATOM     75  C   UNL     1      -9.017   7.511  -3.364  1.00  0.00     0.200 A 
ATOM     76  F   UNL     1      -9.524   7.622  -5.668  1.00  0.00    -0.200 F 
ATOM     77  F   UNL     1     -10.267   7.112  -3.094  1.00  0.00    -0.200 F 
ENDBRANCH  53  67
BRANCH  54  78
ATOM     78  C   UNL     1       3.051  10.806  -6.050  1.00  0.00     0.064 A 
ATOM     79  C   UNL     1       3.736  11.809  -5.350  1.00  0.00     0.173 A 
ATOM     80  C   UNL     1       3.717  10.190  -7.121  1.00  0.00     0.173 A 
ATOM     81  F   UNL     1       3.131  12.454  -4.342  1.00  0.00    -0.203 F 
ATOM     82  C   UNL     1       5.026  12.190  -5.716  1.00  0.00     0.198 A 
ATOM     83  C   UNL     1       5.018  10.550  -7.466  1.00  0.00     0.198 A 
ATOM     84  F   UNL     1       3.103   9.234  -7.834  1.00  0.00    -0.203 F 
ATOM     85  F   UNL     1       5.638  13.187  -5.062  1.00  0.00    -0.200 F 
ATOM     86  C   UNL     1       5.669  11.556  -6.768  1.00  0.00     0.200 A 
ATOM     87  F   UNL     1       5.637   9.929  -8.479  1.00  0.00    -0.200 F 
ATOM     88  F   UNL     1       6.910  11.921  -7.117  1.00  0.00    -0.200 F 
ENDBRANCH  54  78
BRANCH  66  89
ATOM     89  C   UNL     1      -3.042  14.163  -6.520  1.00  0.00     0.064 A 
ATOM     90  C   UNL     1      -3.005  14.496  -7.882  1.00  0.00     0.173 A 
ATOM     91  C   UNL     1      -3.480  15.142  -5.616  1.00  0.00     0.173 A 
ATOM     92  F   UNL     1      -2.580  13.600  -8.786  1.00  0.00    -0.203 F 
ATOM     93  C   UNL     1      -3.372  15.767  -8.318  1.00  0.00     0.198 A 
ATOM     94  C   UNL     1      -3.875  16.402  -6.058  1.00  0.00     0.198 A 
ATOM     95  F   UNL     1      -3.541  14.872  -4.303  1.00  0.00    -0.203 F 
ATOM     96  F   UNL     1      -3.286  16.078  -9.619  1.00  0.00    -0.200 F 
ATOM     97  C   UNL     1      -3.814  16.716  -7.407  1.00  0.00     0.200 A 
ATOM     98  F   UNL     1      -4.315  17.312  -5.179  1.00  0.00    -0.200 F 
ATOM     99  F   UNL     1      -4.175  17.935  -7.830  1.00  0.00    -0.200 F 
ENDBRANCH  66  89
ENDBRANCH  40  41
ENDBRANCH  33  35
ENDBRANCH  32  33
ENDBRANCH  31  32
ENDBRANCH  30  31
ENDBRANCH  29  30
ENDBRANCH  28  29
ENDBRANCH   1  28
TORSDOF 23
