REMARK SMILES O=C(OCCOCCOCCOC(=O)c1ccc(-c2c3nc(c(-c4c(F)c(F)c(F)c(F)c4F)c4ccc([nH]4)c(-c4c(F)c(F)c(F)c(F)c4F)c4nc(c(-c5c(F)c(F)c(F)c(F)c5F)c5ccc2[nH]5)C=C4)C=C3)cc1)C1=Cc2cc(Cl)cc(-c3ccc(Cl)cc3)c2O[C@@H]1C(F)(F)F
REMARK SMILES IDX 8 1 7 2 6 3 5 4 4 5 3 6 2 7 1 8 78 9 79 10 95 11 80 12 94 13
REMARK SMILES IDX 81 14 93 15 82 16 85 17 83 18 84 19 96 20 97 21 98 22 99 23
REMARK SMILES IDX 86 24 87 25 92 26 88 27 91 28 89 29 90 30 9 31 10 32 11 33
REMARK SMILES IDX 12 34 13 35 14 36 15 37 16 38 77 39 17 40 76 41 18 42 19 43
REMARK SMILES IDX 20 44 70 45 21 46 75 47 69 48 71 49 22 50 74 51 68 52 67 53
REMARK SMILES IDX 23 55 55 56 35 57 54 58 36 59 39 60 53 61 72 62 37 63 38 64
REMARK SMILES IDX 52 66 73 67 40 68 24 69 25 70 33 71 26 72 27 73 31 74 34 75
REMARK SMILES IDX 28 76 29 77 32 78 30 79 56 80 57 81 65 82 58 83 59 84 63 85
REMARK SMILES IDX 66 86 60 87 61 88 64 89 62 90 41 91 42 92 50 93 43 94 44 95
REMARK SMILES IDX 48 96 51 97 45 98 46 99 49 100 47 101
REMARK H PARENT 71 54 39 65
REMARK Flexibility Score: inf
ROOT
ATOM      1  C   UNL     1       1.623  -3.542   0.012  1.00  0.00     0.188 C 
ENDROOT
BRANCH   1   2
ATOM      2  C   UNL     1       2.161  -2.220  -0.557  1.00  0.00     0.188 C 
BRANCH   2   3
ATOM      3  O   UNL     1       3.624  -1.985  -0.917  1.00  0.00    -0.376 OA
BRANCH   3   4
ATOM      4  C   UNL     1       4.523  -0.458  -0.771  1.00  0.00     0.202 C 
BRANCH   4   5
ATOM      5  C   UNL     1       3.905   1.102   0.617  1.00  0.00     0.261 C 
BRANCH   5   6
ATOM      6  O   UNL     1       2.956   2.269   0.293  1.00  0.00    -0.460 OA
BRANCH   6   7
ATOM      7  C   UNL     1       3.100   2.712  -0.965  1.00  0.00     0.338 C 
ATOM      8  O   UNL     1       2.399   3.473  -1.585  1.00  0.00    -0.246 OA
BRANCH   7   9
ATOM      9  C   UNL     1       3.952   1.626  -1.407  1.00  0.00     0.087 C 
ATOM     10  C   UNL     1       5.345   1.715  -1.036  1.00  0.00     0.027 C 
ATOM     11  C   UNL     1       2.741   0.260  -0.836  1.00  0.00     0.316 C 
ATOM     12  C   UNL     1       6.088   0.746   0.263  1.00  0.00     0.019 A 
ATOM     13  O   UNL     1       3.484  -0.713   0.711  1.00  0.00    -0.475 OA
ATOM     14  C   UNL     1       7.363   1.099   0.627  1.00  0.00     0.032 A 
ATOM     15  C   UNL     1       5.223  -0.420   1.205  1.00  0.00     0.135 A 
ATOM     16  C   UNL     1       7.880   0.418   1.727  1.00  0.00     0.042 A 
ATOM     17  C   UNL     1       5.849  -1.095   2.244  1.00  0.00     0.026 A 
ATOM     18  Cl  UNL     1       9.474   0.844   2.253  1.00  0.00    -0.084 Cl
ATOM     19  C   UNL     1       7.184  -0.611   2.458  1.00  0.00     0.033 A 
BRANCH  11  20
ATOM     20  C   UNL     1       2.462  -0.196  -2.484  1.00  0.00     0.430 C 
ATOM     21  F   UNL     1       2.651  -1.454  -2.912  1.00  0.00    -0.167 F 
ATOM     22  F   UNL     1       1.193   0.151  -2.823  1.00  0.00    -0.167 F 
ATOM     23  F   UNL     1       3.254   0.526  -3.342  1.00  0.00    -0.167 F 
ENDBRANCH  11  20
BRANCH  17  24
ATOM     24  C   UNL     1       5.480  -2.236   3.079  1.00  0.00    -0.015 A 
ATOM     25  C   UNL     1       4.917  -2.066   4.350  1.00  0.00     0.010 A 
ATOM     26  C   UNL     1       5.976  -3.519   2.756  1.00  0.00     0.010 A 
ATOM     27  C   UNL     1       4.761  -3.155   5.221  1.00  0.00     0.021 A 
ATOM     28  C   UNL     1       5.792  -4.616   3.608  1.00  0.00     0.021 A 
ATOM     29  C   UNL     1       5.164  -4.431   4.832  1.00  0.00     0.041 A 
ATOM     30  Cl  UNL     1       4.897  -5.777   5.868  1.00  0.00    -0.084 Cl
ENDBRANCH  17  24
ENDBRANCH   7   9
ENDBRANCH   6   7
ENDBRANCH   5   6
ENDBRANCH   4   5
ENDBRANCH   3   4
ENDBRANCH   2   3
ENDBRANCH   1   2
BRANCH   1  31
ATOM     31  O   UNL     1       2.281  -4.128   1.099  1.00  0.00    -0.376 OA
BRANCH  31  32
ATOM     32  C   UNL     1       3.666  -4.316   0.909  1.00  0.00     0.202 C 
BRANCH  32  33
ATOM     33  C   UNL     1       4.163  -5.218  -0.224  1.00  0.00     0.261 C 
BRANCH  33  34
ATOM     34  O   UNL     1       3.813  -4.766  -1.541  1.00  0.00    -0.460 OA
BRANCH  34  35
ATOM     35  C   UNL     1       2.844  -5.468  -2.173  1.00  0.00     0.338 C 
ATOM     36  O   UNL     1       2.257  -6.460  -1.779  1.00  0.00    -0.246 OA
BRANCH  35  37
ATOM     37  C   UNL     1       2.454  -4.727  -3.384  1.00  0.00     0.060 A 
ATOM     38  C   UNL     1       1.180  -4.143  -3.464  1.00  0.00     0.016 A 
ATOM     39  C   UNL     1       3.337  -4.670  -4.459  1.00  0.00     0.016 A 
ATOM     40  C   UNL     1       0.787  -3.485  -4.626  1.00  0.00     0.010 A 
ATOM     41  C   UNL     1       2.925  -4.057  -5.640  1.00  0.00     0.010 A 
ATOM     42  C   UNL     1       1.641  -3.489  -5.733  1.00  0.00    -0.014 A 
BRANCH  42  43
ATOM     43  C   UNL     1       1.098  -3.149  -7.063  1.00  0.00     0.031 A 
ATOM     44  C   UNL     1       0.536  -4.272  -7.885  1.00  0.00     0.074 A 
ATOM     45  C   UNL     1       1.113  -1.889  -7.524  1.00  0.00     0.049 A 
ATOM     46  N   UNL     1       0.078  -4.261  -9.109  1.00  0.00    -0.248 NA
ATOM     47  C   UNL     1       0.493  -5.594  -7.236  1.00  0.00     0.031 C 
ATOM     48  C   UNL     1       1.589  -0.724  -6.785  1.00  0.00     0.029 A 
ATOM     49  N   UNL     1       0.724  -1.388  -8.740  1.00  0.00    -0.354 N 
ATOM     50  C   UNL     1      -0.300  -5.569  -9.375  1.00  0.00     0.074 A 
ATOM     51  C   UNL     1       0.012  -6.356  -8.204  1.00  0.00     0.031 C 
ATOM     52  C   UNL     1       1.483   0.361  -7.574  1.00  0.00     0.029 A 
ATOM     53  C   UNL     1       0.967  -0.045  -8.881  1.00  0.00     0.049 A 
ATOM     54  H   UNL     1       0.311  -1.939  -9.444  1.00  0.00     0.167 HD
ATOM     55  C   UNL     1      -0.863  -6.067 -10.500  1.00  0.00     0.037 A 
ATOM     56  C   UNL     1       0.814   0.749  -9.958  1.00  0.00     0.037 A 
ATOM     57  C   UNL     1      -1.140  -5.276 -11.668  1.00  0.00     0.049 A 
ATOM     58  C   UNL     1       0.276   0.149 -11.236  1.00  0.00     0.074 A 
ATOM     59  C   UNL     1      -1.707  -5.674 -12.864  1.00  0.00     0.029 A 
ATOM     60  N   UNL     1      -0.849  -3.924 -11.790  1.00  0.00    -0.354 N 
ATOM     61  N   UNL     1      -0.107  -1.082 -11.480  1.00  0.00    -0.248 NA
ATOM     62  C   UNL     1       0.149   1.051 -12.389  1.00  0.00     0.031 C 
ATOM     63  C   UNL     1      -1.690  -4.581 -13.736  1.00  0.00     0.029 A 
ATOM     64  C   UNL     1      -1.193  -3.480 -13.056  1.00  0.00     0.049 A 
ATOM     65  H   UNL     1      -0.456  -3.364 -11.082  1.00  0.00     0.167 HD
ATOM     66  C   UNL     1      -0.554  -1.093 -12.796  1.00  0.00     0.074 A 
ATOM     67  C   UNL     1      -0.406   0.258 -13.295  1.00  0.00     0.031 C 
ATOM     68  C   UNL     1      -1.045  -2.126 -13.528  1.00  0.00     0.037 A 
BRANCH  55  69
ATOM     69  C   UNL     1      -1.167  -7.536 -10.530  1.00  0.00     0.064 A 
ATOM     70  C   UNL     1      -2.160  -8.105  -9.716  1.00  0.00     0.173 A 
ATOM     71  C   UNL     1      -0.461  -8.388 -11.393  1.00  0.00     0.173 A 
ATOM     72  F   UNL     1      -2.852  -7.339  -8.859  1.00  0.00    -0.203 F 
ATOM     73  C   UNL     1      -2.410  -9.474  -9.741  1.00  0.00     0.198 A 
ATOM     74  C   UNL     1      -0.741  -9.751 -11.444  1.00  0.00     0.198 A 
ATOM     75  F   UNL     1       0.499  -7.899 -12.191  1.00  0.00    -0.203 F 
ATOM     76  F   UNL     1      -3.320 -10.003  -8.911  1.00  0.00    -0.200 F 
ATOM     77  C   UNL     1      -1.707 -10.294 -10.611  1.00  0.00     0.200 A 
ATOM     78  F   UNL     1      -0.071 -10.539 -12.296  1.00  0.00    -0.200 F 
ATOM     79  F   UNL     1      -1.955 -11.611 -10.641  1.00  0.00    -0.200 F 
ENDBRANCH  55  69
BRANCH  56  80
ATOM     80  C   UNL     1       1.184   2.188  -9.888  1.00  0.00     0.064 A 
ATOM     81  C   UNL     1       0.215   3.193 -10.021  1.00  0.00     0.173 A 
ATOM     82  C   UNL     1       2.517   2.592  -9.714  1.00  0.00     0.173 A 
ATOM     83  F   UNL     1      -1.070   2.862 -10.216  1.00  0.00    -0.203 F 
ATOM     84  C   UNL     1       0.567   4.542 -10.012  1.00  0.00     0.198 A 
ATOM     85  C   UNL     1       2.863   3.941  -9.668  1.00  0.00     0.198 A 
ATOM     86  F   UNL     1       3.487   1.675  -9.587  1.00  0.00    -0.203 F 
ATOM     87  F   UNL     1      -0.372   5.478 -10.205  1.00  0.00    -0.200 F 
ATOM     88  C   UNL     1       1.890   4.915  -9.829  1.00  0.00     0.200 A 
ATOM     89  F   UNL     1       4.141   4.297  -9.479  1.00  0.00    -0.200 F 
ATOM     90  F   UNL     1       2.228   6.211  -9.820  1.00  0.00    -0.200 F 
ENDBRANCH  56  80
BRANCH  68  91
ATOM     91  C   UNL     1      -1.506  -1.829 -14.928  1.00  0.00     0.064 A 
ATOM     92  C   UNL     1      -0.608  -1.502 -15.954  1.00  0.00     0.173 A 
ATOM     93  C   UNL     1      -2.868  -1.932 -15.258  1.00  0.00     0.173 A 
ATOM     94  F   UNL     1       0.702  -1.381 -15.693  1.00  0.00    -0.203 F 
ATOM     95  C   UNL     1      -1.058  -1.259 -17.249  1.00  0.00     0.198 A 
ATOM     96  C   UNL     1      -3.309  -1.729 -16.562  1.00  0.00     0.198 A 
ATOM     97  F   UNL     1      -3.770  -2.254 -14.318  1.00  0.00    -0.203 F 
ATOM     98  F   UNL     1      -0.188  -0.893 -18.201  1.00  0.00    -0.200 F 
ATOM     99  C   UNL     1      -2.406  -1.383 -17.554  1.00  0.00     0.200 A 
ATOM    100  F   UNL     1      -4.608  -1.874 -16.858  1.00  0.00    -0.200 F 
ATOM    101  F   UNL     1      -2.835  -1.163 -18.805  1.00  0.00    -0.200 F 
ENDBRANCH  68  91
ENDBRANCH  42  43
ENDBRANCH  35  37
ENDBRANCH  34  35
ENDBRANCH  33  34
ENDBRANCH  32  33
ENDBRANCH  31  32
ENDBRANCH   1  31
TORSDOF 19
