REMARK SMILES C[C@H](CO)CSc1cc(Cl)ccc1C(=O)OCCOCCOCCOC(=O)c1ccc(-c2c3nc(c(-c4c(F)c(F)c(F)c(F)c4F)c4ccc([nH]4)c(-c4c(F)c(F)c(F)c(F)c4F)c4nc(c(-c5c(F)c(F)c(F)c(F)c5F)c5ccc2[nH]5)C=C4)C=C3)cc1
REMARK SMILES IDX 19 1 18 2 17 3 16 4 14 5 15 6 13 7 7 8 8 9 9 10 12 11 10 12
REMARK SMILES IDX 11 13 6 14 5 15 2 16 1 17 3 18 4 19 20 21 21 22 22 23 23 24
REMARK SMILES IDX 24 25 25 26 26 27 27 28 28 29 29 30 90 31 30 32 89 33 31 34
REMARK SMILES IDX 32 35 33 36 83 37 34 38 88 39 82 40 84 41 35 42 87 43 81 44
REMARK SMILES IDX 80 45 36 47 68 48 48 49 67 50 49 51 52 52 66 53 85 54 50 55
REMARK SMILES IDX 51 56 65 58 86 59 53 60 37 61 38 62 46 63 39 64 40 65 44 66
REMARK SMILES IDX 47 67 41 68 42 69 45 70 43 71 69 72 70 73 78 74 71 75 72 76
REMARK SMILES IDX 76 77 79 78 73 79 74 80 77 81 75 82 54 83 55 84 63 85 56 86
REMARK SMILES IDX 57 87 61 88 64 89 58 90 59 91 62 92 60 93
REMARK H PARENT 4 20 84 46 52 57
REMARK Flexibility Score: inf
ROOT
ATOM      1  O   UNL     1      -3.302   6.397  -0.505  1.00  0.00    -0.376 OA
ENDROOT
BRANCH   1   2
ATOM      2  C   UNL     1      -2.934   5.976  -1.820  1.00  0.00     0.202 C 
BRANCH   2   3
ATOM      3  C   UNL     1      -1.553   5.332  -2.012  1.00  0.00     0.261 C 
BRANCH   3   4
ATOM      4  O   UNL     1      -1.378   4.172  -1.184  1.00  0.00    -0.460 OA
BRANCH   4   5
ATOM      5  C   UNL     1      -0.187   4.028  -0.567  1.00  0.00     0.339 C 
ATOM      6  O   UNL     1       0.807   4.728  -0.720  1.00  0.00    -0.246 OA
BRANCH   5   7
ATOM      7  C   UNL     1      -0.313   3.051   0.544  1.00  0.00     0.073 A 
ATOM      8  C   UNL     1      -0.887   1.768   0.422  1.00  0.00     0.023 A 
ATOM      9  C   UNL     1      -1.058   0.998   1.587  1.00  0.00     0.036 A 
ATOM     10  C   UNL     1      -0.603   1.461   2.824  1.00  0.00     0.042 A 
ATOM     11  C   UNL     1       0.136   3.506   1.800  1.00  0.00     0.018 A 
ATOM     12  Cl  UNL     1      -0.782   0.474   4.220  1.00  0.00    -0.084 Cl
ATOM     13  C   UNL     1      -0.002   2.709   2.935  1.00  0.00     0.021 A 
BRANCH   8  14
ATOM     14  S   UNL     1      -1.443   1.110  -1.146  1.00  0.00    -0.125 SA
BRANCH  14  15
ATOM     15  C   UNL     1      -0.675  -0.549  -1.216  1.00  0.00     0.080 C 
BRANCH  15  16
ATOM     16  C   UNL     1       0.842  -0.533  -1.472  1.00  0.00     0.022 C 
ATOM     17  C   UNL     1       1.250  -1.877  -2.090  1.00  0.00     0.011 C 
BRANCH  16  18
ATOM     18  C   UNL     1       1.698  -0.278  -0.223  1.00  0.00     0.160 C 
BRANCH  18  19
ATOM     19  O   UNL     1       1.504  -1.277   0.769  1.00  0.00    -0.396 OA
ATOM     20  H   UNL     1       0.577  -1.276   1.052  1.00  0.00     0.210 HD
ENDBRANCH  18  19
ENDBRANCH  16  18
ENDBRANCH  15  16
ENDBRANCH  14  15
ENDBRANCH   8  14
ENDBRANCH   5   7
ENDBRANCH   4   5
ENDBRANCH   3   4
ENDBRANCH   2   3
ENDBRANCH   1   2
BRANCH   1  21
ATOM     21  C   UNL     1      -3.178   5.473   0.575  1.00  0.00     0.188 C 
BRANCH  21  22
ATOM     22  C   UNL     1      -3.813   4.074   0.441  1.00  0.00     0.188 C 
BRANCH  22  23
ATOM     23  O   UNL     1      -4.381   3.833  -0.824  1.00  0.00    -0.376 OA
BRANCH  23  24
ATOM     24  C   UNL     1      -5.791   3.806  -0.942  1.00  0.00     0.202 C 
BRANCH  24  25
ATOM     25  C   UNL     1      -6.680   4.877  -0.279  1.00  0.00     0.261 C 
BRANCH  25  26
ATOM     26  O   UNL     1      -6.221   5.454   0.952  1.00  0.00    -0.460 OA
BRANCH  26  27
ATOM     27  C   UNL     1      -6.534   4.806   2.090  1.00  0.00     0.338 C 
ATOM     28  O   UNL     1      -7.153   3.749   2.194  1.00  0.00    -0.246 OA
BRANCH  27  29
ATOM     29  C   UNL     1      -5.846   5.465   3.216  1.00  0.00     0.060 A 
ATOM     30  C   UNL     1      -4.915   4.728   3.960  1.00  0.00     0.016 A 
ATOM     31  C   UNL     1      -6.135   6.789   3.559  1.00  0.00     0.016 A 
ATOM     32  C   UNL     1      -4.311   5.295   5.082  1.00  0.00     0.010 A 
ATOM     33  C   UNL     1      -5.541   7.351   4.695  1.00  0.00     0.010 A 
ATOM     34  C   UNL     1      -4.660   6.591   5.486  1.00  0.00    -0.014 A 
BRANCH  34  35
ATOM     35  C   UNL     1      -4.270   7.057   6.841  1.00  0.00     0.031 A 
ATOM     36  C   UNL     1      -5.266   6.913   7.961  1.00  0.00     0.074 A 
ATOM     37  C   UNL     1      -3.045   7.551   7.090  1.00  0.00     0.049 A 
ATOM     38  N   UNL     1      -5.153   7.231   9.226  1.00  0.00    -0.248 NA
ATOM     39  C   UNL     1      -6.570   6.332   7.602  1.00  0.00     0.031 C 
ATOM     40  C   UNL     1      -1.982   7.713   6.102  1.00  0.00     0.029 A 
ATOM     41  N   UNL     1      -2.492   8.009   8.261  1.00  0.00    -0.354 N 
ATOM     42  C   UNL     1      -6.366   6.889   9.810  1.00  0.00     0.074 A 
ATOM     43  C   UNL     1      -7.215   6.375   8.757  1.00  0.00     0.031 C 
ATOM     44  C   UNL     1      -0.903   8.241   6.707  1.00  0.00     0.029 A 
ATOM     45  C   UNL     1      -1.209   8.475   8.118  1.00  0.00     0.049 A 
ATOM     46  H   UNL     1      -2.971   8.004   9.120  1.00  0.00     0.167 HD
ATOM     47  C   UNL     1      -6.736   6.981  11.109  1.00  0.00     0.037 A 
ATOM     48  C   UNL     1      -0.384   9.038   9.024  1.00  0.00     0.037 A 
ATOM     49  C   UNL     1      -5.895   7.496  12.157  1.00  0.00     0.049 A 
ATOM     50  C   UNL     1      -0.842   9.186  10.454  1.00  0.00     0.074 A 
ATOM     51  C   UNL     1      -6.174   7.617  13.507  1.00  0.00     0.029 A 
ATOM     52  N   UNL     1      -4.611   7.984  11.969  1.00  0.00    -0.354 N 
ATOM     53  N   UNL     1      -1.976   8.827  11.005  1.00  0.00    -0.248 NA
ATOM     54  C   UNL     1       0.106   9.809  11.390  1.00  0.00     0.031 C 
ATOM     55  C   UNL     1      -5.078   8.227  14.127  1.00  0.00     0.029 A 
ATOM     56  C   UNL     1      -4.092   8.429  13.175  1.00  0.00     0.049 A 
ATOM     57  H   UNL     1      -4.137   8.009  11.106  1.00  0.00     0.167 HD
ATOM     58  C   UNL     1      -1.867   9.149  12.353  1.00  0.00     0.074 A 
ATOM     59  C   UNL     1      -0.549   9.718  12.539  1.00  0.00     0.031 C 
ATOM     60  C   UNL     1      -2.775   8.987  13.348  1.00  0.00     0.037 A 
BRANCH  47  61
ATOM     61  C   UNL     1      -8.127   6.540  11.463  1.00  0.00     0.064 A 
ATOM     62  C   UNL     1      -8.500   5.187  11.441  1.00  0.00     0.173 A 
ATOM     63  C   UNL     1      -9.093   7.480  11.850  1.00  0.00     0.173 A 
ATOM     64  F   UNL     1      -7.619   4.249  11.062  1.00  0.00    -0.203 F 
ATOM     65  C   UNL     1      -9.797   4.796  11.767  1.00  0.00     0.198 A 
ATOM     66  C   UNL     1     -10.379   7.083  12.204  1.00  0.00     0.198 A 
ATOM     67  F   UNL     1      -8.788   8.786  11.890  1.00  0.00    -0.203 F 
ATOM     68  F   UNL     1     -10.145   3.504  11.689  1.00  0.00    -0.200 F 
ATOM     69  C   UNL     1     -10.733   5.743  12.155  1.00  0.00     0.200 A 
ATOM     70  F   UNL     1     -11.279   7.998  12.591  1.00  0.00    -0.200 F 
ATOM     71  F   UNL     1     -11.978   5.365  12.473  1.00  0.00    -0.200 F 
ENDBRANCH  47  61
BRANCH  48  72
ATOM     72  C   UNL     1       0.966   9.507   8.611  1.00  0.00     0.064 A 
ATOM     73  C   UNL     1       2.127   8.875   9.078  1.00  0.00     0.173 A 
ATOM     74  C   UNL     1       1.122  10.615   7.767  1.00  0.00     0.173 A 
ATOM     75  F   UNL     1       2.031   7.828   9.911  1.00  0.00    -0.203 F 
ATOM     76  C   UNL     1       3.392   9.348   8.733  1.00  0.00     0.198 A 
ATOM     77  C   UNL     1       2.387  11.069   7.399  1.00  0.00     0.198 A 
ATOM     78  F   UNL     1       0.043  11.258   7.296  1.00  0.00    -0.203 F 
ATOM     79  F   UNL     1       4.485   8.758   9.236  1.00  0.00    -0.200 F 
ATOM     80  C   UNL     1       3.521  10.441   7.889  1.00  0.00     0.200 A 
ATOM     81  F   UNL     1       2.506  12.119   6.575  1.00  0.00    -0.200 F 
ATOM     82  F   UNL     1       4.737  10.894   7.558  1.00  0.00    -0.200 F 
ENDBRANCH  48  72
BRANCH  60  83
ATOM     83  C   UNL     1      -2.359   9.387  14.735  1.00  0.00     0.064 A 
ATOM     84  C   UNL     1      -2.182  10.731  15.098  1.00  0.00     0.173 A 
ATOM     85  C   UNL     1      -2.160   8.411  15.725  1.00  0.00     0.173 A 
ATOM     86  F   UNL     1      -2.348  11.703  14.188  1.00  0.00    -0.203 F 
ATOM     87  C   UNL     1      -1.786  11.079  16.387  1.00  0.00     0.198 A 
ATOM     88  C   UNL     1      -1.798   8.765  17.021  1.00  0.00     0.198 A 
ATOM     89  F   UNL     1      -2.325   7.111  15.436  1.00  0.00    -0.203 F 
ATOM     90  F   UNL     1      -1.567  12.366  16.694  1.00  0.00    -0.200 F 
ATOM     91  C   UNL     1      -1.601  10.098  17.349  1.00  0.00     0.200 A 
ATOM     92  F   UNL     1      -1.634   7.816  17.953  1.00  0.00    -0.200 F 
ATOM     93  F   UNL     1      -1.222  10.435  18.589  1.00  0.00    -0.200 F 
ENDBRANCH  60  83
ENDBRANCH  34  35
ENDBRANCH  27  29
ENDBRANCH  26  27
ENDBRANCH  25  26
ENDBRANCH  24  25
ENDBRANCH  23  24
ENDBRANCH  22  23
ENDBRANCH  21  22
ENDBRANCH   1  21
TORSDOF 22
