REMARK SMILES Cc1ccc(C)c(S(=O)(=O)N[C@H](CC2=c3ccccc3=NC2)C(=O)OCCOCCOCCOC(=O)c2ccc(-c3c4nc(c(-c5c(F)c(F)c(F)c(F)c5F)c5ccc([nH]5)c(-c5c(F)c(F)c(F)c(F)c5F)c5nc(c(-c6c(F)c(F)c(F)c(F)c6F)c6ccc3[nH]6)C=C5)C=C4)cc2)c1
REMARK SMILES IDX 29 1 28 2 27 3 26 4 25 5 23 6 24 7 12 8 11 9 8 11 9 12 10 13
REMARK SMILES IDX 7 14 1 15 2 16 3 17 100 18 4 19 5 20 6 21 13 22 14 23 15 24
REMARK SMILES IDX 22 25 16 26 20 27 21 28 17 29 19 30 18 31 30 32 31 33 32 34
REMARK SMILES IDX 33 35 34 36 35 37 36 38 37 39 38 40 99 41 39 42 98 43 40 44
REMARK SMILES IDX 41 45 42 46 92 47 43 48 97 49 91 50 93 51 44 52 96 53 90 54
REMARK SMILES IDX 89 55 45 57 77 58 57 59 76 60 58 61 61 62 75 63 94 64 59 65
REMARK SMILES IDX 60 66 74 68 95 69 62 70 46 71 47 72 55 73 48 74 49 75 53 76
REMARK SMILES IDX 56 77 50 78 51 79 54 80 52 81 78 82 79 83 87 84 80 85 81 86
REMARK SMILES IDX 85 87 88 88 82 89 83 90 86 91 84 92 63 93 64 94 72 95 65 96
REMARK SMILES IDX 66 97 70 98 73 99 67 100 68 101 71 102 69 103
REMARK H PARENT 11 10 93 56 61 67
REMARK Flexibility Score: inf
ROOT
ATOM      1  C   UNL     1       4.867   6.260   0.895  1.00  0.00     0.188 C 
ENDROOT
BRANCH   1   2
ATOM      2  O   UNL     1       5.819   6.705  -0.057  1.00  0.00    -0.376 OA
BRANCH   2   3
ATOM      3  C   UNL     1       5.308   7.455  -1.150  1.00  0.00     0.202 C 
BRANCH   3   4
ATOM      4  C   UNL     1       4.248   6.813  -2.109  1.00  0.00     0.261 C 
BRANCH   4   5
ATOM      5  O   UNL     1       3.804   5.421  -1.800  1.00  0.00    -0.462 OA
BRANCH   5   6
ATOM      6  C   UNL     1       2.965   4.582  -2.530  1.00  0.00     0.324 C 
ATOM      7  O   UNL     1       3.485   3.838  -3.364  1.00  0.00    -0.250 OA
BRANCH   6   8
ATOM      8  C   UNL     1       1.425   4.224  -1.975  1.00  0.00     0.183 C 
BRANCH   8   9
ATOM      9  N   UNL     1       0.380   3.995  -3.056  1.00  0.00    -0.197 NA
ATOM     10  H   UNL     1      -0.515   4.146  -2.591  1.00  0.00     0.142 HD
BRANCH   9  11
ATOM     11  S   UNL     1       0.157   2.613  -3.977  1.00  0.00     0.241 S 
ATOM     12  O   UNL     1       1.417   2.351  -4.628  1.00  0.00    -0.207 OA
ATOM     13  O   UNL     1      -1.040   2.876  -4.754  1.00  0.00    -0.207 OA
BRANCH  11  14
ATOM     14  C   UNL     1      -0.261   1.163  -2.981  1.00  0.00     0.085 A 
ATOM     15  C   UNL     1      -1.605   0.175   0.493  1.00  0.00     0.044 C 
ATOM     16  C   UNL     1      -1.058   0.121  -0.907  1.00  0.00    -0.050 A 
ATOM     17  C   UNL     1      -0.771  -1.143  -1.431  1.00  0.00     0.004 A 
ATOM     18  C   UNL     1      -0.823   1.274  -1.694  1.00  0.00     0.025 A 
ATOM     19  C   UNL     1      -0.285  -1.266  -2.725  1.00  0.00     0.005 A 
ATOM     20  C   UNL     1      -0.045  -0.131  -3.523  1.00  0.00    -0.031 A 
ATOM     21  C   UNL     1       0.411  -0.423  -4.929  1.00  0.00     0.046 C 
ENDBRANCH  11  14
ENDBRANCH   9  11
ENDBRANCH   8   9
BRANCH   8  22
ATOM     22  C   UNL     1       0.347   4.832  -0.582  1.00  0.00     0.065 C 
BRANCH  22  23
ATOM     23  C   UNL     1       0.340   6.223   1.117  1.00  0.00    -0.037 C 
ATOM     24  C   UNL     1       0.114   6.122   2.580  1.00  0.00     0.001 A 
ATOM     25  C   UNL     1      -0.199   7.896   1.122  1.00  0.00     0.174 C 
ATOM     26  C   UNL     1      -0.087   5.032   3.608  1.00  0.00     0.010 A 
ATOM     27  C   UNL     1      -0.027   7.449   3.211  1.00  0.00     0.065 A 
ATOM     28  N   UNL     1      -0.268   8.460   2.467  1.00  0.00    -0.280 NA
ATOM     29  C   UNL     1       0.207   5.213   4.904  1.00  0.00     0.001 A 
ATOM     30  C   UNL     1       0.239   7.602   4.661  1.00  0.00     0.028 A 
ATOM     31  C   UNL     1       0.480   6.522   5.412  1.00  0.00     0.002 A 
ENDBRANCH  22  23
ENDBRANCH   8  22
ENDBRANCH   6   8
ENDBRANCH   5   6
ENDBRANCH   4   5
ENDBRANCH   3   4
ENDBRANCH   2   3
ENDBRANCH   1   2
BRANCH   1  32
ATOM     32  C   UNL     1       3.674   7.192   1.067  1.00  0.00     0.188 C 
BRANCH  32  33
ATOM     33  O   UNL     1       3.929   8.311   1.867  1.00  0.00    -0.376 OA
BRANCH  33  34
ATOM     34  C   UNL     1       3.130   8.165   3.041  1.00  0.00     0.202 C 
BRANCH  34  35
ATOM     35  C   UNL     1       3.308   6.748   3.723  1.00  0.00     0.261 C 
BRANCH  35  36
ATOM     36  O   UNL     1       2.726   5.284   3.189  1.00  0.00    -0.460 OA
BRANCH  36  37
ATOM     37  C   UNL     1       2.097   4.176   2.594  1.00  0.00     0.338 C 
ATOM     38  O   UNL     1       2.401   3.052   2.987  1.00  0.00    -0.246 OA
BRANCH  37  39
ATOM     39  C   UNL     1       1.054   4.223   1.317  1.00  0.00     0.060 A 
ATOM     40  C   UNL     1      -0.788   4.523   1.050  1.00  0.00     0.016 A 
ATOM     41  C   UNL     1       2.132   5.113   0.337  1.00  0.00     0.016 A 
ATOM     42  C   UNL     1      -1.311   5.921  -0.082  1.00  0.00     0.010 A 
ATOM     43  C   UNL     1       1.598   6.433  -0.716  1.00  0.00     0.010 A 
ATOM     44  C   UNL     1       0.011   6.909  -0.941  1.00  0.00    -0.014 A 
BRANCH  44  45
ATOM     45  C   UNL     1       0.219   8.245  -1.928  1.00  0.00     0.031 A 
ATOM     46  C   UNL     1      -0.874   7.945  -2.806  1.00  0.00     0.074 A 
ATOM     47  C   UNL     1       1.174   9.286  -2.246  1.00  0.00     0.049 A 
ATOM     48  N   UNL     1      -0.737   7.018  -3.696  1.00  0.00    -0.248 NA
ATOM     49  C   UNL     1      -2.251   8.192  -2.369  1.00  0.00     0.031 C 
ATOM     50  C   UNL     1       2.330   9.837  -1.464  1.00  0.00     0.029 A 
ATOM     51  N   UNL     1       1.370  10.122  -3.446  1.00  0.00    -0.354 N 
ATOM     52  C   UNL     1      -1.973   7.011  -4.283  1.00  0.00     0.074 A 
ATOM     53  C   UNL     1      -2.896   7.417  -3.248  1.00  0.00     0.031 C 
ATOM     54  C   UNL     1       2.930  10.922  -2.041  1.00  0.00     0.029 A 
ATOM     55  C   UNL     1       2.327  11.244  -3.319  1.00  0.00     0.049 A 
ATOM     56  H   UNL     1       0.890   9.943  -4.286  1.00  0.00     0.167 HD
ATOM     57  C   UNL     1      -1.965   7.317  -5.604  1.00  0.00     0.037 A 
ATOM     58  C   UNL     1       2.747  12.256  -4.202  1.00  0.00     0.037 A 
ATOM     59  C   UNL     1      -0.671   7.051  -6.198  1.00  0.00     0.049 A 
ATOM     60  C   UNL     1       2.508  11.793  -5.575  1.00  0.00     0.074 A 
ATOM     61  C   UNL     1       0.106   5.923  -6.396  1.00  0.00     0.029 A 
ATOM     62  N   UNL     1       0.203   8.105  -6.162  1.00  0.00    -0.354 N 
ATOM     63  N   UNL     1       3.243  10.900  -6.163  1.00  0.00    -0.248 NA
ATOM     64  C   UNL     1       1.163  11.985  -6.074  1.00  0.00     0.031 C 
ATOM     65  C   UNL     1       1.457   6.352  -6.509  1.00  0.00     0.029 A 
ATOM     66  C   UNL     1       1.469   7.738  -6.526  1.00  0.00     0.049 A 
ATOM     67  H   UNL     1      -0.052   9.021  -5.905  1.00  0.00     0.167 HD
ATOM     68  C   UNL     1       2.287  10.047  -6.662  1.00  0.00     0.074 A 
ATOM     69  C   UNL     1       1.032  10.801  -6.667  1.00  0.00     0.031 C 
ATOM     70  C   UNL     1       2.520   8.709  -6.649  1.00  0.00     0.037 A 
BRANCH  57  71
ATOM     71  C   UNL     1      -2.921   8.334  -6.139  1.00  0.00     0.064 A 
ATOM     72  C   UNL     1      -3.296   8.278  -7.479  1.00  0.00     0.173 A 
ATOM     73  C   UNL     1      -3.356   9.473  -5.418  1.00  0.00     0.173 A 
ATOM     74  F   UNL     1      -2.824   7.304  -8.269  1.00  0.00    -0.203 F 
ATOM     75  C   UNL     1      -4.123   9.254  -8.037  1.00  0.00     0.198 A 
ATOM     76  C   UNL     1      -4.247  10.394  -5.945  1.00  0.00     0.198 A 
ATOM     77  F   UNL     1      -2.848   9.796  -4.224  1.00  0.00    -0.203 F 
ATOM     78  F   UNL     1      -4.411   9.207  -9.343  1.00  0.00    -0.200 F 
ATOM     79  C   UNL     1      -4.627  10.289  -7.262  1.00  0.00     0.200 A 
ATOM     80  F   UNL     1      -4.679  11.408  -5.181  1.00  0.00    -0.200 F 
ATOM     81  F   UNL     1      -5.430  11.215  -7.797  1.00  0.00    -0.200 F 
ENDBRANCH  57  71
BRANCH  58  82
ATOM     82  C   UNL     1       3.108  13.758  -4.085  1.00  0.00     0.064 A 
ATOM     83  C   UNL     1       3.367  14.618  -5.211  1.00  0.00     0.173 A 
ATOM     84  C   UNL     1       2.821  14.448  -2.905  1.00  0.00     0.173 A 
ATOM     85  F   UNL     1       3.707  14.109  -6.407  1.00  0.00    -0.203 F 
ATOM     86  C   UNL     1       3.207  16.024  -5.162  1.00  0.00     0.198 A 
ATOM     87  C   UNL     1       2.642  15.845  -2.863  1.00  0.00     0.198 A 
ATOM     88  F   UNL     1       2.629  13.766  -1.772  1.00  0.00    -0.203 F 
ATOM     89  F   UNL     1       3.376  16.779  -6.263  1.00  0.00    -0.200 F 
ATOM     90  C   UNL     1       2.796  16.629  -3.993  1.00  0.00     0.200 A 
ATOM     91  F   UNL     1       2.241  16.418  -1.720  1.00  0.00    -0.200 F 
ATOM     92  F   UNL     1       2.518  17.942  -3.957  1.00  0.00    -0.200 F 
ENDBRANCH  58  82
BRANCH  70  93
ATOM     93  C   UNL     1       3.934   8.232  -6.759  1.00  0.00     0.064 A 
ATOM     94  C   UNL     1       4.912   8.323  -5.758  1.00  0.00     0.173 A 
ATOM     95  C   UNL     1       4.267   7.541  -7.934  1.00  0.00     0.173 A 
ATOM     96  F   UNL     1       4.653   8.941  -4.594  1.00  0.00    -0.203 F 
ATOM     97  C   UNL     1       6.163   7.721  -5.929  1.00  0.00     0.198 A 
ATOM     98  C   UNL     1       5.501   6.926  -8.092  1.00  0.00     0.198 A 
ATOM     99  F   UNL     1       3.361   7.428  -8.919  1.00  0.00    -0.203 F 
ATOM    100  F   UNL     1       7.080   7.792  -4.952  1.00  0.00    -0.200 F 
ATOM    101  C   UNL     1       6.451   7.014  -7.090  1.00  0.00     0.200 A 
ATOM    102  F   UNL     1       5.756   6.226  -9.206  1.00  0.00    -0.200 F 
ATOM    103  F   UNL     1       7.637   6.408  -7.238  1.00  0.00    -0.200 F 
ENDBRANCH  70  93
ENDBRANCH  44  45
ENDBRANCH  37  39
ENDBRANCH  36  37
ENDBRANCH  35  36
ENDBRANCH  34  35
ENDBRANCH  33  34
ENDBRANCH  32  33
ENDBRANCH   1  32
TORSDOF 22
