REMARK SMILES Nc1cc(F)c(OCc2ccc(C(=O)OCCOCCOCCOC(=O)c3ccc(-c4c5nc(c(-c6c(F)c(F)c(F)c(F)c6F)c6ccc([nH]6)c(-c6c(F)c(F)c(F)c(F)c6F)c6nc(c(-c7c(F)c(F)c(F)c(F)c7F)c7ccc4[nH]7)C=C6)C=C5)cc3)cc2)cc1F
REMARK SMILES IDX 19 1 18 2 17 3 16 4 15 5 13 6 14 7 12 8 9 9 10 10 91 11
REMARK SMILES IDX 11 12 90 13 8 14 7 15 6 16 2 17 3 18 93 19 4 20 92 21 94 22
REMARK SMILES IDX 5 23 1 24 20 27 21 28 22 29 23 30 24 31 25 32 26 33 27 34
REMARK SMILES IDX 28 35 89 36 29 37 88 38 30 39 31 40 32 41 82 42 33 43 87 44
REMARK SMILES IDX 81 45 83 46 34 47 86 48 80 49 79 50 35 52 67 53 47 54 66 55
REMARK SMILES IDX 48 56 51 57 65 58 84 59 49 60 50 61 64 63 85 64 52 65 36 66
REMARK SMILES IDX 37 67 45 68 38 69 39 70 43 71 46 72 40 73 41 74 44 75 42 76
REMARK SMILES IDX 68 77 69 78 77 79 70 80 71 81 75 82 78 83 72 84 73 85 76 86
REMARK SMILES IDX 74 87 53 88 54 89 62 90 55 91 56 92 60 93 63 94 57 95 58 96
REMARK SMILES IDX 61 97 59 98
REMARK H PARENT 1 25 1 26 83 51 51 62
REMARK Flexibility Score: inf
ROOT
ATOM      1  C   UNL     1      -7.539  -0.739   0.212  1.00  0.00     0.188 C 
ENDROOT
BRANCH   1   2
ATOM      2  O   UNL     1      -8.528   0.262   0.091  1.00  0.00    -0.376 OA
BRANCH   2   3
ATOM      3  C   UNL     1      -8.497   1.408   0.926  1.00  0.00     0.202 C 
BRANCH   3   4
ATOM      4  C   UNL     1      -8.180   1.327   2.425  1.00  0.00     0.261 C 
BRANCH   4   5
ATOM      5  O   UNL     1      -7.042   0.525   2.762  1.00  0.00    -0.460 OA
BRANCH   5   6
ATOM      6  C   UNL     1      -7.309  -0.572   3.517  1.00  0.00     0.338 C 
ATOM      7  O   UNL     1      -8.394  -0.923   3.947  1.00  0.00    -0.246 OA
BRANCH   6   8
ATOM      8  C   UNL     1      -6.110  -1.434   3.563  1.00  0.00     0.060 A 
ATOM      9  C   UNL     1      -3.873  -3.133   3.479  1.00  0.00    -0.011 A 
ATOM     10  C   UNL     1      -5.159  -3.635   3.225  1.00  0.00     0.008 A 
ATOM     11  C   UNL     1      -3.734  -1.773   3.805  1.00  0.00     0.008 A 
ATOM     12  C   UNL     1      -6.272  -2.795   3.281  1.00  0.00     0.016 A 
ATOM     13  C   UNL     1      -4.841  -0.919   3.824  1.00  0.00     0.016 A 
BRANCH   9  14
ATOM     14  C   UNL     1      -2.696  -4.090   3.402  1.00  0.00     0.265 C 
BRANCH  14  15
ATOM     15  O   UNL     1      -1.410  -3.509   3.621  1.00  0.00    -0.486 OA
BRANCH  15  16
ATOM     16  C   UNL     1      -0.843  -2.745   2.638  1.00  0.00     0.158 A 
ATOM     17  C   UNL     1       0.439  -0.957   0.864  1.00  0.00     0.071 A 
ATOM     18  C   UNL     1       0.940  -1.152   2.149  1.00  0.00     0.071 A 
ATOM     19  C   UNL     1      -0.710  -1.670   0.490  1.00  0.00     0.149 A 
ATOM     20  C   UNL     1       0.309  -2.044   3.014  1.00  0.00     0.167 A 
ATOM     21  C   UNL     1      -1.344  -2.566   1.351  1.00  0.00     0.091 A 
ATOM     22  F   UNL     1      -1.230  -1.483  -0.734  1.00  0.00    -0.205 F 
ATOM     23  F   UNL     1       0.806  -2.191   4.252  1.00  0.00    -0.203 F 
BRANCH  17  24
ATOM     24  N   UNL     1       0.994  -0.000   0.027  1.00  0.00    -0.396 N 
ATOM     25  H   UNL     1       1.801   0.490   0.306  1.00  0.00     0.156 HD
ATOM     26  H   UNL     1       0.581   0.189  -0.846  1.00  0.00     0.156 HD
ENDBRANCH  17  24
ENDBRANCH  15  16
ENDBRANCH  14  15
ENDBRANCH   9  14
ENDBRANCH   6   8
ENDBRANCH   5   6
ENDBRANCH   4   5
ENDBRANCH   3   4
ENDBRANCH   2   3
ENDBRANCH   1   2
BRANCH   1  27
ATOM     27  C   UNL     1      -6.040  -0.414   0.036  1.00  0.00     0.188 C 
BRANCH  27  28
ATOM     28  O   UNL     1      -5.611   0.914  -0.157  1.00  0.00    -0.376 OA
BRANCH  28  29
ATOM     29  C   UNL     1      -5.933   1.621  -1.343  1.00  0.00     0.202 C 
BRANCH  29  30
ATOM     30  C   UNL     1      -6.141   0.960  -2.714  1.00  0.00     0.261 C 
BRANCH  30  31
ATOM     31  O   UNL     1      -6.829  -0.292  -2.716  1.00  0.00    -0.460 OA
BRANCH  31  32
ATOM     32  C   UNL     1      -6.083  -1.355  -3.124  1.00  0.00     0.338 C 
ATOM     33  O   UNL     1      -4.920  -1.365  -3.455  1.00  0.00    -0.246 OA
BRANCH  32  34
ATOM     34  C   UNL     1      -6.884  -2.579  -2.940  1.00  0.00     0.060 A 
ATOM     35  C   UNL     1      -8.067  -2.764  -3.655  1.00  0.00     0.016 A 
ATOM     36  C   UNL     1      -6.425  -3.556  -2.047  1.00  0.00     0.016 A 
ATOM     37  C   UNL     1      -8.789  -3.946  -3.483  1.00  0.00     0.010 A 
ATOM     38  C   UNL     1      -7.156  -4.731  -1.867  1.00  0.00     0.010 A 
ATOM     39  C   UNL     1      -8.333  -4.941  -2.599  1.00  0.00    -0.014 A 
BRANCH  39  40
ATOM     40  C   UNL     1      -9.015  -6.257  -2.564  1.00  0.00     0.031 A 
ATOM     41  C   UNL     1      -9.966  -6.627  -1.468  1.00  0.00     0.074 A 
ATOM     42  C   UNL     1      -8.762  -7.124  -3.562  1.00  0.00     0.049 A 
ATOM     43  N   UNL     1     -10.710  -7.699  -1.357  1.00  0.00    -0.248 NA
ATOM     44  C   UNL     1     -10.098  -5.682  -0.351  1.00  0.00     0.031 C 
ATOM     45  C   UNL     1      -7.826  -6.882  -4.661  1.00  0.00     0.029 A 
ATOM     46  N   UNL     1      -9.272  -8.370  -3.824  1.00  0.00    -0.354 N 
ATOM     47  C   UNL     1     -11.421  -7.548  -0.175  1.00  0.00     0.074 A 
ATOM     48  C   UNL     1     -10.980  -6.304   0.423  1.00  0.00     0.031 C 
ATOM     49  C   UNL     1      -7.851  -7.931  -5.496  1.00  0.00     0.029 A 
ATOM     50  C   UNL     1      -8.787  -8.928  -4.980  1.00  0.00     0.049 A 
ATOM     51  H   UNL     1      -9.923  -8.820  -3.238  1.00  0.00     0.167 HD
ATOM     52  C   UNL     1     -12.370  -8.365   0.343  1.00  0.00     0.037 A 
ATOM     53  C   UNL     1      -9.070 -10.105  -5.567  1.00  0.00     0.037 A 
ATOM     54  C   UNL     1     -12.796  -9.606  -0.257  1.00  0.00     0.049 A 
ATOM     55  C   UNL     1     -10.097 -11.010  -4.944  1.00  0.00     0.074 A 
ATOM     56  C   UNL     1     -13.782 -10.477   0.177  1.00  0.00     0.029 A 
ATOM     57  N   UNL     1     -12.256 -10.160  -1.408  1.00  0.00    -0.354 N 
ATOM     58  N   UNL     1     -10.825 -10.818  -3.872  1.00  0.00    -0.248 NA
ATOM     59  C   UNL     1     -10.347 -12.292  -5.617  1.00  0.00     0.031 C 
ATOM     60  C   UNL     1     -13.800 -11.582  -0.679  1.00  0.00     0.029 A 
ATOM     61  C   UNL     1     -12.866 -11.376  -1.679  1.00  0.00     0.049 A 
ATOM     62  H   UNL     1     -11.545  -9.751  -1.952  1.00  0.00     0.167 HD
ATOM     63  C   UNL     1     -11.633 -11.940  -3.754  1.00  0.00     0.074 A 
ATOM     64  C   UNL     1     -11.321 -12.800  -4.875  1.00  0.00     0.031 C 
ATOM     65  C   UNL     1     -12.549 -12.229  -2.798  1.00  0.00     0.037 A 
BRANCH  52  66
ATOM     66  C   UNL     1     -13.044  -7.947   1.617  1.00  0.00     0.064 A 
ATOM     67  C   UNL     1     -13.975  -6.898   1.636  1.00  0.00     0.173 A 
ATOM     68  C   UNL     1     -12.853  -8.676   2.801  1.00  0.00     0.173 A 
ATOM     69  F   UNL     1     -14.195  -6.171   0.530  1.00  0.00    -0.203 F 
ATOM     70  C   UNL     1     -14.685  -6.590   2.794  1.00  0.00     0.198 A 
ATOM     71  C   UNL     1     -13.583  -8.382   3.950  1.00  0.00     0.198 A 
ATOM     72  F   UNL     1     -11.985  -9.698   2.833  1.00  0.00    -0.203 F 
ATOM     73  F   UNL     1     -15.559  -5.574   2.792  1.00  0.00    -0.200 F 
ATOM     74  C   UNL     1     -14.498  -7.339   3.946  1.00  0.00     0.200 A 
ATOM     75  F   UNL     1     -13.416  -9.120   5.056  1.00  0.00    -0.200 F 
ATOM     76  F   UNL     1     -15.203  -7.060   5.051  1.00  0.00    -0.200 F 
ENDBRANCH  52  66
BRANCH  53  77
ATOM     77  C   UNL     1      -8.395 -10.473  -6.838  1.00  0.00     0.064 A 
ATOM     78  C   UNL     1      -9.109 -10.528  -8.042  1.00  0.00     0.173 A 
ATOM     79  C   UNL     1      -7.022 -10.758  -6.877  1.00  0.00     0.173 A 
ATOM     80  F   UNL     1     -10.427 -10.280  -8.051  1.00  0.00    -0.203 F 
ATOM     81  C   UNL     1      -8.478 -10.868  -9.236  1.00  0.00     0.198 A 
ATOM     82  C   UNL     1      -6.387 -11.069  -8.077  1.00  0.00     0.198 A 
ATOM     83  F   UNL     1      -6.294 -10.713  -5.752  1.00  0.00    -0.203 F 
ATOM     84  F   UNL     1      -9.192 -10.952 -10.367  1.00  0.00    -0.200 F 
ATOM     85  C   UNL     1      -7.117 -11.130  -9.254  1.00  0.00     0.200 A 
ATOM     86  F   UNL     1      -5.068 -11.305  -8.092  1.00  0.00    -0.200 F 
ATOM     87  F   UNL     1      -6.509 -11.448 -10.405  1.00  0.00    -0.200 F 
ENDBRANCH  53  77
BRANCH  65  88
ATOM     88  C   UNL     1     -13.293 -13.529  -2.918  1.00  0.00     0.064 A 
ATOM     89  C   UNL     1     -12.662 -14.758  -2.677  1.00  0.00     0.173 A 
ATOM     90  C   UNL     1     -14.665 -13.542  -3.210  1.00  0.00     0.173 A 
ATOM     91  F   UNL     1     -11.348 -14.802  -2.408  1.00  0.00    -0.203 F 
ATOM     92  C   UNL     1     -13.374 -15.954  -2.741  1.00  0.00     0.198 A 
ATOM     93  C   UNL     1     -15.381 -14.736  -3.242  1.00  0.00     0.198 A 
ATOM     94  F   UNL     1     -15.319 -12.393  -3.442  1.00  0.00    -0.203 F 
ATOM     95  F   UNL     1     -12.742 -17.119  -2.545  1.00  0.00    -0.200 F 
ATOM     96  C   UNL     1     -14.734 -15.941  -3.012  1.00  0.00     0.200 A 
ATOM     97  F   UNL     1     -16.698 -14.720  -3.489  1.00  0.00    -0.200 F 
ATOM     98  F   UNL     1     -15.421 -17.091  -3.055  1.00  0.00    -0.200 F 
ENDBRANCH  65  88
ENDBRANCH  39  40
ENDBRANCH  32  34
ENDBRANCH  31  32
ENDBRANCH  30  31
ENDBRANCH  29  30
ENDBRANCH  28  29
ENDBRANCH  27  28
ENDBRANCH   1  27
TORSDOF 21
