REMARK SMILES CC[C@H]1CC[C@](NC(=O)C[NH2+]CC(F)(F)F)(C(=O)OCCOCCOCCOC(=O)c2ccc(-c3c4nc(c(-c5c(F)c(F)c(F)c(F)c5F)c5ccc([nH]5)c(-c5c(F)c(F)c(F)c(F)c5F)c5nc(c(-c6c(F)c(F)c(F)c(F)c6F)c6ccc3[nH]6)C=C5)C=C4)cc2)CC1
REMARK SMILES IDX 22 1 21 2 20 3 19 4 17 5 18 6 6 7 3 8 95 9 4 10 94 11 5 12
REMARK SMILES IDX 2 13 1 14 7 15 8 16 9 18 10 19 11 20 12 23 13 24 14 25 15 26
REMARK SMILES IDX 16 27 23 28 24 29 25 30 26 31 27 32 28 33 29 34 30 35 31 36
REMARK SMILES IDX 32 37 93 38 33 39 92 40 34 41 35 42 36 43 86 44 37 45 91 46
REMARK SMILES IDX 85 47 87 48 38 49 90 50 84 51 83 52 39 54 71 55 51 56 70 57
REMARK SMILES IDX 52 58 55 59 69 60 88 61 53 62 54 63 68 65 89 66 56 67 40 68
REMARK SMILES IDX 41 69 49 70 42 71 43 72 47 73 50 74 44 75 45 76 48 77 46 78
REMARK SMILES IDX 72 79 73 80 81 81 74 82 75 83 79 84 82 85 76 86 77 87 80 88
REMARK SMILES IDX 78 89 57 90 58 91 66 92 59 93 60 94 64 95 67 96 61 97 62 98
REMARK SMILES IDX 65 99 63 100
REMARK H PARENT 7 17 11 21 11 22 87 53 55 64
REMARK Flexibility Score: inf
ROOT
ATOM      1  O   UNL     1       1.774   7.766  -4.162  1.00  0.00    -0.376 OA
ENDROOT
BRANCH   1   2
ATOM      2  C   UNL     1       3.033   8.248  -3.732  1.00  0.00     0.202 C 
BRANCH   2   3
ATOM      3  C   UNL     1       3.404   8.115  -2.248  1.00  0.00     0.261 C 
BRANCH   3   4
ATOM      4  O   UNL     1       3.222   6.856  -1.550  1.00  0.00    -0.461 OA
BRANCH   4   5
ATOM      5  C   UNL     1       2.203   6.820  -0.647  1.00  0.00     0.331 C 
ATOM      6  O   UNL     1       1.414   7.750  -0.491  1.00  0.00    -0.249 OA
BRANCH   5   7
ATOM      7  C   UNL     1       2.159   5.538   0.240  1.00  0.00     0.138 C 
ATOM      8  C   UNL     1       1.070   2.650   0.110  1.00  0.00    -0.011 C 
ATOM      9  C   UNL     1       0.254   3.789   0.719  1.00  0.00     0.006 C 
ATOM     10  C   UNL     1       2.559   2.941   0.363  1.00  0.00     0.006 C 
ATOM     11  C   UNL     1       0.649   5.139   0.139  1.00  0.00     0.041 C 
ATOM     12  C   UNL     1       3.027   4.322  -0.178  1.00  0.00     0.041 C 
BRANCH   8  13
ATOM     13  C   UNL     1       0.569   1.312   0.706  1.00  0.00    -0.000 C 
ATOM     14  C   UNL     1       1.070   0.063  -0.005  1.00  0.00     0.004 C 
ENDBRANCH   8  13
BRANCH   7  15
ATOM     15  N   UNL     1       2.482   5.912   1.647  1.00  0.00    -0.335 N 
ATOM     16  C   UNL     1       3.494   6.677   2.176  1.00  0.00     0.276 C 
ATOM     17  H   UNL     1       1.859   5.545   2.316  1.00  0.00     0.164 HD
ATOM     18  O   UNL     1       3.941   6.313   3.268  1.00  0.00    -0.268 OA
BRANCH  16  19
ATOM     19  C   UNL     1       3.977   7.998   1.526  1.00  0.00     0.362 C 
BRANCH  19  20
ATOM     20  N   UNL     1       5.226   7.821   0.759  1.00  0.00    -0.331 N 
ATOM     21  H   UNL     1       5.111   7.036   0.118  1.00  0.00     0.346 HD
ATOM     22  H   UNL     1       5.982   7.646   1.421  1.00  0.00     0.346 HD
BRANCH  20  23
ATOM     23  C   UNL     1       5.573   9.040  -0.028  1.00  0.00     0.378 C 
BRANCH  23  24
ATOM     24  C   UNL     1       6.268  10.283   0.554  1.00  0.00     0.438 C 
ATOM     25  F   UNL     1       7.474  10.004   1.082  1.00  0.00    -0.165 F 
ATOM     26  F   UNL     1       6.466  11.179  -0.451  1.00  0.00    -0.165 F 
ATOM     27  F   UNL     1       5.509  10.895   1.484  1.00  0.00    -0.165 F 
ENDBRANCH  23  24
ENDBRANCH  20  23
ENDBRANCH  19  20
ENDBRANCH  16  19
ENDBRANCH   7  15
ENDBRANCH   5   7
ENDBRANCH   4   5
ENDBRANCH   3   4
ENDBRANCH   2   3
ENDBRANCH   1   2
BRANCH   1  28
ATOM     28  C   UNL     1       1.417   6.466  -3.737  1.00  0.00     0.188 C 
BRANCH  28  29
ATOM     29  C   UNL     1       2.465   5.347  -3.821  1.00  0.00     0.188 C 
BRANCH  29  30
ATOM     30  O   UNL     1       3.817   5.726  -3.994  1.00  0.00    -0.376 OA
BRANCH  30  31
ATOM     31  C   UNL     1       4.575   4.943  -4.918  1.00  0.00     0.202 C 
BRANCH  31  32
ATOM     32  C   UNL     1       4.191   5.105  -6.408  1.00  0.00     0.261 C 
BRANCH  32  33
ATOM     33  O   UNL     1       2.811   4.840  -6.752  1.00  0.00    -0.460 OA
BRANCH  33  34
ATOM     34  C   UNL     1       2.319   3.592  -6.511  1.00  0.00     0.338 C 
ATOM     35  O   UNL     1       2.963   2.613  -6.206  1.00  0.00    -0.246 OA
BRANCH  34  36
ATOM     36  C   UNL     1       0.839   3.737  -6.294  1.00  0.00     0.060 A 
ATOM     37  C   UNL     1       0.278   3.157  -5.138  1.00  0.00     0.016 A 
ATOM     38  C   UNL     1       0.054   4.569  -7.093  1.00  0.00     0.016 A 
ATOM     39  C   UNL     1      -1.063   3.382  -4.803  1.00  0.00     0.010 A 
ATOM     40  C   UNL     1      -1.300   4.762  -6.781  1.00  0.00     0.010 A 
ATOM     41  C   UNL     1      -1.876   4.141  -5.655  1.00  0.00    -0.014 A 
BRANCH  41  42
ATOM     42  C   UNL     1      -3.357   4.016  -5.564  1.00  0.00     0.031 A 
ATOM     43  C   UNL     1      -3.996   2.942  -6.409  1.00  0.00     0.074 A 
ATOM     44  C   UNL     1      -4.128   4.786  -4.773  1.00  0.00     0.049 A 
ATOM     45  N   UNL     1      -5.260   2.661  -6.597  1.00  0.00    -0.248 NA
ATOM     46  C   UNL     1      -3.070   2.065  -7.146  1.00  0.00     0.031 C 
ATOM     47  C   UNL     1      -3.652   5.825  -3.865  1.00  0.00     0.029 A 
ATOM     48  N   UNL     1      -5.497   4.812  -4.626  1.00  0.00    -0.354 N 
ATOM     49  C   UNL     1      -5.275   1.578  -7.466  1.00  0.00     0.074 A 
ATOM     50  C   UNL     1      -3.903   1.276  -7.802  1.00  0.00     0.031 C 
ATOM     51  C   UNL     1      -4.714   6.407  -3.275  1.00  0.00     0.029 A 
ATOM     52  C   UNL     1      -5.947   5.806  -3.788  1.00  0.00     0.049 A 
ATOM     53  H   UNL     1      -6.099   4.178  -5.079  1.00  0.00     0.167 HD
ATOM     54  C   UNL     1      -6.335   0.883  -7.938  1.00  0.00     0.037 A 
ATOM     55  C   UNL     1      -7.206   6.200  -3.499  1.00  0.00     0.037 A 
ATOM     56  C   UNL     1      -7.705   1.187  -7.631  1.00  0.00     0.049 A 
ATOM     57  C   UNL     1      -8.380   5.474  -4.122  1.00  0.00     0.074 A 
ATOM     58  C   UNL     1      -8.850   0.554  -8.083  1.00  0.00     0.029 A 
ATOM     59  N   UNL     1      -8.116   2.217  -6.800  1.00  0.00    -0.354 N 
ATOM     60  N   UNL     1      -8.387   4.445  -4.934  1.00  0.00    -0.248 NA
ATOM     61  C   UNL     1      -9.726   5.967  -3.782  1.00  0.00     0.031 C 
ATOM     62  C   UNL     1      -9.956   1.232  -7.564  1.00  0.00     0.029 A 
ATOM     63  C   UNL     1      -9.499   2.247  -6.738  1.00  0.00     0.049 A 
ATOM     64  H   UNL     1      -7.514   2.834  -6.325  1.00  0.00     0.167 HD
ATOM     65  C   UNL     1      -9.726   4.148  -5.170  1.00  0.00     0.074 A 
ATOM     66  C   UNL     1     -10.505   5.095  -4.403  1.00  0.00     0.031 C 
ATOM     67  C   UNL     1     -10.264   3.179  -5.952  1.00  0.00     0.037 A 
BRANCH  54  68
ATOM     68  C   UNL     1      -6.049  -0.269  -8.855  1.00  0.00     0.064 A 
ATOM     69  C   UNL     1      -5.462  -1.453  -8.384  1.00  0.00     0.173 A 
ATOM     70  C   UNL     1      -6.391  -0.199 -10.213  1.00  0.00     0.173 A 
ATOM     71  F   UNL     1      -5.094  -1.559  -7.098  1.00  0.00    -0.203 F 
ATOM     72  C   UNL     1      -5.211  -2.518  -9.243  1.00  0.00     0.198 A 
ATOM     73  C   UNL     1      -6.168  -1.278 -11.063  1.00  0.00     0.198 A 
ATOM     74  F   UNL     1      -6.951   0.913 -10.714  1.00  0.00    -0.203 F 
ATOM     75  F   UNL     1      -4.606  -3.621  -8.781  1.00  0.00    -0.200 F 
ATOM     76  C   UNL     1      -5.573  -2.434 -10.579  1.00  0.00     0.200 A 
ATOM     77  F   UNL     1      -6.529  -1.200 -12.351  1.00  0.00    -0.200 F 
ATOM     78  F   UNL     1      -5.342  -3.465 -11.403  1.00  0.00    -0.200 F 
ENDBRANCH  54  68
BRANCH  55  79
ATOM     79  C   UNL     1      -7.448   7.372  -2.608  1.00  0.00     0.064 A 
ATOM     80  C   UNL     1      -8.110   7.233  -1.379  1.00  0.00     0.173 A 
ATOM     81  C   UNL     1      -7.095   8.671  -3.008  1.00  0.00     0.173 A 
ATOM     82  F   UNL     1      -8.504   6.019  -0.965  1.00  0.00    -0.203 F 
ATOM     83  C   UNL     1      -8.438   8.345  -0.603  1.00  0.00     0.198 A 
ATOM     84  C   UNL     1      -7.391   9.778  -2.215  1.00  0.00     0.198 A 
ATOM     85  F   UNL     1      -6.473   8.867  -4.179  1.00  0.00    -0.203 F 
ATOM     86  F   UNL     1      -9.138   8.187   0.529  1.00  0.00    -0.200 F 
ATOM     87  C   UNL     1      -8.075   9.616  -1.020  1.00  0.00     0.200 A 
ATOM     88  F   UNL     1      -7.032  11.004  -2.619  1.00  0.00    -0.200 F 
ATOM     89  F   UNL     1      -8.399  10.685  -0.280  1.00  0.00    -0.200 F 
ENDBRANCH  55  79
BRANCH  67  90
ATOM     90  C   UNL     1     -11.762   3.047  -5.980  1.00  0.00     0.064 A 
ATOM     91  C   UNL     1     -12.581   4.000  -6.603  1.00  0.00     0.173 A 
ATOM     92  C   UNL     1     -12.382   1.917  -5.423  1.00  0.00     0.173 A 
ATOM     93  F   UNL     1     -12.042   5.103  -7.144  1.00  0.00    -0.203 F 
ATOM     94  C   UNL     1     -13.964   3.842  -6.640  1.00  0.00     0.198 A 
ATOM     95  C   UNL     1     -13.761   1.744  -5.493  1.00  0.00     0.198 A 
ATOM     96  F   UNL     1     -11.646   0.966  -4.827  1.00  0.00    -0.203 F 
ATOM     97  F   UNL     1     -14.730   4.791  -7.197  1.00  0.00    -0.200 F 
ATOM     98  C   UNL     1     -14.553   2.711  -6.093  1.00  0.00     0.200 A 
ATOM     99  F   UNL     1     -14.325   0.641  -4.982  1.00  0.00    -0.200 F 
ATOM    100  F   UNL     1     -15.883   2.556  -6.141  1.00  0.00    -0.200 F 
ENDBRANCH  67  90
ENDBRANCH  41  42
ENDBRANCH  34  36
ENDBRANCH  33  34
ENDBRANCH  32  33
ENDBRANCH  31  32
ENDBRANCH  30  31
ENDBRANCH  29  30
ENDBRANCH  28  29
ENDBRANCH   1  28
TORSDOF 23
