REMARK SMILES CC(C)N1C(=O)C[C@@H]([N@@H+]2CC[C@H](C(=O)OCCOCCOCCOC(=O)c3ccc(-c4c5nc(c(-c6c(F)c(F)c(F)c(F)c6F)c6ccc([nH]6)c(-c6c(F)c(F)c(F)c(F)c6F)c6nc(c(-c7c(F)c(F)c(F)c(F)c7F)c7ccc4[nH]7)C=C6)C=C5)cc3)[C@@H]2C)C1=O
REMARK SMILES IDX 19 1 18 2 17 3 16 4 15 5 13 6 14 7 12 8 9 9 10 10 90 11
REMARK SMILES IDX 11 13 91 14 8 15 4 16 5 17 92 18 6 19 7 20 93 21 2 22 1 23
REMARK SMILES IDX 3 24 20 25 21 26 22 27 23 28 24 29 25 30 26 31 27 32 28 33
REMARK SMILES IDX 89 34 29 35 88 36 30 37 31 38 32 39 82 40 33 41 87 42 81 43
REMARK SMILES IDX 83 44 34 45 86 46 80 47 79 48 35 50 67 51 47 52 66 53 48 54
REMARK SMILES IDX 51 55 65 56 84 57 49 58 50 59 64 61 85 62 52 63 36 64 37 65
REMARK SMILES IDX 45 66 38 67 39 68 43 69 46 70 40 71 41 72 44 73 42 74 68 75
REMARK SMILES IDX 69 76 77 77 70 78 71 79 75 80 78 81 72 82 73 83 76 84 74 85
REMARK SMILES IDX 53 86 54 87 62 88 55 89 56 90 60 91 63 92 57 93 58 94 61 95
REMARK SMILES IDX 59 96
REMARK H PARENT 9 12 83 49 51 60
REMARK Flexibility Score: inf
ROOT
ATOM      1  C   UNL     1      -5.815   2.547   0.438  1.00  0.00     0.188 C 
ENDROOT
BRANCH   1   2
ATOM      2  O   UNL     1      -5.706   3.763  -0.277  1.00  0.00    -0.376 OA
BRANCH   2   3
ATOM      3  C   UNL     1      -6.469   3.900  -1.460  1.00  0.00     0.202 C 
BRANCH   3   4
ATOM      4  C   UNL     1      -6.265   2.889  -2.602  1.00  0.00     0.261 C 
BRANCH   4   5
ATOM      5  O   UNL     1      -6.260   1.480  -2.262  1.00  0.00    -0.463 OA
BRANCH   5   6
ATOM      6  C   UNL     1      -5.048   0.857  -2.318  1.00  0.00     0.315 C 
ATOM      7  O   UNL     1      -3.994   1.453  -2.501  1.00  0.00    -0.252 OA
BRANCH   6   8
ATOM      8  C   UNL     1      -5.162  -0.672  -2.230  1.00  0.00     0.162 C 
ATOM      9  N   UNL     1      -3.410  -1.582  -0.808  1.00  0.00    -0.321 N 
ATOM     10  C   UNL     1      -2.843  -1.298  -2.136  1.00  0.00     0.264 C 
ATOM     11  C   UNL     1      -4.876  -1.445  -0.925  1.00  0.00     0.196 C 
ATOM     12  H   UNL     1      -3.237  -2.545  -0.519  1.00  0.00     0.349 HD
ATOM     13  C   UNL     1      -4.033  -1.253  -3.094  1.00  0.00     0.083 C 
ATOM     14  C   UNL     1      -5.690  -1.172   0.328  1.00  0.00     0.076 C 
BRANCH   9  15
ATOM     15  C   UNL     1      -2.702  -0.954   0.327  1.00  0.00     0.284 C 
ATOM     16  N   UNL     1      -0.684   0.284   0.238  1.00  0.00    -0.275 N 
ATOM     17  C   UNL     1      -1.654   1.207   0.472  1.00  0.00     0.236 C 
ATOM     18  C   UNL     1      -1.181  -1.000   0.180  1.00  0.00     0.288 C 
ATOM     19  O   UNL     1      -1.532   2.413   0.618  1.00  0.00    -0.274 OA
ATOM     20  C   UNL     1      -2.964   0.521   0.545  1.00  0.00     0.176 C 
ATOM     21  O   UNL     1      -0.512  -2.018   0.064  1.00  0.00    -0.267 OA
BRANCH  16  22
ATOM     22  C   UNL     1       0.727   0.605   0.062  1.00  0.00     0.087 C 
ATOM     23  C   UNL     1       1.080   0.789  -1.405  1.00  0.00     0.031 C 
ATOM     24  C   UNL     1       1.200   1.797   0.899  1.00  0.00     0.031 C 
ENDBRANCH  16  22
ENDBRANCH   9  15
ENDBRANCH   6   8
ENDBRANCH   5   6
ENDBRANCH   4   5
ENDBRANCH   3   4
ENDBRANCH   2   3
ENDBRANCH   1   2
BRANCH   1  25
ATOM     25  C   UNL     1      -7.170   1.846   0.549  1.00  0.00     0.188 C 
BRANCH  25  26
ATOM     26  O   UNL     1      -8.232   2.761   0.729  1.00  0.00    -0.376 OA
BRANCH  26  27
ATOM     27  C   UNL     1      -8.842   2.656   2.005  1.00  0.00     0.202 C 
BRANCH  27  28
ATOM     28  C   UNL     1      -8.000   3.279   3.127  1.00  0.00     0.261 C 
BRANCH  28  29
ATOM     29  O   UNL     1      -6.692   2.710   3.403  1.00  0.00    -0.460 OA
BRANCH  29  30
ATOM     30  C   UNL     1      -6.588   1.442   3.857  1.00  0.00     0.338 C 
ATOM     31  O   UNL     1      -7.512   0.646   3.965  1.00  0.00    -0.246 OA
BRANCH  30  32
ATOM     32  C   UNL     1      -5.158   1.089   4.140  1.00  0.00     0.060 A 
ATOM     33  C   UNL     1      -4.731  -0.239   3.980  1.00  0.00     0.016 A 
ATOM     34  C   UNL     1      -4.240   2.026   4.629  1.00  0.00     0.016 A 
ATOM     35  C   UNL     1      -3.423  -0.633   4.333  1.00  0.00     0.010 A 
ATOM     36  C   UNL     1      -2.935   1.627   4.995  1.00  0.00     0.010 A 
ATOM     37  C   UNL     1      -2.515   0.287   4.877  1.00  0.00    -0.014 A 
BRANCH  37  38
ATOM     38  C   UNL     1      -1.216  -0.157   5.482  1.00  0.00     0.031 A 
ATOM     39  C   UNL     1      -1.166  -0.543   6.928  1.00  0.00     0.074 A 
ATOM     40  C   UNL     1      -0.089  -0.416   4.790  1.00  0.00     0.049 A 
ATOM     41  N   UNL     1      -0.161  -1.049   7.597  1.00  0.00    -0.248 NA
ATOM     42  C   UNL     1      -2.423  -0.467   7.679  1.00  0.00     0.031 C 
ATOM     43  C   UNL     1      -0.034  -0.560   3.353  1.00  0.00     0.029 A 
ATOM     44  N   UNL     1       1.209  -0.676   5.192  1.00  0.00    -0.354 N 
ATOM     45  C   UNL     1      -0.680  -1.443   8.812  1.00  0.00     0.074 A 
ATOM     46  C   UNL     1      -2.076  -1.045   8.821  1.00  0.00     0.031 C 
ATOM     47  C   UNL     1       1.235  -0.803   2.987  1.00  0.00     0.029 A 
ATOM     48  C   UNL     1       2.097  -0.739   4.144  1.00  0.00     0.049 A 
ATOM     49  H   UNL     1       1.470  -0.803   6.133  1.00  0.00     0.167 HD
ATOM     50  C   UNL     1      -0.058  -2.116   9.806  1.00  0.00     0.037 A 
ATOM     51  C   UNL     1       3.442  -0.756   4.082  1.00  0.00     0.037 A 
ATOM     52  C   UNL     1       1.335  -2.494   9.825  1.00  0.00     0.049 A 
ATOM     53  C   UNL     1       4.191  -1.140   5.310  1.00  0.00     0.074 A 
ATOM     54  C   UNL     1       2.030  -3.134  10.838  1.00  0.00     0.029 A 
ATOM     55  N   UNL     1       2.253  -2.253   8.812  1.00  0.00    -0.354 N 
ATOM     56  N   UNL     1       3.700  -1.470   6.473  1.00  0.00    -0.248 NA
ATOM     57  C   UNL     1       5.646  -1.301   5.190  1.00  0.00     0.031 C 
ATOM     58  C   UNL     1       3.381  -3.200  10.480  1.00  0.00     0.029 A 
ATOM     59  C   UNL     1       3.520  -2.671   9.210  1.00  0.00     0.049 A 
ATOM     60  H   UNL     1       2.040  -1.847   7.941  1.00  0.00     0.167 HD
ATOM     61  C   UNL     1       4.759  -1.990   7.189  1.00  0.00     0.074 A 
ATOM     62  C   UNL     1       5.933  -1.884   6.345  1.00  0.00     0.031 C 
ATOM     63  C   UNL     1       4.717  -2.562   8.413  1.00  0.00     0.037 A 
BRANCH  50  64
ATOM     64  C   UNL     1      -0.888  -2.430  11.008  1.00  0.00     0.064 A 
ATOM     65  C   UNL     1      -1.851  -3.449  11.001  1.00  0.00     0.173 A 
ATOM     66  C   UNL     1      -0.700  -1.699  12.188  1.00  0.00     0.173 A 
ATOM     67  F   UNL     1      -2.085  -4.154   9.884  1.00  0.00    -0.203 F 
ATOM     68  C   UNL     1      -2.608  -3.716  12.138  1.00  0.00     0.198 A 
ATOM     69  C   UNL     1      -1.440  -1.986  13.328  1.00  0.00     0.198 A 
ATOM     70  F   UNL     1       0.205  -0.710  12.232  1.00  0.00    -0.203 F 
ATOM     71  F   UNL     1      -3.555  -4.664  12.105  1.00  0.00    -0.200 F 
ATOM     72  C   UNL     1      -2.396  -2.989  13.302  1.00  0.00     0.200 A 
ATOM     73  F   UNL     1      -1.230  -1.286  14.451  1.00  0.00    -0.200 F 
ATOM     74  F   UNL     1      -3.123  -3.250  14.397  1.00  0.00    -0.200 F 
ENDBRANCH  50  64
BRANCH  51  75
ATOM     75  C   UNL     1       4.181  -0.427   2.831  1.00  0.00     0.064 A 
ATOM     76  C   UNL     1       4.822  -1.394   2.049  1.00  0.00     0.173 A 
ATOM     77  C   UNL     1       4.357   0.919   2.470  1.00  0.00     0.173 A 
ATOM     78  F   UNL     1       4.737  -2.688   2.385  1.00  0.00    -0.203 F 
ATOM     79  C   UNL     1       5.615  -1.029   0.957  1.00  0.00     0.198 A 
ATOM     80  C   UNL     1       5.132   1.282   1.367  1.00  0.00     0.198 A 
ATOM     81  F   UNL     1       3.790   1.889   3.202  1.00  0.00    -0.203 F 
ATOM     82  F   UNL     1       6.264  -1.971   0.259  1.00  0.00    -0.200 F 
ATOM     83  C   UNL     1       5.766   0.307   0.615  1.00  0.00     0.200 A 
ATOM     84  F   UNL     1       5.274   2.575   1.044  1.00  0.00    -0.200 F 
ATOM     85  F   UNL     1       6.536   0.655  -0.425  1.00  0.00    -0.200 F 
ENDBRANCH  51  75
BRANCH  63  86
ATOM     86  C   UNL     1       5.991  -3.175   8.913  1.00  0.00     0.064 A 
ATOM     87  C   UNL     1       7.119  -2.399   9.220  1.00  0.00     0.173 A 
ATOM     88  C   UNL     1       6.093  -4.567   9.058  1.00  0.00     0.173 A 
ATOM     89  F   UNL     1       7.082  -1.066   9.073  1.00  0.00    -0.203 F 
ATOM     90  C   UNL     1       8.314  -2.997   9.610  1.00  0.00     0.198 A 
ATOM     91  C   UNL     1       7.278  -5.158   9.487  1.00  0.00     0.198 A 
ATOM     92  F   UNL     1       5.048  -5.358   8.773  1.00  0.00    -0.203 F 
ATOM     93  F   UNL     1       9.400  -2.241   9.820  1.00  0.00    -0.200 F 
ATOM     94  C   UNL     1       8.391  -4.374   9.749  1.00  0.00     0.200 A 
ATOM     95  F   UNL     1       7.346  -6.489   9.632  1.00  0.00    -0.200 F 
ATOM     96  F   UNL     1       9.543  -4.948  10.122  1.00  0.00    -0.200 F 
ENDBRANCH  63  86
ENDBRANCH  37  38
ENDBRANCH  30  32
ENDBRANCH  29  30
ENDBRANCH  28  29
ENDBRANCH  27  28
ENDBRANCH  26  27
ENDBRANCH  25  26
ENDBRANCH   1  25
TORSDOF 19
