REMARK SMILES C[C@@H]1[NH2+]CC[C@@H]1C(=O)Nc1ccccc1CC(=O)OCCOCCOCCOC(=O)c1ccc(-c2c3nc(c(-c4c(F)c(F)c(F)c(F)c4F)c4ccc([nH]4)c(-c4c(F)c(F)c(F)c(F)c4F)c4nc(c(-c5c(F)c(F)c(F)c(F)c5F)c5ccc2[nH]5)C=C4)C=C3)cc1
REMARK SMILES IDX 23 1 22 2 21 3 20 4 19 5 17 6 18 7 16 8 15 9 10 10 11 11
REMARK SMILES IDX 12 12 14 13 13 14 9 15 7 16 8 17 6 19 1 20 2 21 3 22 4 23
REMARK SMILES IDX 5 26 24 27 25 28 26 29 27 30 28 31 29 32 30 33 31 34 32 35
REMARK SMILES IDX 93 36 33 37 92 38 34 39 35 40 36 41 86 42 37 43 91 44 85 45
REMARK SMILES IDX 87 46 38 47 90 48 84 49 83 50 39 52 71 53 51 54 70 55 52 56
REMARK SMILES IDX 55 57 69 58 88 59 53 60 54 61 68 63 89 64 56 65 40 66 41 67
REMARK SMILES IDX 49 68 42 69 43 70 47 71 50 72 44 73 45 74 48 75 46 76 72 77
REMARK SMILES IDX 73 78 81 79 74 80 75 81 79 82 82 83 76 84 77 85 80 86 78 87
REMARK SMILES IDX 57 88 58 89 66 90 59 91 60 92 64 93 67 94 61 95 62 96 65 97
REMARK SMILES IDX 63 98
REMARK H PARENT 9 18 3 24 3 25 87 51 55 62
REMARK Flexibility Score: inf
ROOT
ATOM      1  C   UNL     1       2.137  -4.702  -1.030  1.00  0.00     0.188 C 
ENDROOT
BRANCH   1   2
ATOM      2  O   UNL     1       1.125  -4.917  -2.010  1.00  0.00    -0.376 OA
BRANCH   2   3
ATOM      3  C   UNL     1       1.258  -4.279  -3.272  1.00  0.00     0.202 C 
BRANCH   3   4
ATOM      4  C   UNL     1       0.771  -2.818  -3.325  1.00  0.00     0.261 C 
BRANCH   4   5
ATOM      5  O   UNL     1       1.422  -1.921  -2.388  1.00  0.00    -0.463 OA
BRANCH   5   6
ATOM      6  C   UNL     1       0.837  -1.827  -1.166  1.00  0.00     0.310 C 
ATOM      7  O   UNL     1      -0.218  -2.390  -0.876  1.00  0.00    -0.252 OA
BRANCH   6   8
ATOM      8  C   UNL     1       1.666  -1.169  -0.086  1.00  0.00     0.160 C 
BRANCH   8   9
ATOM      9  C   UNL     1       2.680  -0.030  -0.262  1.00  0.00    -0.013 A 
ATOM     10  C   UNL     1       2.632   1.330  -0.688  1.00  0.00     0.044 A 
ATOM     11  C   UNL     1       3.900   1.999  -0.792  1.00  0.00     0.026 A 
ATOM     12  C   UNL     1       5.124   1.468  -0.386  1.00  0.00     0.002 A 
ATOM     13  C   UNL     1       3.966  -0.514   0.176  1.00  0.00     0.006 A 
ATOM     14  C   UNL     1       5.151   0.205   0.138  1.00  0.00     0.000 A 
BRANCH  10  15
ATOM     15  N   UNL     1       1.636   2.289  -1.070  1.00  0.00    -0.325 N 
ATOM     16  C   UNL     1       0.384   2.783  -0.845  1.00  0.00     0.233 C 
ATOM     17  O   UNL     1       0.108   3.805  -1.492  1.00  0.00    -0.274 OA
ATOM     18  H   UNL     1       2.019   2.815  -1.810  1.00  0.00     0.169 HD
BRANCH  16  19
ATOM     19  C   UNL     1      -0.609   2.275   0.168  1.00  0.00     0.142 C 
ATOM     20  C   UNL     1      -0.924   0.427  -1.503  1.00  0.00     0.076 C 
ATOM     21  C   UNL     1      -0.754   0.804  -0.019  1.00  0.00     0.192 C 
ATOM     22  N   UNL     1      -1.919   0.474   0.787  1.00  0.00    -0.343 N 
ATOM     23  C   UNL     1      -2.912   1.448   0.353  1.00  0.00     0.261 C 
ATOM     24  H   UNL     1      -1.716   0.577   1.782  1.00  0.00     0.346 HD
ATOM     25  H   UNL     1      -2.228  -0.491   0.668  1.00  0.00     0.346 HD
ATOM     26  C   UNL     1      -2.086   2.713   0.039  1.00  0.00     0.081 C 
ENDBRANCH  16  19
ENDBRANCH  10  15
ENDBRANCH   8   9
ENDBRANCH   6   8
ENDBRANCH   5   6
ENDBRANCH   4   5
ENDBRANCH   3   4
ENDBRANCH   2   3
ENDBRANCH   1   2
BRANCH   1  27
ATOM     27  C   UNL     1       3.417  -3.965  -1.433  1.00  0.00     0.188 C 
BRANCH  27  28
ATOM     28  O   UNL     1       4.190  -4.763  -2.322  1.00  0.00    -0.376 OA
BRANCH  28  29
ATOM     29  C   UNL     1       5.576  -4.738  -2.001  1.00  0.00     0.202 C 
BRANCH  29  30
ATOM     30  C   UNL     1       5.909  -5.897  -1.056  1.00  0.00     0.261 C 
BRANCH  30  31
ATOM     31  O   UNL     1       5.089  -5.971   0.133  1.00  0.00    -0.460 OA
BRANCH  31  32
ATOM     32  C   UNL     1       5.258  -5.008   1.069  1.00  0.00     0.338 C 
ATOM     33  O   UNL     1       6.022  -4.063   1.010  1.00  0.00    -0.246 OA
BRANCH  32  34
ATOM     34  C   UNL     1       4.226  -5.171   2.126  1.00  0.00     0.060 A 
ATOM     35  C   UNL     1       3.516  -4.046   2.569  1.00  0.00     0.016 A 
ATOM     36  C   UNL     1       3.993  -6.413   2.717  1.00  0.00     0.016 A 
ATOM     37  C   UNL     1       2.601  -4.149   3.624  1.00  0.00     0.010 A 
ATOM     38  C   UNL     1       3.093  -6.513   3.784  1.00  0.00     0.010 A 
ATOM     39  C   UNL     1       2.414  -5.377   4.267  1.00  0.00    -0.014 A 
BRANCH  39  40
ATOM     40  C   UNL     1       1.668  -5.478   5.550  1.00  0.00     0.031 A 
ATOM     41  C   UNL     1       2.456  -5.587   6.826  1.00  0.00     0.074 A 
ATOM     42  C   UNL     1       0.325  -5.523   5.595  1.00  0.00     0.049 A 
ATOM     43  N   UNL     1       2.063  -5.928   8.027  1.00  0.00    -0.248 NA
ATOM     44  C   UNL     1       3.890  -5.277   6.726  1.00  0.00     0.031 C 
ATOM     45  C   UNL     1      -0.569  -5.350   4.455  1.00  0.00     0.029 A 
ATOM     46  N   UNL     1      -0.518  -5.767   6.655  1.00  0.00    -0.354 N 
ATOM     47  C   UNL     1       3.206  -5.914   8.815  1.00  0.00     0.074 A 
ATOM     48  C   UNL     1       4.307  -5.531   7.958  1.00  0.00     0.031 C 
ATOM     49  C   UNL     1      -1.837  -5.530   4.867  1.00  0.00     0.029 A 
ATOM     50  C   UNL     1      -1.836  -5.888   6.286  1.00  0.00     0.049 A 
ATOM     51  H   UNL     1      -0.207  -5.846   7.585  1.00  0.00     0.167 HD
ATOM     52  C   UNL     1       3.327  -6.204  10.133  1.00  0.00     0.037 A 
ATOM     53  C   UNL     1      -2.907  -6.294   6.997  1.00  0.00     0.037 A 
ATOM     54  C   UNL     1       2.229  -6.568  10.989  1.00  0.00     0.049 A 
ATOM     55  C   UNL     1      -2.741  -6.690   8.445  1.00  0.00     0.074 A 
ATOM     56  C   UNL     1       2.249  -6.864  12.341  1.00  0.00     0.029 A 
ATOM     57  N   UNL     1       0.911  -6.690  10.573  1.00  0.00    -0.354 N 
ATOM     58  N   UNL     1      -1.658  -6.699   9.184  1.00  0.00    -0.248 NA
ATOM     59  C   UNL     1      -3.948  -7.142   9.154  1.00  0.00     0.031 C 
ATOM     60  C   UNL     1       0.954  -7.218  12.732  1.00  0.00     0.029 A 
ATOM     61  C   UNL     1       0.115  -7.082  11.638  1.00  0.00     0.049 A 
ATOM     62  H   UNL     1       0.589  -6.522   9.658  1.00  0.00     0.167 HD
ATOM     63  C   UNL     1      -2.057  -7.123  10.447  1.00  0.00     0.074 A 
ATOM     64  C   UNL     1      -3.483  -7.358  10.377  1.00  0.00     0.031 C 
ATOM     65  C   UNL     1      -1.308  -7.298  11.563  1.00  0.00     0.037 A 
BRANCH  52  66
ATOM     66  C   UNL     1       4.708  -6.191  10.720  1.00  0.00     0.064 A 
ATOM     67  C   UNL     1       5.420  -5.000  10.925  1.00  0.00     0.173 A 
ATOM     68  C   UNL     1       5.318  -7.394  11.106  1.00  0.00     0.173 A 
ATOM     69  F   UNL     1       4.888  -3.824  10.558  1.00  0.00    -0.203 F 
ATOM     70  C   UNL     1       6.703  -5.017  11.466  1.00  0.00     0.198 A 
ATOM     71  C   UNL     1       6.588  -7.405  11.676  1.00  0.00     0.198 A 
ATOM     72  F   UNL     1       4.680  -8.562  10.936  1.00  0.00    -0.203 F 
ATOM     73  F   UNL     1       7.386  -3.872  11.602  1.00  0.00    -0.200 F 
ATOM     74  C   UNL     1       7.283  -6.218  11.847  1.00  0.00     0.200 A 
ATOM     75  F   UNL     1       7.141  -8.566  12.055  1.00  0.00    -0.200 F 
ATOM     76  F   UNL     1       8.516  -6.232  12.372  1.00  0.00    -0.200 F 
ENDBRANCH  52  66
BRANCH  53  77
ATOM     77  C   UNL     1      -4.237  -6.397   6.338  1.00  0.00     0.064 A 
ATOM     78  C   UNL     1      -5.289  -5.542   6.693  1.00  0.00     0.173 A 
ATOM     79  C   UNL     1      -4.489  -7.370   5.358  1.00  0.00     0.173 A 
ATOM     80  F   UNL     1      -5.109  -4.621   7.651  1.00  0.00    -0.203 F 
ATOM     81  C   UNL     1      -6.545  -5.663   6.101  1.00  0.00     0.198 A 
ATOM     82  C   UNL     1      -5.736  -7.469   4.746  1.00  0.00     0.198 A 
ATOM     83  F   UNL     1      -3.520  -8.222   4.992  1.00  0.00    -0.203 F 
ATOM     84  F   UNL     1      -7.548  -4.865   6.494  1.00  0.00    -0.200 F 
ATOM     85  C   UNL     1      -6.766  -6.620   5.122  1.00  0.00     0.200 A 
ATOM     86  F   UNL     1      -5.943  -8.392   3.797  1.00  0.00    -0.200 F 
ATOM     87  F   UNL     1      -7.973  -6.734   4.552  1.00  0.00    -0.200 F 
ENDBRANCH  53  77
BRANCH  65  88
ATOM     88  C   UNL     1      -2.015  -7.712  12.823  1.00  0.00     0.064 A 
ATOM     89  C   UNL     1      -2.517  -9.009  13.001  1.00  0.00     0.173 A 
ATOM     90  C   UNL     1      -2.136  -6.810  13.893  1.00  0.00     0.173 A 
ATOM     91  F   UNL     1      -2.438  -9.905  12.006  1.00  0.00    -0.203 F 
ATOM     92  C   UNL     1      -3.132  -9.382  14.195  1.00  0.00     0.198 A 
ATOM     93  C   UNL     1      -2.724  -7.195  15.095  1.00  0.00     0.198 A 
ATOM     94  F   UNL     1      -1.665  -5.559  13.780  1.00  0.00    -0.203 F 
ATOM     95  F   UNL     1      -3.639 -10.615  14.328  1.00  0.00    -0.200 F 
ATOM     96  C   UNL     1      -3.226  -8.478  15.243  1.00  0.00     0.200 A 
ATOM     97  F   UNL     1      -2.799  -6.325  16.112  1.00  0.00    -0.200 F 
ATOM     98  F   UNL     1      -3.806  -8.844  16.395  1.00  0.00    -0.200 F 
ENDBRANCH  65  88
ENDBRANCH  39  40
ENDBRANCH  32  34
ENDBRANCH  31  32
ENDBRANCH  30  31
ENDBRANCH  29  30
ENDBRANCH  28  29
ENDBRANCH  27  28
ENDBRANCH   1  27
TORSDOF 20
