REMARK SMILES Cc1cc(N2CC[C@H](CC(=O)OCCOCCOCCOC(=O)c3ccc(-c4c5nc(c(-c6c(F)c(F)c(F)c(F)c6F)c6ccc([nH]6)c(-c6c(F)c(F)c(F)c(F)c6F)c6nc(c(-c7c(F)c(F)c(F)c(F)c7F)c7ccc4[nH]7)C=C6)C=C5)cc3)C2)ncc1[N+](=O)[O-]
REMARK SMILES IDX 16 1 15 2 14 3 13 4 12 5 10 6 11 7 9 8 8 9 5 10 6 11 87 12
REMARK SMILES IDX 7 13 4 14 1 15 2 16 3 17 90 18 89 19 88 20 91 21 92 22 93 23
REMARK SMILES IDX 17 24 18 25 19 26 20 27 21 28 22 29 23 30 24 31 25 32 86 33
REMARK SMILES IDX 26 34 85 35 27 36 28 37 29 38 79 39 30 40 84 41 78 42 80 43
REMARK SMILES IDX 31 44 83 45 77 46 76 47 32 49 64 50 44 51 63 52 45 53 48 54
REMARK SMILES IDX 62 55 81 56 46 57 47 58 61 60 82 61 49 62 33 63 34 64 42 65
REMARK SMILES IDX 35 66 36 67 40 68 43 69 37 70 38 71 41 72 39 73 65 74 66 75
REMARK SMILES IDX 74 76 67 77 68 78 72 79 75 80 69 81 70 82 73 83 71 84 50 85
REMARK SMILES IDX 51 86 59 87 52 88 53 89 57 90 60 91 54 92 55 93 58 94 56 95
REMARK H PARENT 80 48 48 59
REMARK Flexibility Score: inf
ROOT
ATOM      1  C   UNL     1       5.000   7.666   1.150  1.00  0.00     0.188 C 
ENDROOT
BRANCH   1   2
ATOM      2  O   UNL     1       6.388   7.964   1.262  1.00  0.00    -0.376 OA
BRANCH   2   3
ATOM      3  C   UNL     1       7.287   7.084   0.585  1.00  0.00     0.202 C 
BRANCH   3   4
ATOM      4  C   UNL     1       7.284   5.617   1.044  1.00  0.00     0.261 C 
BRANCH   4   5
ATOM      5  O   UNL     1       5.984   4.984   1.019  1.00  0.00    -0.463 OA
BRANCH   5   6
ATOM      6  C   UNL     1       5.530   4.514   2.210  1.00  0.00     0.306 C 
ATOM      7  O   UNL     1       6.167   4.545   3.259  1.00  0.00    -0.252 OA
BRANCH   6   8
ATOM      8  C   UNL     1       4.094   4.026   2.196  1.00  0.00     0.128 C 
BRANCH   8   9
ATOM      9  C   UNL     1       3.342   3.848   0.877  1.00  0.00     0.021 C 
ATOM     10  N   UNL     1       1.714   2.436  -0.151  1.00  0.00    -0.356 N 
ATOM     11  C   UNL     1       2.878   2.487  -1.033  1.00  0.00     0.118 C 
ATOM     12  C   UNL     1       1.987   3.133   1.107  1.00  0.00     0.122 C 
ATOM     13  C   UNL     1       4.025   2.932  -0.133  1.00  0.00     0.027 C 
BRANCH  10  14
ATOM     14  C   UNL     1       1.040   1.228  -0.051  1.00  0.00     0.129 A 
ATOM     15  C   UNL     1      -2.582   0.140   0.037  1.00  0.00     0.052 C 
ATOM     16  C   UNL     1      -1.084   0.009   0.048  1.00  0.00     0.032 A 
ATOM     17  C   UNL     1      -0.353   1.220   0.030  1.00  0.00     0.057 A 
ATOM     18  C   UNL     1      -0.343  -1.180   0.055  1.00  0.00     0.290 A 
ATOM     19  C   UNL     1       1.046  -1.091   0.001  1.00  0.00     0.199 A 
ATOM     20  N   UNL     1       1.737   0.076  -0.061  1.00  0.00    -0.232 NA
BRANCH  18  21
ATOM     21  N   UNL     1      -0.914  -2.526   0.116  1.00  0.00     0.064 N 
ATOM     22  O   UNL     1      -0.184  -3.473  -0.215  1.00  0.00    -0.258 OA
ATOM     23  O   UNL     1      -2.075  -2.663   0.519  1.00  0.00    -0.258 OA
ENDBRANCH  18  21
ENDBRANCH  10  14
ENDBRANCH   8   9
ENDBRANCH   6   8
ENDBRANCH   5   6
ENDBRANCH   4   5
ENDBRANCH   3   4
ENDBRANCH   2   3
ENDBRANCH   1   2
BRANCH   1  24
ATOM     24  C   UNL     1       4.443   7.603  -0.272  1.00  0.00     0.188 C 
BRANCH  24  25
ATOM     25  O   UNL     1       5.187   6.819  -1.190  1.00  0.00    -0.376 OA
BRANCH  25  26
ATOM     26  C   UNL     1       4.811   6.892  -2.568  1.00  0.00     0.202 C 
BRANCH  26  27
ATOM     27  C   UNL     1       4.576   8.289  -3.188  1.00  0.00     0.261 C 
BRANCH  27  28
ATOM     28  O   UNL     1       3.583   9.123  -2.547  1.00  0.00    -0.460 OA
BRANCH  28  29
ATOM     29  C   UNL     1       2.360   8.591  -2.327  1.00  0.00     0.338 C 
ATOM     30  O   UNL     1       1.919   7.566  -2.823  1.00  0.00    -0.246 OA
BRANCH  29  31
ATOM     31  C   UNL     1       1.726   9.290  -1.171  1.00  0.00     0.060 A 
ATOM     32  C   UNL     1       1.012   8.508  -0.250  1.00  0.00     0.016 A 
ATOM     33  C   UNL     1       1.874  10.661  -0.938  1.00  0.00     0.016 A 
ATOM     34  C   UNL     1       0.408   9.095   0.866  1.00  0.00     0.010 A 
ATOM     35  C   UNL     1       1.253  11.253   0.176  1.00  0.00     0.010 A 
ATOM     36  C   UNL     1       0.485  10.479   1.065  1.00  0.00    -0.014 A 
BRANCH  36  37
ATOM     37  C   UNL     1      -0.399  11.118   2.081  1.00  0.00     0.031 A 
ATOM     38  C   UNL     1      -1.689  11.747   1.618  1.00  0.00     0.074 A 
ATOM     39  C   UNL     1      -0.116  11.088   3.397  1.00  0.00     0.049 A 
ATOM     40  N   UNL     1      -2.631  12.334   2.314  1.00  0.00    -0.248 NA
ATOM     41  C   UNL     1      -1.952  11.701   0.171  1.00  0.00     0.031 C 
ATOM     42  C   UNL     1       1.069  10.480   3.996  1.00  0.00     0.029 A 
ATOM     43  N   UNL     1      -0.818  11.583   4.472  1.00  0.00    -0.354 N 
ATOM     44  C   UNL     1      -3.595  12.724   1.392  1.00  0.00     0.074 A 
ATOM     45  C   UNL     1      -3.107  12.342   0.084  1.00  0.00     0.031 C 
ATOM     46  C   UNL     1       1.015  10.639   5.330  1.00  0.00     0.029 A 
ATOM     47  C   UNL     1      -0.195  11.385   5.681  1.00  0.00     0.049 A 
ATOM     48  H   UNL     1      -1.687  12.036   4.384  1.00  0.00     0.167 HD
ATOM     49  C   UNL     1      -4.786  13.331   1.611  1.00  0.00     0.037 A 
ATOM     50  C   UNL     1      -0.550  11.775   6.923  1.00  0.00     0.037 A 
ATOM     51  C   UNL     1      -5.279  13.719   2.907  1.00  0.00     0.049 A 
ATOM     52  C   UNL     1      -1.844  12.526   7.131  1.00  0.00     0.074 A 
ATOM     53  C   UNL     1      -6.481  14.329   3.225  1.00  0.00     0.029 A 
ATOM     54  N   UNL     1      -4.593  13.546   4.100  1.00  0.00    -0.354 N 
ATOM     55  N   UNL     1      -2.763  12.860   6.257  1.00  0.00    -0.248 NA
ATOM     56  C   UNL     1      -2.152  12.949   8.506  1.00  0.00     0.031 C 
ATOM     57  C   UNL     1      -6.496  14.581   4.600  1.00  0.00     0.029 A 
ATOM     58  C   UNL     1      -5.334  14.066   5.151  1.00  0.00     0.049 A 
ATOM     59  H   UNL     1      -3.711  13.118   4.187  1.00  0.00     0.167 HD
ATOM     60  C   UNL     1      -3.766  13.499   6.979  1.00  0.00     0.074 A 
ATOM     61  C   UNL     1      -3.354  13.487   8.365  1.00  0.00     0.031 C 
ATOM     62  C   UNL     1      -4.923  14.047   6.532  1.00  0.00     0.037 A 
BRANCH  49  63
ATOM     63  C   UNL     1      -5.637  13.641   0.413  1.00  0.00     0.064 A 
ATOM     64  C   UNL     1      -6.275  12.631  -0.322  1.00  0.00     0.173 A 
ATOM     65  C   UNL     1      -5.850  14.972   0.020  1.00  0.00     0.173 A 
ATOM     66  F   UNL     1      -6.093  11.342   0.002  1.00  0.00    -0.203 F 
ATOM     67  C   UNL     1      -7.075  12.939  -1.420  1.00  0.00     0.198 A 
ATOM     68  C   UNL     1      -6.676  15.278  -1.058  1.00  0.00     0.198 A 
ATOM     69  F   UNL     1      -5.266  15.977   0.690  1.00  0.00    -0.203 F 
ATOM     70  F   UNL     1      -7.636  11.955  -2.136  1.00  0.00    -0.200 F 
ATOM     71  C   UNL     1      -7.282  14.262  -1.781  1.00  0.00     0.200 A 
ATOM     72  F   UNL     1      -6.887  16.558  -1.396  1.00  0.00    -0.200 F 
ATOM     73  F   UNL     1      -8.061  14.558  -2.831  1.00  0.00    -0.200 F 
ENDBRANCH  49  63
BRANCH  50  74
ATOM     74  C   UNL     1       0.336  11.482   8.085  1.00  0.00     0.064 A 
ATOM     75  C   UNL     1      -0.075  10.624   9.117  1.00  0.00     0.173 A 
ATOM     76  C   UNL     1       1.588  12.100   8.216  1.00  0.00     0.173 A 
ATOM     77  F   UNL     1      -1.278  10.034   9.057  1.00  0.00    -0.203 F 
ATOM     78  C   UNL     1       0.719  10.419  10.244  1.00  0.00     0.198 A 
ATOM     79  C   UNL     1       2.396  11.867   9.327  1.00  0.00     0.198 A 
ATOM     80  F   UNL     1       2.026  12.938   7.265  1.00  0.00    -0.203 F 
ATOM     81  F   UNL     1       0.272   9.646  11.243  1.00  0.00    -0.200 F 
ATOM     82  C   UNL     1       1.957  11.035  10.345  1.00  0.00     0.200 A 
ATOM     83  F   UNL     1       3.595  12.459   9.417  1.00  0.00    -0.200 F 
ATOM     84  F   UNL     1       2.718  10.841  11.431  1.00  0.00    -0.200 F 
ENDBRANCH  50  74
BRANCH  62  85
ATOM     85  C   UNL     1      -5.852  14.643   7.555  1.00  0.00     0.064 A 
ATOM     86  C   UNL     1      -5.528  15.813   8.259  1.00  0.00     0.173 A 
ATOM     87  C   UNL     1      -7.095  14.046   7.820  1.00  0.00     0.173 A 
ATOM     88  F   UNL     1      -4.350  16.421   8.054  1.00  0.00    -0.203 F 
ATOM     89  C   UNL     1      -6.394  16.338   9.217  1.00  0.00     0.198 A 
ATOM     90  C   UNL     1      -7.974  14.594   8.752  1.00  0.00     0.198 A 
ATOM     91  F   UNL     1      -7.464  12.933   7.169  1.00  0.00    -0.203 F 
ATOM     92  F   UNL     1      -6.033  17.419   9.922  1.00  0.00    -0.200 F 
ATOM     93  C   UNL     1      -7.617  15.732   9.458  1.00  0.00     0.200 A 
ATOM     94  F   UNL     1      -9.164  14.017   8.969  1.00  0.00    -0.200 F 
ATOM     95  F   UNL     1      -8.449  16.239  10.379  1.00  0.00    -0.200 F 
ENDBRANCH  62  85
ENDBRANCH  36  37
ENDBRANCH  29  31
ENDBRANCH  28  29
ENDBRANCH  27  28
ENDBRANCH  26  27
ENDBRANCH  25  26
ENDBRANCH  24  25
ENDBRANCH   1  24
TORSDOF 20
