REMARK SMILES C[C@@H]1CCc2cc(C(=O)OCCOCCOCCOC(=O)c3ccc(-c4c5nc(c(-c6c(F)c(F)c(F)c(F)c6F)c6ccc([nH]6)c(-c6c(F)c(F)c(F)c(F)c6F)c6nc(c(-c7c(F)c(F)c(F)c(F)c7F)c7ccc4[nH]7)C=C6)C=C5)cc3)sc2C1
REMARK SMILES IDX 15 1 14 2 13 3 12 4 11 5 10 6 8 7 9 8 7 9 1 10 2 11 3 12
REMARK SMILES IDX 87 13 4 14 86 15 5 16 85 17 6 18 16 19 17 20 18 21 19 22
REMARK SMILES IDX 20 23 21 24 22 25 23 26 84 27 24 28 83 29 25 30 26 31 27 32
REMARK SMILES IDX 77 33 28 34 82 35 76 36 78 37 29 38 81 39 75 40 74 41 30 43
REMARK SMILES IDX 62 44 42 45 61 46 43 47 46 48 60 49 79 50 44 51 45 52 59 54
REMARK SMILES IDX 80 55 47 56 31 57 32 58 40 59 33 60 34 61 38 62 41 63 35 64
REMARK SMILES IDX 36 65 39 66 37 67 63 68 64 69 72 70 65 71 66 72 70 73 73 74
REMARK SMILES IDX 67 75 68 76 71 77 69 78 48 79 49 80 57 81 50 82 51 83 55 84
REMARK SMILES IDX 58 85 52 86 53 87 56 88 54 89
REMARK H PARENT 78 42 46 53
REMARK Flexibility Score: inf
ROOT
ATOM      1  C   UNL     1       2.529   4.943   5.523  1.00  0.00     0.188 C 
ENDROOT
BRANCH   1   2
ATOM      2  C   UNL     1       3.929   4.546   6.032  1.00  0.00     0.188 C 
BRANCH   2   3
ATOM      3  O   UNL     1       4.643   5.624   6.598  1.00  0.00    -0.376 OA
BRANCH   3   4
ATOM      4  C   UNL     1       5.703   6.186   5.839  1.00  0.00     0.202 C 
BRANCH   4   5
ATOM      5  C   UNL     1       5.545   6.527   4.338  1.00  0.00     0.261 C 
BRANCH   5   6
ATOM      6  O   UNL     1       4.608   5.758   3.571  1.00  0.00    -0.459 OA
BRANCH   6   7
ATOM      7  C   UNL     1       5.074   4.646   2.924  1.00  0.00     0.348 C 
ATOM      8  O   UNL     1       6.238   4.293   2.934  1.00  0.00    -0.245 OA
BRANCH   7   9
ATOM      9  C   UNL     1       3.942   3.906   2.383  1.00  0.00     0.113 A 
ATOM     10  C   UNL     1       1.070  -0.111  -0.221  1.00  0.00     0.008 C 
ATOM     11  C   UNL     1       0.496   0.744   0.919  1.00  0.00    -0.009 C 
ATOM     12  C   UNL     1      -0.052   2.087   0.361  1.00  0.00     0.008 C 
ATOM     13  C   UNL     1       1.518   0.840   2.069  1.00  0.00     0.050 C 
ATOM     14  C   UNL     1       0.472   3.407   0.957  1.00  0.00     0.037 C 
ATOM     15  C   UNL     1       2.323   2.094   2.001  1.00  0.00     0.009 A 
ATOM     16  C   UNL     1       1.841   3.295   1.537  1.00  0.00    -0.033 A 
ATOM     17  S   UNL     1       3.923   2.197   2.561  1.00  0.00    -0.133 S 
ATOM     18  C   UNL     1       2.769   4.356   1.798  1.00  0.00     0.031 A 
ENDBRANCH   7   9
ENDBRANCH   6   7
ENDBRANCH   5   6
ENDBRANCH   4   5
ENDBRANCH   3   4
ENDBRANCH   2   3
ENDBRANCH   1   2
BRANCH   1  19
ATOM     19  O   UNL     1       2.166   6.301   5.295  1.00  0.00    -0.376 OA
BRANCH  19  20
ATOM     20  C   UNL     1       2.484   7.349   6.204  1.00  0.00     0.202 C 
BRANCH  20  21
ATOM     21  C   UNL     1       2.197   7.250   7.700  1.00  0.00     0.261 C 
BRANCH  21  22
ATOM     22  O   UNL     1       2.459   5.980   8.257  1.00  0.00    -0.460 OA
BRANCH  22  23
ATOM     23  C   UNL     1       1.379   5.179   8.306  1.00  0.00     0.338 C 
ATOM     24  O   UNL     1       0.273   5.386   7.840  1.00  0.00    -0.246 OA
BRANCH  23  25
ATOM     25  C   UNL     1       1.707   4.021   9.139  1.00  0.00     0.060 A 
ATOM     26  C   UNL     1       0.708   3.053   9.244  1.00  0.00     0.016 A 
ATOM     27  C   UNL     1       2.744   4.148  10.073  1.00  0.00     0.016 A 
ATOM     28  C   UNL     1       0.567   2.417  10.450  1.00  0.00     0.010 A 
ATOM     29  C   UNL     1       2.581   3.543  11.288  1.00  0.00     0.010 A 
ATOM     30  C   UNL     1       1.438   2.772  11.484  1.00  0.00    -0.014 A 
BRANCH  30  31
ATOM     31  C   UNL     1       1.146   2.280  12.807  1.00  0.00     0.031 A 
ATOM     32  C   UNL     1       1.602   0.894  12.996  1.00  0.00     0.074 A 
ATOM     33  C   UNL     1       0.616   3.082  13.749  1.00  0.00     0.049 A 
ATOM     34  N   UNL     1       0.876  -0.155  13.181  1.00  0.00    -0.248 NA
ATOM     35  C   UNL     1       3.029   0.612  12.766  1.00  0.00     0.031 C 
ATOM     36  C   UNL     1       0.428   4.536  13.669  1.00  0.00     0.029 A 
ATOM     37  N   UNL     1       0.238   2.790  15.024  1.00  0.00    -0.354 N 
ATOM     38  C   UNL     1       1.785  -1.198  13.318  1.00  0.00     0.074 A 
ATOM     39  C   UNL     1       3.043  -0.719  12.822  1.00  0.00     0.031 C 
ATOM     40  C   UNL     1       0.188   5.021  14.908  1.00  0.00     0.029 A 
ATOM     41  C   UNL     1       0.083   3.906  15.835  1.00  0.00     0.049 A 
ATOM     42  H   UNL     1       0.088   1.870  15.342  1.00  0.00     0.167 HD
ATOM     43  C   UNL     1       1.506  -2.229  14.156  1.00  0.00     0.037 A 
ATOM     44  C   UNL     1      -0.051   3.904  17.182  1.00  0.00     0.037 A 
ATOM     45  C   UNL     1       0.101  -2.264  14.473  1.00  0.00     0.049 A 
ATOM     46  C   UNL     1      -0.465   2.542  17.596  1.00  0.00     0.074 A 
ATOM     47  C   UNL     1      -1.057  -2.652  13.838  1.00  0.00     0.029 A 
ATOM     48  N   UNL     1      -0.256  -1.464  15.526  1.00  0.00    -0.354 N 
ATOM     49  N   UNL     1      -1.636   2.034  17.335  1.00  0.00    -0.248 NA
ATOM     50  C   UNL     1       0.550   1.580  18.019  1.00  0.00     0.031 C 
ATOM     51  C   UNL     1      -2.119  -1.941  14.473  1.00  0.00     0.029 A 
ATOM     52  C   UNL     1      -1.586  -1.148  15.486  1.00  0.00     0.049 A 
ATOM     53  H   UNL     1       0.367  -1.155  16.224  1.00  0.00     0.167 HD
ATOM     54  C   UNL     1      -1.391   0.688  17.147  1.00  0.00     0.074 A 
ATOM     55  C   UNL     1      -0.094   0.439  17.757  1.00  0.00     0.031 C 
ATOM     56  C   UNL     1      -2.102  -0.019  16.224  1.00  0.00     0.037 A 
BRANCH  43  57
ATOM     57  C   UNL     1       2.522  -2.855  15.092  1.00  0.00     0.064 A 
ATOM     58  C   UNL     1       2.110  -3.946  15.884  1.00  0.00     0.173 A 
ATOM     59  C   UNL     1       3.737  -2.248  15.486  1.00  0.00     0.173 A 
ATOM     60  F   UNL     1       0.971  -4.598  15.608  1.00  0.00    -0.203 F 
ATOM     61  C   UNL     1       2.806  -4.330  17.033  1.00  0.00     0.198 A 
ATOM     62  C   UNL     1       4.456  -2.669  16.602  1.00  0.00     0.198 A 
ATOM     63  F   UNL     1       4.230  -1.158  14.890  1.00  0.00    -0.203 F 
ATOM     64  F   UNL     1       2.304  -5.285  17.826  1.00  0.00    -0.200 F 
ATOM     65  C   UNL     1       3.973  -3.684  17.397  1.00  0.00     0.200 A 
ATOM     66  F   UNL     1       5.576  -2.017  16.946  1.00  0.00    -0.200 F 
ATOM     67  F   UNL     1       4.606  -4.005  18.532  1.00  0.00    -0.200 F 
ENDBRANCH  43  57
BRANCH  44  68
ATOM     68  C   UNL     1       0.362   4.929  18.165  1.00  0.00     0.064 A 
ATOM     69  C   UNL     1      -0.178   4.947  19.461  1.00  0.00     0.173 A 
ATOM     70  C   UNL     1       1.491   5.741  17.943  1.00  0.00     0.173 A 
ATOM     71  F   UNL     1      -1.232   4.176  19.763  1.00  0.00    -0.203 F 
ATOM     72  C   UNL     1       0.400   5.703  20.485  1.00  0.00     0.198 A 
ATOM     73  C   UNL     1       2.062   6.502  18.964  1.00  0.00     0.198 A 
ATOM     74  F   UNL     1       2.120   5.736  16.759  1.00  0.00    -0.203 F 
ATOM     75  F   UNL     1      -0.102   5.640  21.726  1.00  0.00    -0.200 F 
ATOM     76  C   UNL     1       1.527   6.470  20.238  1.00  0.00     0.200 A 
ATOM     77  F   UNL     1       3.171   7.215  18.720  1.00  0.00    -0.200 F 
ATOM     78  F   UNL     1       2.121   7.141  21.234  1.00  0.00    -0.200 F 
ENDBRANCH  44  68
BRANCH  56  79
ATOM     79  C   UNL     1      -3.436   0.533  15.838  1.00  0.00     0.064 A 
ATOM     80  C   UNL     1      -3.617   1.723  15.115  1.00  0.00     0.173 A 
ATOM     81  C   UNL     1      -4.575  -0.209  16.172  1.00  0.00     0.173 A 
ATOM     82  F   UNL     1      -2.567   2.440  14.695  1.00  0.00    -0.203 F 
ATOM     83  C   UNL     1      -4.894   2.173  14.787  1.00  0.00     0.198 A 
ATOM     84  C   UNL     1      -5.846   0.223  15.810  1.00  0.00     0.198 A 
ATOM     85  F   UNL     1      -4.450  -1.375  16.826  1.00  0.00    -0.203 F 
ATOM     86  F   UNL     1      -5.050   3.326  14.121  1.00  0.00    -0.200 F 
ATOM     87  C   UNL     1      -6.006   1.420  15.130  1.00  0.00     0.200 A 
ATOM     88  F   UNL     1      -6.914  -0.529  16.108  1.00  0.00    -0.200 F 
ATOM     89  F   UNL     1      -7.233   1.837  14.789  1.00  0.00    -0.200 F 
ENDBRANCH  56  79
ENDBRANCH  30  31
ENDBRANCH  23  25
ENDBRANCH  22  23
ENDBRANCH  21  22
ENDBRANCH  20  21
ENDBRANCH  19  20
ENDBRANCH   1  19
TORSDOF 17
