REMARK SMILES CCC(=O)N1CCc2cc(C(=O)NC3(C(=O)OCCOCCOCCOC(=O)c4ccc(-c5c6nc(c(-c7c(F)c(F)c(F)c(F)c7F)c7ccc([nH]7)c(-c7c(F)c(F)c(F)c(F)c7F)c7nc(c(-c8c(F)c(F)c(F)c(F)c8F)c8ccc5[nH]8)C=C7)C=C6)cc4)CCCC3)ccc21
REMARK SMILES IDX 21 1 20 2 19 3 18 4 17 5 15 6 16 7 14 8 92 9 95 10 93 11
REMARK SMILES IDX 94 12 13 13 11 14 12 15 10 17 5 18 6 19 98 20 7 21 8 22
REMARK SMILES IDX 97 23 9 24 96 25 3 26 4 27 2 28 1 29 22 30 23 31 24 32 25 33
REMARK SMILES IDX 26 34 27 35 28 36 29 37 30 38 91 39 31 40 90 41 32 42 33 43
REMARK SMILES IDX 34 44 84 45 35 46 89 47 83 48 85 49 36 50 88 51 82 52 81 53
REMARK SMILES IDX 37 55 69 56 49 57 68 58 50 59 53 60 67 61 86 62 51 63 52 64
REMARK SMILES IDX 66 66 87 67 54 68 38 69 39 70 47 71 40 72 41 73 45 74 48 75
REMARK SMILES IDX 42 76 43 77 46 78 44 79 70 80 71 81 79 82 72 83 73 84 77 85
REMARK SMILES IDX 80 86 74 87 75 88 78 89 76 90 55 91 56 92 64 93 57 94 58 95
REMARK SMILES IDX 62 96 65 97 59 98 60 99 63 100 61 101
REMARK H PARENT 13 16 85 54 53 65
REMARK Flexibility Score: inf
ROOT
ATOM      1  C   UNL     1       6.712  -1.418   6.342  1.00  0.00     0.188 C 
ENDROOT
BRANCH   1   2
ATOM      2  O   UNL     1       6.678  -0.820   7.627  1.00  0.00    -0.376 OA
BRANCH   2   3
ATOM      3  C   UNL     1       5.531  -0.048   7.974  1.00  0.00     0.202 C 
BRANCH   3   4
ATOM      4  C   UNL     1       5.200   1.159   7.087  1.00  0.00     0.261 C 
BRANCH   4   5
ATOM      5  O   UNL     1       4.759   0.798   5.766  1.00  0.00    -0.461 OA
BRANCH   5   6
ATOM      6  C   UNL     1       5.569   1.099   4.713  1.00  0.00     0.331 C 
ATOM      7  O   UNL     1       6.648   1.675   4.805  1.00  0.00    -0.249 OA
BRANCH   6   8
ATOM      8  C   UNL     1       4.984   0.624   3.346  1.00  0.00     0.138 C 
ATOM      9  C   UNL     1       4.411   1.905   2.713  1.00  0.00     0.040 C 
ATOM     10  C   UNL     1       3.792  -0.346   3.568  1.00  0.00     0.040 C 
ATOM     11  C   UNL     1       2.939   1.922   3.109  1.00  0.00     0.003 C 
ATOM     12  C   UNL     1       2.514   0.473   3.334  1.00  0.00     0.003 C 
BRANCH   8  13
ATOM     13  N   UNL     1       6.131   0.046   2.539  1.00  0.00    -0.336 N 
ATOM     14  C   UNL     1       6.392  -0.485   1.281  1.00  0.00     0.252 C 
ATOM     15  O   UNL     1       7.561  -0.800   1.042  1.00  0.00    -0.269 OA
ATOM     16  H   UNL     1       6.955   0.048   3.079  1.00  0.00     0.165 HD
BRANCH  14  17
ATOM     17  C   UNL     1       5.381  -0.734   0.203  1.00  0.00     0.040 A 
ATOM     18  N   UNL     1       2.430  -1.464  -2.674  1.00  0.00    -0.312 N 
ATOM     19  C   UNL     1       3.183  -2.081  -3.773  1.00  0.00     0.130 C 
ATOM     20  C   UNL     1       3.324  -1.212  -1.644  1.00  0.00     0.047 A 
ATOM     21  C   UNL     1       4.667  -2.165  -3.330  1.00  0.00     0.059 C 
ATOM     22  C   UNL     1       4.640  -1.527  -1.971  1.00  0.00    -0.022 A 
ATOM     23  C   UNL     1       3.023  -0.794  -0.395  1.00  0.00     0.027 A 
ATOM     24  C   UNL     1       5.684  -1.310  -1.049  1.00  0.00     0.019 A 
ATOM     25  C   UNL     1       4.054  -0.461   0.448  1.00  0.00     0.016 A 
BRANCH  18  26
ATOM     26  C   UNL     1       1.078  -1.189  -2.755  1.00  0.00     0.226 C 
ATOM     27  O   UNL     1       0.334  -1.886  -3.454  1.00  0.00    -0.275 OA
BRANCH  26  28
ATOM     28  C   UNL     1       0.528   0.131  -2.171  1.00  0.00     0.097 C 
ATOM     29  C   UNL     1       0.075   0.234  -0.722  1.00  0.00     0.014 C 
ENDBRANCH  26  28
ENDBRANCH  18  26
ENDBRANCH  14  17
ENDBRANCH   8  13
ENDBRANCH   6   8
ENDBRANCH   5   6
ENDBRANCH   4   5
ENDBRANCH   3   4
ENDBRANCH   2   3
ENDBRANCH   1   2
BRANCH   1  30
ATOM     30  C   UNL     1       5.629  -2.440   5.990  1.00  0.00     0.188 C 
BRANCH  30  31
ATOM     31  O   UNL     1       4.405  -2.326   6.699  1.00  0.00    -0.376 OA
BRANCH  31  32
ATOM     32  C   UNL     1       3.524  -3.450   6.571  1.00  0.00     0.202 C 
BRANCH  32  33
ATOM     33  C   UNL     1       4.015  -4.724   7.293  1.00  0.00     0.261 C 
BRANCH  33  34
ATOM     34  O   UNL     1       5.212  -5.314   6.740  1.00  0.00    -0.460 OA
BRANCH  34  35
ATOM     35  C   UNL     1       5.199  -5.616   5.420  1.00  0.00     0.338 C 
ATOM     36  O   UNL     1       4.213  -5.697   4.705  1.00  0.00    -0.246 OA
BRANCH  35  37
ATOM     37  C   UNL     1       6.595  -5.550   4.907  1.00  0.00     0.060 A 
ATOM     38  C   UNL     1       6.819  -4.912   3.676  1.00  0.00     0.016 A 
ATOM     39  C   UNL     1       7.682  -6.017   5.652  1.00  0.00     0.016 A 
ATOM     40  C   UNL     1       8.116  -4.792   3.165  1.00  0.00     0.010 A 
ATOM     41  C   UNL     1       8.979  -5.905   5.136  1.00  0.00     0.010 A 
ATOM     42  C   UNL     1       9.200  -5.328   3.871  1.00  0.00    -0.014 A 
BRANCH  42  43
ATOM     43  C   UNL     1      10.523  -5.492   3.211  1.00  0.00     0.031 A 
ATOM     44  C   UNL     1      10.856  -6.837   2.621  1.00  0.00     0.074 A 
ATOM     45  C   UNL     1      11.420  -4.492   3.130  1.00  0.00     0.049 A 
ATOM     46  N   UNL     1      11.966  -7.260   2.070  1.00  0.00    -0.248 NA
ATOM     47  C   UNL     1       9.786  -7.848   2.668  1.00  0.00     0.031 C 
ATOM     48  C   UNL     1      11.221  -3.130   3.615  1.00  0.00     0.029 A 
ATOM     49  N   UNL     1      12.696  -4.484   2.615  1.00  0.00    -0.354 N 
ATOM     50  C   UNL     1      11.732  -8.582   1.719  1.00  0.00     0.074 A 
ATOM     51  C   UNL     1      10.387  -8.904   2.142  1.00  0.00     0.031 C 
ATOM     52  C   UNL     1      12.343  -2.421   3.392  1.00  0.00     0.029 A 
ATOM     53  C   UNL     1      13.350  -3.287   2.778  1.00  0.00     0.049 A 
ATOM     54  H   UNL     1      13.102  -5.263   2.171  1.00  0.00     0.167 HD
ATOM     55  C   UNL     1      12.559  -9.452   1.093  1.00  0.00     0.037 A 
ATOM     56  C   UNL     1      14.621  -2.941   2.488  1.00  0.00     0.037 A 
ATOM     57  C   UNL     1      13.894  -9.140   0.659  1.00  0.00     0.049 A 
ATOM     58  C   UNL     1      15.549  -3.951   1.854  1.00  0.00     0.074 A 
ATOM     59  C   UNL     1      14.792  -9.949  -0.015  1.00  0.00     0.029 A 
ATOM     60  N   UNL     1      14.527  -7.924   0.866  1.00  0.00    -0.354 N 
ATOM     61  N   UNL     1      15.309  -5.188   1.492  1.00  0.00    -0.248 NA
ATOM     62  C   UNL     1      16.928  -3.512   1.587  1.00  0.00     0.031 C 
ATOM     63  C   UNL     1      15.989  -9.243  -0.165  1.00  0.00     0.029 A 
ATOM     64  C   UNL     1      15.816  -7.973   0.361  1.00  0.00     0.049 A 
ATOM     65  H   UNL     1      14.121  -7.142   1.306  1.00  0.00     0.167 HD
ATOM     66  C   UNL     1      16.490  -5.660   0.929  1.00  0.00     0.074 A 
ATOM     67  C   UNL     1      17.444  -4.574   0.985  1.00  0.00     0.031 C 
ATOM     68  C   UNL     1      16.757  -6.883   0.409  1.00  0.00     0.037 A 
BRANCH  55  69
ATOM     69  C   UNL     1      12.051 -10.845   0.863  1.00  0.00     0.064 A 
ATOM     70  C   UNL     1      11.056 -11.123  -0.085  1.00  0.00     0.173 A 
ATOM     71  C   UNL     1      12.597 -11.921   1.579  1.00  0.00     0.173 A 
ATOM     72  F   UNL     1      10.491 -10.126  -0.783  1.00  0.00    -0.203 F 
ATOM     73  C   UNL     1      10.609 -12.425  -0.291  1.00  0.00     0.198 A 
ATOM     74  C   UNL     1      12.169 -13.225   1.348  1.00  0.00     0.198 A 
ATOM     75  F   UNL     1      13.553 -11.709   2.496  1.00  0.00    -0.203 F 
ATOM     76  F   UNL     1       9.624 -12.662  -1.169  1.00  0.00    -0.200 F 
ATOM     77  C   UNL     1      11.171 -13.475   0.419  1.00  0.00     0.200 A 
ATOM     78  F   UNL     1      12.722 -14.240   2.027  1.00  0.00    -0.200 F 
ATOM     79  F   UNL     1      10.746 -14.729   0.212  1.00  0.00    -0.200 F 
ENDBRANCH  55  69
BRANCH  56  80
ATOM     80  C   UNL     1      15.118  -1.576   2.815  1.00  0.00     0.064 A 
ATOM     81  C   UNL     1      15.473  -0.670   1.805  1.00  0.00     0.173 A 
ATOM     82  C   UNL     1      15.297  -1.169   4.145  1.00  0.00     0.173 A 
ATOM     83  F   UNL     1      15.357  -1.026   0.516  1.00  0.00    -0.203 F 
ATOM     84  C   UNL     1      16.008   0.579   2.112  1.00  0.00     0.198 A 
ATOM     85  C   UNL     1      15.804   0.092   4.452  1.00  0.00     0.198 A 
ATOM     86  F   UNL     1      14.988  -2.002   5.150  1.00  0.00    -0.203 F 
ATOM     87  F   UNL     1      16.397   1.400   1.127  1.00  0.00    -0.200 F 
ATOM     88  C   UNL     1      16.169   0.962   3.435  1.00  0.00     0.200 A 
ATOM     89  F   UNL     1      15.955   0.459   5.732  1.00  0.00    -0.200 F 
ATOM     90  F   UNL     1      16.690   2.160   3.731  1.00  0.00    -0.200 F 
ENDBRANCH  56  80
BRANCH  68  91
ATOM     91  C   UNL     1      18.120  -7.111  -0.183  1.00  0.00     0.064 A 
ATOM     92  C   UNL     1      19.266  -7.218   0.619  1.00  0.00     0.173 A 
ATOM     93  C   UNL     1      18.272  -7.279  -1.568  1.00  0.00     0.173 A 
ATOM     94  F   UNL     1      19.179  -7.055   1.947  1.00  0.00    -0.203 F 
ATOM     95  C   UNL     1      20.516  -7.462   0.053  1.00  0.00     0.198 A 
ATOM     96  C   UNL     1      19.517  -7.554  -2.127  1.00  0.00     0.198 A 
ATOM     97  F   UNL     1      17.207  -7.197  -2.381  1.00  0.00    -0.203 F 
ATOM     98  F   UNL     1      21.604  -7.517   0.834  1.00  0.00    -0.200 F 
ATOM     99  C   UNL     1      20.639  -7.638  -1.317  1.00  0.00     0.200 A 
ATOM    100  F   UNL     1      19.631  -7.740  -3.449  1.00  0.00    -0.200 F 
ATOM    101  F   UNL     1      21.841  -7.883  -1.858  1.00  0.00    -0.200 F 
ENDBRANCH  68  91
ENDBRANCH  42  43
ENDBRANCH  35  37
ENDBRANCH  34  35
ENDBRANCH  33  34
ENDBRANCH  32  33
ENDBRANCH  31  32
ENDBRANCH  30  31
ENDBRANCH   1  30
TORSDOF 21
