REMARK SMILES O=C(OCCOCCOCCOC(=O)[C@H](CO)Nc1ccc(C(F)(F)F)cc1[N+](=O)[O-])c1ccc(-c2c3nc(c(-c4c(F)c(F)c(F)c(F)c4F)c4ccc([nH]4)c(-c4c(F)c(F)c(F)c(F)c4F)c4nc(c(-c5c(F)c(F)c(F)c(F)c5F)c5ccc2[nH]5)C=C4)C=C3)cc1
REMARK SMILES IDX 8 1 7 2 6 3 5 4 4 5 3 6 2 7 1 8 32 9 33 10 94 11 34 12 93 13
REMARK SMILES IDX 35 14 36 15 37 16 87 17 38 18 92 19 86 20 88 21 39 22 91 23
REMARK SMILES IDX 85 24 84 25 40 27 72 28 52 29 71 30 53 31 56 32 70 33 89 34
REMARK SMILES IDX 54 35 55 36 69 38 90 39 57 40 41 41 42 42 50 43 43 44 44 45
REMARK SMILES IDX 48 46 51 47 45 48 46 49 49 50 47 51 73 52 74 53 82 54 75 55
REMARK SMILES IDX 76 56 80 57 83 58 77 59 78 60 81 61 79 62 58 63 59 64 67 65
REMARK SMILES IDX 60 66 61 67 65 68 68 69 62 70 63 71 66 72 64 73 9 74 10 75
REMARK SMILES IDX 11 76 12 77 13 78 14 79 15 80 18 81 19 83 20 84 28 85 21 86
REMARK SMILES IDX 27 87 22 88 29 89 30 90 31 91 23 92 24 93 25 94 26 95 16 96
REMARK SMILES IDX 17 97
REMARK H PARENT 88 26 56 37 18 82 17 98
REMARK Flexibility Score: inf
ROOT
ATOM      1  C   UNL     1       4.660   1.468   2.144  1.00  0.00     0.188 C 
ENDROOT
BRANCH   1   2
ATOM      2  C   UNL     1       3.383   0.627   2.075  1.00  0.00     0.188 C 
BRANCH   2   3
ATOM      3  O   UNL     1       2.231   1.292   2.609  1.00  0.00    -0.376 OA
BRANCH   3   4
ATOM      4  C   UNL     1       1.564   0.518   3.617  1.00  0.00     0.202 C 
BRANCH   4   5
ATOM      5  C   UNL     1       0.615  -0.558   3.067  1.00  0.00     0.261 C 
BRANCH   5   6
ATOM      6  O   UNL     1       1.080  -1.123   1.829  1.00  0.00    -0.460 OA
BRANCH   6   7
ATOM      7  C   UNL     1       0.832  -0.713   0.561  1.00  0.00     0.338 C 
ATOM      8  O   UNL     1       1.369  -1.322  -0.364  1.00  0.00    -0.246 OA
BRANCH   7   9
ATOM      9  C   UNL     1      -0.094   0.410   0.201  1.00  0.00     0.060 A 
ATOM     10  C   UNL     1      -0.466   1.459   1.040  1.00  0.00     0.016 A 
ATOM     11  C   UNL     1      -0.613   0.409  -1.109  1.00  0.00     0.016 A 
ATOM     12  C   UNL     1      -1.444   2.375   0.661  1.00  0.00     0.010 A 
ATOM     13  C   UNL     1      -1.560   1.357  -1.518  1.00  0.00     0.010 A 
ATOM     14  C   UNL     1      -2.033   2.299  -0.601  1.00  0.00    -0.014 A 
BRANCH  14  15
ATOM     15  C   UNL     1      -3.276   3.070  -0.824  1.00  0.00     0.031 A 
ATOM     16  C   UNL     1      -4.588   2.338  -0.726  1.00  0.00     0.074 A 
ATOM     17  C   UNL     1      -3.236   4.409  -0.940  1.00  0.00     0.049 A 
ATOM     18  N   UNL     1      -5.809   2.803  -0.792  1.00  0.00    -0.248 NA
ATOM     19  C   UNL     1      -4.516   0.881  -0.524  1.00  0.00     0.031 C 
ATOM     20  C   UNL     1      -2.021   5.220  -1.006  1.00  0.00     0.029 A 
ATOM     21  N   UNL     1      -4.252   5.328  -0.972  1.00  0.00    -0.354 N 
ATOM     22  C   UNL     1      -6.641   1.695  -0.688  1.00  0.00     0.074 A 
ATOM     23  C   UNL     1      -5.793   0.534  -0.545  1.00  0.00     0.031 C 
ATOM     24  C   UNL     1      -2.360   6.522  -1.011  1.00  0.00     0.029 A 
ATOM     25  C   UNL     1      -3.813   6.630  -0.978  1.00  0.00     0.049 A 
ATOM     26  H   UNL     1      -5.204   5.080  -0.990  1.00  0.00     0.167 HD
ATOM     27  C   UNL     1      -7.993   1.650  -0.722  1.00  0.00     0.037 A 
ATOM     28  C   UNL     1      -4.523   7.772  -0.957  1.00  0.00     0.037 A 
ATOM     29  C   UNL     1      -8.828   2.814  -0.841  1.00  0.00     0.049 A 
ATOM     30  C   UNL     1      -6.027   7.686  -0.973  1.00  0.00     0.074 A 
ATOM     31  C   UNL     1     -10.206   2.892  -0.926  1.00  0.00     0.029 A 
ATOM     32  N   UNL     1      -8.348   4.115  -0.884  1.00  0.00    -0.354 N 
ATOM     33  N   UNL     1      -6.802   6.632  -0.925  1.00  0.00    -0.248 NA
ATOM     34  C   UNL     1      -6.751   8.963  -1.069  1.00  0.00     0.031 C 
ATOM     35  C   UNL     1     -10.558   4.240  -1.059  1.00  0.00     0.029 A 
ATOM     36  C   UNL     1      -9.402   5.002  -1.007  1.00  0.00     0.049 A 
ATOM     37  H   UNL     1      -7.398   4.369  -0.834  1.00  0.00     0.167 HD
ATOM     38  C   UNL     1      -8.100   7.115  -0.999  1.00  0.00     0.074 A 
ATOM     39  C   UNL     1      -8.010   8.559  -1.039  1.00  0.00     0.031 C 
ATOM     40  C   UNL     1      -9.268   6.432  -1.057  1.00  0.00     0.037 A 
BRANCH  27  41
ATOM     41  C   UNL     1      -8.636   0.295  -0.709  1.00  0.00     0.064 A 
ATOM     42  C   UNL     1      -8.671  -0.507   0.441  1.00  0.00     0.173 A 
ATOM     43  C   UNL     1      -9.209  -0.216  -1.884  1.00  0.00     0.173 A 
ATOM     44  F   UNL     1      -8.113  -0.076   1.582  1.00  0.00    -0.203 F 
ATOM     45  C   UNL     1      -9.229  -1.783   0.405  1.00  0.00     0.198 A 
ATOM     46  C   UNL     1      -9.789  -1.480  -1.909  1.00  0.00     0.198 A 
ATOM     47  F   UNL     1      -9.197   0.509  -3.013  1.00  0.00    -0.203 F 
ATOM     48  F   UNL     1      -9.198  -2.557   1.499  1.00  0.00    -0.200 F 
ATOM     49  C   UNL     1      -9.790  -2.267  -0.768  1.00  0.00     0.200 A 
ATOM     50  F   UNL     1     -10.335  -1.943  -3.042  1.00  0.00    -0.200 F 
ATOM     51  F   UNL     1     -10.320  -3.497  -0.802  1.00  0.00    -0.200 F 
ENDBRANCH  27  41
BRANCH  28  52
ATOM     52  C   UNL     1      -3.877   9.108  -0.989  1.00  0.00     0.064 A 
ATOM     53  C   UNL     1      -3.982   9.983   0.102  1.00  0.00     0.173 A 
ATOM     54  C   UNL     1      -3.316   9.600  -2.174  1.00  0.00     0.173 A 
ATOM     55  F   UNL     1      -4.529   9.557   1.251  1.00  0.00    -0.203 F 
ATOM     56  C   UNL     1      -3.618  11.322  -0.016  1.00  0.00     0.198 A 
ATOM     57  C   UNL     1      -2.928  10.933  -2.283  1.00  0.00     0.198 A 
ATOM     58  F   UNL     1      -3.192   8.799  -3.241  1.00  0.00    -0.203 F 
ATOM     59  F   UNL     1      -3.797  12.158   1.016  1.00  0.00    -0.200 F 
ATOM     60  C   UNL     1      -3.101  11.798  -1.212  1.00  0.00     0.200 A 
ATOM     61  F   UNL     1      -2.414  11.385  -3.434  1.00  0.00    -0.200 F 
ATOM     62  F   UNL     1      -2.768  13.091  -1.333  1.00  0.00    -0.200 F 
ENDBRANCH  28  52
BRANCH  40  63
ATOM     63  C   UNL     1     -10.515   7.253  -1.167  1.00  0.00     0.064 A 
ATOM     64  C   UNL     1     -10.846   7.921  -2.355  1.00  0.00     0.173 A 
ATOM     65  C   UNL     1     -11.379   7.382  -0.071  1.00  0.00     0.173 A 
ATOM     66  F   UNL     1     -10.034   7.846  -3.421  1.00  0.00    -0.203 F 
ATOM     67  C   UNL     1     -11.982   8.719  -2.431  1.00  0.00     0.198 A 
ATOM     68  C   UNL     1     -12.530   8.157  -0.159  1.00  0.00     0.198 A 
ATOM     69  F   UNL     1     -11.100   6.762   1.086  1.00  0.00    -0.203 F 
ATOM     70  F   UNL     1     -12.248   9.399  -3.554  1.00  0.00    -0.200 F 
ATOM     71  C   UNL     1     -12.825   8.832  -1.335  1.00  0.00     0.200 A 
ATOM     72  F   UNL     1     -13.346   8.262   0.898  1.00  0.00    -0.200 F 
ATOM     73  F   UNL     1     -13.917   9.606  -1.406  1.00  0.00    -0.200 F 
ENDBRANCH  40  63
ENDBRANCH  14  15
ENDBRANCH   7   9
ENDBRANCH   6   7
ENDBRANCH   5   6
ENDBRANCH   4   5
ENDBRANCH   3   4
ENDBRANCH   2   3
ENDBRANCH   1   2
BRANCH   1  74
ATOM     74  O   UNL     1       5.087   1.860   3.442  1.00  0.00    -0.376 OA
BRANCH  74  75
ATOM     75  C   UNL     1       4.278   2.801   4.151  1.00  0.00     0.202 C 
BRANCH  75  76
ATOM     76  C   UNL     1       4.112   4.188   3.518  1.00  0.00     0.261 C 
BRANCH  76  77
ATOM     77  O   UNL     1       3.297   4.155   2.332  1.00  0.00    -0.462 OA
BRANCH  77  78
ATOM     78  C   UNL     1       3.849   4.686   1.201  1.00  0.00     0.331 C 
ATOM     79  O   UNL     1       4.973   5.147   1.113  1.00  0.00    -0.250 OA
BRANCH  78  80
ATOM     80  C   UNL     1       2.870   4.585   0.029  1.00  0.00     0.216 C 
BRANCH  80  81
ATOM     81  N   UNL     1       2.788   5.870  -0.685  1.00  0.00    -0.365 N 
ATOM     82  H   UNL     1       3.293   5.894  -1.529  1.00  0.00     0.161 HD
BRANCH  81  83
ATOM     83  C   UNL     1       2.134   7.043  -0.389  1.00  0.00     0.114 A 
ATOM     84  C   UNL     1       2.396   8.103  -1.286  1.00  0.00     0.033 A 
ATOM     85  C   UNL     1       1.224   7.340   0.637  1.00  0.00     0.292 A 
ATOM     86  C   UNL     1       1.810   9.367  -1.169  1.00  0.00     0.016 A 
ATOM     87  C   UNL     1       0.615   8.608   0.767  1.00  0.00     0.101 A 
ATOM     88  C   UNL     1       0.907   9.632  -0.142  1.00  0.00     0.062 A 
BRANCH  85  89
ATOM     89  N   UNL     1       0.859   6.387   1.664  1.00  0.00     0.064 N 
ATOM     90  O   UNL     1       1.243   6.631   2.816  1.00  0.00    -0.258 OA
ATOM     91  O   UNL     1       0.132   5.440   1.340  1.00  0.00    -0.258 OA
ENDBRANCH  85  89
BRANCH  88  92
ATOM     92  C   UNL     1       0.291  10.998  -0.016  1.00  0.00     0.416 C 
ATOM     93  F   UNL     1       1.127  11.911   0.538  1.00  0.00    -0.166 F 
ATOM     94  F   UNL     1      -0.089  11.503  -1.221  1.00  0.00    -0.166 F 
ATOM     95  F   UNL     1      -0.835  10.991   0.748  1.00  0.00    -0.166 F 
ENDBRANCH  88  92
ENDBRANCH  81  83
ENDBRANCH  80  81
BRANCH  80  96
ATOM     96  C   UNL     1       3.407   3.517  -0.951  1.00  0.00     0.193 C 
BRANCH  96  97
ATOM     97  O   UNL     1       2.507   3.299  -2.042  1.00  0.00    -0.394 OA
ATOM     98  H   UNL     1       1.657   2.980  -1.701  1.00  0.00     0.210 HD
ENDBRANCH  96  97
ENDBRANCH  80  96
ENDBRANCH  78  80
ENDBRANCH  77  78
ENDBRANCH  76  77
ENDBRANCH  75  76
ENDBRANCH  74  75
ENDBRANCH   1  74
TORSDOF 23
