REMARK SMILES CCc1cc(N2CCC[C@H](C(=O)OCCOCCOCCOC(=O)c3ccc(-c4c5nc(c(-c6c(F)c(F)c(F)c(F)c6F)c6ccc([nH]6)c(-c6c(F)c(F)c(F)c(F)c6F)c6nc(c(-c7c(F)c(F)c(F)c(F)c7F)c7ccc4[nH]7)C=C6)C=C5)cc3)C2)nc(-c2ccc(Cl)cc2)n1
REMARK SMILES IDX 17 1 16 2 15 3 14 4 13 5 11 6 12 7 10 8 6 9 7 10 88 11 8 12
REMARK SMILES IDX 9 13 5 14 3 15 4 16 98 17 90 18 89 19 2 20 1 21 91 22 92 23
REMARK SMILES IDX 97 24 93 25 96 26 94 27 95 28 18 29 19 30 20 31 21 32 22 33
REMARK SMILES IDX 23 34 24 35 25 36 26 37 87 38 27 39 86 40 28 41 29 42 30 43
REMARK SMILES IDX 80 44 31 45 85 46 79 47 81 48 32 49 84 50 78 51 77 52 33 54
REMARK SMILES IDX 65 55 45 56 64 57 46 58 49 59 63 60 82 61 47 62 48 63 62 65
REMARK SMILES IDX 83 66 50 67 34 68 35 69 43 70 36 71 37 72 41 73 44 74 38 75
REMARK SMILES IDX 39 76 42 77 40 78 66 79 67 80 75 81 68 82 69 83 73 84 76 85
REMARK SMILES IDX 70 86 71 87 74 88 72 89 51 90 52 91 60 92 53 93 54 94 58 95
REMARK SMILES IDX 61 96 55 97 56 98 59 99 57 100
REMARK H PARENT 81 53 49 64
REMARK Flexibility Score: inf
ROOT
ATOM      1  C   UNL     1      -1.708   6.304   7.499  1.00  0.00     0.188 C 
ENDROOT
BRANCH   1   2
ATOM      2  O   UNL     1      -1.250   5.631   8.657  1.00  0.00    -0.376 OA
BRANCH   2   3
ATOM      3  C   UNL     1      -0.030   4.896   8.569  1.00  0.00     0.202 C 
BRANCH   3   4
ATOM      4  C   UNL     1       0.195   3.947   7.375  1.00  0.00     0.261 C 
BRANCH   4   5
ATOM      5  O   UNL     1       0.220   4.583   6.077  1.00  0.00    -0.463 OA
BRANCH   5   6
ATOM      6  C   UNL     1      -0.772   4.250   5.217  1.00  0.00     0.310 C 
ATOM      7  O   UNL     1      -1.713   3.511   5.504  1.00  0.00    -0.252 OA
BRANCH   6   8
ATOM      8  C   UNL     1      -0.668   4.865   3.823  1.00  0.00     0.118 C 
ATOM      9  N   UNL     1       1.046   3.334   3.180  1.00  0.00    -0.356 N 
ATOM     10  C   UNL     1       2.096   4.295   2.899  1.00  0.00     0.118 C 
ATOM     11  C   UNL     1      -0.338   3.694   2.917  1.00  0.00     0.133 C 
ATOM     12  C   UNL     1       1.780   5.624   3.585  1.00  0.00     0.022 C 
ATOM     13  C   UNL     1       0.305   6.005   3.477  1.00  0.00     0.019 C 
BRANCH   9  14
ATOM     14  C   UNL     1       1.346   1.992   3.205  1.00  0.00     0.132 A 
ATOM     15  C   UNL     1       1.201  -0.142   2.222  1.00  0.00     0.046 A 
ATOM     16  C   UNL     1       1.014   1.214   2.119  1.00  0.00     0.070 A 
ATOM     17  N   UNL     1       1.688  -0.701   3.344  1.00  0.00    -0.233 NA
ATOM     18  C   UNL     1       1.970   0.135   4.366  1.00  0.00     0.161 A 
ATOM     19  N   UNL     1       1.830   1.470   4.340  1.00  0.00    -0.211 NA
BRANCH  15  20
ATOM     20  C   UNL     1       0.762  -1.053   1.108  1.00  0.00     0.053 C 
ATOM     21  C   UNL     1       1.196  -0.575  -0.273  1.00  0.00     0.011 C 
ENDBRANCH  15  20
BRANCH  18  22
ATOM     22  C   UNL     1       2.393  -0.488   5.624  1.00  0.00     0.019 A 
ATOM     23  C   UNL     1       3.478  -1.381   5.646  1.00  0.00     0.013 A 
ATOM     24  C   UNL     1       1.696  -0.263   6.826  1.00  0.00     0.013 A 
ATOM     25  C   UNL     1       3.846  -2.044   6.820  1.00  0.00     0.021 A 
ATOM     26  C   UNL     1       2.051  -0.939   8.001  1.00  0.00     0.021 A 
ATOM     27  C   UNL     1       3.122  -1.830   7.989  1.00  0.00     0.041 A 
ATOM     28  Cl  UNL     1       3.544  -2.684   9.422  1.00  0.00    -0.084 Cl
ENDBRANCH  18  22
ENDBRANCH   9  14
ENDBRANCH   6   8
ENDBRANCH   5   6
ENDBRANCH   4   5
ENDBRANCH   3   4
ENDBRANCH   2   3
ENDBRANCH   1   2
BRANCH   1  29
ATOM     29  C   UNL     1      -0.729   7.209   6.749  1.00  0.00     0.188 C 
BRANCH  29  30
ATOM     30  O   UNL     1       0.620   7.077   7.117  1.00  0.00    -0.376 OA
BRANCH  30  31
ATOM     31  C   UNL     1       1.383   8.195   7.540  1.00  0.00     0.202 C 
BRANCH  31  32
ATOM     32  C   UNL     1       0.798   9.273   8.478  1.00  0.00     0.261 C 
BRANCH  32  33
ATOM     33  O   UNL     1      -0.524   9.763   8.199  1.00  0.00    -0.460 OA
BRANCH  33  34
ATOM     34  C   UNL     1      -0.715  10.447   7.045  1.00  0.00     0.338 C 
ATOM     35  O   UNL     1       0.147  10.814   6.263  1.00  0.00    -0.246 OA
BRANCH  34  36
ATOM     36  C   UNL     1      -2.173  10.395   6.735  1.00  0.00     0.060 A 
ATOM     37  C   UNL     1      -2.571   9.922   5.472  1.00  0.00     0.016 A 
ATOM     38  C   UNL     1      -3.138  10.689   7.700  1.00  0.00     0.016 A 
ATOM     39  C   UNL     1      -3.928   9.784   5.161  1.00  0.00     0.010 A 
ATOM     40  C   UNL     1      -4.497  10.574   7.380  1.00  0.00     0.010 A 
ATOM     41  C   UNL     1      -4.901  10.154   6.098  1.00  0.00    -0.014 A 
BRANCH  41  42
ATOM     42  C   UNL     1      -6.317  10.328   5.678  1.00  0.00     0.031 A 
ATOM     43  C   UNL     1      -6.783  11.721   5.343  1.00  0.00     0.074 A 
ATOM     44  C   UNL     1      -7.178   9.299   5.585  1.00  0.00     0.049 A 
ATOM     45  N   UNL     1      -7.979  12.154   5.038  1.00  0.00    -0.248 NA
ATOM     46  C   UNL     1      -5.750  12.770   5.361  1.00  0.00     0.031 C 
ATOM     47  C   UNL     1      -6.855   7.896   5.827  1.00  0.00     0.029 A 
ATOM     48  N   UNL     1      -8.517   9.287   5.269  1.00  0.00    -0.354 N 
ATOM     49  C   UNL     1      -7.845  13.523   4.844  1.00  0.00     0.074 A 
ATOM     50  C   UNL     1      -6.459  13.854   5.093  1.00  0.00     0.031 C 
ATOM     51  C   UNL     1      -7.970   7.159   5.670  1.00  0.00     0.029 A 
ATOM     52  C   UNL     1      -9.093   8.042   5.354  1.00  0.00     0.049 A 
ATOM     53  H   UNL     1      -9.016  10.094   5.008  1.00  0.00     0.167 HD
ATOM     54  C   UNL     1      -8.788  14.425   4.483  1.00  0.00     0.037 A 
ATOM     55  C   UNL     1     -10.382   7.667   5.220  1.00  0.00     0.037 A 
ATOM     56  C   UNL     1     -10.168  14.101   4.237  1.00  0.00     0.049 A 
ATOM     57  C   UNL     1     -11.435   8.704   4.904  1.00  0.00     0.074 A 
ATOM     58  C   UNL     1     -11.195  14.944   3.849  1.00  0.00     0.029 A 
ATOM     59  N   UNL     1     -10.718  12.835   4.365  1.00  0.00    -0.354 N 
ATOM     60  N   UNL     1     -11.298   9.992   4.698  1.00  0.00    -0.248 NA
ATOM     61  C   UNL     1     -12.825   8.232   4.803  1.00  0.00     0.031 C 
ATOM     62  C   UNL     1     -12.378  14.201   3.807  1.00  0.00     0.029 A 
ATOM     63  C   UNL     1     -12.077  12.880   4.096  1.00  0.00     0.049 A 
ATOM     64  H   UNL     1     -10.217  12.023   4.612  1.00  0.00     0.167 HD
ATOM     65  C   UNL     1     -12.570  10.474   4.409  1.00  0.00     0.074 A 
ATOM     66  C   UNL     1     -13.466   9.338   4.453  1.00  0.00     0.031 C 
ATOM     67  C   UNL     1     -12.960  11.742   4.129  1.00  0.00     0.037 A 
BRANCH  54  68
ATOM     68  C   UNL     1      -8.365  15.861   4.368  1.00  0.00     0.064 A 
ATOM     69  C   UNL     1      -7.517  16.303   3.341  1.00  0.00     0.173 A 
ATOM     70  C   UNL     1      -8.838  16.813   5.284  1.00  0.00     0.173 A 
ATOM     71  F   UNL     1      -7.022  15.431   2.450  1.00  0.00    -0.203 F 
ATOM     72  C   UNL     1      -7.136  17.640   3.253  1.00  0.00     0.198 A 
ATOM     73  C   UNL     1      -8.484  18.154   5.172  1.00  0.00     0.198 A 
ATOM     74  F   UNL     1      -9.653  16.444   6.283  1.00  0.00    -0.203 F 
ATOM     75  F   UNL     1      -6.282  18.030   2.297  1.00  0.00    -0.200 F 
ATOM     76  C   UNL     1      -7.627  18.565   4.163  1.00  0.00     0.200 A 
ATOM     77  F   UNL     1      -8.971  19.049   6.043  1.00  0.00    -0.200 F 
ATOM     78  F   UNL     1      -7.267  19.853   4.071  1.00  0.00    -0.200 F 
ENDBRANCH  54  68
BRANCH  55  79
ATOM     79  C   UNL     1     -10.770   6.241   5.404  1.00  0.00     0.064 A 
ATOM     80  C   UNL     1     -11.270   5.481   4.336  1.00  0.00     0.173 A 
ATOM     81  C   UNL     1     -10.692   5.621   6.660  1.00  0.00     0.173 A 
ATOM     82  F   UNL     1     -11.398   6.037   3.122  1.00  0.00    -0.203 F 
ATOM     83  C   UNL     1     -11.694   4.166   4.521  1.00  0.00     0.198 A 
ATOM     84  C   UNL     1     -11.085   4.295   6.837  1.00  0.00     0.198 A 
ATOM     85  F   UNL     1     -10.233   6.304   7.719  1.00  0.00    -0.203 F 
ATOM     86  F   UNL     1     -12.221   3.484   3.495  1.00  0.00    -0.200 F 
ATOM     87  C   UNL     1     -11.595   3.572   5.770  1.00  0.00     0.200 A 
ATOM     88  F   UNL     1     -10.980   3.723   8.044  1.00  0.00    -0.200 F 
ATOM     89  F   UNL     1     -12.003   2.308   5.948  1.00  0.00    -0.200 F 
ENDBRANCH  55  79
BRANCH  67  90
ATOM     90  C   UNL     1     -14.409  11.973   3.796  1.00  0.00     0.064 A 
ATOM     91  C   UNL     1     -15.420  11.869   4.763  1.00  0.00     0.173 A 
ATOM     92  C   UNL     1     -14.785  12.354   2.498  1.00  0.00     0.173 A 
ATOM     93  F   UNL     1     -15.120  11.498   6.017  1.00  0.00    -0.203 F 
ATOM     94  C   UNL     1     -16.753  12.107   4.436  1.00  0.00     0.198 A 
ATOM     95  C   UNL     1     -16.113  12.626   2.183  1.00  0.00     0.198 A 
ATOM     96  F   UNL     1     -13.859  12.480   1.535  1.00  0.00    -0.203 F 
ATOM     97  F   UNL     1     -17.708  11.950   5.364  1.00  0.00    -0.200 F 
ATOM     98  C   UNL     1     -17.098  12.494   3.149  1.00  0.00     0.200 A 
ATOM     99  F   UNL     1     -16.440  13.018   0.943  1.00  0.00    -0.200 F 
ATOM    100  F   UNL     1     -18.379  12.733   2.839  1.00  0.00    -0.200 F 
ENDBRANCH  67  90
ENDBRANCH  41  42
ENDBRANCH  34  36
ENDBRANCH  33  34
ENDBRANCH  32  33
ENDBRANCH  31  32
ENDBRANCH  30  31
ENDBRANCH  29  30
ENDBRANCH   1  29
TORSDOF 20
