REMARK SMILES O=C(OCCOCCOCCOC(=O)c1ccc(-c2c3nc(c(-c4c(F)c(F)c(F)c(F)c4F)c4ccc([nH]4)c(-c4c(F)c(F)c(F)c(F)c4F)c4nc(c(-c5c(F)c(F)c(F)c(F)c5F)c5ccc2[nH]5)C=C4)C=C3)cc1)C1=Cc2cc(Cl)ccc2O[C@@H]1C(F)(F)F
REMARK SMILES IDX 8 1 7 2 6 3 5 4 4 5 3 6 2 7 1 8 78 9 79 10 88 11 80 12 87 13
REMARK SMILES IDX 81 14 86 15 82 16 85 17 83 18 84 19 89 20 90 21 91 22 92 23
REMARK SMILES IDX 9 24 10 25 11 26 12 27 13 28 14 29 15 30 16 31 77 32 17 33
REMARK SMILES IDX 76 34 18 35 19 36 20 37 70 38 21 39 75 40 69 41 71 42 22 43
REMARK SMILES IDX 74 44 68 45 67 46 23 48 55 49 35 50 54 51 36 52 39 53 53 54
REMARK SMILES IDX 72 55 37 56 38 57 52 59 73 60 40 61 24 62 25 63 33 64 26 65
REMARK SMILES IDX 27 66 31 67 34 68 28 69 29 70 32 71 30 72 56 73 57 74 65 75
REMARK SMILES IDX 58 76 59 77 63 78 66 79 60 80 61 81 64 82 62 83 41 84 42 85
REMARK SMILES IDX 50 86 43 87 44 88 48 89 51 90 45 91 46 92 49 93 47 94
REMARK H PARENT 71 47 39 58
REMARK Flexibility Score: inf
ROOT
ATOM      1  C   UNL     1       2.153  -1.550   3.076  1.00  0.00     0.188 C 
ENDROOT
BRANCH   1   2
ATOM      2  C   UNL     1       2.417  -1.747   1.572  1.00  0.00     0.188 C 
BRANCH   2   3
ATOM      3  O   UNL     1       3.779  -1.731   1.012  1.00  0.00    -0.376 OA
BRANCH   3   4
ATOM      4  C   UNL     1       4.418  -0.744  -0.199  1.00  0.00     0.202 C 
BRANCH   4   5
ATOM      5  C   UNL     1       3.771   1.280  -0.694  1.00  0.00     0.261 C 
BRANCH   5   6
ATOM      6  O   UNL     1       2.903   1.673  -1.906  1.00  0.00    -0.460 OA
BRANCH   6   7
ATOM      7  C   UNL     1       3.103   0.878  -2.967  1.00  0.00     0.338 C 
ATOM      8  O   UNL     1       2.470   0.792  -3.990  1.00  0.00    -0.246 OA
BRANCH   7   9
ATOM      9  C   UNL     1       3.913  -0.090  -2.264  1.00  0.00     0.087 C 
ATOM     10  C   UNL     1       5.304   0.326  -2.042  1.00  0.00     0.027 C 
ATOM     11  C   UNL     1       2.605  -0.406  -0.879  1.00  0.00     0.316 C 
ATOM     12  C   UNL     1       5.944   0.846  -0.436  1.00  0.00     0.019 A 
ATOM     13  O   UNL     1       3.223   0.290   0.825  1.00  0.00    -0.475 OA
ATOM     14  C   UNL     1       7.244   1.252  -0.324  1.00  0.00     0.032 A 
ATOM     15  C   UNL     1       4.944   0.884   0.978  1.00  0.00     0.128 A 
ATOM     16  C   UNL     1       7.636   1.611   0.979  1.00  0.00     0.041 A 
ATOM     17  C   UNL     1       5.407   1.249   2.209  1.00  0.00     0.048 A 
ATOM     18  Cl  UNL     1       9.293   2.092   1.181  1.00  0.00    -0.084 Cl
ATOM     19  C   UNL     1       6.782   1.600   2.167  1.00  0.00     0.024 A 
BRANCH  11  20
ATOM     20  C   UNL     1       2.205  -1.931  -1.340  1.00  0.00     0.430 C 
ATOM     21  F   UNL     1       2.370  -2.963  -0.513  1.00  0.00    -0.167 F 
ATOM     22  F   UNL     1       0.912  -1.959  -1.747  1.00  0.00    -0.167 F 
ATOM     23  F   UNL     1       2.929  -2.299  -2.443  1.00  0.00    -0.167 F 
ENDBRANCH  11  20
ENDBRANCH   7   9
ENDBRANCH   6   7
ENDBRANCH   5   6
ENDBRANCH   4   5
ENDBRANCH   3   4
ENDBRANCH   2   3
ENDBRANCH   1   2
BRANCH   1  24
ATOM     24  O   UNL     1       3.168  -1.011   3.887  1.00  0.00    -0.376 OA
BRANCH  24  25
ATOM     25  C   UNL     1       4.411  -1.704   3.877  1.00  0.00     0.202 C 
BRANCH  25  26
ATOM     26  C   UNL     1       4.395  -3.221   4.117  1.00  0.00     0.261 C 
BRANCH  26  27
ATOM     27  O   UNL     1       3.974  -3.976   2.960  1.00  0.00    -0.460 OA
BRANCH  27  28
ATOM     28  C   UNL     1       2.884  -4.772   3.091  1.00  0.00     0.338 C 
ATOM     29  O   UNL     1       2.178  -4.912   4.074  1.00  0.00    -0.246 OA
BRANCH  28  30
ATOM     30  C   UNL     1       2.579  -5.388   1.783  1.00  0.00     0.060 A 
ATOM     31  C   UNL     1       1.320  -5.186   1.194  1.00  0.00     0.016 A 
ATOM     32  C   UNL     1       3.532  -6.190   1.158  1.00  0.00     0.016 A 
ATOM     33  C   UNL     1       1.022  -5.763  -0.044  1.00  0.00     0.010 A 
ATOM     34  C   UNL     1       3.216  -6.810  -0.049  1.00  0.00     0.010 A 
ATOM     35  C   UNL     1       1.957  -6.614  -0.646  1.00  0.00    -0.014 A 
BRANCH  35  36
ATOM     36  C   UNL     1       1.555  -7.529  -1.739  1.00  0.00     0.031 A 
ATOM     37  C   UNL     1       1.024  -8.875  -1.343  1.00  0.00     0.074 A 
ATOM     38  C   UNL     1       1.755  -7.226  -3.031  1.00  0.00     0.049 A 
ATOM     39  N   UNL     1       0.790  -9.932  -2.074  1.00  0.00    -0.248 NA
ATOM     40  C   UNL     1       0.744  -9.056   0.091  1.00  0.00     0.031 C 
ATOM     41  C   UNL     1       2.236  -5.943  -3.534  1.00  0.00     0.029 A 
ATOM     42  N   UNL     1       1.615  -8.004  -4.155  1.00  0.00    -0.354 N 
ATOM     43  C   UNL     1       0.359 -10.908  -1.186  1.00  0.00     0.074 A 
ATOM     44  C   UNL     1       0.387 -10.327   0.137  1.00  0.00     0.031 C 
ATOM     45  C   UNL     1       2.391  -6.032  -4.867  1.00  0.00     0.029 A 
ATOM     46  C   UNL     1       2.064  -7.392  -5.299  1.00  0.00     0.049 A 
ATOM     47  H   UNL     1       1.231  -8.910  -4.140  1.00  0.00     0.167 HD
ATOM     48  C   UNL     1      -0.016 -12.181  -1.452  1.00  0.00     0.037 A 
ATOM     49  C   UNL     1       2.231  -7.893  -6.540  1.00  0.00     0.037 A 
ATOM     50  C   UNL     1       0.003 -12.759  -2.768  1.00  0.00     0.049 A 
ATOM     51  C   UNL     1       1.875  -9.335  -6.811  1.00  0.00     0.074 A 
ATOM     52  C   UNL     1      -0.374 -14.031  -3.157  1.00  0.00     0.029 A 
ATOM     53  N   UNL     1       0.453 -12.105  -3.907  1.00  0.00    -0.354 N 
ATOM     54  N   UNL     1       1.431 -10.249  -5.980  1.00  0.00    -0.248 NA
ATOM     55  C   UNL     1       2.043  -9.816  -8.190  1.00  0.00     0.031 C 
ATOM     56  C   UNL     1      -0.076 -14.173  -4.516  1.00  0.00     0.029 A 
ATOM     57  C   UNL     1       0.399 -12.961  -4.995  1.00  0.00     0.049 A 
ATOM     58  H   UNL     1       0.764 -11.172  -3.937  1.00  0.00     0.167 HD
ATOM     59  C   UNL     1       1.233 -11.397  -6.738  1.00  0.00     0.074 A 
ATOM     60  C   UNL     1       1.609 -11.066  -8.097  1.00  0.00     0.031 C 
ATOM     61  C   UNL     1       0.770 -12.611  -6.345  1.00  0.00     0.037 A 
BRANCH  48  62
ATOM     62  C   UNL     1      -0.401 -13.037  -0.278  1.00  0.00     0.064 A 
ATOM     63  C   UNL     1      -1.536 -12.764   0.504  1.00  0.00     0.173 A 
ATOM     64  C   UNL     1       0.402 -14.126   0.096  1.00  0.00     0.173 A 
ATOM     65  F   UNL     1      -2.330 -11.726   0.203  1.00  0.00    -0.203 F 
ATOM     66  C   UNL     1      -1.816 -13.509   1.647  1.00  0.00     0.198 A 
ATOM     67  C   UNL     1       0.094 -14.896   1.213  1.00  0.00     0.198 A 
ATOM     68  F   UNL     1       1.496 -14.436  -0.615  1.00  0.00    -0.203 F 
ATOM     69  F   UNL     1      -2.852 -13.172   2.426  1.00  0.00    -0.200 F 
ATOM     70  C   UNL     1      -1.003 -14.576   1.998  1.00  0.00     0.200 A 
ATOM     71  F   UNL     1       0.872 -15.936   1.542  1.00  0.00    -0.200 F 
ATOM     72  F   UNL     1      -1.269 -15.287   3.102  1.00  0.00    -0.200 F 
ENDBRANCH  48  62
BRANCH  49  73
ATOM     73  C   UNL     1       2.782  -7.021  -7.612  1.00  0.00     0.064 A 
ATOM     74  C   UNL     1       1.983  -6.592  -8.681  1.00  0.00     0.173 A 
ATOM     75  C   UNL     1       4.112  -6.575  -7.575  1.00  0.00     0.173 A 
ATOM     76  F   UNL     1       0.714  -7.015  -8.779  1.00  0.00    -0.203 F 
ATOM     77  C   UNL     1       2.492  -5.753  -9.671  1.00  0.00     0.198 A 
ATOM     78  C   UNL     1       4.612  -5.713  -8.549  1.00  0.00     0.198 A 
ATOM     79  F   UNL     1       4.923  -6.961  -6.579  1.00  0.00    -0.203 F 
ATOM     80  F   UNL     1       1.716  -5.386 -10.700  1.00  0.00    -0.200 F 
ATOM     81  C   UNL     1       3.803  -5.305  -9.598  1.00  0.00     0.200 A 
ATOM     82  F   UNL     1       5.876  -5.274  -8.468  1.00  0.00    -0.200 F 
ATOM     83  F   UNL     1       4.287  -4.485 -10.541  1.00  0.00    -0.200 F 
ENDBRANCH  49  73
BRANCH  61  84
ATOM     84  C   UNL     1       0.579 -13.668  -7.399  1.00  0.00     0.064 A 
ATOM     85  C   UNL     1       1.661 -14.310  -8.018  1.00  0.00     0.173 A 
ATOM     86  C   UNL     1      -0.716 -14.104  -7.724  1.00  0.00     0.173 A 
ATOM     87  F   UNL     1       2.918 -13.926  -7.751  1.00  0.00    -0.203 F 
ATOM     88  C   UNL     1       1.452 -15.340  -8.933  1.00  0.00     0.198 A 
ATOM     89  C   UNL     1      -0.919 -15.157  -8.611  1.00  0.00     0.198 A 
ATOM     90  F   UNL     1      -1.786 -13.531  -7.154  1.00  0.00    -0.203 F 
ATOM     91  F   UNL     1       2.499 -15.916  -9.541  1.00  0.00    -0.200 F 
ATOM     92  C   UNL     1       0.165 -15.771  -9.219  1.00  0.00     0.200 A 
ATOM     93  F   UNL     1      -2.163 -15.585  -8.867  1.00  0.00    -0.200 F 
ATOM     94  F   UNL     1      -0.031 -16.777 -10.082  1.00  0.00    -0.200 F 
ENDBRANCH  61  84
ENDBRANCH  35  36
ENDBRANCH  28  30
ENDBRANCH  27  28
ENDBRANCH  26  27
ENDBRANCH  25  26
ENDBRANCH  24  25
ENDBRANCH   1  24
TORSDOF 18
