REMARK SMILES O=C(Cc1ccc(NC(=O)C2CCCC2)cc1)OCCOCCOCCOC(=O)c1ccc(-c2c3nc(c(-c4c(F)c(F)c(F)c(F)c4F)c4ccc([nH]4)c(-c4c(F)c(F)c(F)c(F)c4F)c4nc(c(-c5c(F)c(F)c(F)c(F)c5F)c5ccc2[nH]5)C=C4)C=C3)cc1
REMARK SMILES IDX 22 1 21 2 20 3 19 4 18 5 2 6 1 7 3 8 4 9 5 10 17 11 6 12
REMARK SMILES IDX 16 13 7 14 8 15 9 16 10 18 11 19 12 20 15 21 13 22 14 23
REMARK SMILES IDX 23 24 24 25 25 26 26 27 27 28 28 29 29 30 30 31 31 32 92 33
REMARK SMILES IDX 32 34 91 35 33 36 34 37 35 38 85 39 36 40 90 41 84 42 86 43
REMARK SMILES IDX 37 44 89 45 83 46 82 47 38 49 70 50 50 51 69 52 51 53 54 54
REMARK SMILES IDX 68 55 87 56 52 57 53 58 67 60 88 61 55 62 39 63 40 64 48 65
REMARK SMILES IDX 41 66 42 67 46 68 49 69 43 70 44 71 47 72 45 73 71 74 72 75
REMARK SMILES IDX 80 76 73 77 74 78 78 79 81 80 75 81 76 82 79 83 77 84 56 85
REMARK SMILES IDX 57 86 65 87 58 88 59 89 63 90 66 91 60 92 61 93 64 94 62 95
REMARK H PARENT 8 17 86 48 54 59
REMARK Flexibility Score: inf
ROOT
ATOM      1  C   UNL     1       2.592   1.826   0.616  1.00  0.00     0.188 C 
ENDROOT
BRANCH   1   2
ATOM      2  O   UNL     1       3.946   1.607   0.986  1.00  0.00    -0.376 OA
BRANCH   2   3
ATOM      3  C   UNL     1       4.853   1.010   0.057  1.00  0.00     0.202 C 
BRANCH   3   4
ATOM      4  C   UNL     1       4.357   0.582  -1.319  1.00  0.00     0.261 C 
BRANCH   4   5
ATOM      5  O   UNL     1       3.301  -0.411  -1.436  1.00  0.00    -0.463 OA
BRANCH   5   6
ATOM      6  C   UNL     1       2.705  -1.258  -0.577  1.00  0.00     0.310 C 
ATOM      7  O   UNL     1       1.646  -1.792  -0.911  1.00  0.00    -0.252 OA
BRANCH   6   8
ATOM      8  C   UNL     1       3.337  -1.599   0.748  1.00  0.00     0.158 C 
BRANCH   8   9
ATOM      9  C   UNL     1       4.385  -2.676   0.658  1.00  0.00    -0.037 A 
ATOM     10  C   UNL     1       4.252  -3.823   1.444  1.00  0.00     0.006 A 
ATOM     11  C   UNL     1       5.465  -2.595  -0.229  1.00  0.00     0.006 A 
ATOM     12  C   UNL     1       5.051  -4.935   1.191  1.00  0.00     0.026 A 
ATOM     13  C   UNL     1       6.263  -3.706  -0.482  1.00  0.00     0.026 A 
ATOM     14  C   UNL     1       5.955  -4.914   0.132  1.00  0.00     0.041 A 
BRANCH  14  15
ATOM     15  N   UNL     1       6.479  -6.071  -0.458  1.00  0.00    -0.326 N 
ATOM     16  C   UNL     1       5.823  -7.234  -0.785  1.00  0.00     0.227 C 
ATOM     17  H   UNL     1       7.441  -6.049  -0.666  1.00  0.00     0.169 HD
ATOM     18  O   UNL     1       6.456  -8.098  -1.395  1.00  0.00    -0.274 OA
BRANCH  16  19
ATOM     19  C   UNL     1       4.348  -7.416  -0.438  1.00  0.00     0.079 C 
ATOM     20  C   UNL     1       3.381  -6.481  -1.167  1.00  0.00     0.013 C 
ATOM     21  C   UNL     1       3.769  -8.773  -0.838  1.00  0.00     0.013 C 
ATOM     22  C   UNL     1       2.018  -7.072  -0.825  1.00  0.00     0.001 C 
ATOM     23  C   UNL     1       2.259  -8.576  -0.690  1.00  0.00     0.001 C 
ENDBRANCH  16  19
ENDBRANCH  14  15
ENDBRANCH   8   9
ENDBRANCH   6   8
ENDBRANCH   5   6
ENDBRANCH   4   5
ENDBRANCH   3   4
ENDBRANCH   2   3
ENDBRANCH   1   2
BRANCH   1  24
ATOM     24  C   UNL     1       2.142   3.287   0.686  1.00  0.00     0.188 C 
BRANCH  24  25
ATOM     25  O   UNL     1       2.965   4.235   0.021  1.00  0.00    -0.376 OA
BRANCH  25  26
ATOM     26  C   UNL     1       4.270   4.468   0.551  1.00  0.00     0.202 C 
BRANCH  26  27
ATOM     27  C   UNL     1       4.402   4.823   2.040  1.00  0.00     0.261 C 
BRANCH  27  28
ATOM     28  O   UNL     1       4.074   3.735   2.933  1.00  0.00    -0.460 OA
BRANCH  28  29
ATOM     29  C   UNL     1       3.111   4.002   3.837  1.00  0.00     0.338 C 
ATOM     30  O   UNL     1       2.511   5.069   3.989  1.00  0.00    -0.246 OA
BRANCH  29  31
ATOM     31  C   UNL     1       2.725   2.812   4.610  1.00  0.00     0.060 A 
ATOM     32  C   UNL     1       1.421   2.319   4.459  1.00  0.00     0.016 A 
ATOM     33  C   UNL     1       3.534   2.357   5.654  1.00  0.00     0.016 A 
ATOM     34  C   UNL     1       0.894   1.433   5.400  1.00  0.00     0.010 A 
ATOM     35  C   UNL     1       3.002   1.473   6.601  1.00  0.00     0.010 A 
ATOM     36  C   UNL     1       1.660   1.058   6.513  1.00  0.00    -0.014 A 
BRANCH  36  37
ATOM     37  C   UNL     1       0.981   0.439   7.683  1.00  0.00     0.031 A 
ATOM     38  C   UNL     1       0.531   1.330   8.814  1.00  0.00     0.074 A 
ATOM     39  C   UNL     1       0.719  -0.879   7.730  1.00  0.00     0.049 A 
ATOM     40  N   UNL     1      -0.100   1.021   9.919  1.00  0.00    -0.248 NA
ATOM     41  C   UNL     1       0.832   2.764   8.676  1.00  0.00     0.031 C 
ATOM     42  C   UNL     1       1.061  -1.847   6.693  1.00  0.00     0.029 A 
ATOM     43  N   UNL     1       0.095  -1.626   8.700  1.00  0.00    -0.354 N 
ATOM     44  C   UNL     1      -0.266   2.217  10.607  1.00  0.00     0.074 A 
ATOM     45  C   UNL     1       0.356   3.253   9.811  1.00  0.00     0.031 C 
ATOM     46  C   UNL     1       0.643  -3.065   7.081  1.00  0.00     0.029 A 
ATOM     47  C   UNL     1       0.023  -2.964   8.403  1.00  0.00     0.049 A 
ATOM     48  H   UNL     1      -0.266  -1.238   9.530  1.00  0.00     0.167 HD
ATOM     49  C   UNL     1      -0.889   2.438  11.790  1.00  0.00     0.037 A 
ATOM     50  C   UNL     1      -0.480  -3.988   9.119  1.00  0.00     0.037 A 
ATOM     51  C   UNL     1      -1.518   1.418  12.586  1.00  0.00     0.049 A 
ATOM     52  C   UNL     1      -1.113  -3.725  10.462  1.00  0.00     0.074 A 
ATOM     53  C   UNL     1      -2.199   1.554  13.783  1.00  0.00     0.029 A 
ATOM     54  N   UNL     1      -1.536   0.069  12.266  1.00  0.00    -0.354 N 
ATOM     55  N   UNL     1      -1.302  -2.586  11.083  1.00  0.00    -0.248 NA
ATOM     56  C   UNL     1      -1.612  -4.896  11.199  1.00  0.00     0.031 C 
ATOM     57  C   UNL     1      -2.590   0.280  14.212  1.00  0.00     0.029 A 
ATOM     58  C   UNL     1      -2.194  -0.642  13.257  1.00  0.00     0.049 A 
ATOM     59  H   UNL     1      -1.140  -0.325  11.456  1.00  0.00     0.167 HD
ATOM     60  C   UNL     1      -1.971  -2.898  12.260  1.00  0.00     0.074 A 
ATOM     61  C   UNL     1      -2.162  -4.332  12.266  1.00  0.00     0.031 C 
ATOM     62  C   UNL     1      -2.394  -2.068  13.246  1.00  0.00     0.037 A 
BRANCH  49  63
ATOM     63  C   UNL     1      -0.899   3.845  12.310  1.00  0.00     0.064 A 
ATOM     64  C   UNL     1      -1.705   4.838  11.732  1.00  0.00     0.173 A 
ATOM     65  C   UNL     1      -0.113   4.197  13.417  1.00  0.00     0.173 A 
ATOM     66  F   UNL     1      -2.464   4.555  10.664  1.00  0.00    -0.203 F 
ATOM     67  C   UNL     1      -1.702   6.139  12.229  1.00  0.00     0.198 A 
ATOM     68  C   UNL     1      -0.133   5.492  13.927  1.00  0.00     0.198 A 
ATOM     69  F   UNL     1       0.670   3.283  14.008  1.00  0.00    -0.203 F 
ATOM     70  F   UNL     1      -2.445   7.083  11.634  1.00  0.00    -0.200 F 
ATOM     71  C   UNL     1      -0.921   6.464  13.329  1.00  0.00     0.200 A 
ATOM     72  F   UNL     1       0.614   5.801  14.996  1.00  0.00    -0.200 F 
ATOM     73  F   UNL     1      -0.922   7.715  13.807  1.00  0.00    -0.200 F 
ENDBRANCH  49  63
BRANCH  50  74
ATOM     74  C   UNL     1      -0.418  -5.372   8.581  1.00  0.00     0.064 A 
ATOM     75  C   UNL     1      -1.583  -6.043   8.183  1.00  0.00     0.173 A 
ATOM     76  C   UNL     1       0.799  -6.062   8.487  1.00  0.00     0.173 A 
ATOM     77  F   UNL     1      -2.773  -5.434   8.283  1.00  0.00    -0.203 F 
ATOM     78  C   UNL     1      -1.534  -7.359   7.728  1.00  0.00     0.198 A 
ATOM     79  C   UNL     1       0.849  -7.369   8.008  1.00  0.00     0.198 A 
ATOM     80  F   UNL     1       1.940  -5.465   8.861  1.00  0.00    -0.203 F 
ATOM     81  F   UNL     1      -2.667  -7.994   7.399  1.00  0.00    -0.200 F 
ATOM     82  C   UNL     1      -0.318  -8.019   7.636  1.00  0.00     0.200 A 
ATOM     83  F   UNL     1       2.027  -8.000   7.913  1.00  0.00    -0.200 F 
ATOM     84  F   UNL     1      -0.272  -9.285   7.200  1.00  0.00    -0.200 F 
ENDBRANCH  50  74
BRANCH  62  85
ATOM     85  C   UNL     1      -3.149  -2.680  14.391  1.00  0.00     0.064 A 
ATOM     86  C   UNL     1      -2.510  -3.464  15.362  1.00  0.00     0.173 A 
ATOM     87  C   UNL     1      -4.526  -2.447  14.536  1.00  0.00     0.173 A 
ATOM     88  F   UNL     1      -1.199  -3.727  15.261  1.00  0.00    -0.203 F 
ATOM     89  C   UNL     1      -3.227  -4.015  16.422  1.00  0.00     0.198 A 
ATOM     90  C   UNL     1      -5.233  -2.976  15.612  1.00  0.00     0.198 A 
ATOM     91  F   UNL     1      -5.183  -1.698  13.639  1.00  0.00    -0.203 F 
ATOM     92  F   UNL     1      -2.604  -4.800  17.313  1.00  0.00    -0.200 F 
ATOM     93  C   UNL     1      -4.585  -3.766  16.550  1.00  0.00     0.200 A 
ATOM     94  F   UNL     1      -6.543  -2.724  15.740  1.00  0.00    -0.200 F 
ATOM     95  F   UNL     1      -5.272  -4.294  17.572  1.00  0.00    -0.200 F 
ENDBRANCH  62  85
ENDBRANCH  36  37
ENDBRANCH  29  31
ENDBRANCH  28  29
ENDBRANCH  27  28
ENDBRANCH  26  27
ENDBRANCH  25  26
ENDBRANCH  24  25
ENDBRANCH   1  24
TORSDOF 20
