REMARK SMILES CCOC(=O)c1c(NC(=O)[C@@H]2[C@@H](C(=O)OCCOCCOCCOC(=O)c3ccc(-c4c5nc(c(-c6c(F)c(F)c(F)c(F)c6F)c6ccc([nH]6)c(-c6c(F)c(F)c(F)c(F)c6F)c6nc(c(-c7c(F)c(F)c(F)c(F)c7F)c7ccc4[nH]7)C=C6)C=C5)cc3)[C@@H]3C=C[C@H]2CC3)sc2c1CCC2
REMARK SMILES IDX 18 1 17 2 16 3 15 4 13 5 14 6 12 7 11 8 93 9 90 10 92 11
REMARK SMILES IDX 94 12 91 13 95 14 9 15 8 16 10 18 7 19 6 20 98 21 96 22
REMARK SMILES IDX 97 23 99 24 101 25 100 26 4 27 5 28 3 29 2 30 1 31 19 32
REMARK SMILES IDX 20 33 21 34 22 35 23 36 24 37 25 38 26 39 27 40 28 41 89 42
REMARK SMILES IDX 29 43 88 44 30 45 31 46 32 47 82 48 33 49 87 50 81 51 83 52
REMARK SMILES IDX 34 53 86 54 80 55 79 56 35 58 67 59 47 60 66 61 48 62 51 63
REMARK SMILES IDX 65 64 84 65 49 66 50 67 64 69 85 70 52 71 36 72 37 73 45 74
REMARK SMILES IDX 38 75 39 76 43 77 46 78 40 79 41 80 44 81 42 82 68 83 69 84
REMARK SMILES IDX 77 85 70 86 71 87 75 88 78 89 72 90 73 91 76 92 74 93 53 94
REMARK SMILES IDX 54 95 62 96 55 97 56 98 60 99 63 100 57 101 58 102 61 103
REMARK SMILES IDX 59 104
REMARK H PARENT 8 17 83 57 51 68
REMARK Flexibility Score: inf
ROOT
ATOM      1  O   UNL     1       3.807  -8.215  -5.725  1.00  0.00    -0.376 OA
ENDROOT
BRANCH   1   2
ATOM      2  C   UNL     1       2.411  -7.967  -5.689  1.00  0.00     0.202 C 
BRANCH   2   3
ATOM      3  C   UNL     1       1.756  -7.655  -4.312  1.00  0.00     0.261 C 
BRANCH   3   4
ATOM      4  O   UNL     1       2.537  -6.900  -3.327  1.00  0.00    -0.463 OA
BRANCH   4   5
ATOM      5  C   UNL     1       3.296  -7.634  -2.485  1.00  0.00     0.310 C 
ATOM      6  O   UNL     1       3.238  -8.864  -2.538  1.00  0.00    -0.252 OA
BRANCH   5   7
ATOM      7  C   UNL     1       4.180  -6.870  -1.404  1.00  0.00     0.119 C 
ATOM      8  C   UNL     1       5.266  -5.676  -1.660  1.00  0.00     0.100 C 
ATOM      9  C   UNL     1       6.702  -6.208  -1.253  1.00  0.00     0.025 C 
ATOM     10  C   UNL     1       4.990  -8.091  -0.811  1.00  0.00     0.026 C 
ATOM     11  C   UNL     1       6.665  -6.716   0.174  1.00  0.00    -0.027 C 
ATOM     12  C   UNL     1       7.053  -7.418  -2.139  1.00  0.00     0.009 C 
ATOM     13  C   UNL     1       5.739  -7.652   0.411  1.00  0.00    -0.027 C 
ATOM     14  C   UNL     1       6.060  -8.559  -1.852  1.00  0.00     0.009 C 
BRANCH   8  15
ATOM     15  C   UNL     1       5.096  -4.261  -0.858  1.00  0.00     0.229 C 
ATOM     16  N   UNL     1       4.535  -3.072  -1.319  1.00  0.00    -0.317 N 
ATOM     17  H   UNL     1       4.677  -2.295  -0.732  1.00  0.00     0.170 HD
ATOM     18  O   UNL     1       5.557  -4.156   0.291  1.00  0.00    -0.274 OA
BRANCH  16  19
ATOM     19  C   UNL     1       3.812  -2.807  -2.463  1.00  0.00     0.110 A 
ATOM     20  C   UNL     1       2.996  -1.776  -2.953  1.00  0.00     0.098 A 
ATOM     21  C   UNL     1       2.535  -2.183  -4.267  1.00  0.00    -0.017 A 
ATOM     22  S   UNL     1       3.477  -4.168  -3.348  1.00  0.00    -0.122 S 
ATOM     23  C   UNL     1       3.646  -3.317  -4.940  1.00  0.00     0.011 A 
ATOM     24  C   UNL     1       1.175  -1.678  -5.543  1.00  0.00     0.038 C 
ATOM     25  C   UNL     1       3.197  -3.742  -6.936  1.00  0.00     0.047 C 
ATOM     26  C   UNL     1       1.509  -2.637  -7.254  1.00  0.00     0.010 C 
BRANCH  20  27
ATOM     27  C   UNL     1       2.544  -0.624  -2.206  1.00  0.00     0.341 C 
ATOM     28  O   UNL     1       3.279   0.154  -1.613  1.00  0.00    -0.246 OA
BRANCH  27  29
ATOM     29  O   UNL     1       1.181  -0.579  -2.205  1.00  0.00    -0.462 OA
BRANCH  29  30
ATOM     30  C   UNL     1       0.556   0.372  -1.334  1.00  0.00     0.230 C 
ATOM     31  C   UNL     1       0.783   0.035   0.131  1.00  0.00     0.049 C 
ENDBRANCH  29  30
ENDBRANCH  27  29
ENDBRANCH  20  27
ENDBRANCH  16  19
ENDBRANCH   8  15
ENDBRANCH   5   7
ENDBRANCH   4   5
ENDBRANCH   3   4
ENDBRANCH   2   3
ENDBRANCH   1   2
BRANCH   1  32
ATOM     32  C   UNL     1       4.603  -7.136  -5.292  1.00  0.00     0.188 C 
BRANCH  32  33
ATOM     33  C   UNL     1       4.151  -5.721  -5.674  1.00  0.00     0.188 C 
BRANCH  33  34
ATOM     34  O   UNL     1       2.643  -5.341  -5.468  1.00  0.00    -0.376 OA
BRANCH  34  35
ATOM     35  C   UNL     1       1.902  -3.711  -5.608  1.00  0.00     0.202 C 
BRANCH  35  36
ATOM     36  C   UNL     1       3.125  -1.966  -6.251  1.00  0.00     0.261 C 
BRANCH  36  37
ATOM     37  O   UNL     1       4.723  -2.094  -6.521  1.00  0.00    -0.460 OA
BRANCH  37  38
ATOM     38  C   UNL     1       5.722  -2.036  -5.620  1.00  0.00     0.338 C 
ATOM     39  O   UNL     1       5.721  -1.475  -4.541  1.00  0.00    -0.246 OA
BRANCH  38  40
ATOM     40  C   UNL     1       6.872  -2.774  -6.197  1.00  0.00     0.060 A 
ATOM     41  C   UNL     1       8.084  -2.463  -5.609  1.00  0.00     0.016 A 
ATOM     42  C   UNL     1       6.817  -3.245  -7.516  1.00  0.00     0.016 A 
ATOM     43  C   UNL     1       9.061  -2.022  -6.467  1.00  0.00     0.010 A 
ATOM     44  C   UNL     1       7.840  -2.908  -8.360  1.00  0.00     0.010 A 
ATOM     45  C   UNL     1       8.827  -2.084  -7.850  1.00  0.00    -0.014 A 
BRANCH  45  46
ATOM     46  C   UNL     1       9.771  -1.473  -8.764  1.00  0.00     0.031 A 
ATOM     47  C   UNL     1      10.990  -2.306  -8.759  1.00  0.00     0.074 A 
ATOM     48  C   UNL     1       9.537  -0.355  -9.495  1.00  0.00     0.049 A 
ATOM     49  N   UNL     1      12.033  -2.099  -8.028  1.00  0.00    -0.248 NA
ATOM     50  C   UNL     1      10.919  -3.670  -9.311  1.00  0.00     0.031 C 
ATOM     51  C   UNL     1       8.288   0.397  -9.683  1.00  0.00     0.029 A 
ATOM     52  N   UNL     1      10.416   0.346 -10.288  1.00  0.00    -0.354 N 
ATOM     53  C   UNL     1      12.873  -3.174  -8.284  1.00  0.00     0.074 A 
ATOM     54  C   UNL     1      12.039  -4.208  -8.820  1.00  0.00     0.031 C 
ATOM     55  C   UNL     1       8.421   1.270 -10.716  1.00  0.00     0.029 A 
ATOM     56  C   UNL     1       9.800   1.264 -11.163  1.00  0.00     0.049 A 
ATOM     57  H   UNL     1      11.392   0.217 -10.248  1.00  0.00     0.167 HD
ATOM     58  C   UNL     1      14.206  -2.937  -8.431  1.00  0.00     0.037 A 
ATOM     59  C   UNL     1      10.425   1.949 -12.165  1.00  0.00     0.037 A 
ATOM     60  C   UNL     1      14.527  -1.639  -7.879  1.00  0.00     0.049 A 
ATOM     61  C   UNL     1      11.865   1.956 -11.811  1.00  0.00     0.074 A 
ATOM     62  C   UNL     1      14.605  -1.074  -6.624  1.00  0.00     0.029 A 
ATOM     63  N   UNL     1      14.286  -0.622  -8.765  1.00  0.00    -0.354 N 
ATOM     64  N   UNL     1      12.338   2.583 -10.769  1.00  0.00    -0.248 NA
ATOM     65  C   UNL     1      12.679   0.865 -12.321  1.00  0.00     0.031 C 
ATOM     66  C   UNL     1      14.214   0.294  -6.783  1.00  0.00     0.029 A 
ATOM     67  C   UNL     1      14.016   0.557  -8.138  1.00  0.00     0.049 A 
ATOM     68  H   UNL     1      14.306  -0.731  -9.743  1.00  0.00     0.167 HD
ATOM     69  C   UNL     1      13.251   1.695 -10.224  1.00  0.00     0.074 A 
ATOM     70  C   UNL     1      13.499   0.709 -11.280  1.00  0.00     0.031 C 
ATOM     71  C   UNL     1      13.462   1.671  -8.873  1.00  0.00     0.037 A 
BRANCH  58  72
ATOM     72  C   UNL     1      15.034  -3.524  -9.565  1.00  0.00     0.064 A 
ATOM     73  C   UNL     1      16.403  -3.193  -9.631  1.00  0.00     0.173 A 
ATOM     74  C   UNL     1      14.510  -4.121 -10.737  1.00  0.00     0.173 A 
ATOM     75  F   UNL     1      17.009  -2.595  -8.594  1.00  0.00    -0.203 F 
ATOM     76  C   UNL     1      17.160  -3.385 -10.791  1.00  0.00     0.198 A 
ATOM     77  C   UNL     1      15.279  -4.353 -11.875  1.00  0.00     0.198 A 
ATOM     78  F   UNL     1      13.215  -4.411 -10.890  1.00  0.00    -0.203 F 
ATOM     79  F   UNL     1      18.427  -2.951 -10.839  1.00  0.00    -0.200 F 
ATOM     80  C   UNL     1      16.597  -3.963 -11.914  1.00  0.00     0.200 A 
ATOM     81  F   UNL     1      14.699  -4.886 -12.961  1.00  0.00    -0.200 F 
ATOM     82  F   UNL     1      17.303  -4.103 -13.042  1.00  0.00    -0.200 F 
ENDBRANCH  58  72
BRANCH  59  83
ATOM     83  C   UNL     1       9.987   2.195 -13.572  1.00  0.00     0.064 A 
ATOM     84  C   UNL     1      10.662   3.094 -14.427  1.00  0.00     0.173 A 
ATOM     85  C   UNL     1       9.104   1.300 -14.203  1.00  0.00     0.173 A 
ATOM     86  F   UNL     1      11.574   3.943 -13.929  1.00  0.00    -0.203 F 
ATOM     87  C   UNL     1      10.474   3.082 -15.819  1.00  0.00     0.198 A 
ATOM     88  C   UNL     1       8.924   1.283 -15.590  1.00  0.00     0.198 A 
ATOM     89  F   UNL     1       8.480   0.350 -13.492  1.00  0.00    -0.203 F 
ATOM     90  F   UNL     1      11.175   3.915 -16.604  1.00  0.00    -0.200 F 
ATOM     91  C   UNL     1       9.613   2.167 -16.400  1.00  0.00     0.200 A 
ATOM     92  F   UNL     1       8.127   0.357 -16.142  1.00  0.00    -0.200 F 
ATOM     93  F   UNL     1       9.480   2.104 -17.733  1.00  0.00    -0.200 F 
ENDBRANCH  59  83
BRANCH  71  94
ATOM     94  C   UNL     1      13.012   2.860  -8.075  1.00  0.00     0.064 A 
ATOM     95  C   UNL     1      11.675   3.229  -7.845  1.00  0.00     0.173 A 
ATOM     96  C   UNL     1      14.008   3.595  -7.418  1.00  0.00     0.173 A 
ATOM     97  F   UNL     1      10.665   2.526  -8.378  1.00  0.00    -0.203 F 
ATOM     98  C   UNL     1      11.361   4.308  -7.015  1.00  0.00     0.198 A 
ATOM     99  C   UNL     1      13.692   4.644  -6.565  1.00  0.00     0.198 A 
ATOM    100  F   UNL     1      15.297   3.255  -7.570  1.00  0.00    -0.203 F 
ATOM    101  F   UNL     1      10.081   4.653  -6.811  1.00  0.00    -0.200 F 
ATOM    102  C   UNL     1      12.370   5.009  -6.371  1.00  0.00     0.200 A 
ATOM    103  F   UNL     1      14.671   5.284  -5.912  1.00  0.00    -0.200 F 
ATOM    104  F   UNL     1      12.071   6.023  -5.548  1.00  0.00    -0.200 F 
ENDBRANCH  71  94
ENDBRANCH  45  46
ENDBRANCH  38  40
ENDBRANCH  37  38
ENDBRANCH  36  37
ENDBRANCH  35  36
ENDBRANCH  34  35
ENDBRANCH  33  34
ENDBRANCH  32  33
ENDBRANCH   1  32
TORSDOF 22
