REMARK SMILES CC(C)[C@H](CO)NS(=O)(=O)c1ccc(C(=O)OCCOCCOCCOC(=O)c2ccc(-c3c4nc(c(-c5c(F)c(F)c(F)c(F)c5F)c5ccc([nH]5)c(-c5c(F)c(F)c(F)c(F)c5F)c5nc(c(-c6c(F)c(F)c(F)c(F)c6F)c6ccc3[nH]6)C=C5)C=C4)cc2)cn1
REMARK SMILES IDX 20 1 19 2 18 3 17 4 15 5 16 6 14 7 11 8 12 9 93 10 13 11
REMARK SMILES IDX 92 12 8 13 9 14 10 15 7 16 4 18 2 19 1 20 3 21 5 22 6 23
REMARK SMILES IDX 21 25 22 26 23 27 24 28 25 29 26 30 27 31 28 32 29 33 30 34
REMARK SMILES IDX 91 35 31 36 90 37 32 38 33 39 34 40 84 41 35 42 89 43 83 44
REMARK SMILES IDX 85 45 36 46 88 47 82 48 81 49 37 51 69 52 49 53 68 54 50 55
REMARK SMILES IDX 53 56 67 57 86 58 51 59 52 60 66 62 87 63 54 64 38 65 39 66
REMARK SMILES IDX 47 67 40 68 41 69 45 70 48 71 42 72 43 73 46 74 44 75 70 76
REMARK SMILES IDX 71 77 79 78 72 79 73 80 77 81 80 82 74 83 75 84 78 85 76 86
REMARK SMILES IDX 55 87 56 88 64 89 57 90 58 91 62 92 65 93 59 94 60 95 63 96
REMARK SMILES IDX 61 97
REMARK H PARENT 7 17 6 24 85 50 53 61
REMARK Flexibility Score: inf
ROOT
ATOM      1  O   UNL     1      -7.018  -6.157  -1.846  1.00  0.00    -0.376 OA
ENDROOT
BRANCH   1   2
ATOM      2  C   UNL     1      -6.007  -6.994  -2.387  1.00  0.00     0.202 C 
BRANCH   2   3
ATOM      3  C   UNL     1      -5.095  -6.492  -3.515  1.00  0.00     0.261 C 
BRANCH   3   4
ATOM      4  O   UNL     1      -4.489  -5.210  -3.290  1.00  0.00    -0.460 OA
BRANCH   4   5
ATOM      5  C   UNL     1      -4.923  -4.222  -4.109  1.00  0.00     0.339 C 
ATOM      6  O   UNL     1      -5.752  -4.315  -4.999  1.00  0.00    -0.246 OA
BRANCH   5   7
ATOM      7  C   UNL     1      -4.383  -2.923  -3.680  1.00  0.00     0.078 A 
ATOM      8  C   UNL     1      -3.574  -0.400  -2.996  1.00  0.00     0.170 A 
ATOM      9  C   UNL     1      -2.626  -1.407  -3.034  1.00  0.00     0.043 A 
ATOM     10  N   UNL     1      -4.895  -0.600  -3.268  1.00  0.00    -0.243 NA
ATOM     11  C   UNL     1      -3.044  -2.704  -3.356  1.00  0.00     0.020 A 
ATOM     12  C   UNL     1      -5.261  -1.850  -3.627  1.00  0.00     0.128 A 
BRANCH   8  13
ATOM     13  S   UNL     1      -3.198   1.324  -2.649  1.00  0.00     0.258 S 
ATOM     14  O   UNL     1      -4.146   1.768  -1.651  1.00  0.00    -0.205 OA
ATOM     15  O   UNL     1      -3.090   1.993  -3.931  1.00  0.00    -0.205 OA
BRANCH  13  16
ATOM     16  N   UNL     1      -1.657   1.463  -1.985  1.00  0.00    -0.204 NA
ATOM     17  H   UNL     1      -1.022   1.124  -2.708  1.00  0.00     0.141 HD
BRANCH  16  18
ATOM     18  C   UNL     1      -1.193   0.830  -0.734  1.00  0.00     0.098 C 
BRANCH  18  19
ATOM     19  C   UNL     1      -1.289   1.735   0.534  1.00  0.00     0.003 C 
ATOM     20  C   UNL     1      -0.074   2.636   0.798  1.00  0.00     0.009 C 
ATOM     21  C   UNL     1      -2.556   2.578   0.645  1.00  0.00     0.009 C 
ENDBRANCH  18  19
BRANCH  18  22
ATOM     22  C   UNL     1       0.277   0.373  -0.958  1.00  0.00     0.176 C 
BRANCH  22  23
ATOM     23  O   UNL     1       0.352  -0.677  -1.916  1.00  0.00    -0.395 OA
ATOM     24  H   UNL     1      -0.152  -1.442  -1.597  1.00  0.00     0.210 HD
ENDBRANCH  22  23
ENDBRANCH  18  22
ENDBRANCH  16  18
ENDBRANCH  13  16
ENDBRANCH   8  13
ENDBRANCH   5   7
ENDBRANCH   4   5
ENDBRANCH   3   4
ENDBRANCH   2   3
ENDBRANCH   1   2
BRANCH   1  25
ATOM     25  C   UNL     1      -6.699  -4.854  -1.383  1.00  0.00     0.188 C 
BRANCH  25  26
ATOM     26  C   UNL     1      -5.475  -4.613  -0.476  1.00  0.00     0.188 C 
BRANCH  26  27
ATOM     27  O   UNL     1      -4.692  -5.738  -0.165  1.00  0.00    -0.376 OA
BRANCH  27  28
ATOM     28  C   UNL     1      -4.999  -6.571   0.940  1.00  0.00     0.202 C 
BRANCH  28  29
ATOM     29  C   UNL     1      -6.283  -6.532   1.793  1.00  0.00     0.261 C 
BRANCH  29  30
ATOM     30  O   UNL     1      -7.289  -5.577   1.465  1.00  0.00    -0.460 OA
BRANCH  30  31
ATOM     31  C   UNL     1      -7.331  -4.474   2.253  1.00  0.00     0.338 C 
ATOM     32  O   UNL     1      -6.573  -4.173   3.149  1.00  0.00    -0.246 OA
BRANCH  31  33
ATOM     33  C   UNL     1      -8.389  -3.584   1.737  1.00  0.00     0.060 A 
ATOM     34  C   UNL     1      -8.020  -2.338   1.217  1.00  0.00     0.016 A 
ATOM     35  C   UNL     1      -9.731  -3.967   1.792  1.00  0.00     0.016 A 
ATOM     36  C   UNL     1      -9.002  -1.455   0.769  1.00  0.00     0.010 A 
ATOM     37  C   UNL     1     -10.714  -3.074   1.359  1.00  0.00     0.010 A 
ATOM     38  C   UNL     1     -10.356  -1.804   0.872  1.00  0.00    -0.014 A 
BRANCH  38  39
ATOM     39  C   UNL     1     -11.404  -0.786   0.622  1.00  0.00     0.031 A 
ATOM     40  C   UNL     1     -11.987  -0.050   1.795  1.00  0.00     0.074 A 
ATOM     41  C   UNL     1     -11.827  -0.515  -0.625  1.00  0.00     0.049 A 
ATOM     42  N   UNL     1     -12.948   0.838   1.828  1.00  0.00    -0.248 NA
ATOM     43  C   UNL     1     -11.409  -0.361   3.112  1.00  0.00     0.031 C 
ATOM     44  C   UNL     1     -11.312  -1.131  -1.845  1.00  0.00     0.029 A 
ATOM     45  N   UNL     1     -12.799   0.349  -1.065  1.00  0.00    -0.354 N 
ATOM     46  C   UNL     1     -13.091   1.188   3.164  1.00  0.00     0.074 A 
ATOM     47  C   UNL     1     -12.141   0.396   3.915  1.00  0.00     0.031 C 
ATOM     48  C   UNL     1     -11.983  -0.634  -2.899  1.00  0.00     0.029 A 
ATOM     49  C   UNL     1     -12.993   0.310  -2.423  1.00  0.00     0.049 A 
ATOM     50  H   UNL     1     -13.307   0.940  -0.464  1.00  0.00     0.167 HD
ATOM     51  C   UNL     1     -13.932   2.095   3.713  1.00  0.00     0.037 A 
ATOM     52  C   UNL     1     -13.900   0.948  -3.188  1.00  0.00     0.037 A 
ATOM     53  C   UNL     1     -14.879   2.880   2.966  1.00  0.00     0.049 A 
ATOM     54  C   UNL     1     -14.880   1.895  -2.542  1.00  0.00     0.074 A 
ATOM     55  C   UNL     1     -15.765   3.837   3.430  1.00  0.00     0.029 A 
ATOM     56  N   UNL     1     -15.069   2.790   1.595  1.00  0.00    -0.354 N 
ATOM     57  N   UNL     1     -14.994   2.241  -1.283  1.00  0.00    -0.248 NA
ATOM     58  C   UNL     1     -15.859   2.542  -3.429  1.00  0.00     0.031 C 
ATOM     59  C   UNL     1     -16.527   4.288   2.348  1.00  0.00     0.029 A 
ATOM     60  C   UNL     1     -16.078   3.654   1.200  1.00  0.00     0.049 A 
ATOM     61  H   UNL     1     -14.562   2.200   0.991  1.00  0.00     0.167 HD
ATOM     62  C   UNL     1     -16.029   3.167  -1.230  1.00  0.00     0.074 A 
ATOM     63  C   UNL     1     -16.506   3.336  -2.587  1.00  0.00     0.031 C 
ATOM     64  C   UNL     1     -16.536   3.820  -0.156  1.00  0.00     0.037 A 
BRANCH  51  65
ATOM     65  C   UNL     1     -13.885   2.268   5.202  1.00  0.00     0.064 A 
ATOM     66  C   UNL     1     -12.802   2.893   5.839  1.00  0.00     0.173 A 
ATOM     67  C   UNL     1     -14.951   1.827   6.001  1.00  0.00     0.173 A 
ATOM     68  F   UNL     1     -11.751   3.318   5.122  1.00  0.00    -0.203 F 
ATOM     69  C   UNL     1     -12.778   3.047   7.223  1.00  0.00     0.198 A 
ATOM     70  C   UNL     1     -14.936   2.009   7.381  1.00  0.00     0.198 A 
ATOM     71  F   UNL     1     -16.012   1.225   5.442  1.00  0.00    -0.203 F 
ATOM     72  F   UNL     1     -11.712   3.605   7.814  1.00  0.00    -0.200 F 
ATOM     73  C   UNL     1     -13.847   2.612   7.991  1.00  0.00     0.200 A 
ATOM     74  F   UNL     1     -15.975   1.598   8.121  1.00  0.00    -0.200 F 
ATOM     75  F   UNL     1     -13.825   2.768   9.322  1.00  0.00    -0.200 F 
ENDBRANCH  51  65
BRANCH  52  76
ATOM     76  C   UNL     1     -13.939   0.707  -4.655  1.00  0.00     0.064 A 
ATOM     77  C   UNL     1     -13.592   1.716  -5.564  1.00  0.00     0.173 A 
ATOM     78  C   UNL     1     -14.352  -0.528  -5.177  1.00  0.00     0.173 A 
ATOM     79  F   UNL     1     -13.223   2.924  -5.113  1.00  0.00    -0.203 F 
ATOM     80  C   UNL     1     -13.675   1.506  -6.939  1.00  0.00     0.198 A 
ATOM     81  C   UNL     1     -14.407  -0.746  -6.552  1.00  0.00     0.198 A 
ATOM     82  F   UNL     1     -14.703  -1.524  -4.351  1.00  0.00    -0.203 F 
ATOM     83  F   UNL     1     -13.391   2.505  -7.785  1.00  0.00    -0.200 F 
ATOM     84  C   UNL     1     -14.077   0.273  -7.432  1.00  0.00     0.200 A 
ATOM     85  F   UNL     1     -14.791  -1.940  -7.024  1.00  0.00    -0.200 F 
ATOM     86  F   UNL     1     -14.160   0.073  -8.754  1.00  0.00    -0.200 F 
ENDBRANCH  52  76
BRANCH  64  87
ATOM     87  C   UNL     1     -17.638   4.810  -0.403  1.00  0.00     0.064 A 
ATOM     88  C   UNL     1     -18.936   4.402  -0.745  1.00  0.00     0.173 A 
ATOM     89  C   UNL     1     -17.403   6.186  -0.248  1.00  0.00     0.173 A 
ATOM     90  F   UNL     1     -19.210   3.100  -0.918  1.00  0.00    -0.203 F 
ATOM     91  C   UNL     1     -19.950   5.335  -0.947  1.00  0.00     0.198 A 
ATOM     92  C   UNL     1     -18.427   7.113  -0.420  1.00  0.00     0.198 A 
ATOM     93  F   UNL     1     -16.182   6.629   0.088  1.00  0.00    -0.203 F 
ATOM     94  F   UNL     1     -21.171   4.924  -1.317  1.00  0.00    -0.200 F 
ATOM     95  C   UNL     1     -19.697   6.688  -0.777  1.00  0.00     0.200 A 
ATOM     96  F   UNL     1     -18.184   8.419  -0.240  1.00  0.00    -0.200 F 
ATOM     97  F   UNL     1     -20.677   7.583  -0.962  1.00  0.00    -0.200 F 
ENDBRANCH  64  87
ENDBRANCH  38  39
ENDBRANCH  31  33
ENDBRANCH  30  31
ENDBRANCH  29  30
ENDBRANCH  28  29
ENDBRANCH  27  28
ENDBRANCH  26  27
ENDBRANCH  25  26
ENDBRANCH   1  25
TORSDOF 23
