REMARK SMILES Cc1c(C(=O)Nc2ccc(C(=O)Nc3ccccc3C(=O)OCCOCCOCCOC(=O)c3ccc(-c4c5nc(c(-c6c(F)c(F)c(F)c(F)c6F)c6ccc([nH]6)c(-c6c(F)c(F)c(F)c(F)c6F)c6nc(c(-c7c(F)c(F)c(F)c(F)c7F)c7ccc4[nH]7)C=C6)C=C5)cc3)cc2)cccc1[N+](=O)[O-]
REMARK SMILES IDX 25 1 24 2 23 3 22 4 20 5 21 6 19 7 14 8 15 9 16 10 18 11
REMARK SMILES IDX 17 12 13 13 11 14 12 15 10 17 7 18 8 19 98 20 9 21 97 22
REMARK SMILES IDX 6 23 4 24 5 25 3 27 1 28 2 29 102 30 99 31 101 32 100 33
REMARK SMILES IDX 103 34 104 35 105 36 26 37 27 38 28 39 29 40 30 41 31 42
REMARK SMILES IDX 32 43 33 44 34 45 35 46 96 47 36 48 95 49 37 50 38 51 39 52
REMARK SMILES IDX 89 53 40 54 94 55 88 56 90 57 41 58 93 59 87 60 86 61 42 63
REMARK SMILES IDX 74 64 54 65 73 66 55 67 58 68 72 69 91 70 56 71 57 72 71 74
REMARK SMILES IDX 92 75 59 76 43 77 44 78 52 79 45 80 46 81 50 82 53 83 47 84
REMARK SMILES IDX 48 85 51 86 49 87 75 88 76 89 84 90 77 91 78 92 82 93 85 94
REMARK SMILES IDX 79 95 80 96 83 97 81 98 60 99 61 100 69 101 62 102 63 103
REMARK SMILES IDX 67 104 70 105 64 106 65 107 68 108 66 109
REMARK H PARENT 13 16 6 26 90 62 58 73
REMARK Flexibility Score: inf
ROOT
ATOM      1  O   UNL     1       8.701  -1.409   0.998  1.00  0.00    -0.376 OA
ENDROOT
BRANCH   1   2
ATOM      2  C   UNL     1       7.804  -1.516   2.061  1.00  0.00     0.202 C 
BRANCH   2   3
ATOM      3  C   UNL     1       6.451  -0.765   2.126  1.00  0.00     0.261 C 
BRANCH   3   4
ATOM      4  O   UNL     1       5.956   0.700   1.427  1.00  0.00    -0.460 OA
BRANCH   4   5
ATOM      5  C   UNL     1       5.691   2.205   1.570  1.00  0.00     0.340 C 
ATOM      6  O   UNL     1       6.490   2.817   0.869  1.00  0.00    -0.246 OA
BRANCH   5   7
ATOM      7  C   UNL     1       4.635   3.199   2.044  1.00  0.00     0.083 A 
ATOM      8  C   UNL     1       3.959   3.762   0.939  1.00  0.00     0.056 A 
ATOM      9  C   UNL     1       3.003   4.786   1.173  1.00  0.00     0.027 A 
ATOM     10  C   UNL     1       2.572   5.113   2.476  1.00  0.00     0.002 A 
ATOM     11  C   UNL     1       4.294   3.673   3.349  1.00  0.00     0.018 A 
ATOM     12  C   UNL     1       3.198   4.532   3.570  1.00  0.00     0.001 A 
BRANCH   8  13
ATOM     13  N   UNL     1       4.138   3.242  -0.407  1.00  0.00    -0.321 N 
ATOM     14  C   UNL     1       4.584   1.969  -0.959  1.00  0.00     0.255 C 
ATOM     15  O   UNL     1       4.933   1.949  -2.137  1.00  0.00    -0.269 OA
ATOM     16  H   UNL     1       3.906   3.899  -1.103  1.00  0.00     0.170 HD
BRANCH  14  17
ATOM     17  C   UNL     1       4.450   0.554  -0.234  1.00  0.00     0.040 A 
ATOM     18  C   UNL     1       1.765  -2.043   0.587  1.00  0.00     0.041 A 
ATOM     19  C   UNL     1       1.923  -0.577   1.534  1.00  0.00     0.027 A 
ATOM     20  C   UNL     1       3.048  -2.284  -0.593  1.00  0.00     0.027 A 
ATOM     21  C   UNL     1       3.422   0.669   1.044  1.00  0.00     0.016 A 
ATOM     22  C   UNL     1       4.397  -1.004  -0.923  1.00  0.00     0.016 A 
BRANCH  18  23
ATOM     23  N   UNL     1       0.635  -2.824   0.380  1.00  0.00    -0.322 N 
ATOM     24  C   UNL     1      -0.586  -2.479  -0.176  1.00  0.00     0.256 C 
ATOM     25  O   UNL     1      -1.234  -3.382  -0.709  1.00  0.00    -0.269 OA
ATOM     26  H   UNL     1       0.713  -3.761   0.672  1.00  0.00     0.170 HD
BRANCH  24  27
ATOM     27  C   UNL     1      -1.221  -1.134  -0.108  1.00  0.00     0.049 A 
ATOM     28  C   UNL     1      -0.175  -0.185  -2.187  1.00  0.00     0.053 C 
ATOM     29  C   UNL     1      -0.934  -0.018  -0.918  1.00  0.00     0.039 A 
ATOM     30  C   UNL     1      -1.579   1.215  -0.638  1.00  0.00     0.273 A 
ATOM     31  C   UNL     1      -2.386  -1.093   0.664  1.00  0.00     0.014 A 
ATOM     32  C   UNL     1      -2.688   1.254   0.203  1.00  0.00     0.086 A 
ATOM     33  C   UNL     1      -3.140   0.076   0.779  1.00  0.00     0.008 A 
BRANCH  30  34
ATOM     34  N   UNL     1      -1.079   2.525  -1.104  1.00  0.00     0.063 N 
ATOM     35  O   UNL     1      -1.055   3.436  -0.258  1.00  0.00    -0.258 OA
ATOM     36  O   UNL     1      -0.681   2.645  -2.265  1.00  0.00    -0.258 OA
ENDBRANCH  30  34
ENDBRANCH  24  27
ENDBRANCH  18  23
ENDBRANCH  14  17
ENDBRANCH   8  13
ENDBRANCH   5   7
ENDBRANCH   4   5
ENDBRANCH   3   4
ENDBRANCH   2   3
ENDBRANCH   1   2
BRANCH   1  37
ATOM     37  C   UNL     1       8.209  -1.331  -0.317  1.00  0.00     0.188 C 
BRANCH  37  38
ATOM     38  C   UNL     1       6.969  -2.076  -0.783  1.00  0.00     0.188 C 
BRANCH  38  39
ATOM     39  O   UNL     1       6.754  -3.460  -0.932  1.00  0.00    -0.376 OA
BRANCH  39  40
ATOM     40  C   UNL     1       5.330  -3.740  -1.224  1.00  0.00     0.202 C 
BRANCH  40  41
ATOM     41  C   UNL     1       4.574  -3.074  -2.608  1.00  0.00     0.261 C 
BRANCH  41  42
ATOM     42  O   UNL     1       3.395  -1.778  -2.808  1.00  0.00    -0.460 OA
BRANCH  42  43
ATOM     43  C   UNL     1       2.659  -0.555  -2.152  1.00  0.00     0.338 C 
ATOM     44  O   UNL     1       2.383   0.334  -2.954  1.00  0.00    -0.246 OA
BRANCH  43  45
ATOM     45  C   UNL     1       2.465  -0.249  -0.310  1.00  0.00     0.060 A 
ATOM     46  C   UNL     1       1.574   1.185   0.475  1.00  0.00     0.016 A 
ATOM     47  C   UNL     1       3.647  -1.202   1.033  1.00  0.00     0.016 A 
ATOM     48  C   UNL     1       1.971   1.550   2.270  1.00  0.00     0.010 A 
ATOM     49  C   UNL     1       3.808  -0.786   2.694  1.00  0.00     0.010 A 
ATOM     50  C   UNL     1       3.272   0.649   3.220  1.00  0.00    -0.014 A 
BRANCH  50  51
ATOM     51  C   UNL     1       4.828   0.975   4.106  1.00  0.00     0.031 A 
ATOM     52  C   UNL     1       4.427   0.950   5.513  1.00  0.00     0.074 A 
ATOM     53  C   UNL     1       6.325   1.156   3.964  1.00  0.00     0.049 A 
ATOM     54  N   UNL     1       4.837   1.800   6.397  1.00  0.00    -0.248 NA
ATOM     55  C   UNL     1       3.296   0.109   5.948  1.00  0.00     0.031 C 
ATOM     56  C   UNL     1       7.433   0.563   4.802  1.00  0.00     0.029 A 
ATOM     57  N   UNL     1       7.278   1.508   2.930  1.00  0.00    -0.354 N 
ATOM     58  C   UNL     1       4.390   1.217   7.551  1.00  0.00     0.074 A 
ATOM     59  C   UNL     1       3.136   0.645   7.156  1.00  0.00     0.031 C 
ATOM     60  C   UNL     1       8.701   0.759   4.285  1.00  0.00     0.029 A 
ATOM     61  C   UNL     1       8.644   1.454   3.011  1.00  0.00     0.049 A 
ATOM     62  H   UNL     1       6.901   1.819   2.075  1.00  0.00     0.167 HD
ATOM     63  C   UNL     1       5.318   0.700   8.415  1.00  0.00     0.037 A 
ATOM     64  C   UNL     1       9.391   2.413   2.345  1.00  0.00     0.037 A 
ATOM     65  C   UNL     1       6.712   1.091   8.044  1.00  0.00     0.049 A 
ATOM     66  C   UNL     1       9.502   3.435   3.425  1.00  0.00     0.074 A 
ATOM     67  C   UNL     1       7.901   0.391   7.886  1.00  0.00     0.029 A 
ATOM     68  N   UNL     1       6.987   2.370   7.521  1.00  0.00    -0.354 N 
ATOM     69  N   UNL     1       8.710   3.383   4.459  1.00  0.00    -0.248 NA
ATOM     70  C   UNL     1      10.540   4.439   3.545  1.00  0.00     0.031 C 
ATOM     71  C   UNL     1       8.890   1.276   7.351  1.00  0.00     0.029 A 
ATOM     72  C   UNL     1       8.302   2.513   7.113  1.00  0.00     0.049 A 
ATOM     73  H   UNL     1       6.315   3.087   7.452  1.00  0.00     0.167 HD
ATOM     74  C   UNL     1       9.294   4.028   5.476  1.00  0.00     0.074 A 
ATOM     75  C   UNL     1      10.371   4.778   4.838  1.00  0.00     0.031 C 
ATOM     76  C   UNL     1       8.856   3.827   6.747  1.00  0.00     0.037 A 
BRANCH  63  77
ATOM     77  C   UNL     1       4.975  -0.391   9.453  1.00  0.00     0.064 A 
ATOM     78  C   UNL     1       5.977  -0.856  10.329  1.00  0.00     0.173 A 
ATOM     79  C   UNL     1       3.716  -1.015   9.673  1.00  0.00     0.173 A 
ATOM     80  F   UNL     1       7.223  -0.372  10.286  1.00  0.00    -0.203 F 
ATOM     81  C   UNL     1       5.744  -1.827  11.313  1.00  0.00     0.198 A 
ATOM     82  C   UNL     1       3.477  -1.961  10.674  1.00  0.00     0.198 A 
ATOM     83  F   UNL     1       2.625  -0.779   8.948  1.00  0.00    -0.203 F 
ATOM     84  F   UNL     1       6.757  -2.231  12.091  1.00  0.00    -0.200 F 
ATOM     85  C   UNL     1       4.490  -2.365  11.501  1.00  0.00     0.200 A 
ATOM     86  F   UNL     1       2.243  -2.469  10.817  1.00  0.00    -0.200 F 
ATOM     87  F   UNL     1       4.258  -3.258  12.469  1.00  0.00    -0.200 F 
ENDBRANCH  63  77
BRANCH  64  88
ATOM     88  C   UNL     1       9.203   2.789   0.848  1.00  0.00     0.064 A 
ATOM     89  C   UNL     1       9.499   1.831  -0.146  1.00  0.00     0.173 A 
ATOM     90  C   UNL     1       8.539   3.936   0.347  1.00  0.00     0.173 A 
ATOM     91  F   UNL     1      10.334   0.821   0.136  1.00  0.00    -0.203 F 
ATOM     92  C   UNL     1       8.928   1.859  -1.439  1.00  0.00     0.198 A 
ATOM     93  C   UNL     1       7.922   3.946  -0.942  1.00  0.00     0.198 A 
ATOM     94  F   UNL     1       8.274   4.968   1.161  1.00  0.00    -0.203 F 
ATOM     95  F   UNL     1       9.142   0.842  -2.291  1.00  0.00    -0.200 F 
ATOM     96  C   UNL     1       8.069   2.873  -1.805  1.00  0.00     0.200 A 
ATOM     97  F   UNL     1       7.040   4.911  -1.260  1.00  0.00    -0.200 F 
ATOM     98  F   UNL     1       7.388   2.801  -2.960  1.00  0.00    -0.200 F 
ENDBRANCH  64  88
BRANCH  76  99
ATOM     99  C   UNL     1       9.059   4.833   7.817  1.00  0.00     0.064 A 
ATOM    100  C   UNL     1       9.401   6.167   7.561  1.00  0.00     0.173 A 
ATOM    101  C   UNL     1       8.756   4.511   9.155  1.00  0.00     0.173 A 
ATOM    102  F   UNL     1       9.491   6.657   6.318  1.00  0.00    -0.203 F 
ATOM    103  C   UNL     1       9.594   7.071   8.592  1.00  0.00     0.198 A 
ATOM    104  C   UNL     1       8.841   5.446  10.167  1.00  0.00     0.198 A 
ATOM    105  F   UNL     1       8.328   3.298   9.532  1.00  0.00    -0.203 F 
ATOM    106  F   UNL     1      10.033   8.303   8.309  1.00  0.00    -0.200 F 
ATOM    107  C   UNL     1       9.306   6.712   9.894  1.00  0.00     0.200 A 
ATOM    108  F   UNL     1       8.453   5.108  11.403  1.00  0.00    -0.200 F 
ATOM    109  F   UNL     1       9.448   7.598  10.884  1.00  0.00    -0.200 F 
ENDBRANCH  76  99
ENDBRANCH  50  51
ENDBRANCH  43  45
ENDBRANCH  42  43
ENDBRANCH  41  42
ENDBRANCH  40  41
ENDBRANCH  39  40
ENDBRANCH  38  39
ENDBRANCH  37  38
ENDBRANCH   1  37
TORSDOF 22
