REMARK SMILES Cc1ccc(S(=O)(=O)n2cc(C(=O)C(=O)N[C@@H](Cc3c[nH]c4ccccc34)C(=O)OCCOCCOCCOC(=O)c3ccc(-c4c5nc(c(-c6c(F)c(F)c(F)c(F)c6F)c6ccc([nH]6)c(-c6c(F)c(F)c(F)c(F)c6F)c6nc(c(-c7c(F)c(F)c(F)c(F)c7F)c7ccc4[nH]7)C=C6)C=C5)cc3)c3ccccc32)cc1
REMARK SMILES IDX 33 1 32 2 31 3 30 4 28 5 29 6 17 7 16 8 14 9 15 10 12 12
REMARK SMILES IDX 13 13 11 14 9 15 10 16 110 17 105 18 109 19 106 20 108 21
REMARK SMILES IDX 107 22 6 23 7 24 8 25 5 26 1 27 2 28 3 29 112 30 4 31 111 32
REMARK SMILES IDX 18 33 19 34 20 35 27 36 21 37 22 38 26 39 23 41 25 42 24 43
REMARK SMILES IDX 34 44 35 45 36 46 37 47 38 48 39 49 40 50 41 51 42 52 43 53
REMARK SMILES IDX 104 54 44 55 103 56 45 57 46 58 47 59 97 60 48 61 102 62
REMARK SMILES IDX 96 63 98 64 49 65 101 66 95 67 94 68 50 70 82 71 62 72 81 73
REMARK SMILES IDX 63 74 66 75 80 76 99 77 64 78 65 79 79 81 100 82 67 83 51 84
REMARK SMILES IDX 52 85 60 86 53 87 54 88 58 89 61 90 55 91 56 92 59 93 57 94
REMARK SMILES IDX 83 95 84 96 92 97 85 98 86 99 90 100 93 101 87 102 88 103
REMARK SMILES IDX 91 104 89 105 68 106 69 107 77 108 70 109 71 110 75 111
REMARK SMILES IDX 78 112 72 113 73 114 76 115 74 116
REMARK H PARENT 16 11 21 40 98 69 66 80
REMARK Flexibility Score: inf
ROOT
ATOM      1  O   UNL     1     -12.030   1.127  -6.088  1.00  0.00    -0.376 OA
ENDROOT
BRANCH   1   2
ATOM      2  C   UNL     1     -12.800   1.983  -5.292  1.00  0.00     0.202 C 
BRANCH   2   3
ATOM      3  C   UNL     1     -12.344   2.372  -3.853  1.00  0.00     0.261 C 
BRANCH   3   4
ATOM      4  O   UNL     1     -11.255   1.511  -2.716  1.00  0.00    -0.462 OA
BRANCH   4   5
ATOM      5  C   UNL     1     -11.169   0.555  -1.595  1.00  0.00     0.329 C 
ATOM      6  O   UNL     1     -11.666  -0.554  -1.806  1.00  0.00    -0.250 OA
BRANCH   5   7
ATOM      7  C   UNL     1     -10.613   0.624   0.025  1.00  0.00     0.197 C 
BRANCH   7   8
ATOM      8  N   UNL     1      -9.668   1.457   0.824  1.00  0.00    -0.335 N 
ATOM      9  C   UNL     1      -8.325   1.622   0.669  1.00  0.00     0.293 C 
ATOM     10  O   UNL     1      -7.694   2.391   1.379  1.00  0.00    -0.265 OA
ATOM     11  H   UNL     1     -10.072   1.958   1.569  1.00  0.00     0.164 HD
BRANCH   9  12
ATOM     12  C   UNL     1      -7.689   0.864  -0.487  1.00  0.00     0.252 C 
ATOM     13  O   UNL     1      -8.420   0.416  -1.367  1.00  0.00    -0.283 OA
BRANCH  12  14
ATOM     14  C   UNL     1      -6.340   0.417  -0.342  1.00  0.00     0.054 A 
ATOM     15  N   UNL     1      -4.431  -0.051   0.634  1.00  0.00    -0.240 N 
ATOM     16  C   UNL     1      -5.171   1.009   0.130  1.00  0.00     0.117 A 
ATOM     17  C   UNL     1      -5.295  -1.175   0.644  1.00  0.00     0.065 A 
ATOM     18  C   UNL     1      -6.096  -0.952  -0.460  1.00  0.00     0.012 A 
ATOM     19  C   UNL     1      -5.135  -2.464   1.173  1.00  0.00     0.028 A 
ATOM     20  C   UNL     1      -6.662  -2.019  -1.165  1.00  0.00     0.011 A 
ATOM     21  C   UNL     1      -5.610  -3.525   0.397  1.00  0.00     0.002 A 
ATOM     22  C   UNL     1      -6.338  -3.311  -0.771  1.00  0.00     0.001 A 
BRANCH  15  23
ATOM     23  S   UNL     1      -2.891  -0.617   0.180  1.00  0.00     0.268 S 
ATOM     24  O   UNL     1      -3.156  -1.235  -1.113  1.00  0.00    -0.201 OA
ATOM     25  O   UNL     1      -2.600  -1.416   1.370  1.00  0.00    -0.201 OA
BRANCH  23  26
ATOM     26  C   UNL     1      -1.325   0.065  -0.061  1.00  0.00     0.088 A 
ATOM     27  C   UNL     1       2.945   0.330  -0.018  1.00  0.00     0.044 C 
ATOM     28  C   UNL     1       1.453   0.307  -0.107  1.00  0.00    -0.051 A 
ATOM     29  C   UNL     1       0.897  -0.950  -0.236  1.00  0.00     0.005 A 
ATOM     30  C   UNL     1       0.612   1.447  -0.028  1.00  0.00     0.005 A 
ATOM     31  C   UNL     1      -0.462  -1.049  -0.252  1.00  0.00     0.022 A 
ATOM     32  C   UNL     1      -0.802   1.337   0.008  1.00  0.00     0.022 A 
ENDBRANCH  23  26
ENDBRANCH  15  23
ENDBRANCH  12  14
ENDBRANCH   9  12
ENDBRANCH   7   8
BRANCH   7  33
ATOM     33  C   UNL     1     -11.815   0.605   0.993  1.00  0.00     0.074 C 
BRANCH  33  34
ATOM     34  C   UNL     1     -12.556   1.849   0.767  1.00  0.00    -0.020 A 
ATOM     35  C   UNL     1     -14.250   1.772   0.178  1.00  0.00     0.087 A 
ATOM     36  C   UNL     1     -11.982   3.720   0.693  1.00  0.00     0.003 A 
ATOM     37  N   UNL     1     -14.748   3.526  -0.364  1.00  0.00    -0.361 N 
ATOM     38  C   UNL     1     -13.336   4.681  -0.051  1.00  0.00     0.046 A 
ATOM     39  C   UNL     1     -10.864   4.499   1.127  1.00  0.00     0.010 A 
ATOM     40  H   UNL     1     -15.617   3.779  -0.750  1.00  0.00     0.166 HD
ATOM     41  C   UNL     1     -13.228   6.085  -0.027  1.00  0.00     0.026 A 
ATOM     42  C   UNL     1     -10.893   5.904   0.951  1.00  0.00     0.001 A 
ATOM     43  C   UNL     1     -12.006   6.639   0.448  1.00  0.00     0.002 A 
ENDBRANCH  33  34
ENDBRANCH   7  33
ENDBRANCH   5   7
ENDBRANCH   4   5
ENDBRANCH   3   4
ENDBRANCH   2   3
ENDBRANCH   1   2
BRANCH   1  44
ATOM     44  C   UNL     1     -10.739   0.926  -5.578  1.00  0.00     0.188 C 
BRANCH  44  45
ATOM     45  C   UNL     1      -9.863   2.149  -5.337  1.00  0.00     0.188 C 
BRANCH  45  46
ATOM     46  O   UNL     1     -10.516   3.322  -4.926  1.00  0.00    -0.376 OA
BRANCH  46  47
ATOM     47  C   UNL     1     -10.711   4.509  -5.649  1.00  0.00     0.202 C 
BRANCH  47  48
ATOM     48  C   UNL     1      -9.414   4.947  -6.239  1.00  0.00     0.261 C 
BRANCH  48  49
ATOM     49  O   UNL     1      -8.298   5.125  -5.308  1.00  0.00    -0.460 OA
BRANCH  49  50
ATOM     50  C   UNL     1      -8.027   4.380  -4.201  1.00  0.00     0.338 C 
ATOM     51  O   UNL     1      -6.995   3.720  -4.114  1.00  0.00    -0.246 OA
BRANCH  50  52
ATOM     52  C   UNL     1      -9.014   4.399  -3.069  1.00  0.00     0.060 A 
ATOM     53  C   UNL     1      -9.029   3.323  -2.242  1.00  0.00     0.016 A 
ATOM     54  C   UNL     1     -10.048   5.308  -2.850  1.00  0.00     0.016 A 
ATOM     55  C   UNL     1     -10.164   3.150  -1.425  1.00  0.00     0.010 A 
ATOM     56  C   UNL     1     -11.305   4.891  -2.228  1.00  0.00     0.010 A 
ATOM     57  C   UNL     1     -11.477   3.655  -1.572  1.00  0.00    -0.014 A 
BRANCH  57  58
ATOM     58  C   UNL     1     -13.013   2.861  -0.874  1.00  0.00     0.031 A 
ATOM     59  C   UNL     1     -13.771   3.275   1.204  1.00  0.00     0.074 A 
ATOM     60  C   UNL     1     -13.759   1.777  -1.906  1.00  0.00     0.049 A 
ATOM     61  N   UNL     1     -14.643   2.540   2.037  1.00  0.00    -0.248 NA
ATOM     62  C   UNL     1     -13.575   4.460   2.380  1.00  0.00     0.031 C 
ATOM     63  C   UNL     1     -15.258   1.629  -2.290  1.00  0.00     0.029 A 
ATOM     64  N   UNL     1     -13.407   0.632  -2.786  1.00  0.00    -0.354 N 
ATOM     65  C   UNL     1     -15.520   3.430   2.559  1.00  0.00     0.074 A 
ATOM     66  C   UNL     1     -14.671   4.400   3.141  1.00  0.00     0.031 C 
ATOM     67  C   UNL     1     -15.544   0.466  -2.939  1.00  0.00     0.029 A 
ATOM     68  C   UNL     1     -14.345  -0.315  -3.134  1.00  0.00     0.049 A 
ATOM     69  H   UNL     1     -12.487   0.549  -3.126  1.00  0.00     0.167 HD
ATOM     70  C   UNL     1     -16.789   3.453   2.056  1.00  0.00     0.037 A 
ATOM     71  C   UNL     1     -14.180  -1.686  -3.224  1.00  0.00     0.037 A 
ATOM     72  C   UNL     1     -17.163   2.315   1.171  1.00  0.00     0.049 A 
ATOM     73  C   UNL     1     -15.052  -2.215  -2.114  1.00  0.00     0.074 A 
ATOM     74  C   UNL     1     -17.726   2.244  -0.098  1.00  0.00     0.029 A 
ATOM     75  N   UNL     1     -16.814   0.994   1.486  1.00  0.00    -0.354 N 
ATOM     76  N   UNL     1     -15.405  -1.431  -1.128  1.00  0.00    -0.248 NA
ATOM     77  C   UNL     1     -15.664  -3.538  -2.036  1.00  0.00     0.031 C 
ATOM     78  C   UNL     1     -17.750   0.880  -0.514  1.00  0.00     0.029 A 
ATOM     79  C   UNL     1     -17.165   0.099   0.472  1.00  0.00     0.049 A 
ATOM     80  H   UNL     1     -16.371   0.728   2.325  1.00  0.00     0.167 HD
ATOM     81  C   UNL     1     -16.370  -2.030  -0.396  1.00  0.00     0.074 A 
ATOM     82  C   UNL     1     -16.476  -3.365  -0.974  1.00  0.00     0.031 C 
ATOM     83  C   UNL     1     -17.004  -1.361   0.611  1.00  0.00     0.037 A 
BRANCH  70  84
ATOM     84  C   UNL     1     -17.672   4.662   2.214  1.00  0.00     0.064 A 
ATOM     85  C   UNL     1     -19.058   4.511   2.048  1.00  0.00     0.173 A 
ATOM     86  C   UNL     1     -17.240   5.969   2.526  1.00  0.00     0.173 A 
ATOM     87  F   UNL     1     -19.588   3.353   1.633  1.00  0.00    -0.203 F 
ATOM     88  C   UNL     1     -19.948   5.548   2.305  1.00  0.00     0.198 A 
ATOM     89  C   UNL     1     -18.133   6.980   2.870  1.00  0.00     0.198 A 
ATOM     90  F   UNL     1     -15.957   6.343   2.447  1.00  0.00    -0.203 F 
ATOM     91  F   UNL     1     -21.258   5.354   2.108  1.00  0.00    -0.200 F 
ATOM     92  C   UNL     1     -19.490   6.762   2.775  1.00  0.00     0.200 A 
ATOM     93  F   UNL     1     -17.665   8.165   3.285  1.00  0.00    -0.200 F 
ATOM     94  F   UNL     1     -20.353   7.729   3.110  1.00  0.00    -0.200 F 
ENDBRANCH  70  84
BRANCH  71  95
ATOM     95  C   UNL     1     -12.886  -2.355  -3.682  1.00  0.00     0.064 A 
ATOM     96  C   UNL     1     -12.511  -2.272  -5.036  1.00  0.00     0.173 A 
ATOM     97  C   UNL     1     -11.858  -2.749  -2.812  1.00  0.00     0.173 A 
ATOM     98  F   UNL     1     -13.452  -2.184  -5.987  1.00  0.00    -0.203 F 
ATOM     99  C   UNL     1     -11.165  -2.224  -5.430  1.00  0.00     0.198 A 
ATOM    100  C   UNL     1     -10.508  -2.557  -3.173  1.00  0.00     0.198 A 
ATOM    101  F   UNL     1     -12.132  -3.078  -1.540  1.00  0.00    -0.203 F 
ATOM    102  F   UNL     1     -10.842  -2.013  -6.715  1.00  0.00    -0.200 F 
ATOM    103  C   UNL     1     -10.171  -2.223  -4.470  1.00  0.00     0.200 A 
ATOM    104  F   UNL     1      -9.566  -2.510  -2.219  1.00  0.00    -0.200 F 
ATOM    105  F   UNL     1      -8.931  -1.804  -4.776  1.00  0.00    -0.200 F 
ENDBRANCH  71  95
BRANCH  83 106
ATOM    106  C   UNL     1     -17.657  -2.074   1.749  1.00  0.00     0.064 A 
ATOM    107  C   UNL     1     -17.379  -3.406   2.097  1.00  0.00     0.173 A 
ATOM    108  C   UNL     1     -18.498  -1.371   2.636  1.00  0.00     0.173 A 
ATOM    109  F   UNL     1     -16.454  -4.134   1.456  1.00  0.00    -0.203 F 
ATOM    110  C   UNL     1     -18.012  -4.026   3.167  1.00  0.00     0.198 A 
ATOM    111  C   UNL     1     -19.019  -1.956   3.777  1.00  0.00     0.198 A 
ATOM    112  F   UNL     1     -18.832  -0.088   2.449  1.00  0.00    -0.203 F 
ATOM    113  F   UNL     1     -17.815  -5.333   3.381  1.00  0.00    -0.200 F 
ATOM    114  C   UNL     1     -18.819  -3.296   4.016  1.00  0.00     0.200 A 
ATOM    115  F   UNL     1     -19.712  -1.202   4.641  1.00  0.00    -0.200 F 
ATOM    116  F   UNL     1     -19.390  -3.880   5.075  1.00  0.00    -0.200 F 
ENDBRANCH  83 106
ENDBRANCH  57  58
ENDBRANCH  50  52
ENDBRANCH  49  50
ENDBRANCH  48  49
ENDBRANCH  47  48
ENDBRANCH  46  47
ENDBRANCH  45  46
ENDBRANCH  44  45
ENDBRANCH   1  44
TORSDOF 24
