REMARK SMILES CC1(C)C[C@@H]([C@H](CCNC(=O)c2ccccc2C(=O)OCCOCCOCCOC(=O)c2ccc(-c3c4nc(c(-c5c(F)c(F)c(F)c(F)c5F)c5ccc([nH]5)c(-c5c(F)c(F)c(F)c(F)c5F)c5nc(c(-c6c(F)c(F)c(F)c(F)c6F)c6ccc3[nH]6)C=C5)C=C4)cc2)c2ccccc2)CCO1
REMARK SMILES IDX 23 1 22 2 21 3 20 4 18 5 19 6 17 7 12 8 13 9 14 10 16 11
REMARK SMILES IDX 15 12 10 13 9 14 11 16 8 17 7 18 6 19 5 20 1 21 2 22 3 23
REMARK SMILES IDX 4 24 103 25 102 26 101 27 95 28 96 29 100 30 97 31 99 32
REMARK SMILES IDX 98 33 24 34 25 35 26 36 27 37 28 38 29 39 30 40 31 41 32 42
REMARK SMILES IDX 33 43 94 44 34 45 93 46 35 47 36 48 37 49 87 50 38 51 92 52
REMARK SMILES IDX 86 53 88 54 39 55 91 56 85 57 84 58 40 60 72 61 52 62 71 63
REMARK SMILES IDX 53 64 56 65 70 66 89 67 54 68 55 69 69 71 90 72 57 73 41 74
REMARK SMILES IDX 42 75 50 76 43 77 44 78 48 79 51 80 45 81 46 82 49 83 47 84
REMARK SMILES IDX 73 85 74 86 82 87 75 88 76 89 80 90 83 91 77 92 78 93 81 94
REMARK SMILES IDX 79 95 58 96 59 97 67 98 60 99 61 100 65 101 68 102 62 103
REMARK SMILES IDX 63 104 66 105 64 106
REMARK H PARENT 9 15 88 59 56 70
REMARK Flexibility Score: inf
ROOT
ATOM      1  O   UNL     1       3.617  -4.258  -6.215  1.00  0.00    -0.376 OA
ENDROOT
BRANCH   1   2
ATOM      2  C   UNL     1       3.668  -3.226  -5.241  1.00  0.00     0.202 C 
BRANCH   2   3
ATOM      3  C   UNL     1       2.703  -3.324  -4.062  1.00  0.00     0.261 C 
BRANCH   3   4
ATOM      4  O   UNL     1       2.610  -4.621  -3.458  1.00  0.00    -0.460 OA
BRANCH   4   5
ATOM      5  C   UNL     1       1.382  -5.152  -3.306  1.00  0.00     0.339 C 
ATOM      6  O   UNL     1       0.328  -4.679  -3.706  1.00  0.00    -0.246 OA
BRANCH   5   7
ATOM      7  C   UNL     1       1.453  -6.466  -2.633  1.00  0.00     0.072 A 
ATOM      8  C   UNL     1       2.265  -6.770  -1.529  1.00  0.00     0.054 A 
ATOM      9  C   UNL     1       2.248  -8.080  -1.010  1.00  0.00     0.015 A 
ATOM     10  C   UNL     1       1.439  -9.068  -1.576  1.00  0.00     0.001 A 
ATOM     11  C   UNL     1       0.647  -7.471  -3.198  1.00  0.00     0.016 A 
ATOM     12  C   UNL     1       0.647  -8.766  -2.679  1.00  0.00     0.001 A 
BRANCH   8  13
ATOM     13  C   UNL     1       3.304  -5.874  -0.976  1.00  0.00     0.252 C 
ATOM     14  N   UNL     1       3.080  -4.555  -0.708  1.00  0.00    -0.352 N 
ATOM     15  H   UNL     1       3.900  -4.038  -0.535  1.00  0.00     0.163 HD
ATOM     16  O   UNL     1       4.425  -6.339  -0.772  1.00  0.00    -0.269 OA
BRANCH  14  17
ATOM     17  C   UNL     1       1.870  -3.777  -0.631  1.00  0.00     0.117 C 
BRANCH  17  18
ATOM     18  C   UNL     1       1.943  -2.636   0.371  1.00  0.00     0.030 C 
BRANCH  18  19
ATOM     19  C   UNL     1       3.163  -1.655   0.322  1.00  0.00     0.024 C 
BRANCH  19  20
ATOM     20  C   UNL     1       4.215  -1.972   1.468  1.00  0.00     0.002 C 
ATOM     21  C   UNL     1       5.652   1.029   0.478  1.00  0.00     0.042 C 
ATOM     22  C   UNL     1       6.077  -0.182   1.327  1.00  0.00     0.063 C 
ATOM     23  C   UNL     1       7.171   0.286   2.292  1.00  0.00     0.042 C 
ATOM     24  C   UNL     1       4.869  -0.731   2.102  1.00  0.00     0.039 C 
ATOM     25  O   UNL     1       6.646  -1.139   0.431  1.00  0.00    -0.376 OA
ATOM     26  C   UNL     1       6.668  -2.499   0.839  1.00  0.00     0.161 C 
ATOM     27  C   UNL     1       5.321  -3.021   1.329  1.00  0.00     0.033 C 
ENDBRANCH  19  20
BRANCH  19  28
ATOM     28  C   UNL     1       3.509  -1.148  -1.082  1.00  0.00    -0.045 A 
ATOM     29  C   UNL     1       4.730  -1.348  -1.731  1.00  0.00     0.004 A 
ATOM     30  C   UNL     1       2.561  -0.356  -1.770  1.00  0.00     0.004 A 
ATOM     31  C   UNL     1       5.058  -0.679  -2.922  1.00  0.00     0.000 A 
ATOM     32  C   UNL     1       2.860   0.266  -2.992  1.00  0.00     0.000 A 
ATOM     33  C   UNL     1       4.125   0.135  -3.551  1.00  0.00     0.000 A 
ENDBRANCH  19  28
ENDBRANCH  18  19
ENDBRANCH  17  18
ENDBRANCH  14  17
ENDBRANCH   8  13
ENDBRANCH   5   7
ENDBRANCH   4   5
ENDBRANCH   3   4
ENDBRANCH   2   3
ENDBRANCH   1   2
BRANCH   1  34
ATOM     34  C   UNL     1       3.624  -5.605  -5.753  1.00  0.00     0.188 C 
BRANCH  34  35
ATOM     35  C   UNL     1       4.650  -6.048  -4.677  1.00  0.00     0.188 C 
BRANCH  35  36
ATOM     36  O   UNL     1       5.506  -5.004  -4.253  1.00  0.00    -0.376 OA
BRANCH  36  37
ATOM     37  C   UNL     1       6.872  -5.124  -4.615  1.00  0.00     0.202 C 
BRANCH  37  38
ATOM     38  C   UNL     1       7.221  -5.180  -6.115  1.00  0.00     0.261 C 
BRANCH  38  39
ATOM     39  O   UNL     1       6.348  -5.959  -6.954  1.00  0.00    -0.460 OA
BRANCH  39  40
ATOM     40  C   UNL     1       6.524  -7.301  -6.994  1.00  0.00     0.338 C 
ATOM     41  O   UNL     1       7.385  -7.942  -6.420  1.00  0.00    -0.246 OA
BRANCH  40  42
ATOM     42  C   UNL     1       5.329  -7.896  -7.653  1.00  0.00     0.060 A 
ATOM     43  C   UNL     1       4.564  -8.827  -6.932  1.00  0.00     0.016 A 
ATOM     44  C   UNL     1       4.895  -7.465  -8.911  1.00  0.00     0.016 A 
ATOM     45  C   UNL     1       3.381  -9.339  -7.473  1.00  0.00     0.010 A 
ATOM     46  C   UNL     1       3.723  -8.002  -9.465  1.00  0.00     0.010 A 
ATOM     47  C   UNL     1       2.975  -8.964  -8.762  1.00  0.00    -0.014 A 
BRANCH  47  48
ATOM     48  C   UNL     1       1.919  -9.757  -9.447  1.00  0.00     0.031 A 
ATOM     49  C   UNL     1       2.361 -10.908 -10.313  1.00  0.00     0.074 A 
ATOM     50  C   UNL     1       0.606  -9.517  -9.273  1.00  0.00     0.049 A 
ATOM     51  N   UNL     1       1.645 -11.772 -10.988  1.00  0.00    -0.248 NA
ATOM     52  C   UNL     1       3.814 -11.113 -10.427  1.00  0.00     0.031 C 
ATOM     53  C   UNL     1       0.036  -8.461  -8.441  1.00  0.00     0.029 A 
ATOM     54  N   UNL     1      -0.493 -10.161  -9.796  1.00  0.00    -0.354 N 
ATOM     55  C   UNL     1       2.560 -12.625 -11.593  1.00  0.00     0.074 A 
ATOM     56  C   UNL     1       3.881 -12.153 -11.242  1.00  0.00     0.031 C 
ATOM     57  C   UNL     1      -1.306  -8.524  -8.513  1.00  0.00     0.029 A 
ATOM     58  C   UNL     1      -1.693  -9.612  -9.412  1.00  0.00     0.049 A 
ATOM     59  H   UNL     1      -0.425 -10.943 -10.390  1.00  0.00     0.167 HD
ATOM     60  C   UNL     1       2.324 -13.716 -12.358  1.00  0.00     0.037 A 
ATOM     61  C   UNL     1      -2.953  -9.945  -9.760  1.00  0.00     0.037 A 
ATOM     62  C   UNL     1       1.015 -14.184 -12.726  1.00  0.00     0.049 A 
ATOM     63  C   UNL     1      -3.185 -11.116 -10.688  1.00  0.00     0.074 A 
ATOM     64  C   UNL     1       0.676 -15.279 -13.501  1.00  0.00     0.029 A 
ATOM     65  N   UNL     1      -0.173 -13.574 -12.353  1.00  0.00    -0.354 N 
ATOM     66  N   UNL     1      -2.316 -11.941 -11.222  1.00  0.00    -0.248 NA
ATOM     67  C   UNL     1      -4.580 -11.407 -11.052  1.00  0.00     0.031 C 
ATOM     68  C   UNL     1      -0.716 -15.302 -13.640  1.00  0.00     0.029 A 
ATOM     69  C   UNL     1      -1.246 -14.258 -12.901  1.00  0.00     0.049 A 
ATOM     70  H   UNL     1      -0.243 -12.774 -11.783  1.00  0.00     0.167 HD
ATOM     71  C   UNL     1      -3.059 -12.861 -11.953  1.00  0.00     0.074 A 
ATOM     72  C   UNL     1      -4.451 -12.509 -11.774  1.00  0.00     0.031 C 
ATOM     73  C   UNL     1      -2.629 -13.903 -12.708  1.00  0.00     0.037 A 
BRANCH  60  74
ATOM     74  C   UNL     1       3.516 -14.474 -12.866  1.00  0.00     0.064 A 
ATOM     75  C   UNL     1       4.316 -15.244 -12.009  1.00  0.00     0.173 A 
ATOM     76  C   UNL     1       3.839 -14.460 -14.231  1.00  0.00     0.173 A 
ATOM     77  F   UNL     1       4.061 -15.275 -10.692  1.00  0.00    -0.203 F 
ATOM     78  C   UNL     1       5.407 -15.959 -12.498  1.00  0.00     0.198 A 
ATOM     79  C   UNL     1       4.912 -15.201 -14.721  1.00  0.00     0.198 A 
ATOM     80  F   UNL     1       3.106 -13.739 -15.093  1.00  0.00    -0.203 F 
ATOM     81  F   UNL     1       6.182 -16.655 -11.654  1.00  0.00    -0.200 F 
ATOM     82  C   UNL     1       5.697 -15.944 -13.854  1.00  0.00     0.200 A 
ATOM     83  F   UNL     1       5.184 -15.195 -16.033  1.00  0.00    -0.200 F 
ATOM     84  F   UNL     1       6.739 -16.644 -14.324  1.00  0.00    -0.200 F 
ENDBRANCH  60  74
BRANCH  61  85
ATOM     85  C   UNL     1      -4.114  -9.163  -9.247  1.00  0.00     0.064 A 
ATOM     86  C   UNL     1      -5.066  -9.747  -8.398  1.00  0.00     0.173 A 
ATOM     87  C   UNL     1      -4.334  -7.839  -9.654  1.00  0.00     0.173 A 
ATOM     88  F   UNL     1      -4.922 -11.022  -8.007  1.00  0.00    -0.203 F 
ATOM     89  C   UNL     1      -6.207  -9.050  -8.004  1.00  0.00     0.198 A 
ATOM     90  C   UNL     1      -5.458  -7.131  -9.231  1.00  0.00     0.198 A 
ATOM     91  F   UNL     1      -3.462  -7.234 -10.473  1.00  0.00    -0.203 F 
ATOM     92  F   UNL     1      -7.135  -9.657  -7.251  1.00  0.00    -0.200 F 
ATOM     93  C   UNL     1      -6.400  -7.740  -8.418  1.00  0.00     0.200 A 
ATOM     94  F   UNL     1      -5.637  -5.864  -9.629  1.00  0.00    -0.200 F 
ATOM     95  F   UNL     1      -7.502  -7.073  -8.046  1.00  0.00    -0.200 F 
ENDBRANCH  61  85
BRANCH  73  96
ATOM     96  C   UNL     1      -3.675 -14.763 -13.362  1.00  0.00     0.064 A 
ATOM     97  C   UNL     1      -4.474 -14.288 -14.414  1.00  0.00     0.173 A 
ATOM     98  C   UNL     1      -3.870 -16.089 -12.942  1.00  0.00     0.173 A 
ATOM     99  F   UNL     1      -4.337 -13.027 -14.848  1.00  0.00    -0.203 F 
ATOM    100  C   UNL     1      -5.455 -15.092 -14.989  1.00  0.00     0.198 A 
ATOM    101  C   UNL     1      -4.826 -16.902 -13.544  1.00  0.00     0.198 A 
ATOM    102  F   UNL     1      -3.126 -16.600 -11.949  1.00  0.00    -0.203 F 
ATOM    103  F   UNL     1      -6.249 -14.594 -15.947  1.00  0.00    -0.200 F 
ATOM    104  C   UNL     1      -5.627 -16.399 -14.558  1.00  0.00     0.200 A 
ATOM    105  F   UNL     1      -4.978 -18.170 -13.138  1.00  0.00    -0.200 F 
ATOM    106  F   UNL     1      -6.572 -17.171 -15.113  1.00  0.00    -0.200 F 
ENDBRANCH  73  96
ENDBRANCH  47  48
ENDBRANCH  40  42
ENDBRANCH  39  40
ENDBRANCH  38  39
ENDBRANCH  37  38
ENDBRANCH  36  37
ENDBRANCH  35  36
ENDBRANCH  34  35
ENDBRANCH   1  34
TORSDOF 23
