REMARK SMILES C[C@@H]1C(=O)NC(=O)CN1C(=O)NC1(CC(=O)OCCOCCOCCOC(=O)c2ccc(-c3c4nc(c(-c5c(F)c(F)c(F)c(F)c5F)c5ccc([nH]5)c(-c5c(F)c(F)c(F)c(F)c5F)c5nc(c(-c6c(F)c(F)c(F)c(F)c6F)c6ccc3[nH]6)C=C5)C=C4)cc2)CCC1
REMARK SMILES IDX 21 1 20 2 19 3 18 4 17 5 15 6 16 7 14 8 13 9 92 10 94 11
REMARK SMILES IDX 93 12 12 13 10 14 11 15 9 17 1 18 2 19 3 20 4 21 5 22 8 23
REMARK SMILES IDX 6 24 7 26 22 27 23 28 24 29 25 30 26 31 27 32 28 33 29 34
REMARK SMILES IDX 30 35 91 36 31 37 90 38 32 39 33 40 34 41 84 42 35 43 89 44
REMARK SMILES IDX 83 45 85 46 36 47 88 48 82 49 81 50 37 52 69 53 49 54 68 55
REMARK SMILES IDX 50 56 53 57 67 58 86 59 51 60 52 61 66 63 87 64 54 65 38 66
REMARK SMILES IDX 39 67 47 68 40 69 41 70 45 71 48 72 42 73 43 74 46 75 44 76
REMARK SMILES IDX 70 77 71 78 79 79 72 80 73 81 77 82 80 83 74 84 75 85 78 86
REMARK SMILES IDX 76 87 55 88 56 89 64 90 57 91 58 92 62 93 65 94 59 95 60 96
REMARK SMILES IDX 63 97 61 98
REMARK H PARENT 12 16 5 25 85 51 53 62
REMARK Flexibility Score: inf
ROOT
ATOM      1  C   UNL     1       0.383   4.257  -1.170  1.00  0.00     0.188 C 
ENDROOT
BRANCH   1   2
ATOM      2  O   UNL     1       1.454   3.345  -0.990  1.00  0.00    -0.376 OA
BRANCH   2   3
ATOM      3  C   UNL     1       1.784   3.012   0.355  1.00  0.00     0.202 C 
BRANCH   3   4
ATOM      4  C   UNL     1       0.813   2.117   1.217  1.00  0.00     0.261 C 
BRANCH   4   5
ATOM      5  O   UNL     1       0.303   0.842   0.681  1.00  0.00    -0.463 OA
BRANCH   5   6
ATOM      6  C   UNL     1      -0.995   0.454   0.972  1.00  0.00     0.308 C 
ATOM      7  O   UNL     1      -1.713   1.107   1.727  1.00  0.00    -0.252 OA
BRANCH   6   8
ATOM      8  C   UNL     1      -1.500  -0.932   0.341  1.00  0.00     0.151 C 
BRANCH   8   9
ATOM      9  C   UNL     1      -2.007  -1.042  -1.157  1.00  0.00     0.052 C 
ATOM     10  C   UNL     1      -3.551  -1.399  -1.214  1.00  0.00     0.029 C 
ATOM     11  C   UNL     1      -1.965  -2.070  -2.428  1.00  0.00     0.029 C 
ATOM     12  C   UNL     1      -3.180  -2.756  -1.859  1.00  0.00     0.005 C 
BRANCH   9  13
ATOM     13  N   UNL     1      -1.627   0.186  -1.775  1.00  0.00    -0.332 N 
ATOM     14  C   UNL     1      -0.394   0.662  -1.865  1.00  0.00     0.318 C 
ATOM     15  O   UNL     1      -0.441   1.859  -1.662  1.00  0.00    -0.249 OA
ATOM     16  H   UNL     1      -2.346   0.729  -2.172  1.00  0.00     0.165 HD
BRANCH  14  17
ATOM     17  N   UNL     1       0.770  -0.019  -1.945  1.00  0.00    -0.304 N 
ATOM     18  C   UNL     1       1.836  -1.653  -0.343  1.00  0.00     0.042 C 
ATOM     19  C   UNL     1       1.085  -1.419  -1.660  1.00  0.00     0.174 C 
ATOM     20  C   UNL     1       1.929  -1.992  -2.799  1.00  0.00     0.249 C 
ATOM     21  O   UNL     1       1.974  -3.196  -3.041  1.00  0.00    -0.272 OA
ATOM     22  N   UNL     1       2.818  -1.128  -3.391  1.00  0.00    -0.293 N 
ATOM     23  C   UNL     1       1.947   0.813  -2.181  1.00  0.00     0.222 C 
ATOM     24  C   UNL     1       2.976   0.202  -3.103  1.00  0.00     0.246 C 
ATOM     25  H   UNL     1       3.400  -1.502  -4.092  1.00  0.00     0.173 HD
ATOM     26  O   UNL     1       3.964   0.820  -3.497  1.00  0.00    -0.273 OA
ENDBRANCH  14  17
ENDBRANCH   9  13
ENDBRANCH   8   9
ENDBRANCH   6   8
ENDBRANCH   5   6
ENDBRANCH   4   5
ENDBRANCH   3   4
ENDBRANCH   2   3
ENDBRANCH   1   2
BRANCH   1  27
ATOM     27  C   UNL     1      -0.397   4.099  -2.494  1.00  0.00     0.188 C 
BRANCH  27  28
ATOM     28  O   UNL     1       0.230   3.598  -3.671  1.00  0.00    -0.376 OA
BRANCH  28  29
ATOM     29  C   UNL     1       1.058   4.523  -4.350  1.00  0.00     0.202 C 
BRANCH  29  30
ATOM     30  C   UNL     1       0.290   5.612  -5.134  1.00  0.00     0.261 C 
BRANCH  30  31
ATOM     31  O   UNL     1      -0.709   6.313  -4.352  1.00  0.00    -0.460 OA
BRANCH  31  32
ATOM     32  C   UNL     1      -1.994   5.873  -4.490  1.00  0.00     0.338 C 
ATOM     33  O   UNL     1      -2.427   5.177  -5.403  1.00  0.00    -0.246 OA
BRANCH  32  34
ATOM     34  C   UNL     1      -2.786   6.134  -3.244  1.00  0.00     0.060 A 
ATOM     35  C   UNL     1      -3.609   5.100  -2.753  1.00  0.00     0.016 A 
ATOM     36  C   UNL     1      -2.663   7.311  -2.503  1.00  0.00     0.016 A 
ATOM     37  C   UNL     1      -4.367   5.270  -1.587  1.00  0.00     0.010 A 
ATOM     38  C   UNL     1      -3.446   7.495  -1.350  1.00  0.00     0.010 A 
ATOM     39  C   UNL     1      -4.347   6.500  -0.919  1.00  0.00    -0.014 A 
BRANCH  39  40
ATOM     40  C   UNL     1      -5.475   6.879  -0.019  1.00  0.00     0.031 A 
ATOM     41  C   UNL     1      -6.618   7.639  -0.650  1.00  0.00     0.074 A 
ATOM     42  C   UNL     1      -5.523   6.578   1.292  1.00  0.00     0.049 A 
ATOM     43  N   UNL     1      -7.653   8.219  -0.096  1.00  0.00    -0.248 NA
ATOM     44  C   UNL     1      -6.577   7.767  -2.117  1.00  0.00     0.031 C 
ATOM     45  C   UNL     1      -4.541   5.783   2.023  1.00  0.00     0.029 A 
ATOM     46  N   UNL     1      -6.448   6.931   2.251  1.00  0.00    -0.354 N 
ATOM     47  C   UNL     1      -8.370   8.786  -1.144  1.00  0.00     0.074 A 
ATOM     48  C   UNL     1      -7.643   8.509  -2.361  1.00  0.00     0.031 C 
ATOM     49  C   UNL     1      -4.900   5.731   3.321  1.00  0.00     0.029 A 
ATOM     50  C   UNL     1      -6.116   6.521   3.521  1.00  0.00     0.049 A 
ATOM     51  H   UNL     1      -7.272   7.430   2.045  1.00  0.00     0.167 HD
ATOM     52  C   UNL     1      -9.536   9.473  -1.101  1.00  0.00     0.037 A 
ATOM     53  C   UNL     1      -6.708   6.785   4.705  1.00  0.00     0.037 A 
ATOM     54  C   UNL     1     -10.262   9.758   0.106  1.00  0.00     0.049 A 
ATOM     55  C   UNL     1      -7.954   7.645   4.739  1.00  0.00     0.074 A 
ATOM     56  C   UNL     1     -11.443  10.463   0.257  1.00  0.00     0.029 A 
ATOM     57  N   UNL     1      -9.871   9.353   1.372  1.00  0.00    -0.354 N 
ATOM     58  N   UNL     1      -8.623   8.184   3.747  1.00  0.00    -0.248 NA
ATOM     59  C   UNL     1      -8.527   7.934   6.064  1.00  0.00     0.031 C 
ATOM     60  C   UNL     1     -11.740  10.529   1.621  1.00  0.00     0.029 A 
ATOM     61  C   UNL     1     -10.779   9.810   2.313  1.00  0.00     0.049 A 
ATOM     62  H   UNL     1      -9.069   8.819   1.573  1.00  0.00     0.167 HD
ATOM     63  C   UNL     1      -9.708   8.836   4.323  1.00  0.00     0.074 A 
ATOM     64  C   UNL     1      -9.621   8.611   5.749  1.00  0.00     0.031 C 
ATOM     65  C   UNL     1     -10.690   9.559   3.728  1.00  0.00     0.037 A 
BRANCH  52  66
ATOM     66  C   UNL     1     -10.086   9.988  -2.400  1.00  0.00     0.064 A 
ATOM     67  C   UNL     1     -10.629   9.126  -3.364  1.00  0.00     0.173 A 
ATOM     68  C   UNL     1     -10.106  11.366  -2.665  1.00  0.00     0.173 A 
ATOM     69  F   UNL     1     -10.615   7.799  -3.169  1.00  0.00    -0.203 F 
ATOM     70  C   UNL     1     -11.156   9.623  -4.554  1.00  0.00     0.198 A 
ATOM     71  C   UNL     1     -10.662  11.861  -3.841  1.00  0.00     0.198 A 
ATOM     72  F   UNL     1      -9.598  12.233  -1.777  1.00  0.00    -0.203 F 
ATOM     73  F   UNL     1     -11.630   8.778  -5.480  1.00  0.00    -0.200 F 
ATOM     74  C   UNL     1     -11.181  10.990  -4.786  1.00  0.00     0.200 A 
ATOM     75  F   UNL     1     -10.698  13.184  -4.058  1.00  0.00    -0.200 F 
ATOM     76  F   UNL     1     -11.702  11.468  -5.925  1.00  0.00    -0.200 F 
ENDBRANCH  52  66
BRANCH  53  77
ATOM     77  C   UNL     1      -6.128   6.273   5.981  1.00  0.00     0.064 A 
ATOM     78  C   UNL     1      -6.837   5.374   6.794  1.00  0.00     0.173 A 
ATOM     79  C   UNL     1      -4.891   6.733   6.457  1.00  0.00     0.173 A 
ATOM     80  F   UNL     1      -8.043   4.931   6.407  1.00  0.00    -0.203 F 
ATOM     81  C   UNL     1      -6.350   4.985   8.041  1.00  0.00     0.198 A 
ATOM     82  C   UNL     1      -4.387   6.314   7.688  1.00  0.00     0.198 A 
ATOM     83  F   UNL     1      -4.173   7.604   5.732  1.00  0.00    -0.203 F 
ATOM     84  F   UNL     1      -7.086   4.188   8.827  1.00  0.00    -0.200 F 
ATOM     85  C   UNL     1      -5.122   5.452   8.485  1.00  0.00     0.200 A 
ATOM     86  F   UNL     1      -3.197   6.763   8.110  1.00  0.00    -0.200 F 
ATOM     87  F   UNL     1      -4.659   5.086   9.688  1.00  0.00    -0.200 F 
ENDBRANCH  53  77
BRANCH  65  88
ATOM     88  C   UNL     1     -11.779  10.111   4.605  1.00  0.00     0.064 A 
ATOM     89  C   UNL     1     -11.543  11.152   5.516  1.00  0.00     0.173 A 
ATOM     90  C   UNL     1     -13.088   9.613   4.506  1.00  0.00     0.173 A 
ATOM     91  F   UNL     1     -10.309  11.659   5.658  1.00  0.00    -0.203 F 
ATOM     92  C   UNL     1     -12.568  11.645   6.322  1.00  0.00     0.198 A 
ATOM     93  C   UNL     1     -14.117  10.134   5.286  1.00  0.00     0.198 A 
ATOM     94  F   UNL     1     -13.374   8.628   3.641  1.00  0.00    -0.203 F 
ATOM     95  F   UNL     1     -12.305  12.597   7.227  1.00  0.00    -0.200 F 
ATOM     96  C   UNL     1     -13.854  11.141   6.201  1.00  0.00     0.200 A 
ATOM     97  F   UNL     1     -15.363   9.659   5.153  1.00  0.00    -0.200 F 
ATOM     98  F   UNL     1     -14.838  11.621   6.973  1.00  0.00    -0.200 F 
ENDBRANCH  65  88
ENDBRANCH  39  40
ENDBRANCH  32  34
ENDBRANCH  31  32
ENDBRANCH  30  31
ENDBRANCH  29  30
ENDBRANCH  28  29
ENDBRANCH  27  28
ENDBRANCH   1  27
TORSDOF 20
