REMARK SMILES Cc1cc(NC(=O)[C@H]2[C@@H](C(=O)OCCOCCOCCOC(=O)c3ccc(-c4c5nc(c(-c6c(F)c(F)c(F)c(F)c6F)c6ccc([nH]6)c(-c6c(F)c(F)c(F)c(F)c6F)c6nc(c(-c7c(F)c(F)c(F)c(F)c7F)c7ccc4[nH]7)C=C6)C=C5)cc3)C2(C)C)n(-c2ccc(F)cc2)n1
REMARK SMILES IDX 16 1 15 2 14 3 13 4 12 5 10 6 11 7 9 8 8 9 87 10 88 11 89 12
REMARK SMILES IDX 6 13 5 14 7 16 4 17 1 18 2 19 3 20 98 21 90 22 91 23 92 24
REMARK SMILES IDX 97 25 93 26 96 27 94 28 95 29 17 30 18 31 19 32 20 33 21 34
REMARK SMILES IDX 22 35 23 36 24 37 25 38 86 39 26 40 85 41 27 42 28 43 29 44
REMARK SMILES IDX 79 45 30 46 84 47 78 48 80 49 31 50 83 51 77 52 76 53 32 55
REMARK SMILES IDX 64 56 44 57 63 58 45 59 48 60 62 61 81 62 46 63 47 64 61 66
REMARK SMILES IDX 82 67 49 68 33 69 34 70 42 71 35 72 36 73 40 74 43 75 37 76
REMARK SMILES IDX 38 77 41 78 39 79 65 80 66 81 74 82 67 83 68 84 72 85 75 86
REMARK SMILES IDX 69 87 70 88 73 89 71 90 50 91 51 92 59 93 52 94 53 95 57 96
REMARK SMILES IDX 60 97 54 98 55 99 58 100 56 101
REMARK H PARENT 5 15 80 54 48 65
REMARK Flexibility Score: inf
ROOT
ATOM      1  C   UNL     1      -0.567  -3.247  10.248  1.00  0.00     0.188 C 
ENDROOT
BRANCH   1   2
ATOM      2  O   UNL     1      -0.284  -4.255  11.191  1.00  0.00    -0.376 OA
BRANCH   2   3
ATOM      3  C   UNL     1       0.204  -5.513  10.730  1.00  0.00     0.202 C 
BRANCH   3   4
ATOM      4  C   UNL     1       0.041  -5.941   9.255  1.00  0.00     0.261 C 
BRANCH   4   5
ATOM      5  O   UNL     1       0.597  -4.984   8.335  1.00  0.00    -0.463 OA
BRANCH   5   6
ATOM      6  C   UNL     1      -0.182  -4.654   7.273  1.00  0.00     0.310 C 
ATOM      7  O   UNL     1      -1.144  -5.284   6.861  1.00  0.00    -0.252 OA
BRANCH   6   8
ATOM      8  C   UNL     1       0.001  -3.242   6.864  1.00  0.00     0.118 C 
ATOM      9  C   UNL     1       0.043  -2.863   5.419  1.00  0.00     0.100 C 
ATOM     10  C   UNL     1       1.240  -2.545   6.317  1.00  0.00    -0.009 C 
ATOM     11  C   UNL     1       2.529  -3.308   6.142  1.00  0.00     0.013 C 
ATOM     12  C   UNL     1       1.488  -1.094   6.682  1.00  0.00     0.013 C 
BRANCH   9  13
ATOM     13  C   UNL     1       0.146  -3.809   4.314  1.00  0.00     0.230 C 
ATOM     14  N   UNL     1       0.042  -3.380   2.966  1.00  0.00    -0.310 N 
ATOM     15  H   UNL     1       0.072  -4.114   2.312  1.00  0.00     0.171 HD
ATOM     16  O   UNL     1       0.474  -4.975   4.455  1.00  0.00    -0.274 OA
BRANCH  14  17
ATOM     17  C   UNL     1      -0.095  -2.119   2.390  1.00  0.00     0.136 A 
ATOM     18  C   UNL     1       0.890   0.175  -0.302  1.00  0.00     0.069 C 
ATOM     19  C   UNL     1       0.320  -0.567   0.846  1.00  0.00     0.062 A 
ATOM     20  C   UNL     1       0.565  -1.904   1.195  1.00  0.00     0.072 A 
ATOM     21  N   UNL     1      -0.501   0.024   1.712  1.00  0.00    -0.171 NA
ATOM     22  N   UNL     1      -0.757  -0.910   2.659  1.00  0.00    -0.217 N 
BRANCH  22  23
ATOM     23  C   UNL     1      -1.618  -0.529   3.709  1.00  0.00     0.067 A 
ATOM     24  C   UNL     1      -1.066   0.104   4.829  1.00  0.00     0.031 A 
ATOM     25  C   UNL     1      -3.005  -0.673   3.595  1.00  0.00     0.031 A 
ATOM     26  C   UNL     1      -1.872   0.382   5.935  1.00  0.00     0.041 A 
ATOM     27  C   UNL     1      -3.816  -0.323   4.682  1.00  0.00     0.041 A 
ATOM     28  C   UNL     1      -3.238   0.150   5.858  1.00  0.00     0.123 A 
ATOM     29  F   UNL     1      -4.005   0.390   6.928  1.00  0.00    -0.207 F 
ENDBRANCH  22  23
ENDBRANCH  14  17
ENDBRANCH   9  13
ENDBRANCH   6   8
ENDBRANCH   5   6
ENDBRANCH   4   5
ENDBRANCH   3   4
ENDBRANCH   2   3
ENDBRANCH   1   2
BRANCH   1  30
ATOM     30  C   UNL     1       0.589  -2.325   9.849  1.00  0.00     0.188 C 
BRANCH  30  31
ATOM     31  O   UNL     1       1.821  -2.760   9.300  1.00  0.00    -0.376 OA
BRANCH  31  32
ATOM     32  C   UNL     1       2.796  -3.555   9.961  1.00  0.00     0.202 C 
BRANCH  32  33
ATOM     33  C   UNL     1       3.348  -3.194  11.338  1.00  0.00     0.261 C 
BRANCH  33  34
ATOM     34  O   UNL     1       2.508  -2.329  12.053  1.00  0.00    -0.460 OA
BRANCH  34  35
ATOM     35  C   UNL     1       2.608  -1.044  11.661  1.00  0.00     0.338 C 
ATOM     36  O   UNL     1       3.349  -0.566  10.812  1.00  0.00    -0.246 OA
BRANCH  35  37
ATOM     37  C   UNL     1       1.630  -0.285  12.439  1.00  0.00     0.060 A 
ATOM     38  C   UNL     1       1.530   1.075  12.156  1.00  0.00     0.016 A 
ATOM     39  C   UNL     1       1.079  -0.873  13.586  1.00  0.00     0.016 A 
ATOM     40  C   UNL     1       1.226   1.901  13.201  1.00  0.00     0.010 A 
ATOM     41  C   UNL     1       0.823  -0.052  14.639  1.00  0.00     0.010 A 
ATOM     42  C   UNL     1       1.031   1.309  14.450  1.00  0.00    -0.014 A 
BRANCH  42  43
ATOM     43  C   UNL     1       1.048   2.159  15.608  1.00  0.00     0.031 A 
ATOM     44  C   UNL     1      -0.267   2.767  15.830  1.00  0.00     0.074 A 
ATOM     45  C   UNL     1       2.147   2.237  16.383  1.00  0.00     0.049 A 
ATOM     46  N   UNL     1      -0.610   3.989  15.604  1.00  0.00    -0.248 NA
ATOM     47  C   UNL     1      -1.400   1.862  16.098  1.00  0.00     0.031 C 
ATOM     48  C   UNL     1       3.341   1.382  16.309  1.00  0.00     0.029 A 
ATOM     49  N   UNL     1       2.385   3.009  17.479  1.00  0.00    -0.354 N 
ATOM     50  C   UNL     1      -1.936   4.048  16.009  1.00  0.00     0.074 A 
ATOM     51  C   UNL     1      -2.430   2.702  15.995  1.00  0.00     0.031 C 
ATOM     52  C   UNL     1       4.059   1.519  17.446  1.00  0.00     0.029 A 
ATOM     53  C   UNL     1       3.456   2.566  18.250  1.00  0.00     0.049 A 
ATOM     54  H   UNL     1       1.852   3.805  17.704  1.00  0.00     0.167 HD
ATOM     55  C   UNL     1      -2.351   5.109  16.751  1.00  0.00     0.037 A 
ATOM     56  C   UNL     1       3.754   2.993  19.500  1.00  0.00     0.037 A 
ATOM     57  C   UNL     1      -1.414   6.199  16.647  1.00  0.00     0.049 A 
ATOM     58  C   UNL     1       3.081   4.300  19.701  1.00  0.00     0.074 A 
ATOM     59  C   UNL     1      -1.108   7.171  15.722  1.00  0.00     0.029 A 
ATOM     60  N   UNL     1      -0.345   6.094  17.498  1.00  0.00    -0.354 N 
ATOM     61  N   UNL     1       3.413   5.381  19.050  1.00  0.00    -0.248 NA
ATOM     62  C   UNL     1       1.774   4.337  20.352  1.00  0.00     0.031 C 
ATOM     63  C   UNL     1       0.217   7.609  16.016  1.00  0.00     0.029 A 
ATOM     64  C   UNL     1       0.683   6.918  17.131  1.00  0.00     0.049 A 
ATOM     65  H   UNL     1      -0.320   5.497  18.281  1.00  0.00     0.167 HD
ATOM     66  C   UNL     1       2.216   6.046  18.864  1.00  0.00     0.074 A 
ATOM     67  C   UNL     1       1.285   5.459  19.817  1.00  0.00     0.031 C 
ATOM     68  C   UNL     1       1.988   6.758  17.726  1.00  0.00     0.037 A 
BRANCH  55  69
ATOM     69  C   UNL     1      -3.262   4.993  17.955  1.00  0.00     0.064 A 
ATOM     70  C   UNL     1      -3.723   6.180  18.555  1.00  0.00     0.173 A 
ATOM     71  C   UNL     1      -3.453   3.817  18.718  1.00  0.00     0.173 A 
ATOM     72  F   UNL     1      -3.574   7.359  17.933  1.00  0.00    -0.203 F 
ATOM     73  C   UNL     1      -4.272   6.194  19.840  1.00  0.00     0.198 A 
ATOM     74  C   UNL     1      -4.050   3.828  19.976  1.00  0.00     0.198 A 
ATOM     75  F   UNL     1      -2.978   2.625  18.347  1.00  0.00    -0.203 F 
ATOM     76  F   UNL     1      -4.589   7.361  20.414  1.00  0.00    -0.200 F 
ATOM     77  C   UNL     1      -4.432   5.018  20.550  1.00  0.00     0.200 A 
ATOM     78  F   UNL     1      -4.172   2.677  20.654  1.00  0.00    -0.200 F 
ATOM     79  F   UNL     1      -4.908   5.034  21.801  1.00  0.00    -0.200 F 
ENDBRANCH  55  69
BRANCH  56  80
ATOM     80  C   UNL     1       4.337   2.224  20.621  1.00  0.00     0.064 A 
ATOM     81  C   UNL     1       4.955   2.871  21.702  1.00  0.00     0.173 A 
ATOM     82  C   UNL     1       4.047   0.856  20.787  1.00  0.00     0.173 A 
ATOM     83  F   UNL     1       5.225   4.183  21.635  1.00  0.00    -0.203 F 
ATOM     84  C   UNL     1       5.243   2.195  22.892  1.00  0.00     0.198 A 
ATOM     85  C   UNL     1       4.338   0.181  21.974  1.00  0.00     0.198 A 
ATOM     86  F   UNL     1       3.389   0.174  19.838  1.00  0.00    -0.203 F 
ATOM     87  F   UNL     1       5.779   2.859  23.925  1.00  0.00    -0.200 F 
ATOM     88  C   UNL     1       4.923   0.854  23.031  1.00  0.00     0.200 A 
ATOM     89  F   UNL     1       3.988  -1.106  22.109  1.00  0.00    -0.200 F 
ATOM     90  F   UNL     1       5.137   0.222  24.193  1.00  0.00    -0.200 F 
ENDBRANCH  56  80
BRANCH  68  91
ATOM     91  C   UNL     1       3.177   7.274  16.985  1.00  0.00     0.064 A 
ATOM     92  C   UNL     1       4.092   6.470  16.289  1.00  0.00     0.173 A 
ATOM     93  C   UNL     1       3.345   8.664  16.919  1.00  0.00     0.173 A 
ATOM     94  F   UNL     1       3.949   5.138  16.255  1.00  0.00    -0.203 F 
ATOM     95  C   UNL     1       5.147   7.041  15.578  1.00  0.00     0.198 A 
ATOM     96  C   UNL     1       4.376   9.231  16.182  1.00  0.00     0.198 A 
ATOM     97  F   UNL     1       2.473   9.474  17.541  1.00  0.00    -0.203 F 
ATOM     98  F   UNL     1       6.020   6.259  14.925  1.00  0.00    -0.200 F 
ATOM     99  C   UNL     1       5.282   8.421  15.519  1.00  0.00     0.200 A 
ATOM    100  F   UNL     1       4.476  10.565  16.095  1.00  0.00    -0.200 F 
ATOM    101  F   UNL     1       6.273   8.971  14.803  1.00  0.00    -0.200 F 
ENDBRANCH  68  91
ENDBRANCH  42  43
ENDBRANCH  35  37
ENDBRANCH  34  35
ENDBRANCH  33  34
ENDBRANCH  32  33
ENDBRANCH  31  32
ENDBRANCH  30  31
ENDBRANCH   1  30
TORSDOF 20
