REMARK SMILES C[C@H]1CCCN(C(=O)c2cn(C)nc2C(=O)OCCOCCOCCOC(=O)c2ccc(-c3c4nc(c(-c5c(F)c(F)c(F)c(F)c5F)c5ccc([nH]5)c(-c5c(F)c(F)c(F)c(F)c5F)c5nc(c(-c6c(F)c(F)c(F)c(F)c6F)c6ccc3[nH]6)C=C5)C=C4)cc2)C1
REMARK SMILES IDX 21 1 20 2 19 3 18 4 17 5 15 6 16 7 14 8 9 9 10 10 11 11
REMARK SMILES IDX 13 12 12 13 7 14 8 15 6 16 1 17 2 18 3 19 92 20 4 21 5 22
REMARK SMILES IDX 22 23 23 24 24 25 25 26 26 27 27 28 28 29 29 30 30 31 91 32
REMARK SMILES IDX 31 33 90 34 32 35 33 36 34 37 84 38 35 39 89 40 83 41 85 42
REMARK SMILES IDX 36 43 88 44 82 45 81 46 37 48 69 49 49 50 68 51 50 52 53 53
REMARK SMILES IDX 67 54 86 55 51 56 52 57 66 59 87 60 54 61 38 62 39 63 47 64
REMARK SMILES IDX 40 65 41 66 45 67 48 68 42 69 43 70 46 71 44 72 70 73 71 74
REMARK SMILES IDX 79 75 72 76 73 77 77 78 80 79 74 80 75 81 78 82 76 83 55 84
REMARK SMILES IDX 56 85 64 86 57 87 58 88 62 89 65 90 59 91 60 92 63 93 61 94
REMARK H PARENT 85 47 53 58
REMARK Flexibility Score: inf
ROOT
ATOM      1  C   UNL     1      -5.219   4.520   0.430  1.00  0.00     0.188 C 
ENDROOT
BRANCH   1   2
ATOM      2  O   UNL     1      -5.090   5.774  -0.209  1.00  0.00    -0.376 OA
BRANCH   2   3
ATOM      3  C   UNL     1      -3.806   6.354  -0.393  1.00  0.00     0.202 C 
BRANCH   3   4
ATOM      4  C   UNL     1      -2.690   6.223   0.652  1.00  0.00     0.261 C 
BRANCH   4   5
ATOM      5  O   UNL     1      -2.483   4.886   1.118  1.00  0.00    -0.458 OA
BRANCH   5   6
ATOM      6  C   UNL     1      -2.572   4.708   2.474  1.00  0.00     0.359 C 
ATOM      7  O   UNL     1      -2.722   5.624   3.277  1.00  0.00    -0.244 OA
BRANCH   6   8
ATOM      8  C   UNL     1      -2.665   3.286   2.847  1.00  0.00     0.183 A 
ATOM      9  C   UNL     1      -1.956   2.171   2.295  1.00  0.00     0.092 A 
ATOM     10  C   UNL     1      -2.424   1.084   3.013  1.00  0.00     0.123 A 
ATOM     11  N   UNL     1      -3.422   1.549   3.812  1.00  0.00    -0.274 N 
ATOM     12  N   UNL     1      -3.588   2.874   3.743  1.00  0.00    -0.165 NA
ATOM     13  C   UNL     1      -4.315   0.766   4.631  1.00  0.00     0.173 C 
BRANCH   9  14
ATOM     14  C   UNL     1      -0.909   2.234   1.287  1.00  0.00     0.257 C 
ATOM     15  O   UNL     1      -0.122   3.179   1.313  1.00  0.00    -0.269 OA
BRANCH  14  16
ATOM     16  N   UNL     1      -0.811   1.228   0.323  1.00  0.00    -0.338 N 
ATOM     17  C   UNL     1       1.976   0.066   0.874  1.00  0.00     0.009 C 
ATOM     18  C   UNL     1       1.187   0.006  -0.437  1.00  0.00     0.005 C 
ATOM     19  C   UNL     1       0.329  -1.270  -0.526  1.00  0.00     0.007 C 
ATOM     20  C   UNL     1       0.315   1.259  -0.608  1.00  0.00     0.123 C 
ATOM     21  C   UNL     1      -0.927  -1.211   0.353  1.00  0.00     0.022 C 
ATOM     22  C   UNL     1      -1.701   0.086   0.119  1.00  0.00     0.120 C 
ENDBRANCH  14  16
ENDBRANCH   9  14
ENDBRANCH   6   8
ENDBRANCH   5   6
ENDBRANCH   4   5
ENDBRANCH   3   4
ENDBRANCH   2   3
ENDBRANCH   1   2
BRANCH   1  23
ATOM     23  C   UNL     1      -4.598   3.258  -0.204  1.00  0.00     0.188 C 
BRANCH  23  24
ATOM     24  O   UNL     1      -3.730   3.361  -1.307  1.00  0.00    -0.376 OA
BRANCH  24  25
ATOM     25  C   UNL     1      -4.215   3.757  -2.579  1.00  0.00     0.202 C 
BRANCH  25  26
ATOM     26  C   UNL     1      -5.668   3.605  -3.061  1.00  0.00     0.261 C 
BRANCH  26  27
ATOM     27  O   UNL     1      -6.699   3.611  -2.070  1.00  0.00    -0.460 OA
BRANCH  27  28
ATOM     28  C   UNL     1      -7.292   2.409  -1.857  1.00  0.00     0.338 C 
ATOM     29  O   UNL     1      -7.032   1.346  -2.384  1.00  0.00    -0.246 OA
BRANCH  28  30
ATOM     30  C   UNL     1      -8.222   2.530  -0.719  1.00  0.00     0.060 A 
ATOM     31  C   UNL     1      -7.925   1.837   0.462  1.00  0.00     0.016 A 
ATOM     32  C   UNL     1      -9.400   3.267  -0.837  1.00  0.00     0.016 A 
ATOM     33  C   UNL     1      -8.818   1.866   1.530  1.00  0.00     0.010 A 
ATOM     34  C   UNL     1     -10.306   3.275   0.227  1.00  0.00     0.010 A 
ATOM     35  C   UNL     1     -10.032   2.553   1.404  1.00  0.00    -0.014 A 
BRANCH  35  36
ATOM     36  C   UNL     1     -11.082   2.383   2.436  1.00  0.00     0.031 A 
ATOM     37  C   UNL     1     -12.192   1.402   2.178  1.00  0.00     0.074 A 
ATOM     38  C   UNL     1     -11.047   3.083   3.583  1.00  0.00     0.049 A 
ATOM     39  N   UNL     1     -13.251   1.137   2.899  1.00  0.00    -0.248 NA
ATOM     40  C   UNL     1     -12.096   0.613   0.938  1.00  0.00     0.031 C 
ATOM     41  C   UNL     1     -10.005   4.035   3.962  1.00  0.00     0.029 A 
ATOM     42  N   UNL     1     -11.929   3.110   4.636  1.00  0.00    -0.354 N 
ATOM     43  C   UNL     1     -13.955   0.171   2.193  1.00  0.00     0.074 A 
ATOM     44  C   UNL     1     -13.213  -0.098   0.981  1.00  0.00     0.031 C 
ATOM     45  C   UNL     1     -10.323   4.577   5.151  1.00  0.00     0.029 A 
ATOM     46  C   UNL     1     -11.605   4.035   5.598  1.00  0.00     0.049 A 
ATOM     47  H   UNL     1     -12.718   2.524   4.694  1.00  0.00     0.167 HD
ATOM     48  C   UNL     1     -15.117  -0.436   2.529  1.00  0.00     0.037 A 
ATOM     49  C   UNL     1     -12.286   4.421   6.695  1.00  0.00     0.037 A 
ATOM     50  C   UNL     1     -15.845  -0.179   3.743  1.00  0.00     0.049 A 
ATOM     51  C   UNL     1     -13.606   3.761   7.017  1.00  0.00     0.074 A 
ATOM     52  C   UNL     1     -17.004  -0.784   4.195  1.00  0.00     0.029 A 
ATOM     53  N   UNL     1     -15.489   0.767   4.692  1.00  0.00    -0.354 N 
ATOM     54  N   UNL     1     -14.239   2.811   6.372  1.00  0.00    -0.248 NA
ATOM     55  C   UNL     1     -14.304   4.226   8.225  1.00  0.00     0.031 C 
ATOM     56  C   UNL     1     -17.387  -0.160   5.386  1.00  0.00     0.029 A 
ATOM     57  C   UNL     1     -16.428   0.787   5.710  1.00  0.00     0.049 A 
ATOM     58  H   UNL     1     -14.690   1.339   4.648  1.00  0.00     0.167 HD
ATOM     59  C   UNL     1     -15.384   2.542   7.112  1.00  0.00     0.074 A 
ATOM     60  C   UNL     1     -15.353   3.418   8.263  1.00  0.00     0.031 C 
ATOM     61  C   UNL     1     -16.375   1.651   6.861  1.00  0.00     0.037 A 
BRANCH  48  62
ATOM     62  C   UNL     1     -15.703  -1.421   1.561  1.00  0.00     0.064 A 
ATOM     63  C   UNL     1     -15.147  -2.693   1.369  1.00  0.00     0.173 A 
ATOM     64  C   UNL     1     -16.889  -1.110   0.876  1.00  0.00     0.173 A 
ATOM     65  F   UNL     1     -14.007  -3.032   1.990  1.00  0.00    -0.203 F 
ATOM     66  C   UNL     1     -15.752  -3.617   0.521  1.00  0.00     0.198 A 
ATOM     67  C   UNL     1     -17.506  -2.046   0.051  1.00  0.00     0.198 A 
ATOM     68  F   UNL     1     -17.462   0.093   1.028  1.00  0.00    -0.203 F 
ATOM     69  F   UNL     1     -15.189  -4.818   0.330  1.00  0.00    -0.200 F 
ATOM     70  C   UNL     1     -16.936  -3.297  -0.128  1.00  0.00     0.200 A 
ATOM     71  F   UNL     1     -18.657  -1.739  -0.563  1.00  0.00    -0.200 F 
ATOM     72  F   UNL     1     -17.528  -4.195  -0.926  1.00  0.00    -0.200 F 
ENDBRANCH  48  62
BRANCH  49  73
ATOM     73  C   UNL     1     -11.764   5.515   7.559  1.00  0.00     0.064 A 
ATOM     74  C   UNL     1     -11.380   5.275   8.886  1.00  0.00     0.173 A 
ATOM     75  C   UNL     1     -11.702   6.837   7.093  1.00  0.00     0.173 A 
ATOM     76  F   UNL     1     -11.449   4.034   9.389  1.00  0.00    -0.203 F 
ATOM     77  C   UNL     1     -10.990   6.319   9.723  1.00  0.00     0.198 A 
ATOM     78  C   UNL     1     -11.279   7.875   7.920  1.00  0.00     0.198 A 
ATOM     79  F   UNL     1     -12.064   7.124   5.834  1.00  0.00    -0.203 F 
ATOM     80  F   UNL     1     -10.701   6.071  11.008  1.00  0.00    -0.200 F 
ATOM     81  C   UNL     1     -10.937   7.617   9.239  1.00  0.00     0.200 A 
ATOM     82  F   UNL     1     -11.222   9.127   7.446  1.00  0.00    -0.200 F 
ATOM     83  F   UNL     1     -10.575   8.622  10.048  1.00  0.00    -0.200 F 
ENDBRANCH  49  73
BRANCH  61  84
ATOM     84  C   UNL     1     -17.481   1.536   7.871  1.00  0.00     0.064 A 
ATOM     85  C   UNL     1     -18.436   2.549   8.044  1.00  0.00     0.173 A 
ATOM     86  C   UNL     1     -17.613   0.372   8.646  1.00  0.00     0.173 A 
ATOM     87  F   UNL     1     -18.348   3.687   7.338  1.00  0.00    -0.203 F 
ATOM     88  C   UNL     1     -19.464   2.413   8.973  1.00  0.00     0.198 A 
ATOM     89  C   UNL     1     -18.662   0.226   9.548  1.00  0.00     0.198 A 
ATOM     90  F   UNL     1     -16.734  -0.632   8.513  1.00  0.00    -0.203 F 
ATOM     91  F   UNL     1     -20.334   3.416   9.158  1.00  0.00    -0.200 F 
ATOM     92  C   UNL     1     -19.581   1.249   9.718  1.00  0.00     0.200 A 
ATOM     93  F   UNL     1     -18.785  -0.908  10.253  1.00  0.00    -0.200 F 
ATOM     94  F   UNL     1     -20.577   1.117  10.605  1.00  0.00    -0.200 F 
ENDBRANCH  61  84
ENDBRANCH  35  36
ENDBRANCH  28  30
ENDBRANCH  27  28
ENDBRANCH  26  27
ENDBRANCH  25  26
ENDBRANCH  24  25
ENDBRANCH  23  24
ENDBRANCH   1  23
TORSDOF 19
