REMARK SMILES CC(=O)N1CC[NH+]([C@@H](C(=O)OCCOCCOCCOC(=O)c2ccc(-c3c4nc(c(-c5c(F)c(F)c(F)c(F)c5F)c5ccc([nH]5)c(-c5c(F)c(F)c(F)c(F)c5F)c5nc(c(-c6c(F)c(F)c(F)c(F)c6F)c6ccc3[nH]6)C=C5)C=C4)cc2)c2c[nH]c3ccc(Cl)cc23)CC1
REMARK SMILES IDX 16 1 15 2 14 3 13 4 12 5 11 6 9 7 10 8 8 9 7 10 1 11 2 12
REMARK SMILES IDX 3 13 4 14 5 15 97 16 6 17 96 18 86 20 87 21 95 22 88 23
REMARK SMILES IDX 89 24 94 25 90 27 92 28 91 29 93 30 17 31 18 32 19 33 20 34
REMARK SMILES IDX 21 35 22 36 23 37 24 38 85 39 25 40 84 41 26 42 27 43 28 44
REMARK SMILES IDX 78 45 29 46 83 47 77 48 79 49 30 50 82 51 76 52 75 53 31 55
REMARK SMILES IDX 63 56 43 57 62 58 44 59 47 60 61 61 80 62 45 63 46 64 60 66
REMARK SMILES IDX 81 67 48 68 32 69 33 70 41 71 34 72 35 73 39 74 42 75 36 76
REMARK SMILES IDX 37 77 40 78 38 79 64 80 65 81 73 82 66 83 67 84 71 85 74 86
REMARK SMILES IDX 68 87 69 88 72 89 70 90 49 91 50 92 58 93 51 94 52 95 56 96
REMARK SMILES IDX 59 97 53 98 54 99 57 100 55 101
REMARK H PARENT 7 19 88 26 79 54 47 65
REMARK Flexibility Score: inf
ROOT
ATOM      1  C   UNL     1       0.022   1.138   4.808  1.00  0.00     0.188 C 
ENDROOT
BRANCH   1   2
ATOM      2  C   UNL     1       0.532   0.833   6.223  1.00  0.00     0.188 C 
BRANCH   2   3
ATOM      3  O   UNL     1       1.620   1.605   6.679  1.00  0.00    -0.376 OA
BRANCH   3   4
ATOM      4  C   UNL     1       2.702   1.666   5.756  1.00  0.00     0.202 C 
BRANCH   4   5
ATOM      5  C   UNL     1       3.337   0.316   5.353  1.00  0.00     0.261 C 
BRANCH   5   6
ATOM      6  O   UNL     1       2.442  -0.628   4.702  1.00  0.00    -0.459 OA
BRANCH   6   7
ATOM      7  C   UNL     1       2.189  -1.806   5.341  1.00  0.00     0.370 C 
ATOM      8  O   UNL     1       2.715  -2.118   6.408  1.00  0.00    -0.245 OA
BRANCH   7   9
ATOM      9  C   UNL     1       1.184  -2.723   4.601  1.00  0.00     0.328 C 
BRANCH   9  10
ATOM     10  N   UNL     1       1.683  -3.416   3.330  1.00  0.00    -0.316 N 
ATOM     11  C   UNL     1       2.248  -0.374  -1.025  1.00  0.00     0.114 C 
ATOM     12  C   UNL     1       1.157  -0.881  -0.143  1.00  0.00     0.219 C 
ATOM     13  O   UNL     1      -0.005  -0.583  -0.426  1.00  0.00    -0.275 OA
ATOM     14  N   UNL     1       1.500  -1.743   0.887  1.00  0.00    -0.332 N 
ATOM     15  C   UNL     1       0.389  -2.371   1.550  1.00  0.00     0.181 C 
ATOM     16  C   UNL     1       2.745  -1.712   1.676  1.00  0.00     0.181 C 
ATOM     17  C   UNL     1       0.805  -3.675   2.191  1.00  0.00     0.285 C 
ATOM     18  C   UNL     1       2.916  -2.877   2.715  1.00  0.00     0.285 C 
ATOM     19  H   UNL     1       1.812  -4.295   3.833  1.00  0.00     0.349 HD
ENDBRANCH   9  10
BRANCH   9  20
ATOM     20  C   UNL     1      -0.376  -2.586   5.010  1.00  0.00     0.046 A 
ATOM     21  C   UNL     1      -1.087  -3.787   5.118  1.00  0.00     0.094 A 
ATOM     22  C   UNL     1      -1.505  -1.795   4.533  1.00  0.00     0.011 A 
ATOM     23  N   UNL     1      -1.521  -4.059   3.805  1.00  0.00    -0.361 N 
ATOM     24  C   UNL     1      -2.009  -2.846   3.228  1.00  0.00     0.046 A 
ATOM     25  C   UNL     1      -2.525  -0.326   4.913  1.00  0.00     0.031 A 
ATOM     26  H   UNL     1      -1.492  -4.937   3.360  1.00  0.00     0.166 HD
ATOM     27  C   UNL     1      -3.435  -2.431   2.134  1.00  0.00     0.028 A 
ATOM     28  C   UNL     1      -3.997   0.113   3.848  1.00  0.00     0.041 A 
ATOM     29  C   UNL     1      -4.432  -0.959   2.483  1.00  0.00     0.022 A 
ATOM     30  Cl  UNL     1      -4.989   1.479   4.210  1.00  0.00    -0.084 Cl
ENDBRANCH   9  20
ENDBRANCH   7   9
ENDBRANCH   6   7
ENDBRANCH   5   6
ENDBRANCH   4   5
ENDBRANCH   3   4
ENDBRANCH   2   3
ENDBRANCH   1   2
BRANCH   1  31
ATOM     31  O   UNL     1       0.879   1.269   3.694  1.00  0.00    -0.376 OA
BRANCH  31  32
ATOM     32  C   UNL     1       0.232   1.586   2.454  1.00  0.00     0.202 C 
BRANCH  32  33
ATOM     33  C   UNL     1      -1.295   1.486   2.241  1.00  0.00     0.261 C 
BRANCH  33  34
ATOM     34  O   UNL     1      -2.017   0.622   3.139  1.00  0.00    -0.460 OA
BRANCH  34  35
ATOM     35  C   UNL     1      -2.424  -0.806   2.913  1.00  0.00     0.338 C 
ATOM     36  O   UNL     1      -1.914  -0.998   1.790  1.00  0.00    -0.246 OA
BRANCH  35  37
ATOM     37  C   UNL     1      -3.687  -1.952   4.235  1.00  0.00     0.060 A 
ATOM     38  C   UNL     1      -4.143  -3.429   4.135  1.00  0.00     0.016 A 
ATOM     39  C   UNL     1      -4.373  -1.520   5.521  1.00  0.00     0.016 A 
ATOM     40  C   UNL     1      -4.744  -4.241   5.063  1.00  0.00     0.010 A 
ATOM     41  C   UNL     1      -5.114  -2.250   6.391  1.00  0.00     0.010 A 
ATOM     42  C   UNL     1      -5.241  -3.588   6.139  1.00  0.00    -0.014 A 
BRANCH  42  43
ATOM     43  C   UNL     1      -6.232  -4.207   6.932  1.00  0.00     0.031 A 
ATOM     44  C   UNL     1      -7.569  -4.199   6.308  1.00  0.00     0.074 A 
ATOM     45  C   UNL     1      -5.824  -4.398   8.184  1.00  0.00     0.049 A 
ATOM     46  N   UNL     1      -8.656  -4.704   6.777  1.00  0.00    -0.248 NA
ATOM     47  C   UNL     1      -7.726  -3.534   4.986  1.00  0.00     0.031 C 
ATOM     48  C   UNL     1      -4.461  -4.142   8.696  1.00  0.00     0.029 A 
ATOM     49  N   UNL     1      -6.542  -4.713   9.267  1.00  0.00    -0.354 N 
ATOM     50  C   UNL     1      -9.595  -4.508   5.785  1.00  0.00     0.074 A 
ATOM     51  C   UNL     1      -9.002  -3.747   4.720  1.00  0.00     0.031 C 
ATOM     52  C   UNL     1      -4.471  -4.273  10.028  1.00  0.00     0.029 A 
ATOM     53  C   UNL     1      -5.804  -4.696  10.413  1.00  0.00     0.049 A 
ATOM     54  H   UNL     1      -7.502  -4.932   9.240  1.00  0.00     0.167 HD
ATOM     55  C   UNL     1     -10.840  -5.006   5.816  1.00  0.00     0.037 A 
ATOM     56  C   UNL     1      -6.227  -5.069  11.621  1.00  0.00     0.037 A 
ATOM     57  C   UNL     1     -11.310  -5.641   7.014  1.00  0.00     0.049 A 
ATOM     58  C   UNL     1      -7.617  -5.634  11.627  1.00  0.00     0.074 A 
ATOM     59  C   UNL     1     -12.521  -6.229   7.282  1.00  0.00     0.029 A 
ATOM     60  N   UNL     1     -10.543  -5.727   8.184  1.00  0.00    -0.354 N 
ATOM     61  N   UNL     1      -8.506  -5.646  10.651  1.00  0.00    -0.248 NA
ATOM     62  C   UNL     1      -8.044  -6.297  12.848  1.00  0.00     0.031 C 
ATOM     63  C   UNL     1     -12.506  -6.608   8.631  1.00  0.00     0.029 A 
ATOM     64  C   UNL     1     -11.258  -6.335   9.188  1.00  0.00     0.049 A 
ATOM     65  H   UNL     1      -9.620  -5.397   8.274  1.00  0.00     0.167 HD
ATOM     66  C   UNL     1      -9.592  -6.355  11.117  1.00  0.00     0.074 A 
ATOM     67  C   UNL     1      -9.226  -6.765  12.471  1.00  0.00     0.031 C 
ATOM     68  C   UNL     1     -10.777  -6.652  10.518  1.00  0.00     0.037 A 
BRANCH  55  69
ATOM     69  C   UNL     1     -11.672  -4.844   4.587  1.00  0.00     0.064 A 
ATOM     70  C   UNL     1     -11.305  -5.441   3.366  1.00  0.00     0.173 A 
ATOM     71  C   UNL     1     -12.822  -4.049   4.603  1.00  0.00     0.173 A 
ATOM     72  F   UNL     1     -10.182  -6.173   3.278  1.00  0.00    -0.203 F 
ATOM     73  C   UNL     1     -12.056  -5.241   2.211  1.00  0.00     0.198 A 
ATOM     74  C   UNL     1     -13.588  -3.875   3.452  1.00  0.00     0.198 A 
ATOM     75  F   UNL     1     -13.192  -3.418   5.727  1.00  0.00    -0.203 F 
ATOM     76  F   UNL     1     -11.655  -5.777   1.049  1.00  0.00    -0.200 F 
ATOM     77  C   UNL     1     -13.204  -4.467   2.258  1.00  0.00     0.200 A 
ATOM     78  F   UNL     1     -14.694  -3.119   3.497  1.00  0.00    -0.200 F 
ATOM     79  F   UNL     1     -13.934  -4.281   1.149  1.00  0.00    -0.200 F 
ENDBRANCH  55  69
BRANCH  56  80
ATOM     80  C   UNL     1      -5.267  -5.102  12.739  1.00  0.00     0.064 A 
ATOM     81  C   UNL     1      -4.762  -6.317  13.215  1.00  0.00     0.173 A 
ATOM     82  C   UNL     1      -4.741  -3.918  13.276  1.00  0.00     0.173 A 
ATOM     83  F   UNL     1      -5.181  -7.473  12.678  1.00  0.00    -0.203 F 
ATOM     84  C   UNL     1      -3.824  -6.351  14.242  1.00  0.00     0.198 A 
ATOM     85  C   UNL     1      -3.782  -3.951  14.284  1.00  0.00     0.198 A 
ATOM     86  F   UNL     1      -5.127  -2.728  12.789  1.00  0.00    -0.203 F 
ATOM     87  F   UNL     1      -3.392  -7.529  14.711  1.00  0.00    -0.200 F 
ATOM     88  C   UNL     1      -3.340  -5.168  14.781  1.00  0.00     0.200 A 
ATOM     89  F   UNL     1      -3.280  -2.806  14.767  1.00  0.00    -0.200 F 
ATOM     90  F   UNL     1      -2.444  -5.201  15.776  1.00  0.00    -0.200 F 
ENDBRANCH  56  80
BRANCH  68  91
ATOM     91  C   UNL     1     -11.717  -7.443  11.360  1.00  0.00     0.064 A 
ATOM     92  C   UNL     1     -12.325  -6.879  12.489  1.00  0.00     0.173 A 
ATOM     93  C   UNL     1     -12.035  -8.760  11.005  1.00  0.00     0.173 A 
ATOM     94  F   UNL     1     -12.031  -5.624  12.861  1.00  0.00    -0.203 F 
ATOM     95  C   UNL     1     -13.185  -7.634  13.271  1.00  0.00     0.198 A 
ATOM     96  C   UNL     1     -12.940  -9.490  11.757  1.00  0.00     0.198 A 
ATOM     97  F   UNL     1     -11.483  -9.323   9.918  1.00  0.00    -0.203 F 
ATOM     98  F   UNL     1     -13.689  -7.111  14.396  1.00  0.00    -0.200 F 
ATOM     99  C   UNL     1     -13.500  -8.933  12.898  1.00  0.00     0.200 A 
ATOM    100  F   UNL     1     -13.270 -10.732  11.380  1.00  0.00    -0.200 F 
ATOM    101  F   UNL     1     -14.342  -9.655  13.648  1.00  0.00    -0.200 F 
ENDBRANCH  68  91
ENDBRANCH  42  43
ENDBRANCH  35  37
ENDBRANCH  34  35
ENDBRANCH  33  34
ENDBRANCH  32  33
ENDBRANCH  31  32
ENDBRANCH   1  31
TORSDOF 19
