REMARK SMILES CC(C)CCNC(=O)[C@@H](C)Oc1ccc(N)cc1C(=O)OCCOCCOCCOC(=O)c1ccc(-c2c3nc(c(-c4c(F)c(F)c(F)c(F)c4F)c4ccc([nH]4)c(-c4c(F)c(F)c(F)c(F)c4F)c4nc(c(-c5c(F)c(F)c(F)c(F)c5F)c5ccc2[nH]5)C=C4)C=C3)cc1
REMARK SMILES IDX 23 1 22 2 21 3 19 4 20 5 18 6 12 7 13 8 14 9 17 10 15 11
REMARK SMILES IDX 11 12 9 13 10 14 7 15 6 16 8 18 5 19 4 20 2 21 1 22 3 23
REMARK SMILES IDX 16 24 24 27 25 28 26 29 27 30 28 31 29 32 30 33 31 34 32 35
REMARK SMILES IDX 33 36 34 37 95 38 35 39 94 40 36 41 37 42 38 43 88 44 39 45
REMARK SMILES IDX 93 46 87 47 89 48 40 49 92 50 86 51 85 52 41 54 73 55 53 56
REMARK SMILES IDX 72 57 54 58 57 59 71 60 90 61 55 62 56 63 70 65 91 66 58 67
REMARK SMILES IDX 42 68 43 69 51 70 44 71 45 72 49 73 52 74 46 75 47 76 50 77
REMARK SMILES IDX 48 78 74 79 75 80 83 81 76 82 77 83 81 84 84 85 78 86 79 87
REMARK SMILES IDX 82 88 80 89 59 90 60 91 68 92 61 93 62 94 66 95 69 96 63 97
REMARK SMILES IDX 64 98 67 99 65 100
REMARK H PARENT 6 17 16 25 16 26 89 53 57 64
REMARK Flexibility Score: inf
ROOT
ATOM      1  C   UNL     1      -8.526   2.435   0.053  1.00  0.00     0.202 C 
ENDROOT
BRANCH   1   2
ATOM      2  C   UNL     1      -7.540   3.562  -0.306  1.00  0.00     0.261 C 
BRANCH   2   3
ATOM      3  O   UNL     1      -6.155   3.189  -0.379  1.00  0.00    -0.460 OA
BRANCH   3   4
ATOM      4  C   UNL     1      -5.392   3.650   0.638  1.00  0.00     0.342 C 
ATOM      5  O   UNL     1      -5.781   4.326   1.581  1.00  0.00    -0.246 OA
BRANCH   4   6
ATOM      6  C   UNL     1      -4.024   3.086   0.629  1.00  0.00     0.104 A 
ATOM      7  C   UNL     1      -3.158   3.126  -0.465  1.00  0.00     0.135 A 
ATOM      8  C   UNL     1      -1.798   3.037  -0.190  1.00  0.00     0.049 A 
ATOM      9  C   UNL     1      -1.346   2.577   1.056  1.00  0.00     0.029 A 
ATOM     10  C   UNL     1      -3.569   2.592   1.870  1.00  0.00     0.045 A 
ATOM     11  C   UNL     1      -2.246   2.215   2.048  1.00  0.00     0.032 A 
BRANCH   7  12
ATOM     12  O   UNL     1      -3.612   3.367  -1.724  1.00  0.00    -0.480 OA
BRANCH  12  13
ATOM     13  C   UNL     1      -3.207   2.485  -2.784  1.00  0.00     0.258 C 
ATOM     14  C   UNL     1      -4.116   1.258  -2.921  1.00  0.00     0.064 C 
BRANCH  13  15
ATOM     15  C   UNL     1      -1.725   2.160  -3.175  1.00  0.00     0.260 C 
ATOM     16  N   UNL     1      -1.026   1.087  -2.696  1.00  0.00    -0.353 N 
ATOM     17  H   UNL     1      -0.228   0.846  -3.218  1.00  0.00     0.163 HD
ATOM     18  O   UNL     1      -1.123   2.891  -3.972  1.00  0.00    -0.271 OA
BRANCH  16  19
ATOM     19  C   UNL     1      -1.275   0.247  -1.540  1.00  0.00     0.116 C 
BRANCH  19  20
ATOM     20  C   UNL     1      -0.592  -1.114  -1.585  1.00  0.00     0.024 C 
BRANCH  20  21
ATOM     21  C   UNL     1       0.942  -1.084  -1.410  1.00  0.00    -0.016 C 
ATOM     22  C   UNL     1       1.398  -0.354  -0.141  1.00  0.00     0.007 C 
ATOM     23  C   UNL     1       1.468  -2.521  -1.380  1.00  0.00     0.007 C 
ENDBRANCH  20  21
ENDBRANCH  19  20
ENDBRANCH  16  19
ENDBRANCH  13  15
ENDBRANCH  12  13
ENDBRANCH   7  12
BRANCH  11  24
ATOM     24  N   UNL     1      -1.812   1.655   3.236  1.00  0.00    -0.399 N 
ATOM     25  H   UNL     1      -0.869   1.395   3.341  1.00  0.00     0.156 HD
ATOM     26  H   UNL     1      -2.447   1.517   3.975  1.00  0.00     0.156 HD
ENDBRANCH  11  24
ENDBRANCH   4   6
ENDBRANCH   3   4
ENDBRANCH   2   3
ENDBRANCH   1   2
BRANCH   1  27
ATOM     27  O   UNL     1      -8.247   1.516   1.103  1.00  0.00    -0.376 OA
BRANCH  27  28
ATOM     28  C   UNL     1      -6.982   0.874   1.176  1.00  0.00     0.188 C 
BRANCH  28  29
ATOM     29  C   UNL     1      -6.316   0.325  -0.100  1.00  0.00     0.188 C 
BRANCH  29  30
ATOM     30  O   UNL     1      -7.060   0.558  -1.274  1.00  0.00    -0.376 OA
BRANCH  30  31
ATOM     31  C   UNL     1      -7.769  -0.524  -1.850  1.00  0.00     0.202 C 
BRANCH  31  32
ATOM     32  C   UNL     1      -8.632  -1.470  -0.991  1.00  0.00     0.261 C 
BRANCH  32  33
ATOM     33  O   UNL     1      -8.182  -1.762   0.341  1.00  0.00    -0.460 OA
BRANCH  33  34
ATOM     34  C   UNL     1      -7.256  -2.737   0.485  1.00  0.00     0.338 C 
ATOM     35  O   UNL     1      -6.718  -3.376  -0.397  1.00  0.00    -0.246 OA
BRANCH  34  36
ATOM     36  C   UNL     1      -6.846  -2.769   1.909  1.00  0.00     0.060 A 
ATOM     37  C   UNL     1      -5.511  -2.493   2.230  1.00  0.00     0.016 A 
ATOM     38  C   UNL     1      -7.764  -3.079   2.916  1.00  0.00     0.016 A 
ATOM     39  C   UNL     1      -5.082  -2.566   3.557  1.00  0.00     0.010 A 
ATOM     40  C   UNL     1      -7.328  -3.166   4.244  1.00  0.00     0.010 A 
ATOM     41  C   UNL     1      -5.977  -2.945   4.567  1.00  0.00    -0.014 A 
BRANCH  41  42
ATOM     42  C   UNL     1      -5.457  -3.272   5.920  1.00  0.00     0.031 A 
ATOM     43  C   UNL     1      -5.233  -4.717   6.278  1.00  0.00     0.074 A 
ATOM     44  C   UNL     1      -5.147  -2.306   6.803  1.00  0.00     0.049 A 
ATOM     45  N   UNL     1      -4.772  -5.241   7.386  1.00  0.00    -0.248 NA
ATOM     46  C   UNL     1      -5.575  -5.707   5.244  1.00  0.00     0.031 C 
ATOM     47  C   UNL     1      -5.292  -0.871   6.571  1.00  0.00     0.029 A 
ATOM     48  N   UNL     1      -4.644  -2.393   8.078  1.00  0.00    -0.354 N 
ATOM     49  C   UNL     1      -4.774  -6.615   7.184  1.00  0.00     0.074 A 
ATOM     50  C   UNL     1      -5.313  -6.848   5.862  1.00  0.00     0.031 C 
ATOM     51  C   UNL     1      -4.888  -0.210   7.670  1.00  0.00     0.029 A 
ATOM     52  C   UNL     1      -4.483  -1.175   8.691  1.00  0.00     0.049 A 
ATOM     53  H   UNL     1      -4.420  -3.248   8.511  1.00  0.00     0.167 HD
ATOM     54  C   UNL     1      -4.354  -7.596   8.020  1.00  0.00     0.037 A 
ATOM     55  C   UNL     1      -4.071  -0.877   9.940  1.00  0.00     0.037 A 
ATOM     56  C   UNL     1      -3.820  -7.366   9.337  1.00  0.00     0.049 A 
ATOM     57  C   UNL     1      -3.672  -1.993  10.875  1.00  0.00     0.074 A 
ATOM     58  C   UNL     1      -3.342  -8.291  10.248  1.00  0.00     0.029 A 
ATOM     59  N   UNL     1      -3.706  -6.120   9.937  1.00  0.00    -0.354 N 
ATOM     60  N   UNL     1      -3.631  -3.286  10.658  1.00  0.00    -0.248 NA
ATOM     61  C   UNL     1      -3.253  -1.602  12.229  1.00  0.00     0.031 C 
ATOM     62  C   UNL     1      -2.997  -7.613  11.422  1.00  0.00     0.029 A 
ATOM     63  C   UNL     1      -3.194  -6.257  11.218  1.00  0.00     0.049 A 
ATOM     64  H   UNL     1      -3.953  -5.265   9.515  1.00  0.00     0.167 HD
ATOM     65  C   UNL     1      -3.151  -3.857  11.832  1.00  0.00     0.074 A 
ATOM     66  C   UNL     1      -2.897  -2.767  12.750  1.00  0.00     0.031 C 
ATOM     67  C   UNL     1      -2.937  -5.165  12.122  1.00  0.00     0.037 A 
BRANCH  54  68
ATOM     68  C   UNL     1      -4.482  -9.015   7.545  1.00  0.00     0.064 A 
ATOM     69  C   UNL     1      -3.678  -9.527   6.515  1.00  0.00     0.173 A 
ATOM     70  C   UNL     1      -5.398  -9.886   8.154  1.00  0.00     0.173 A 
ATOM     71  F   UNL     1      -2.796  -8.734   5.889  1.00  0.00    -0.203 F 
ATOM     72  C   UNL     1      -3.806 -10.849   6.096  1.00  0.00     0.198 A 
ATOM     73  C   UNL     1      -5.500 -11.216   7.755  1.00  0.00     0.198 A 
ATOM     74  F   UNL     1      -6.189  -9.450   9.146  1.00  0.00    -0.203 F 
ATOM     75  F   UNL     1      -3.062 -11.302   5.076  1.00  0.00    -0.200 F 
ATOM     76  C   UNL     1      -4.710 -11.694   6.721  1.00  0.00     0.200 A 
ATOM     77  F   UNL     1      -6.365 -12.034   8.370  1.00  0.00    -0.200 F 
ATOM     78  F   UNL     1      -4.825 -12.968   6.322  1.00  0.00    -0.200 F 
ENDBRANCH  54  68
BRANCH  55  79
ATOM     79  C   UNL     1      -4.009   0.539  10.392  1.00  0.00     0.064 A 
ATOM     80  C   UNL     1      -2.783   1.152  10.688  1.00  0.00     0.173 A 
ATOM     81  C   UNL     1      -5.176   1.295  10.578  1.00  0.00     0.173 A 
ATOM     82  F   UNL     1      -1.640   0.462  10.553  1.00  0.00    -0.203 F 
ATOM     83  C   UNL     1      -2.728   2.456  11.177  1.00  0.00     0.198 A 
ATOM     84  C   UNL     1      -5.117   2.610  11.037  1.00  0.00     0.198 A 
ATOM     85  F   UNL     1      -6.375   0.756  10.316  1.00  0.00    -0.203 F 
ATOM     86  F   UNL     1      -1.546   2.994  11.509  1.00  0.00    -0.200 F 
ATOM     87  C   UNL     1      -3.894   3.186  11.346  1.00  0.00     0.200 A 
ATOM     88  F   UNL     1      -6.247   3.315  11.189  1.00  0.00    -0.200 F 
ATOM     89  F   UNL     1      -3.841   4.438  11.820  1.00  0.00    -0.200 F 
ENDBRANCH  55  79
BRANCH  67  90
ATOM     90  C   UNL     1      -2.355  -5.488  13.471  1.00  0.00     0.064 A 
ATOM     91  C   UNL     1      -3.084  -5.310  14.657  1.00  0.00     0.173 A 
ATOM     92  C   UNL     1      -1.053  -6.002  13.576  1.00  0.00     0.173 A 
ATOM     93  F   UNL     1      -4.329  -4.812  14.616  1.00  0.00    -0.203 F 
ATOM     94  C   UNL     1      -2.517  -5.596  15.897  1.00  0.00     0.198 A 
ATOM     95  C   UNL     1      -0.503  -6.322  14.815  1.00  0.00     0.198 A 
ATOM     96  F   UNL     1      -0.314  -6.203  12.475  1.00  0.00    -0.203 F 
ATOM     97  F   UNL     1      -3.210  -5.356  17.019  1.00  0.00    -0.200 F 
ATOM     98  C   UNL     1      -1.230  -6.107  15.975  1.00  0.00     0.200 A 
ATOM     99  F   UNL     1       0.734  -6.833  14.885  1.00  0.00    -0.200 F 
ATOM    100  F   UNL     1      -0.688  -6.382  17.169  1.00  0.00    -0.200 F 
ENDBRANCH  67  90
ENDBRANCH  41  42
ENDBRANCH  34  36
ENDBRANCH  33  34
ENDBRANCH  32  33
ENDBRANCH  31  32
ENDBRANCH  30  31
ENDBRANCH  29  30
ENDBRANCH  28  29
ENDBRANCH  27  28
ENDBRANCH   1  27
TORSDOF 24
