REMARK SMILES COc1ccc2c(c1)OC[C@]1(C(=O)OCCOCCOCCOC(=O)c3ccc(-c4c5nc(c(-c6c(F)c(F)c(F)c(F)c6F)c6ccc([nH]6)c(-c6c(F)c(F)c(F)c(F)c6F)c6nc(c(-c7c(F)c(F)c(F)c(F)c7F)c7ccc4[nH]7)C=C6)C=C5)cc3)C[N@@H+](Cc3cc(C(C)(C)C)n[nH]3)C[C@H]21
REMARK SMILES IDX 18 1 17 2 16 3 15 4 14 5 12 6 13 7 11 8 3 9 4 10 8 11 5 12
REMARK SMILES IDX 7 13 6 14 9 15 102 16 10 17 101 18 89 19 90 20 2 22 1 23
REMARK SMILES IDX 91 24 92 25 93 26 100 27 94 28 99 29 95 31 96 32 97 33 98 34
REMARK SMILES IDX 19 35 20 36 21 37 22 38 23 39 24 40 25 41 26 42 27 43 88 44
REMARK SMILES IDX 28 45 87 46 29 47 30 48 31 49 81 50 32 51 86 52 80 53 82 54
REMARK SMILES IDX 33 55 85 56 79 57 78 58 34 60 66 61 46 62 65 63 47 64 50 65
REMARK SMILES IDX 64 66 83 67 48 68 49 69 63 71 84 72 51 73 35 74 36 75 44 76
REMARK SMILES IDX 37 77 38 78 42 79 45 80 39 81 40 82 43 83 41 84 67 85 68 86
REMARK SMILES IDX 76 87 69 88 70 89 74 90 77 91 71 92 72 93 75 94 73 95 52 96
REMARK SMILES IDX 53 97 61 98 54 99 55 100 59 101 62 102 56 103 57 104 60 105
REMARK SMILES IDX 58 106
REMARK H PARENT 90 21 100 30 82 59 50 70
REMARK Flexibility Score: inf
ROOT
ATOM      1  C   UNL     1       6.433  -3.680   3.273  1.00  0.00     0.188 C 
ENDROOT
BRANCH   1   2
ATOM      2  O   UNL     1       7.346  -4.470   4.027  1.00  0.00    -0.376 OA
BRANCH   2   3
ATOM      3  C   UNL     1       7.746  -3.947   5.288  1.00  0.00     0.202 C 
BRANCH   3   4
ATOM      4  C   UNL     1       6.726  -4.147   6.436  1.00  0.00     0.261 C 
BRANCH   4   5
ATOM      5  O   UNL     1       5.399  -3.741   6.045  1.00  0.00    -0.463 OA
BRANCH   5   6
ATOM      6  C   UNL     1       4.401  -3.201   6.850  1.00  0.00     0.322 C 
ATOM      7  O   UNL     1       4.552  -2.875   8.024  1.00  0.00    -0.251 OA
BRANCH   6   8
ATOM      8  C   UNL     1       3.110  -3.268   5.994  1.00  0.00     0.162 C 
ATOM      9  C   UNL     1       0.199  -0.113   3.158  1.00  0.00     0.122 A 
ATOM     10  C   UNL     1      -0.703  -1.027   3.689  1.00  0.00     0.047 A 
ATOM     11  C   UNL     1       1.458   0.029   3.723  1.00  0.00     0.093 A 
ATOM     12  C   UNL     1      -0.313  -1.852   4.749  1.00  0.00     0.012 A 
ATOM     13  C   UNL     1       1.869  -0.898   4.674  1.00  0.00     0.126 A 
ATOM     14  C   UNL     1       1.014  -1.845   5.215  1.00  0.00     0.005 A 
ATOM     15  O   UNL     1       3.191  -0.987   4.980  1.00  0.00    -0.492 OA
ATOM     16  C   UNL     1       1.607  -2.870   6.194  1.00  0.00     0.105 C 
ATOM     17  C   UNL     1       3.576  -2.376   4.811  1.00  0.00     0.255 C 
ATOM     18  C   UNL     1       0.832  -4.178   5.891  1.00  0.00     0.272 C 
ATOM     19  C   UNL     1       3.000  -4.851   6.032  1.00  0.00     0.286 C 
ATOM     20  N   UNL     1       1.636  -5.268   6.369  1.00  0.00    -0.328 N 
ATOM     21  H   UNL     1       1.456  -6.169   5.927  1.00  0.00     0.348 HD
BRANCH   9  22
ATOM     22  O   UNL     1      -0.157   0.665   2.092  1.00  0.00    -0.497 OA
ATOM     23  C   UNL     1       0.034  -0.037   0.859  1.00  0.00     0.278 C 
ENDBRANCH   9  22
BRANCH  20  24
ATOM     24  C   UNL     1       1.309  -5.711   7.735  1.00  0.00     0.319 C 
BRANCH  24  25
ATOM     25  C   UNL     1       1.147  -4.644   8.763  1.00  0.00     0.090 A 
ATOM     26  C   UNL     1       0.183  -3.669   8.958  1.00  0.00     0.055 A 
ATOM     27  N   UNL     1       2.037  -4.455   9.781  1.00  0.00    -0.277 N 
ATOM     28  C   UNL     1       0.764  -2.762   9.879  1.00  0.00     0.068 A 
ATOM     29  N   UNL     1       1.828  -3.323  10.469  1.00  0.00    -0.180 NA
ATOM     30  H   UNL     1       2.762  -5.088   9.989  1.00  0.00     0.190 HD
BRANCH  28  31
ATOM     31  C   UNL     1       0.379  -1.318  10.170  1.00  0.00     0.006 C 
ATOM     32  C   UNL     1      -0.505  -1.242  11.422  1.00  0.00     0.017 C 
ATOM     33  C   UNL     1       1.648  -0.458  10.386  1.00  0.00     0.017 C 
ATOM     34  C   UNL     1      -0.389  -0.679   8.989  1.00  0.00     0.017 C 
ENDBRANCH  28  31
ENDBRANCH  24  25
ENDBRANCH  20  24
ENDBRANCH   6   8
ENDBRANCH   5   6
ENDBRANCH   4   5
ENDBRANCH   3   4
ENDBRANCH   2   3
ENDBRANCH   1   2
BRANCH   1  35
ATOM     35  C   UNL     1       5.211  -4.535   2.905  1.00  0.00     0.188 C 
BRANCH  35  36
ATOM     36  O   UNL     1       5.431  -5.879   2.499  1.00  0.00    -0.376 OA
BRANCH  36  37
ATOM     37  C   UNL     1       6.556  -6.120   1.665  1.00  0.00     0.202 C 
BRANCH  37  38
ATOM     38  C   UNL     1       6.469  -5.523   0.257  1.00  0.00     0.261 C 
BRANCH  38  39
ATOM     39  O   UNL     1       6.330  -4.082   0.243  1.00  0.00    -0.460 OA
BRANCH  39  40
ATOM     40  C   UNL     1       5.225  -3.592  -0.359  1.00  0.00     0.338 C 
ATOM     41  O   UNL     1       4.347  -4.232  -0.936  1.00  0.00    -0.246 OA
BRANCH  40  42
ATOM     42  C   UNL     1       5.090  -2.144  -0.104  1.00  0.00     0.060 A 
ATOM     43  C   UNL     1       5.859  -1.198  -0.787  1.00  0.00     0.016 A 
ATOM     44  C   UNL     1       4.072  -1.716   0.751  1.00  0.00     0.016 A 
ATOM     45  C   UNL     1       5.586   0.176  -0.626  1.00  0.00     0.010 A 
ATOM     46  C   UNL     1       3.831  -0.352   0.924  1.00  0.00     0.010 A 
ATOM     47  C   UNL     1       4.555   0.616   0.223  1.00  0.00    -0.014 A 
BRANCH  47  48
ATOM     48  C   UNL     1       4.100   2.040   0.264  1.00  0.00     0.031 A 
ATOM     49  C   UNL     1       4.269   2.914   1.480  1.00  0.00     0.074 A 
ATOM     50  C   UNL     1       3.385   2.527  -0.771  1.00  0.00     0.049 A 
ATOM     51  N   UNL     1       4.015   4.195   1.616  1.00  0.00    -0.248 NA
ATOM     52  C   UNL     1       4.746   2.268   2.710  1.00  0.00     0.031 C 
ATOM     53  C   UNL     1       2.983   1.759  -1.949  1.00  0.00     0.029 A 
ATOM     54  N   UNL     1       2.851   3.776  -0.991  1.00  0.00    -0.354 N 
ATOM     55  C   UNL     1       4.330   4.514   2.931  1.00  0.00     0.074 A 
ATOM     56  C   UNL     1       4.717   3.275   3.575  1.00  0.00     0.031 C 
ATOM     57  C   UNL     1       2.291   2.557  -2.778  1.00  0.00     0.029 A 
ATOM     58  C   UNL     1       2.205   3.896  -2.198  1.00  0.00     0.049 A 
ATOM     59  H   UNL     1       2.925   4.515  -0.344  1.00  0.00     0.167 HD
ATOM     60  C   UNL     1       4.334   5.730   3.533  1.00  0.00     0.037 A 
ATOM     61  C   UNL     1       1.638   4.965  -2.793  1.00  0.00     0.037 A 
ATOM     62  C   UNL     1       3.929   6.963   2.901  1.00  0.00     0.049 A 
ATOM     63  C   UNL     1       1.689   6.315  -2.130  1.00  0.00     0.074 A 
ATOM     64  C   UNL     1       4.021   8.256   3.392  1.00  0.00     0.029 A 
ATOM     65  N   UNL     1       3.329   7.057   1.655  1.00  0.00    -0.354 N 
ATOM     66  N   UNL     1       2.194   6.647  -0.968  1.00  0.00    -0.248 NA
ATOM     67  C   UNL     1       1.118   7.447  -2.877  1.00  0.00     0.031 C 
ATOM     68  C   UNL     1       3.426   9.124   2.471  1.00  0.00     0.029 A 
ATOM     69  C   UNL     1       3.019   8.381   1.376  1.00  0.00     0.049 A 
ATOM     70  H   UNL     1       3.148   6.296   1.057  1.00  0.00     0.167 HD
ATOM     71  C   UNL     1       2.033   8.023  -0.860  1.00  0.00     0.074 A 
ATOM     72  C   UNL     1       1.397   8.469  -2.080  1.00  0.00     0.031 C 
ATOM     73  C   UNL     1       2.389   8.837   0.164  1.00  0.00     0.037 A 
BRANCH  60  74
ATOM     74  C   UNL     1       4.862   5.825   4.939  1.00  0.00     0.064 A 
ATOM     75  C   UNL     1       6.227   5.633   5.207  1.00  0.00     0.173 A 
ATOM     76  C   UNL     1       4.044   6.253   5.997  1.00  0.00     0.173 A 
ATOM     77  F   UNL     1       7.057   5.237   4.230  1.00  0.00    -0.203 F 
ATOM     78  C   UNL     1       6.750   5.854   6.478  1.00  0.00     0.198 A 
ATOM     79  C   UNL     1       4.577   6.501   7.261  1.00  0.00     0.198 A 
ATOM     80  F   UNL     1       2.737   6.476   5.796  1.00  0.00    -0.203 F 
ATOM     81  F   UNL     1       8.054   5.648   6.708  1.00  0.00    -0.200 F 
ATOM     82  C   UNL     1       5.928   6.300   7.501  1.00  0.00     0.200 A 
ATOM     83  F   UNL     1       3.787   6.960   8.243  1.00  0.00    -0.200 F 
ATOM     84  F   UNL     1       6.440   6.546   8.714  1.00  0.00    -0.200 F 
ENDBRANCH  60  74
BRANCH  61  85
ATOM     85  C   UNL     1       1.068   4.817  -4.157  1.00  0.00     0.064 A 
ATOM     86  C   UNL     1       1.739   5.350  -5.267  1.00  0.00     0.173 A 
ATOM     87  C   UNL     1      -0.128   4.123  -4.386  1.00  0.00     0.173 A 
ATOM     88  F   UNL     1       2.878   6.037  -5.093  1.00  0.00    -0.203 F 
ATOM     89  C   UNL     1       1.230   5.205  -6.554  1.00  0.00     0.198 A 
ATOM     90  C   UNL     1      -0.624   3.957  -5.678  1.00  0.00     0.198 A 
ATOM     91  F   UNL     1      -0.802   3.587  -3.358  1.00  0.00    -0.203 F 
ATOM     92  F   UNL     1       1.875   5.752  -7.593  1.00  0.00    -0.200 F 
ATOM     93  C   UNL     1       0.053   4.501  -6.760  1.00  0.00     0.200 A 
ATOM     94  F   UNL     1      -1.752   3.262  -5.876  1.00  0.00    -0.200 F 
ATOM     95  F   UNL     1      -0.430   4.349  -8.000  1.00  0.00    -0.200 F 
ENDBRANCH  61  85
BRANCH  73  96
ATOM     96  C   UNL     1       2.125  10.311   0.018  1.00  0.00     0.064 A 
ATOM     97  C   UNL     1       0.825  10.835   0.055  1.00  0.00     0.173 A 
ATOM     98  C   UNL     1       3.192  11.218  -0.092  1.00  0.00     0.173 A 
ATOM     99  F   UNL     1      -0.232  10.014   0.146  1.00  0.00    -0.203 F 
ATOM    100  C   UNL     1       0.601  12.208  -0.032  1.00  0.00     0.198 A 
ATOM    101  C   UNL     1       2.966  12.591  -0.147  1.00  0.00     0.198 A 
ATOM    102  F   UNL     1       4.457  10.774  -0.126  1.00  0.00    -0.203 F 
ATOM    103  F   UNL     1      -0.653  12.681  -0.034  1.00  0.00    -0.200 F 
ATOM    104  C   UNL     1       1.671  13.085  -0.122  1.00  0.00     0.200 A 
ATOM    105  F   UNL     1       4.003  13.438  -0.219  1.00  0.00    -0.200 F 
ATOM    106  F   UNL     1       1.454  14.406  -0.189  1.00  0.00    -0.200 F 
ENDBRANCH  73  96
ENDBRANCH  47  48
ENDBRANCH  40  42
ENDBRANCH  39  40
ENDBRANCH  38  39
ENDBRANCH  37  38
ENDBRANCH  36  37
ENDBRANCH  35  36
ENDBRANCH   1  35
TORSDOF 21
