REMARK SMILES COc1ccc(-n2ncc([C@H]3CC(=O)Nc4n[nH]c(C(=O)OCCOCCOCCOC(=O)c5ccc(-c6c7nc(c(-c8c(F)c(F)c(F)c(F)c8F)c8ccc([nH]8)c(-c8c(F)c(F)c(F)c(F)c8F)c8nc(c(-c9c(F)c(F)c(F)c(F)c9F)c9ccc6[nH]9)C=C8)C=C7)cc5)c43)c2C)cc1
REMARK SMILES IDX 26 1 25 2 24 3 23 4 22 5 20 6 21 7 19 8 11 9 12 10 97 11
REMARK SMILES IDX 13 12 16 13 14 14 15 15 17 16 18 17 10 20 7 21 8 22 98 23
REMARK SMILES IDX 9 24 99 25 6 26 3 27 4 28 101 29 5 30 100 31 2 32 1 33 27 34
REMARK SMILES IDX 28 35 29 36 30 37 31 38 32 39 33 40 34 41 35 42 96 43 36 44
REMARK SMILES IDX 95 45 37 46 38 47 39 48 89 49 40 50 94 51 88 52 90 53 41 54
REMARK SMILES IDX 93 55 87 56 86 57 42 59 74 60 54 61 73 62 55 63 58 64 72 65
REMARK SMILES IDX 91 66 56 67 57 68 71 70 92 71 59 72 43 73 44 74 52 75 45 76
REMARK SMILES IDX 46 77 50 78 53 79 47 80 48 81 51 82 49 83 75 84 76 85 84 86
REMARK SMILES IDX 77 87 78 88 82 89 85 90 79 91 80 92 83 93 81 94 60 95 61 96
REMARK SMILES IDX 69 97 62 98 63 99 67 100 70 101 64 102 65 103 68 104 66 105
REMARK H PARENT 15 18 18 19 90 58 58 69
REMARK Flexibility Score: inf
ROOT
ATOM      1  C   UNL     1       5.799  -6.847  -7.374  1.00  0.00     0.188 C 
ENDROOT
BRANCH   1   2
ATOM      2  O   UNL     1       6.574  -7.074  -6.208  1.00  0.00    -0.376 OA
BRANCH   2   3
ATOM      3  C   UNL     1       6.406  -6.106  -5.171  1.00  0.00     0.202 C 
BRANCH   3   4
ATOM      4  C   UNL     1       5.047  -6.149  -4.458  1.00  0.00     0.261 C 
BRANCH   4   5
ATOM      5  O   UNL     1       3.927  -5.971  -5.342  1.00  0.00    -0.459 OA
BRANCH   5   6
ATOM      6  C   UNL     1       3.704  -4.721  -5.804  1.00  0.00     0.356 C 
ATOM      7  O   UNL     1       4.389  -3.746  -5.534  1.00  0.00    -0.244 OA
BRANCH   6   8
ATOM      8  C   UNL     1       2.642  -4.715  -6.778  1.00  0.00     0.149 A 
ATOM      9  C   UNL     1       0.965  -6.753  -6.422  1.00  0.00     0.068 C 
ATOM     10  C   UNL     1      -0.408  -7.157  -6.996  1.00  0.00     0.114 C 
ATOM     11  C   UNL     1       1.537  -5.518  -7.054  1.00  0.00     0.037 A 
ATOM     12  C   UNL     1      -1.067  -6.235  -8.015  1.00  0.00     0.226 C 
ATOM     13  C   UNL     1       0.872  -4.848  -8.091  1.00  0.00     0.159 A 
ATOM     14  O   UNL     1      -2.226  -6.434  -8.384  1.00  0.00    -0.275 OA
ATOM     15  N   UNL     1      -0.353  -5.210  -8.551  1.00  0.00    -0.309 N 
ATOM     16  N   UNL     1       1.522  -3.777  -8.526  1.00  0.00    -0.157 NA
ATOM     17  N   UNL     1       2.577  -3.703  -7.701  1.00  0.00    -0.269 N 
ATOM     18  H   UNL     1      -0.741  -4.708  -9.304  1.00  0.00     0.171 HD
ATOM     19  H   UNL     1       3.247  -2.983  -7.754  1.00  0.00     0.190 HD
BRANCH   9  20
ATOM     20  C   UNL     1       0.943  -6.612  -4.927  1.00  0.00     0.002 A 
ATOM     21  N   UNL     1       0.884  -5.762  -2.889  1.00  0.00    -0.238 N 
ATOM     22  N   UNL     1       1.734  -6.812  -2.802  1.00  0.00    -0.176 NA
ATOM     23  C   UNL     1       0.325  -5.639  -4.153  1.00  0.00     0.045 A 
ATOM     24  C   UNL     1       1.703  -7.367  -4.010  1.00  0.00     0.140 A 
ATOM     25  C   UNL     1      -0.574  -4.532  -4.586  1.00  0.00     0.067 C 
BRANCH  21  26
ATOM     26  C   UNL     1       0.868  -4.781  -1.879  1.00  0.00     0.065 A 
ATOM     27  C   UNL     1       0.820  -2.613  -0.161  1.00  0.00     0.119 A 
ATOM     28  C   UNL     1      -0.359  -3.312  -0.426  1.00  0.00     0.048 A 
ATOM     29  C   UNL     1       2.038  -3.038  -0.695  1.00  0.00     0.048 A 
ATOM     30  C   UNL     1      -0.344  -4.390  -1.306  1.00  0.00     0.032 A 
ATOM     31  C   UNL     1       2.068  -4.139  -1.550  1.00  0.00     0.032 A 
BRANCH  27  32
ATOM     32  O   UNL     1       0.723  -1.531   0.671  1.00  0.00    -0.497 OA
ATOM     33  C   UNL     1       1.204  -0.340   0.049  1.00  0.00     0.278 C 
ENDBRANCH  27  32
ENDBRANCH  21  26
ENDBRANCH   9  20
ENDBRANCH   6   8
ENDBRANCH   5   6
ENDBRANCH   4   5
ENDBRANCH   3   4
ENDBRANCH   2   3
ENDBRANCH   1   2
BRANCH   1  34
ATOM     34  C   UNL     1       4.582  -7.776  -7.566  1.00  0.00     0.188 C 
BRANCH  34  35
ATOM     35  O   UNL     1       4.189  -8.740  -6.595  1.00  0.00    -0.376 OA
BRANCH  35  36
ATOM     36  C   UNL     1       5.146  -9.487  -5.855  1.00  0.00     0.202 C 
BRANCH  36  37
ATOM     37  C   UNL     1       6.125 -10.400  -6.584  1.00  0.00     0.261 C 
BRANCH  37  38
ATOM     38  O   UNL     1       6.780  -9.765  -7.670  1.00  0.00    -0.460 OA
BRANCH  38  39
ATOM     39  C   UNL     1       6.199  -9.998  -8.864  1.00  0.00     0.338 C 
ATOM     40  O   UNL     1       5.165 -10.608  -9.080  1.00  0.00    -0.246 OA
BRANCH  39  41
ATOM     41  C   UNL     1       7.032  -9.423  -9.926  1.00  0.00     0.060 A 
ATOM     42  C   UNL     1       6.499  -9.446 -11.218  1.00  0.00     0.016 A 
ATOM     43  C   UNL     1       8.377  -9.113  -9.683  1.00  0.00     0.016 A 
ATOM     44  C   UNL     1       7.367  -9.406 -12.284  1.00  0.00     0.010 A 
ATOM     45  C   UNL     1       9.247  -9.083 -10.748  1.00  0.00     0.010 A 
ATOM     46  C   UNL     1       8.737  -9.338 -12.022  1.00  0.00    -0.014 A 
BRANCH  46  47
ATOM     47  C   UNL     1       9.632  -9.719 -13.095  1.00  0.00     0.031 A 
ATOM     48  C   UNL     1      10.005  -8.663 -14.053  1.00  0.00     0.074 A 
ATOM     49  C   UNL     1      10.154 -10.959 -13.133  1.00  0.00     0.049 A 
ATOM     50  N   UNL     1       9.856  -8.662 -15.337  1.00  0.00    -0.248 NA
ATOM     51  C   UNL     1      10.576  -7.427 -13.503  1.00  0.00     0.031 C 
ATOM     52  C   UNL     1      10.112 -11.981 -12.080  1.00  0.00     0.029 A 
ATOM     53  N   UNL     1      10.940 -11.525 -14.089  1.00  0.00    -0.354 N 
ATOM     54  C   UNL     1      10.457  -7.491 -15.780  1.00  0.00     0.074 A 
ATOM     55  C   UNL     1      10.779  -6.715 -14.610  1.00  0.00     0.031 C 
ATOM     56  C   UNL     1      11.011 -12.947 -12.368  1.00  0.00     0.029 A 
ATOM     57  C   UNL     1      11.596 -12.670 -13.669  1.00  0.00     0.049 A 
ATOM     58  H   UNL     1      11.033 -11.155 -14.996  1.00  0.00     0.167 HD
ATOM     59  C   UNL     1      10.842  -7.327 -17.073  1.00  0.00     0.037 A 
ATOM     60  C   UNL     1      12.615 -13.289 -14.310  1.00  0.00     0.037 A 
ATOM     61  C   UNL     1      10.162  -8.227 -17.962  1.00  0.00     0.049 A 
ATOM     62  C   UNL     1      12.616 -12.829 -15.720  1.00  0.00     0.074 A 
ATOM     63  C   UNL     1       8.840  -8.436 -18.303  1.00  0.00     0.029 A 
ATOM     64  N   UNL     1      10.846  -9.313 -18.444  1.00  0.00    -0.354 N 
ATOM     65  N   UNL     1      11.715 -13.148 -16.607  1.00  0.00    -0.248 NA
ATOM     66  C   UNL     1      13.450 -11.686 -16.065  1.00  0.00     0.031 C 
ATOM     67  C   UNL     1       8.733  -9.832 -18.567  1.00  0.00     0.029 A 
ATOM     68  C   UNL     1       9.998 -10.389 -18.380  1.00  0.00     0.049 A 
ATOM     69  H   UNL     1      11.773  -9.320 -18.774  1.00  0.00     0.167 HD
ATOM     70  C   UNL     1      11.596 -12.025 -17.411  1.00  0.00     0.074 A 
ATOM     71  C   UNL     1      12.769 -11.215 -17.112  1.00  0.00     0.031 C 
ATOM     72  C   UNL     1      10.419 -11.727 -18.033  1.00  0.00     0.037 A 
BRANCH  59  73
ATOM     73  C   UNL     1      12.065  -6.551 -17.471  1.00  0.00     0.064 A 
ATOM     74  C   UNL     1      12.252  -6.179 -18.813  1.00  0.00     0.173 A 
ATOM     75  C   UNL     1      13.187  -6.396 -16.626  1.00  0.00     0.173 A 
ATOM     76  F   UNL     1      11.264  -6.333 -19.707  1.00  0.00    -0.203 F 
ATOM     77  C   UNL     1      13.484  -5.717 -19.282  1.00  0.00     0.198 A 
ATOM     78  C   UNL     1      14.396  -5.879 -17.083  1.00  0.00     0.198 A 
ATOM     79  F   UNL     1      13.186  -6.836 -15.361  1.00  0.00    -0.203 F 
ATOM     80  F   UNL     1      13.651  -5.477 -20.589  1.00  0.00    -0.200 F 
ATOM     81  C   UNL     1      14.553  -5.564 -18.416  1.00  0.00     0.200 A 
ATOM     82  F   UNL     1      15.426  -5.760 -16.234  1.00  0.00    -0.200 F 
ATOM     83  F   UNL     1      15.747  -5.163 -18.873  1.00  0.00    -0.200 F 
ENDBRANCH  59  73
BRANCH  60  84
ATOM     84  C   UNL     1      13.751 -14.024 -13.710  1.00  0.00     0.064 A 
ATOM     85  C   UNL     1      14.531 -14.900 -14.479  1.00  0.00     0.173 A 
ATOM     86  C   UNL     1      14.251 -13.693 -12.435  1.00  0.00     0.173 A 
ATOM     87  F   UNL     1      14.151 -15.226 -15.723  1.00  0.00    -0.203 F 
ATOM     88  C   UNL     1      15.747 -15.403 -14.007  1.00  0.00     0.198 A 
ATOM     89  C   UNL     1      15.456 -14.208 -11.958  1.00  0.00     0.198 A 
ATOM     90  F   UNL     1      13.630 -12.790 -11.662  1.00  0.00    -0.203 F 
ATOM     91  F   UNL     1      16.496 -16.188 -14.794  1.00  0.00    -0.200 F 
ATOM     92  C   UNL     1      16.211 -15.052 -12.749  1.00  0.00     0.200 A 
ATOM     93  F   UNL     1      15.909 -13.832 -10.754  1.00  0.00    -0.200 F 
ATOM     94  F   UNL     1      17.401 -15.492 -12.318  1.00  0.00    -0.200 F 
ENDBRANCH  60  84
BRANCH  72  95
ATOM     95  C   UNL     1       9.377 -12.805 -18.099  1.00  0.00     0.064 A 
ATOM     96  C   UNL     1       8.742 -13.344 -16.967  1.00  0.00     0.173 A 
ATOM     97  C   UNL     1       8.910 -13.208 -19.358  1.00  0.00     0.173 A 
ATOM     98  F   UNL     1       9.062 -12.926 -15.735  1.00  0.00    -0.203 F 
ATOM     99  C   UNL     1       7.722 -14.285 -17.093  1.00  0.00     0.198 A 
ATOM    100  C   UNL     1       7.866 -14.120 -19.481  1.00  0.00     0.198 A 
ATOM    101  F   UNL     1       9.438 -12.678 -20.473  1.00  0.00    -0.203 F 
ATOM    102  F   UNL     1       7.142 -14.797 -15.998  1.00  0.00    -0.200 F 
ATOM    103  C   UNL     1       7.281 -14.668 -18.349  1.00  0.00     0.200 A 
ATOM    104  F   UNL     1       7.407 -14.450 -20.696  1.00  0.00    -0.200 F 
ATOM    105  F   UNL     1       6.273 -15.543 -18.471  1.00  0.00    -0.200 F 
ENDBRANCH  72  95
ENDBRANCH  46  47
ENDBRANCH  39  41
ENDBRANCH  38  39
ENDBRANCH  37  38
ENDBRANCH  36  37
ENDBRANCH  35  36
ENDBRANCH  34  35
ENDBRANCH   1  34
TORSDOF 20
