REMARK SMILES CSCC[C@H](C(=O)OCCOCCOCCOC(=O)c1ccc(-c2c3nc(c(-c4c(F)c(F)c(F)c(F)c4F)c4ccc([nH]4)c(-c4c(F)c(F)c(F)c(F)c4F)c4nc(c(-c5c(F)c(F)c(F)c(F)c5F)c5ccc2[nH]5)C=C4)C=C3)cc1)N1C(=O)/C(=C/c2cn(C)c3ccccc23)SC1=S
REMARK SMILES IDX 12 1 11 2 10 3 9 4 8 5 6 6 7 7 5 8 4 9 3 10 2 11 1 12 83 13
REMARK SMILES IDX 84 14 99 15 85 16 86 17 98 18 100 19 87 20 88 21 89 22 97 23
REMARK SMILES IDX 90 24 92 25 96 26 91 27 93 28 95 29 94 30 13 31 14 32 15 33
REMARK SMILES IDX 16 34 17 35 18 36 19 37 20 38 21 39 82 40 22 41 81 42 23 43
REMARK SMILES IDX 24 44 25 45 75 46 26 47 80 48 74 49 76 50 27 51 79 52 73 53
REMARK SMILES IDX 72 54 28 56 60 57 40 58 59 59 41 60 44 61 58 62 77 63 42 64
REMARK SMILES IDX 43 65 57 67 78 68 45 69 29 70 30 71 38 72 31 73 32 74 36 75
REMARK SMILES IDX 39 76 33 77 34 78 37 79 35 80 61 81 62 82 70 83 63 84 64 85
REMARK SMILES IDX 68 86 71 87 65 88 66 89 69 90 67 91 46 92 47 93 55 94 48 95
REMARK SMILES IDX 49 96 53 97 56 98 50 99 51 100 54 101 52 102
REMARK H PARENT 76 55 44 66
REMARK Flexibility Score: inf
ROOT
ATOM      1  C   UNL     1      -0.900  -3.239   0.050  1.00  0.00     0.188 C 
ENDROOT
BRANCH   1   2
ATOM      2  O   UNL     1      -1.035  -4.390   0.856  1.00  0.00    -0.376 OA
BRANCH   2   3
ATOM      3  C   UNL     1      -0.521  -5.582   0.252  1.00  0.00     0.202 C 
BRANCH   3   4
ATOM      4  C   UNL     1       0.958  -5.572  -0.171  1.00  0.00     0.261 C 
BRANCH   4   5
ATOM      5  O   UNL     1       1.422  -4.525  -1.057  1.00  0.00    -0.462 OA
BRANCH   5   6
ATOM      6  C   UNL     1       0.778  -4.060  -2.172  1.00  0.00     0.329 C 
ATOM      7  O   UNL     1      -0.246  -4.552  -2.626  1.00  0.00    -0.250 OA
BRANCH   6   8
ATOM      8  C   UNL     1       1.366  -2.612  -2.538  1.00  0.00     0.202 C 
BRANCH   8   9
ATOM      9  C   UNL     1       2.883  -2.562  -2.046  1.00  0.00     0.048 C 
BRANCH   9  10
ATOM     10  C   UNL     1       3.174  -1.458  -1.002  1.00  0.00     0.072 C 
BRANCH  10  11
ATOM     11  S   UNL     1       3.775  -2.115   0.600  1.00  0.00    -0.165 SA
ATOM     12  C   UNL     1       2.295  -1.892   1.618  1.00  0.00     0.085 C 
ENDBRANCH  10  11
ENDBRANCH   9  10
ENDBRANCH   8   9
BRANCH   8  13
ATOM     13  N   UNL     1       1.031  -2.013  -4.172  1.00  0.00    -0.278 N 
ATOM     14  C   UNL     1       1.209  -3.161  -4.778  1.00  0.00     0.266 C 
ATOM     15  C   UNL     1       1.135  -0.178  -4.992  1.00  0.00     0.149 C 
ATOM     16  O   UNL     1       1.642  -4.264  -4.636  1.00  0.00    -0.268 OA
ATOM     17  C   UNL     1       0.463  -2.372  -5.613  1.00  0.00     0.081 C 
ATOM     18  S   UNL     1       0.880  -0.067  -6.456  1.00  0.00    -0.054 SA
ATOM     19  S   UNL     1       1.629   1.668  -4.500  1.00  0.00    -0.052 S 
ATOM     20  C   UNL     1      -0.064  -3.407  -6.450  1.00  0.00     0.031 C 
BRANCH  20  21
ATOM     21  C   UNL     1      -0.190  -2.893  -7.740  1.00  0.00     0.001 A 
ATOM     22  C   UNL     1      -1.342  -2.246  -8.208  1.00  0.00     0.094 A 
ATOM     23  C   UNL     1       0.661  -1.841  -7.326  1.00  0.00     0.007 A 
ATOM     24  N   UNL     1      -1.761  -1.210  -7.337  1.00  0.00    -0.350 N 
ATOM     25  C   UNL     1      -0.877  -1.214  -6.249  1.00  0.00     0.048 A 
ATOM     26  C   UNL     1       2.308  -1.708  -6.194  1.00  0.00     0.011 A 
ATOM     27  C   UNL     1      -2.338   0.017  -7.872  1.00  0.00     0.149 C 
ATOM     28  C   UNL     1      -0.642  -0.678  -4.392  1.00  0.00     0.027 A 
ATOM     29  C   UNL     1       2.589  -1.024  -4.369  1.00  0.00     0.001 A 
ATOM     30  C   UNL     1       0.984  -0.465  -3.290  1.00  0.00     0.002 A 
ENDBRANCH  20  21
ENDBRANCH   8  13
ENDBRANCH   6   8
ENDBRANCH   5   6
ENDBRANCH   4   5
ENDBRANCH   3   4
ENDBRANCH   2   3
ENDBRANCH   1   2
BRANCH   1  31
ATOM     31  C   UNL     1      -1.345  -1.930   0.650  1.00  0.00     0.188 C 
BRANCH  31  32
ATOM     32  O   UNL     1      -0.868  -1.597   1.943  1.00  0.00    -0.376 OA
BRANCH  32  33
ATOM     33  C   UNL     1      -1.269  -2.458   3.005  1.00  0.00     0.202 C 
BRANCH  33  34
ATOM     34  C   UNL     1      -2.748  -2.415   3.436  1.00  0.00     0.261 C 
BRANCH  34  35
ATOM     35  O   UNL     1      -3.708  -2.277   2.377  1.00  0.00    -0.460 OA
BRANCH  35  36
ATOM     36  C   UNL     1      -4.000  -0.995   2.021  1.00  0.00     0.338 C 
ATOM     37  O   UNL     1      -3.607   0.028   2.552  1.00  0.00    -0.246 OA
BRANCH  36  38
ATOM     38  C   UNL     1      -4.691  -1.018   0.708  1.00  0.00     0.060 A 
ATOM     39  C   UNL     1      -4.130  -0.296  -0.362  1.00  0.00     0.016 A 
ATOM     40  C   UNL     1      -5.849  -1.770   0.521  1.00  0.00     0.016 A 
ATOM     41  C   UNL     1      -4.737  -0.311  -1.617  1.00  0.00     0.010 A 
ATOM     42  C   UNL     1      -6.482  -1.748  -0.723  1.00  0.00     0.010 A 
ATOM     43  C   UNL     1      -5.946  -0.994  -1.785  1.00  0.00    -0.014 A 
BRANCH  43  44
ATOM     44  C   UNL     1      -6.796  -0.703  -2.962  1.00  0.00     0.031 A 
ATOM     45  C   UNL     1      -7.857   0.350  -2.800  1.00  0.00     0.074 A 
ATOM     46  C   UNL     1      -6.644  -1.348  -4.131  1.00  0.00     0.049 A 
ATOM     47  N   UNL     1      -8.818   0.703  -3.613  1.00  0.00    -0.248 NA
ATOM     48  C   UNL     1      -7.830   1.105  -1.535  1.00  0.00     0.031 C 
ATOM     49  C   UNL     1      -5.611  -2.335  -4.429  1.00  0.00     0.029 A 
ATOM     50  N   UNL     1      -7.386  -1.273  -5.284  1.00  0.00    -0.354 N 
ATOM     51  C   UNL     1      -9.516   1.705  -2.951  1.00  0.00     0.074 A 
ATOM     52  C   UNL     1      -8.888   1.888  -1.662  1.00  0.00     0.031 C 
ATOM     53  C   UNL     1      -5.800  -2.797  -5.679  1.00  0.00     0.029 A 
ATOM     54  C   UNL     1      -6.993  -2.170  -6.247  1.00  0.00     0.049 A 
ATOM     55  H   UNL     1      -8.129  -0.639  -5.408  1.00  0.00     0.167 HD
ATOM     56  C   UNL     1     -10.584   2.413  -3.384  1.00  0.00     0.037 A 
ATOM     57  C   UNL     1      -7.562  -2.468  -7.432  1.00  0.00     0.037 A 
ATOM     58  C   UNL     1     -11.208   2.217  -4.664  1.00  0.00     0.049 A 
ATOM     59  C   UNL     1      -8.815  -1.737  -7.852  1.00  0.00     0.074 A 
ATOM     60  C   UNL     1     -12.295   2.879  -5.205  1.00  0.00     0.029 A 
ATOM     61  N   UNL     1     -10.802   1.278  -5.601  1.00  0.00    -0.354 N 
ATOM     62  N   UNL     1      -9.470  -0.785  -7.230  1.00  0.00    -0.248 NA
ATOM     63  C   UNL     1      -9.407  -2.122  -9.141  1.00  0.00     0.031 C 
ATOM     64  C   UNL     1     -12.583   2.299  -6.444  1.00  0.00     0.029 A 
ATOM     65  C   UNL     1     -11.632   1.325  -6.707  1.00  0.00     0.049 A 
ATOM     66  H   UNL     1     -10.036   0.668  -5.494  1.00  0.00     0.167 HD
ATOM     67  C   UNL     1     -10.524  -0.434  -8.066  1.00  0.00     0.074 A 
ATOM     68  C   UNL     1     -10.414  -1.267  -9.245  1.00  0.00     0.031 C 
ATOM     69  C   UNL     1     -11.495   0.496  -7.879  1.00  0.00     0.037 A 
BRANCH  56  70
ATOM     70  C   UNL     1     -11.165   3.433  -2.447  1.00  0.00     0.064 A 
ATOM     71  C   UNL     1     -10.478   4.612  -2.118  1.00  0.00     0.173 A 
ATOM     72  C   UNL     1     -12.434   3.235  -1.883  1.00  0.00     0.173 A 
ATOM     73  F   UNL     1      -9.252   4.841  -2.612  1.00  0.00    -0.203 F 
ATOM     74  C   UNL     1     -11.029   5.540  -1.237  1.00  0.00     0.198 A 
ATOM     75  C   UNL     1     -12.996   4.181  -1.031  1.00  0.00     0.198 A 
ATOM     76  F   UNL     1     -13.133   2.124  -2.162  1.00  0.00    -0.203 F 
ATOM     77  F   UNL     1     -10.331   6.631  -0.894  1.00  0.00    -0.200 F 
ATOM     78  C   UNL     1     -12.290   5.328  -0.702  1.00  0.00     0.200 A 
ATOM     79  F   UNL     1     -14.221   3.980  -0.525  1.00  0.00    -0.200 F 
ATOM     80  F   UNL     1     -12.823   6.226   0.139  1.00  0.00    -0.200 F 
ENDBRANCH  56  70
BRANCH  57  81
ATOM     81  C   UNL     1      -6.971  -3.520  -8.303  1.00  0.00     0.064 A 
ATOM     82  C   UNL     1      -6.411  -3.196  -9.546  1.00  0.00     0.173 A 
ATOM     83  C   UNL     1      -6.984  -4.872  -7.929  1.00  0.00     0.173 A 
ATOM     84  F   UNL     1      -6.397  -1.921  -9.962  1.00  0.00    -0.203 F 
ATOM     85  C   UNL     1      -5.908  -4.184 -10.391  1.00  0.00     0.198 A 
ATOM     86  C   UNL     1      -6.451  -5.856  -8.760  1.00  0.00     0.198 A 
ATOM     87  F   UNL     1      -7.514  -5.239  -6.753  1.00  0.00    -0.203 F 
ATOM     88  F   UNL     1      -5.431  -3.850 -11.598  1.00  0.00    -0.200 F 
ATOM     89  C   UNL     1      -5.923  -5.513  -9.995  1.00  0.00     0.200 A 
ATOM     90  F   UNL     1      -6.460  -7.138  -8.369  1.00  0.00    -0.200 F 
ATOM     91  F   UNL     1      -5.441  -6.462 -10.809  1.00  0.00    -0.200 F 
ENDBRANCH  57  81
BRANCH  69  92
ATOM     92  C   UNL     1     -12.480   0.708  -8.994  1.00  0.00     0.064 A 
ATOM     93  C   UNL     1     -13.454  -0.247  -9.317  1.00  0.00     0.173 A 
ATOM     94  C   UNL     1     -12.479   1.913  -9.716  1.00  0.00     0.173 A 
ATOM     95  F   UNL     1     -13.493  -1.419  -8.665  1.00  0.00    -0.203 F 
ATOM     96  C   UNL     1     -14.371  -0.018 -10.341  1.00  0.00     0.198 A 
ATOM     97  C   UNL     1     -13.420   2.154 -10.713  1.00  0.00     0.198 A 
ATOM     98  F   UNL     1     -11.576   2.866  -9.441  1.00  0.00    -0.203 F 
ATOM     99  F   UNL     1     -15.258  -0.967 -10.667  1.00  0.00    -0.200 F 
ATOM    100  C   UNL     1     -14.359   1.185 -11.031  1.00  0.00     0.200 A 
ATOM    101  F   UNL     1     -13.419   3.325 -11.364  1.00  0.00    -0.200 F 
ATOM    102  F   UNL     1     -15.249   1.408 -12.008  1.00  0.00    -0.200 F 
ENDBRANCH  69  92
ENDBRANCH  43  44
ENDBRANCH  36  38
ENDBRANCH  35  36
ENDBRANCH  34  35
ENDBRANCH  33  34
ENDBRANCH  32  33
ENDBRANCH  31  32
ENDBRANCH   1  31
TORSDOF 22
