REMARK SMILES CCc1noc(C)c1C(=O)Nc1cc(Cl)ccc1C(=O)OCCOCCOCCOC(=O)c1ccc(-c2c3nc(c(-c4c(F)c(F)c(F)c(F)c4F)c4ccc([nH]4)c(-c4c(F)c(F)c(F)c(F)c4F)c4nc(c(-c5c(F)c(F)c(F)c(F)c5F)c5ccc2[nH]5)C=C4)C=C3)cc1
REMARK SMILES IDX 25 1 24 2 23 3 22 4 21 5 19 6 20 7 18 8 12 9 13 10 14 11
REMARK SMILES IDX 17 12 15 13 16 14 11 15 9 16 10 17 8 19 3 20 4 21 5 22 6 23
REMARK SMILES IDX 7 24 2 25 1 26 26 27 27 28 28 29 29 30 30 31 31 32 32 33
REMARK SMILES IDX 33 34 34 35 95 36 35 37 94 38 36 39 37 40 38 41 88 42 39 43
REMARK SMILES IDX 93 44 87 45 89 46 40 47 92 48 86 49 85 50 41 52 73 53 53 54
REMARK SMILES IDX 72 55 54 56 57 57 71 58 90 59 55 60 56 61 70 63 91 64 58 65
REMARK SMILES IDX 42 66 43 67 51 68 44 69 45 70 49 71 52 72 46 73 47 74 50 75
REMARK SMILES IDX 48 76 74 77 75 78 83 79 76 80 77 81 81 82 84 83 78 84 79 85
REMARK SMILES IDX 82 86 80 87 59 88 60 89 68 90 61 91 62 92 66 93 69 94 63 95
REMARK SMILES IDX 64 96 67 97 65 98
REMARK H PARENT 11 18 89 51 57 62
REMARK Flexibility Score: inf
ROOT
ATOM      1  C   UNL     1       2.950  -8.381  -2.536  1.00  0.00     0.188 C 
ENDROOT
BRANCH   1   2
ATOM      2  O   UNL     1       2.660  -9.012  -3.776  1.00  0.00    -0.376 OA
BRANCH   2   3
ATOM      3  C   UNL     1       1.705  -8.452  -4.664  1.00  0.00     0.202 C 
BRANCH   3   4
ATOM      4  C   UNL     1       0.250  -8.338  -4.191  1.00  0.00     0.261 C 
BRANCH   4   5
ATOM      5  O   UNL     1       0.074  -7.784  -2.870  1.00  0.00    -0.460 OA
BRANCH   5   6
ATOM      6  C   UNL     1      -0.284  -8.682  -1.921  1.00  0.00     0.340 C 
ATOM      7  O   UNL     1      -0.503  -9.869  -2.119  1.00  0.00    -0.246 OA
BRANCH   6   8
ATOM      8  C   UNL     1      -0.321  -8.116  -0.536  1.00  0.00     0.083 A 
ATOM      9  C   UNL     1      -0.461  -6.756  -0.170  1.00  0.00     0.057 A 
ATOM     10  C   UNL     1      -0.711  -6.450   1.176  1.00  0.00     0.047 A 
ATOM     11  C   UNL     1      -0.617  -7.436   2.161  1.00  0.00     0.043 A 
ATOM     12  C   UNL     1      -0.184  -9.085   0.479  1.00  0.00     0.019 A 
ATOM     13  Cl  UNL     1      -0.840  -7.019   3.814  1.00  0.00    -0.084 Cl
ATOM     14  C   UNL     1      -0.298  -8.743   1.823  1.00  0.00     0.021 A 
BRANCH   9  15
ATOM     15  N   UNL     1      -0.343  -5.731  -1.127  1.00  0.00    -0.321 N 
ATOM     16  C   UNL     1      -0.010  -4.390  -1.062  1.00  0.00     0.261 C 
ATOM     17  O   UNL     1      -0.285  -3.727  -2.066  1.00  0.00    -0.269 OA
ATOM     18  H   UNL     1      -0.540  -6.035  -2.042  1.00  0.00     0.170 HD
BRANCH  16  19
ATOM     19  C   UNL     1       0.680  -3.754   0.061  1.00  0.00     0.105 A 
ATOM     20  C   UNL     1       0.729  -2.333   0.310  1.00  0.00     0.096 A 
ATOM     21  N   UNL     1       1.396  -2.055   1.435  1.00  0.00    -0.084 NA
ATOM     22  O   UNL     1       1.916  -3.243   1.865  1.00  0.00    -0.361 OA
ATOM     23  C   UNL     1       1.562  -4.243   1.015  1.00  0.00     0.146 A 
ATOM     24  C   UNL     1       2.250  -5.508   1.334  1.00  0.00     0.092 C 
BRANCH  20  25
ATOM     25  C   UNL     1       0.180  -1.214  -0.525  1.00  0.00     0.057 C 
ATOM     26  C   UNL     1       0.679   0.176  -0.139  1.00  0.00     0.011 C 
ENDBRANCH  20  25
ENDBRANCH  16  19
ENDBRANCH   9  15
ENDBRANCH   6   8
ENDBRANCH   5   6
ENDBRANCH   4   5
ENDBRANCH   3   4
ENDBRANCH   2   3
ENDBRANCH   1   2
BRANCH   1  27
ATOM     27  C   UNL     1       2.828  -6.856  -2.356  1.00  0.00     0.188 C 
BRANCH  27  28
ATOM     28  O   UNL     1       2.682  -6.115  -3.550  1.00  0.00    -0.376 OA
BRANCH  28  29
ATOM     29  C   UNL     1       3.768  -5.261  -3.888  1.00  0.00     0.202 C 
BRANCH  29  30
ATOM     30  C   UNL     1       5.051  -5.990  -4.314  1.00  0.00     0.261 C 
BRANCH  30  31
ATOM     31  O   UNL     1       5.593  -6.902  -3.340  1.00  0.00    -0.460 OA
BRANCH  31  32
ATOM     32  C   UNL     1       6.111  -6.356  -2.217  1.00  0.00     0.338 C 
ATOM     33  O   UNL     1       6.170  -5.174  -1.936  1.00  0.00    -0.246 OA
BRANCH  32  34
ATOM     34  C   UNL     1       6.420  -7.449  -1.269  1.00  0.00     0.060 A 
ATOM     35  C   UNL     1       5.810  -7.433  -0.009  1.00  0.00     0.016 A 
ATOM     36  C   UNL     1       7.308  -8.474  -1.607  1.00  0.00     0.016 A 
ATOM     37  C   UNL     1       6.111  -8.424   0.927  1.00  0.00     0.010 A 
ATOM     38  C   UNL     1       7.621  -9.459  -0.661  1.00  0.00     0.010 A 
ATOM     39  C   UNL     1       7.046  -9.424   0.622  1.00  0.00    -0.014 A 
BRANCH  39  40
ATOM     40  C   UNL     1       7.516 -10.332   1.700  1.00  0.00     0.031 A 
ATOM     41  C   UNL     1       8.799 -10.013   2.419  1.00  0.00     0.074 A 
ATOM     42  C   UNL     1       6.787 -11.399   2.077  1.00  0.00     0.049 A 
ATOM     43  N   UNL     1       9.358 -10.621   3.435  1.00  0.00    -0.248 NA
ATOM     44  C   UNL     1       9.550  -8.848   1.927  1.00  0.00     0.031 C 
ATOM     45  C   UNL     1       5.525 -11.816   1.472  1.00  0.00     0.029 A 
ATOM     46  N   UNL     1       7.008 -12.323   3.068  1.00  0.00    -0.354 N 
ATOM     47  C   UNL     1      10.519  -9.909   3.710  1.00  0.00     0.074 A 
ATOM     48  C   UNL     1      10.605  -8.849   2.728  1.00  0.00     0.031 C 
ATOM     49  C   UNL     1       5.079 -12.914   2.108  1.00  0.00     0.029 A 
ATOM     50  C   UNL     1       6.032 -13.286   3.153  1.00  0.00     0.049 A 
ATOM     51  H   UNL     1       7.793 -12.299   3.663  1.00  0.00     0.167 HD
ATOM     52  C   UNL     1      11.424 -10.110   4.698  1.00  0.00     0.037 A 
ATOM     53  C   UNL     1       5.923 -14.346   3.978  1.00  0.00     0.037 A 
ATOM     54  C   UNL     1      11.350 -11.170   5.670  1.00  0.00     0.049 A 
ATOM     55  C   UNL     1       6.970 -14.575   5.039  1.00  0.00     0.074 A 
ATOM     56  C   UNL     1      12.211 -11.442   6.719  1.00  0.00     0.029 A 
ATOM     57  N   UNL     1      10.361 -12.142   5.705  1.00  0.00    -0.354 N 
ATOM     58  N   UNL     1       8.035 -13.866   5.323  1.00  0.00    -0.248 NA
ATOM     59  C   UNL     1       6.786 -15.749   5.905  1.00  0.00     0.031 C 
ATOM     60  C   UNL     1      11.772 -12.607   7.358  1.00  0.00     0.029 A 
ATOM     61  C   UNL     1      10.604 -13.029   6.743  1.00  0.00     0.049 A 
ATOM     62  H   UNL     1       9.599 -12.195   5.084  1.00  0.00     0.167 HD
ATOM     63  C   UNL     1       8.631 -14.489   6.413  1.00  0.00     0.074 A 
ATOM     64  C   UNL     1       7.796 -15.621   6.754  1.00  0.00     0.031 C 
ATOM     65  C   UNL     1       9.768 -14.154   7.074  1.00  0.00     0.037 A 
BRANCH  52  66
ATOM     66  C   UNL     1      12.589  -9.166   4.768  1.00  0.00     0.064 A 
ATOM     67  C   UNL     1      12.432  -7.832   5.177  1.00  0.00     0.173 A 
ATOM     68  C   UNL     1      13.883  -9.607   4.453  1.00  0.00     0.173 A 
ATOM     69  F   UNL     1      11.214  -7.356   5.475  1.00  0.00    -0.203 F 
ATOM     70  C   UNL     1      13.524  -6.970   5.244  1.00  0.00     0.198 A 
ATOM     71  C   UNL     1      14.976  -8.751   4.549  1.00  0.00     0.198 A 
ATOM     72  F   UNL     1      14.088 -10.873   4.060  1.00  0.00    -0.203 F 
ATOM     73  F   UNL     1      13.344  -5.689   5.592  1.00  0.00    -0.200 F 
ATOM     74  C   UNL     1      14.795  -7.432   4.937  1.00  0.00     0.200 A 
ATOM     75  F   UNL     1      16.206  -9.201   4.263  1.00  0.00    -0.200 F 
ATOM     76  F   UNL     1      15.846  -6.603   5.008  1.00  0.00    -0.200 F 
ENDBRANCH  52  66
BRANCH  53  77
ATOM     77  C   UNL     1       4.770 -15.275   3.848  1.00  0.00     0.064 A 
ATOM     78  C   UNL     1       3.786 -15.355   4.843  1.00  0.00     0.173 A 
ATOM     79  C   UNL     1       4.647 -16.127   2.740  1.00  0.00     0.173 A 
ATOM     80  F   UNL     1       3.874 -14.581   5.935  1.00  0.00    -0.203 F 
ATOM     81  C   UNL     1       2.735 -16.265   4.746  1.00  0.00     0.198 A 
ATOM     82  C   UNL     1       3.579 -17.016   2.630  1.00  0.00     0.198 A 
ATOM     83  F   UNL     1       5.564 -16.093   1.762  1.00  0.00    -0.203 F 
ATOM     84  F   UNL     1       1.837 -16.356   5.737  1.00  0.00    -0.200 F 
ATOM     85  C   UNL     1       2.629 -17.090   3.637  1.00  0.00     0.200 A 
ATOM     86  F   UNL     1       3.476 -17.804   1.552  1.00  0.00    -0.200 F 
ATOM     87  F   UNL     1       1.618 -17.965   3.544  1.00  0.00    -0.200 F 
ENDBRANCH  53  77
BRANCH  65  88
ATOM     88  C   UNL     1      10.154 -15.003   8.253  1.00  0.00     0.064 A 
ATOM     89  C   UNL     1      10.602 -16.324   8.098  1.00  0.00     0.173 A 
ATOM     90  C   UNL     1      10.081 -14.486   9.556  1.00  0.00     0.173 A 
ATOM     91  F   UNL     1      10.678 -16.872   6.876  1.00  0.00    -0.203 F 
ATOM     92  C   UNL     1      10.921 -17.108   9.204  1.00  0.00     0.198 A 
ATOM     93  C   UNL     1      10.434 -15.262  10.658  1.00  0.00     0.198 A 
ATOM     94  F   UNL     1       9.669 -13.226   9.762  1.00  0.00    -0.203 F 
ATOM     95  F   UNL     1      11.284 -18.387   9.035  1.00  0.00    -0.200 F 
ATOM     96  C   UNL     1      10.841 -16.575  10.482  1.00  0.00     0.200 A 
ATOM     97  F   UNL     1      10.369 -14.740  11.890  1.00  0.00    -0.200 F 
ATOM     98  F   UNL     1      11.145 -17.332  11.546  1.00  0.00    -0.200 F 
ENDBRANCH  65  88
ENDBRANCH  39  40
ENDBRANCH  32  34
ENDBRANCH  31  32
ENDBRANCH  30  31
ENDBRANCH  29  30
ENDBRANCH  28  29
ENDBRANCH  27  28
ENDBRANCH   1  27
TORSDOF 20
