REMARK SMILES C[C@@H](C(=O)OCCOCCOCCOC(=O)c1ccc(-c2c3nc(c(-c4c(F)c(F)c(F)c(F)c4F)c4ccc([nH]4)c(-c4c(F)c(F)c(F)c(F)c4F)c4nc(c(-c5c(F)c(F)c(F)c(F)c5F)c5ccc2[nH]5)C=C4)C=C3)cc1)c1ccc(C[C@@H]2CCC[C@@H]2O)cc1
REMARK SMILES IDX 9 1 8 2 7 3 6 4 5 5 3 6 4 7 2 8 1 9 80 10 81 11 92 12 82 13
REMARK SMILES IDX 91 14 83 15 84 16 85 17 86 18 89 19 87 20 88 21 90 22 10 24
REMARK SMILES IDX 11 25 12 26 13 27 14 28 15 29 16 30 17 31 18 32 79 33 19 34
REMARK SMILES IDX 78 35 20 36 21 37 22 38 72 39 23 40 77 41 71 42 73 43 24 44
REMARK SMILES IDX 76 45 70 46 69 47 25 49 57 50 37 51 56 52 38 53 41 54 55 55
REMARK SMILES IDX 74 56 39 57 40 58 54 60 75 61 42 62 26 63 27 64 35 65 28 66
REMARK SMILES IDX 29 67 33 68 36 69 30 70 31 71 34 72 32 73 58 74 59 75 67 76
REMARK SMILES IDX 60 77 61 78 65 79 68 80 62 81 63 82 66 83 64 84 43 85 44 86
REMARK SMILES IDX 52 87 45 88 46 89 50 90 53 91 47 92 48 93 51 94 49 95
REMARK H PARENT 90 23 73 48 41 59
REMARK Flexibility Score: inf
ROOT
ATOM      1  C   UNL     1      -7.163   1.095   9.336  1.00  0.00     0.188 C 
ENDROOT
BRANCH   1   2
ATOM      2  O   UNL     1      -6.338   1.915  10.154  1.00  0.00    -0.376 OA
BRANCH   2   3
ATOM      3  C   UNL     1      -6.931   3.005  10.853  1.00  0.00     0.202 C 
BRANCH   3   4
ATOM      4  C   UNL     1      -7.792   4.013  10.071  1.00  0.00     0.261 C 
BRANCH   4   5
ATOM      5  O   UNL     1      -8.916   3.460   9.348  1.00  0.00    -0.463 OA
BRANCH   5   6
ATOM      6  C   UNL     1      -8.962   3.713   8.010  1.00  0.00     0.313 C 
ATOM      7  O   UNL     1      -8.111   4.374   7.420  1.00  0.00    -0.252 OA
BRANCH   6   8
ATOM      8  C   UNL     1     -10.184   3.113   7.279  1.00  0.00     0.126 C 
ATOM      9  C   UNL     1     -11.229   2.344   8.092  1.00  0.00     0.025 C 
BRANCH   8  10
ATOM     10  C   UNL     1      -9.731   2.326   6.052  1.00  0.00    -0.034 A 
ATOM     11  C   UNL     1      -9.124   1.068   6.165  1.00  0.00     0.005 A 
ATOM     12  C   UNL     1      -9.809   2.912   4.782  1.00  0.00     0.005 A 
ATOM     13  C   UNL     1      -8.516   0.467   5.065  1.00  0.00     0.004 A 
ATOM     14  C   UNL     1      -9.195   2.311   3.682  1.00  0.00     0.004 A 
ATOM     15  C   UNL     1      -8.486   1.117   3.831  1.00  0.00    -0.048 A 
BRANCH  15  16
ATOM     16  C   UNL     1      -7.626   0.595   2.710  1.00  0.00     0.041 C 
BRANCH  16  17
ATOM     17  C   UNL     1      -6.124   0.941   2.781  1.00  0.00     0.022 C 
ATOM     18  C   UNL     1      -5.406   0.478   4.041  1.00  0.00     0.007 C 
ATOM     19  C   UNL     1      -5.699   2.410   2.740  1.00  0.00     0.117 C 
ATOM     20  C   UNL     1      -5.332   1.647   5.014  1.00  0.00     0.003 C 
ATOM     21  C   UNL     1      -5.685   2.879   4.194  1.00  0.00     0.032 C 
BRANCH  19  22
ATOM     22  O   UNL     1      -6.512   3.202   1.906  1.00  0.00    -0.393 OA
ATOM     23  H   UNL     1      -7.427   3.175   2.227  1.00  0.00     0.210 HD
ENDBRANCH  19  22
ENDBRANCH  16  17
ENDBRANCH  15  16
ENDBRANCH   8  10
ENDBRANCH   6   8
ENDBRANCH   5   6
ENDBRANCH   4   5
ENDBRANCH   3   4
ENDBRANCH   2   3
ENDBRANCH   1   2
BRANCH   1  24
ATOM     24  C   UNL     1      -8.535   0.655   9.879  1.00  0.00     0.188 C 
BRANCH  24  25
ATOM     25  O   UNL     1      -8.752   1.007  11.223  1.00  0.00    -0.376 OA
BRANCH  25  26
ATOM     26  C   UNL     1      -8.826  -0.018  12.191  1.00  0.00     0.202 C 
BRANCH  26  27
ATOM     27  C   UNL     1      -7.712  -1.074  12.264  1.00  0.00     0.261 C 
BRANCH  27  28
ATOM     28  O   UNL     1      -7.194  -1.586  11.024  1.00  0.00    -0.460 OA
BRANCH  28  29
ATOM     29  C   UNL     1      -7.942  -2.506  10.368  1.00  0.00     0.338 C 
ATOM     30  O   UNL     1      -9.041  -2.912  10.683  1.00  0.00    -0.246 OA
BRANCH  29  31
ATOM     31  C   UNL     1      -7.266  -2.816   9.081  1.00  0.00     0.060 A 
ATOM     32  C   UNL     1      -7.967  -2.644   7.881  1.00  0.00     0.016 A 
ATOM     33  C   UNL     1      -5.955  -3.301   9.057  1.00  0.00     0.016 A 
ATOM     34  C   UNL     1      -7.360  -2.979   6.662  1.00  0.00     0.010 A 
ATOM     35  C   UNL     1      -5.360  -3.657   7.839  1.00  0.00     0.010 A 
ATOM     36  C   UNL     1      -6.059  -3.513   6.631  1.00  0.00    -0.014 A 
BRANCH  36  37
ATOM     37  C   UNL     1      -5.516  -4.065   5.357  1.00  0.00     0.031 A 
ATOM     38  C   UNL     1      -5.936  -5.436   4.923  1.00  0.00     0.074 A 
ATOM     39  C   UNL     1      -4.593  -3.421   4.618  1.00  0.00     0.049 A 
ATOM     40  N   UNL     1      -5.596  -6.100   3.849  1.00  0.00    -0.248 NA
ATOM     41  C   UNL     1      -6.765  -6.191   5.871  1.00  0.00     0.031 C 
ATOM     42  C   UNL     1      -3.904  -2.210   5.028  1.00  0.00     0.029 A 
ATOM     43  N   UNL     1      -4.092  -3.680   3.357  1.00  0.00    -0.354 N 
ATOM     44  C   UNL     1      -6.083  -7.383   4.036  1.00  0.00     0.074 A 
ATOM     45  C   UNL     1      -6.789  -7.386   5.302  1.00  0.00     0.031 C 
ATOM     46  C   UNL     1      -3.166  -1.765   3.997  1.00  0.00     0.029 A 
ATOM     47  C   UNL     1      -3.353  -2.634   2.843  1.00  0.00     0.049 A 
ATOM     48  H   UNL     1      -4.247  -4.523   2.874  1.00  0.00     0.167 HD
ATOM     49  C   UNL     1      -5.895  -8.473   3.254  1.00  0.00     0.037 A 
ATOM     50  C   UNL     1      -2.941  -2.391   1.578  1.00  0.00     0.037 A 
ATOM     51  C   UNL     1      -5.161  -8.470   2.014  1.00  0.00     0.049 A 
ATOM     52  C   UNL     1      -2.980  -3.537   0.599  1.00  0.00     0.074 A 
ATOM     53  C   UNL     1      -4.910  -9.528   1.158  1.00  0.00     0.029 A 
ATOM     54  N   UNL     1      -4.551  -7.356   1.454  1.00  0.00    -0.354 N 
ATOM     55  N   UNL     1      -3.473  -4.740   0.761  1.00  0.00    -0.248 NA
ATOM     56  C   UNL     1      -2.310  -3.335  -0.696  1.00  0.00     0.031 C 
ATOM     57  C   UNL     1      -4.117  -9.065   0.102  1.00  0.00     0.029 A 
ATOM     58  C   UNL     1      -3.929  -7.703   0.263  1.00  0.00     0.049 A 
ATOM     59  H   UNL     1      -4.559  -6.452   1.844  1.00  0.00     0.167 HD
ATOM     60  C   UNL     1      -3.110  -5.455  -0.370  1.00  0.00     0.074 A 
ATOM     61  C   UNL     1      -2.449  -4.525  -1.262  1.00  0.00     0.031 C 
ATOM     62  C   UNL     1      -3.252  -6.780  -0.613  1.00  0.00     0.037 A 
BRANCH  49  63
ATOM     63  C   UNL     1      -6.425  -9.777   3.771  1.00  0.00     0.064 A 
ATOM     64  C   UNL     1      -7.800 -10.034   3.869  1.00  0.00     0.173 A 
ATOM     65  C   UNL     1      -5.537 -10.782   4.188  1.00  0.00     0.173 A 
ATOM     66  F   UNL     1      -8.689  -9.096   3.508  1.00  0.00    -0.203 F 
ATOM     67  C   UNL     1      -8.267 -11.234   4.397  1.00  0.00     0.198 A 
ATOM     68  C   UNL     1      -6.008 -11.995   4.680  1.00  0.00     0.198 A 
ATOM     69  F   UNL     1      -4.212 -10.586   4.122  1.00  0.00    -0.203 F 
ATOM     70  F   UNL     1      -9.585 -11.430   4.544  1.00  0.00    -0.200 F 
ATOM     71  C   UNL     1      -7.372 -12.216   4.794  1.00  0.00     0.200 A 
ATOM     72  F   UNL     1      -5.141 -12.947   5.053  1.00  0.00    -0.200 F 
ATOM     73  F   UNL     1      -7.824 -13.371   5.300  1.00  0.00    -0.200 F 
ENDBRANCH  49  63
BRANCH  50  74
ATOM     74  C   UNL     1      -2.481  -1.038   1.126  1.00  0.00     0.064 A 
ATOM     75  C   UNL     1      -3.143  -0.389   0.063  1.00  0.00     0.173 A 
ATOM     76  C   UNL     1      -1.387  -0.367   1.686  1.00  0.00     0.173 A 
ATOM     77  F   UNL     1      -4.177  -0.988  -0.548  1.00  0.00    -0.203 F 
ATOM     78  C   UNL     1      -2.720   0.851  -0.421  1.00  0.00     0.198 A 
ATOM     79  C   UNL     1      -1.002   0.900   1.242  1.00  0.00     0.198 A 
ATOM     80  F   UNL     1      -0.672  -0.942   2.664  1.00  0.00    -0.203 F 
ATOM     81  F   UNL     1      -3.323   1.397  -1.486  1.00  0.00    -0.200 F 
ATOM     82  C   UNL     1      -1.659   1.503   0.182  1.00  0.00     0.200 A 
ATOM     83  F   UNL     1       0.018   1.532   1.839  1.00  0.00    -0.200 F 
ATOM     84  F   UNL     1      -1.258   2.700  -0.268  1.00  0.00    -0.200 F 
ENDBRANCH  50  74
BRANCH  62  85
ATOM     85  C   UNL     1      -2.650  -7.312  -1.882  1.00  0.00     0.064 A 
ATOM     86  C   UNL     1      -1.259  -7.388  -2.058  1.00  0.00     0.173 A 
ATOM     87  C   UNL     1      -3.469  -7.778  -2.920  1.00  0.00     0.173 A 
ATOM     88  F   UNL     1      -0.430  -6.946  -1.100  1.00  0.00    -0.203 F 
ATOM     89  C   UNL     1      -0.711  -7.881  -3.240  1.00  0.00     0.198 A 
ATOM     90  C   UNL     1      -2.917  -8.299  -4.088  1.00  0.00     0.198 A 
ATOM     91  F   UNL     1      -4.804  -7.734  -2.800  1.00  0.00    -0.203 F 
ATOM     92  F   UNL     1       0.619  -7.896  -3.406  1.00  0.00    -0.200 F 
ATOM     93  C   UNL     1      -1.541  -8.342  -4.251  1.00  0.00     0.200 A 
ATOM     94  F   UNL     1      -3.720  -8.756  -5.059  1.00  0.00    -0.200 F 
ATOM     95  F   UNL     1      -1.014  -8.819  -5.386  1.00  0.00    -0.200 F 
ENDBRANCH  62  85
ENDBRANCH  36  37
ENDBRANCH  29  31
ENDBRANCH  28  29
ENDBRANCH  27  28
ENDBRANCH  26  27
ENDBRANCH  25  26
ENDBRANCH  24  25
ENDBRANCH   1  24
TORSDOF 21
