REMARK SMILES Cc1ccc2c(c1C)O[C@@H](C(=O)OCCOCCOCCOC(=O)c1ccc(-c3c4nc(c(-c5c(F)c(F)c(F)c(F)c5F)c5ccc([nH]5)c(-c5c(F)c(F)c(F)c(F)c5F)c5nc(c(-c6c(F)c(F)c(F)c(F)c6F)c6ccc3[nH]6)C=C5)C=C4)cc1)CC2=O
REMARK SMILES IDX 18 1 17 2 16 3 15 4 14 5 13 6 11 7 12 8 10 9 1 10 2 11 3 12
REMARK SMILES IDX 7 13 4 14 6 15 8 16 5 17 9 18 89 19 88 20 90 21 19 22 20 23
REMARK SMILES IDX 21 24 22 25 23 26 24 27 25 28 26 29 87 30 27 31 86 32 28 33
REMARK SMILES IDX 29 34 30 35 80 36 31 37 85 38 79 39 81 40 32 41 84 42 78 43
REMARK SMILES IDX 77 44 33 46 65 47 45 48 64 49 46 50 49 51 63 52 82 53 47 54
REMARK SMILES IDX 48 55 62 57 83 58 50 59 34 60 35 61 43 62 36 63 37 64 41 65
REMARK SMILES IDX 44 66 38 67 39 68 42 69 40 70 66 71 67 72 75 73 68 74 69 75
REMARK SMILES IDX 73 76 76 77 70 78 71 79 74 80 72 81 51 82 52 83 60 84 53 85
REMARK SMILES IDX 54 86 58 87 61 88 55 89 56 90 59 91 57 92
REMARK H PARENT 81 45 49 56
REMARK Flexibility Score: inf
ROOT
ATOM      1  C   UNL     1       1.855   7.118  -4.531  1.00  0.00     0.188 C 
ENDROOT
BRANCH   1   2
ATOM      2  C   UNL     1       3.285   7.168  -3.985  1.00  0.00     0.188 C 
BRANCH   2   3
ATOM      3  O   UNL     1       4.269   6.388  -4.637  1.00  0.00    -0.376 OA
BRANCH   3   4
ATOM      4  C   UNL     1       3.959   5.016  -4.860  1.00  0.00     0.202 C 
BRANCH   4   5
ATOM      5  C   UNL     1       3.471   4.191  -3.656  1.00  0.00     0.261 C 
BRANCH   5   6
ATOM      6  O   UNL     1       2.303   4.700  -2.955  1.00  0.00    -0.460 OA
BRANCH   6   7
ATOM      7  C   UNL     1       2.503   5.065  -1.658  1.00  0.00     0.347 C 
ATOM      8  O   UNL     1       3.603   5.056  -1.110  1.00  0.00    -0.248 OA
BRANCH   7   9
ATOM      9  C   UNL     1       1.230   5.449  -0.872  1.00  0.00     0.290 C 
ATOM     10  C   UNL     1       1.031  -0.469  -0.104  1.00  0.00     0.045 C 
ATOM     11  C   UNL     1       0.569   0.869  -0.607  1.00  0.00    -0.044 A 
ATOM     12  C   UNL     1      -0.278   0.918  -1.732  1.00  0.00     0.005 A 
ATOM     13  C   UNL     1       0.975   2.065   0.017  1.00  0.00    -0.005 A 
ATOM     14  C   UNL     1      -0.712   2.134  -2.255  1.00  0.00     0.016 A 
ATOM     15  C   UNL     1       0.531   3.278  -0.520  1.00  0.00     0.134 A 
ATOM     16  C   UNL     1       1.943   2.107   1.171  1.00  0.00     0.049 C 
ATOM     17  C   UNL     1      -0.298   3.312  -1.648  1.00  0.00     0.060 A 
ATOM     18  O   UNL     1       0.976   4.426   0.095  1.00  0.00    -0.477 OA
ATOM     19  C   UNL     1      -0.681   4.623  -2.205  1.00  0.00     0.170 C 
ATOM     20  C   UNL     1      -0.086   5.820  -1.526  1.00  0.00     0.138 C 
ATOM     21  O   UNL     1      -1.478   4.722  -3.130  1.00  0.00    -0.294 OA
ENDBRANCH   7   9
ENDBRANCH   6   7
ENDBRANCH   5   6
ENDBRANCH   4   5
ENDBRANCH   3   4
ENDBRANCH   2   3
ENDBRANCH   1   2
BRANCH   1  22
ATOM     22  O   UNL     1       1.581   6.131  -5.501  1.00  0.00    -0.376 OA
BRANCH  22  23
ATOM     23  C   UNL     1       0.459   6.375  -6.346  1.00  0.00     0.202 C 
BRANCH  23  24
ATOM     24  C   UNL     1       0.675   7.490  -7.393  1.00  0.00     0.261 C 
BRANCH  24  25
ATOM     25  O   UNL     1       1.049   8.796  -6.893  1.00  0.00    -0.460 OA
BRANCH  25  26
ATOM     26  C   UNL     1       0.197   9.426  -6.047  1.00  0.00     0.338 C 
ATOM     27  O   UNL     1      -0.946   9.090  -5.783  1.00  0.00    -0.246 OA
BRANCH  26  28
ATOM     28  C   UNL     1       0.991  10.401  -5.241  1.00  0.00     0.060 A 
ATOM     29  C   UNL     1       0.939  10.306  -3.839  1.00  0.00     0.016 A 
ATOM     30  C   UNL     1       1.854  11.322  -5.839  1.00  0.00     0.016 A 
ATOM     31  C   UNL     1       1.731  11.137  -3.038  1.00  0.00     0.010 A 
ATOM     32  C   UNL     1       2.613  12.186  -5.036  1.00  0.00     0.010 A 
ATOM     33  C   UNL     1       2.535  12.119  -3.632  1.00  0.00    -0.014 A 
BRANCH  33  34
ATOM     34  C   UNL     1       3.050  13.242  -2.803  1.00  0.00     0.031 A 
ATOM     35  C   UNL     1       2.150  14.438  -2.633  1.00  0.00     0.074 A 
ATOM     36  C   UNL     1       4.251  13.221  -2.195  1.00  0.00     0.049 A 
ATOM     37  N   UNL     1       2.353  15.552  -1.978  1.00  0.00    -0.248 NA
ATOM     38  C   UNL     1       0.837  14.362  -3.296  1.00  0.00     0.031 C 
ATOM     39  C   UNL     1       5.203  12.116  -2.233  1.00  0.00     0.029 A 
ATOM     40  N   UNL     1       4.873  14.176  -1.422  1.00  0.00    -0.354 N 
ATOM     41  C   UNL     1       1.193  16.298  -2.142  1.00  0.00     0.074 A 
ATOM     42  C   UNL     1       0.307  15.534  -2.990  1.00  0.00     0.031 C 
ATOM     43  C   UNL     1       6.295  12.458  -1.522  1.00  0.00     0.029 A 
ATOM     44  C   UNL     1       6.131  13.816  -0.999  1.00  0.00     0.049 A 
ATOM     45  H   UNL     1       4.456  15.038  -1.194  1.00  0.00     0.167 HD
ATOM     46  C   UNL     1       0.883  17.505  -1.618  1.00  0.00     0.037 A 
ATOM     47  C   UNL     1       7.045  14.509  -0.286  1.00  0.00     0.037 A 
ATOM     48  C   UNL     1       1.762  18.278  -0.787  1.00  0.00     0.049 A 
ATOM     49  C   UNL     1       6.721  15.908   0.190  1.00  0.00     0.074 A 
ATOM     50  C   UNL     1       1.526  19.507  -0.199  1.00  0.00     0.029 A 
ATOM     51  N   UNL     1       3.050  17.904  -0.439  1.00  0.00    -0.354 N 
ATOM     52  N   UNL     1       5.605  16.584   0.074  1.00  0.00    -0.248 NA
ATOM     53  C   UNL     1       7.789  16.642   0.891  1.00  0.00     0.031 C 
ATOM     54  C   UNL     1       2.693  19.907   0.456  1.00  0.00     0.029 A 
ATOM     55  C   UNL     1       3.637  18.901   0.322  1.00  0.00     0.049 A 
ATOM     56  H   UNL     1       3.483  17.058  -0.694  1.00  0.00     0.167 HD
ATOM     57  C   UNL     1       5.826  17.806   0.701  1.00  0.00     0.074 A 
ATOM     58  C   UNL     1       7.179  17.775   1.213  1.00  0.00     0.031 C 
ATOM     59  C   UNL     1       4.983  18.859   0.835  1.00  0.00     0.037 A 
BRANCH  46  60
ATOM     60  C   UNL     1      -0.467  18.073  -1.937  1.00  0.00     0.064 A 
ATOM     61  C   UNL     1      -1.637  17.532  -1.384  1.00  0.00     0.173 A 
ATOM     62  C   UNL     1      -0.588  19.203  -2.760  1.00  0.00     0.173 A 
ATOM     63  F   UNL     1      -1.574  16.441  -0.606  1.00  0.00    -0.203 F 
ATOM     64  C   UNL     1      -2.881  18.093  -1.655  1.00  0.00     0.198 A 
ATOM     65  C   UNL     1      -1.831  19.779  -3.003  1.00  0.00     0.198 A 
ATOM     66  F   UNL     1       0.501  19.758  -3.312  1.00  0.00    -0.203 F 
ATOM     67  F   UNL     1      -3.990  17.536  -1.147  1.00  0.00    -0.200 F 
ATOM     68  C   UNL     1      -2.977  19.221  -2.455  1.00  0.00     0.200 A 
ATOM     69  F   UNL     1      -1.920  20.878  -3.765  1.00  0.00    -0.200 F 
ATOM     70  F   UNL     1      -4.174  19.771  -2.700  1.00  0.00    -0.200 F 
ENDBRANCH  46  60
BRANCH  47  71
ATOM     71  C   UNL     1       8.366  13.897   0.027  1.00  0.00     0.064 A 
ATOM     72  C   UNL     1       8.718  13.575   1.346  1.00  0.00     0.173 A 
ATOM     73  C   UNL     1       9.311  13.639  -0.978  1.00  0.00     0.173 A 
ATOM     74  F   UNL     1       7.867  13.836   2.348  1.00  0.00    -0.203 F 
ATOM     75  C   UNL     1       9.963  13.022   1.647  1.00  0.00     0.198 A 
ATOM     76  C   UNL     1      10.544  13.061  -0.679  1.00  0.00     0.198 A 
ATOM     77  F   UNL     1       9.034  13.944  -2.254  1.00  0.00    -0.203 F 
ATOM     78  F   UNL     1      10.287  12.762   2.921  1.00  0.00    -0.200 F 
ATOM     79  C   UNL     1      10.871  12.757   0.633  1.00  0.00     0.200 A 
ATOM     80  F   UNL     1      11.416  12.802  -1.663  1.00  0.00    -0.200 F 
ATOM     81  F   UNL     1      12.063  12.218   0.922  1.00  0.00    -0.200 F 
ENDBRANCH  47  71
BRANCH  59  82
ATOM     82  C   UNL     1       5.472  20.082   1.557  1.00  0.00     0.064 A 
ATOM     83  C   UNL     1       6.384  20.963   0.959  1.00  0.00     0.173 A 
ATOM     84  C   UNL     1       4.917  20.451   2.793  1.00  0.00     0.173 A 
ATOM     85  F   UNL     1       6.948  20.654  -0.218  1.00  0.00    -0.203 F 
ATOM     86  C   UNL     1       6.718  22.170   1.569  1.00  0.00     0.198 A 
ATOM     87  C   UNL     1       5.231  21.671   3.386  1.00  0.00     0.198 A 
ATOM     88  F   UNL     1       4.029  19.649   3.402  1.00  0.00    -0.203 F 
ATOM     89  F   UNL     1       7.601  22.991   0.985  1.00  0.00    -0.200 F 
ATOM     90  C   UNL     1       6.130  22.530   2.773  1.00  0.00     0.200 A 
ATOM     91  F   UNL     1       4.644  22.027   4.537  1.00  0.00    -0.200 F 
ATOM     92  F   UNL     1       6.426  23.708   3.339  1.00  0.00    -0.200 F 
ENDBRANCH  59  82
ENDBRANCH  33  34
ENDBRANCH  26  28
ENDBRANCH  25  26
ENDBRANCH  24  25
ENDBRANCH  23  24
ENDBRANCH  22  23
ENDBRANCH   1  22
TORSDOF 17
