REMARK SMILES C[NH2+][C@]1(C(=O)OCCOCCOCCOC(=O)c2ccc(-c3c4nc(c(-c5c(F)c(F)c(F)c(F)c5F)c5ccc([nH]5)c(-c5c(F)c(F)c(F)c(F)c5F)c5nc(c(-c6c(F)c(F)c(F)c(F)c6F)c6ccc3[nH]6)C=C5)C=C4)cc2)CCC[C@@H](Sc2nccn2C)C1
REMARK SMILES IDX 10 1 9 2 8 3 7 4 6 5 4 6 5 7 3 8 81 9 92 10 82 11 84 12
REMARK SMILES IDX 83 13 2 14 1 15 85 18 86 19 87 20 90 21 88 22 89 23 91 24
REMARK SMILES IDX 11 25 12 26 13 27 14 28 15 29 16 30 17 31 18 32 19 33 80 34
REMARK SMILES IDX 20 35 79 36 21 37 22 38 23 39 73 40 24 41 78 42 72 43 74 44
REMARK SMILES IDX 25 45 77 46 71 47 70 48 26 50 58 51 38 52 57 53 39 54 42 55
REMARK SMILES IDX 56 56 75 57 40 58 41 59 55 61 76 62 43 63 27 64 28 65 36 66
REMARK SMILES IDX 29 67 30 68 34 69 37 70 31 71 32 72 35 73 33 74 59 75 60 76
REMARK SMILES IDX 68 77 61 78 62 79 66 80 69 81 63 82 64 83 67 84 65 85 44 86
REMARK SMILES IDX 45 87 53 88 46 89 47 90 51 91 54 92 48 93 49 94 52 95 50 96
REMARK H PARENT 2 16 2 17 74 49 42 60
REMARK Flexibility Score: inf
ROOT
ATOM      1  C   UNL     1       2.092  -0.037  -2.276  1.00  0.00     0.188 C 
ENDROOT
BRANCH   1   2
ATOM      2  O   UNL     1       3.357   0.471  -1.882  1.00  0.00    -0.376 OA
BRANCH   2   3
ATOM      3  C   UNL     1       3.518   0.928  -0.541  1.00  0.00     0.202 C 
BRANCH   3   4
ATOM      4  C   UNL     1       2.491   1.907   0.062  1.00  0.00     0.261 C 
BRANCH   4   5
ATOM      5  O   UNL     1       1.108   1.482   0.063  1.00  0.00    -0.459 OA
BRANCH   5   6
ATOM      6  C   UNL     1       0.275   2.192  -0.747  1.00  0.00     0.368 C 
ATOM      7  O   UNL     1       0.658   3.116  -1.464  1.00  0.00    -0.245 OA
BRANCH   6   8
ATOM      8  C   UNL     1      -1.238   1.753  -0.694  1.00  0.00     0.195 C 
ATOM      9  C   UNL     1      -1.596   0.514   0.172  1.00  0.00     0.081 C 
ATOM     10  C   UNL     1      -1.894   2.983  -0.018  1.00  0.00     0.096 C 
ATOM     11  C   UNL     1      -3.112   0.344   0.344  1.00  0.00     0.008 C 
ATOM     12  C   UNL     1      -3.371   2.848   0.346  1.00  0.00     0.061 C 
ATOM     13  C   UNL     1      -3.710   1.540   1.065  1.00  0.00     0.015 C 
BRANCH   8  14
ATOM     14  N   UNL     1      -1.606   1.414  -2.097  1.00  0.00    -0.335 N 
ATOM     15  C   UNL     1      -2.357   2.382  -2.864  1.00  0.00     0.331 C 
ATOM     16  H   UNL     1      -0.737   1.237  -2.603  1.00  0.00     0.347 HD
ATOM     17  H   UNL     1      -2.239   0.620  -2.006  1.00  0.00     0.347 HD
ENDBRANCH   8  14
BRANCH  12  18
ATOM     18  S   UNL     1      -3.947   4.308   1.300  1.00  0.00    -0.084 SA
BRANCH  18  19
ATOM     19  C   UNL     1      -3.113   4.101   2.806  1.00  0.00     0.167 A 
ATOM     20  N   UNL     1      -1.808   4.101   2.954  1.00  0.00    -0.231 NA
ATOM     21  N   UNL     1      -3.750   3.860   3.992  1.00  0.00    -0.329 N 
ATOM     22  C   UNL     1      -1.587   3.829   4.276  1.00  0.00     0.132 A 
ATOM     23  C   UNL     1      -2.778   3.672   4.943  1.00  0.00     0.108 A 
ATOM     24  C   UNL     1      -5.165   3.774   4.252  1.00  0.00     0.152 C 
ENDBRANCH  18  19
ENDBRANCH  12  18
ENDBRANCH   6   8
ENDBRANCH   5   6
ENDBRANCH   4   5
ENDBRANCH   3   4
ENDBRANCH   2   3
ENDBRANCH   1   2
BRANCH   1  25
ATOM     25  C   UNL     1       1.369  -1.004  -1.335  1.00  0.00     0.188 C 
BRANCH  25  26
ATOM     26  O   UNL     1       2.011  -1.235  -0.106  1.00  0.00    -0.376 OA
BRANCH  26  27
ATOM     27  C   UNL     1       2.289  -2.556   0.317  1.00  0.00     0.202 C 
BRANCH  27  28
ATOM     28  C   UNL     1       3.016  -3.527  -0.634  1.00  0.00     0.261 C 
BRANCH  28  29
ATOM     29  O   UNL     1       2.541  -3.602  -1.990  1.00  0.00    -0.460 OA
BRANCH  29  30
ATOM     30  C   UNL     1       1.320  -4.151  -2.198  1.00  0.00     0.338 C 
ATOM     31  O   UNL     1       0.603  -4.678  -1.362  1.00  0.00    -0.246 OA
BRANCH  30  32
ATOM     32  C   UNL     1       0.869  -3.738  -3.555  1.00  0.00     0.060 A 
ATOM     33  C   UNL     1      -0.356  -3.061  -3.681  1.00  0.00     0.016 A 
ATOM     34  C   UNL     1       1.671  -3.937  -4.680  1.00  0.00     0.016 A 
ATOM     35  C   UNL     1      -0.795  -2.614  -4.931  1.00  0.00     0.010 A 
ATOM     36  C   UNL     1       1.218  -3.513  -5.936  1.00  0.00     0.010 A 
ATOM     37  C   UNL     1      -0.031  -2.879  -6.074  1.00  0.00    -0.014 A 
BRANCH  37  38
ATOM     38  C   UNL     1      -0.623  -2.701  -7.427  1.00  0.00     0.031 A 
ATOM     39  C   UNL     1      -1.188  -3.916  -8.114  1.00  0.00     0.074 A 
ATOM     40  C   UNL     1      -0.673  -1.507  -8.043  1.00  0.00     0.049 A 
ATOM     41  N   UNL     1      -1.671  -4.047  -9.324  1.00  0.00    -0.248 NA
ATOM     42  C   UNL     1      -1.205  -5.157  -7.323  1.00  0.00     0.031 C 
ATOM     43  C   UNL     1      -0.214  -0.241  -7.479  1.00  0.00     0.029 A 
ATOM     44  N   UNL     1      -1.124  -1.173  -9.299  1.00  0.00    -0.354 N 
ATOM     45  C   UNL     1      -2.035  -5.382  -9.441  1.00  0.00     0.074 A 
ATOM     46  C   UNL     1      -1.690  -6.028  -8.194  1.00  0.00     0.031 C 
ATOM     47  C   UNL     1      -0.386   0.730  -8.395  1.00  0.00     0.029 A 
ATOM     48  C   UNL     1      -0.932   0.148  -9.622  1.00  0.00     0.049 A 
ATOM     49  H   UNL     1      -1.545  -1.821  -9.910  1.00  0.00     0.167 HD
ATOM     50  C   UNL     1      -2.613  -6.015 -10.490  1.00  0.00     0.037 A 
ATOM     51  C   UNL     1      -1.143   0.802 -10.783  1.00  0.00     0.037 A 
ATOM     52  C   UNL     1      -2.953  -5.379 -11.735  1.00  0.00     0.049 A 
ATOM     53  C   UNL     1      -1.704   0.057 -11.971  1.00  0.00     0.074 A 
ATOM     54  C   UNL     1      -3.552  -5.935 -12.852  1.00  0.00     0.029 A 
ATOM     55  N   UNL     1      -2.714  -4.046 -12.033  1.00  0.00    -0.354 N 
ATOM     56  N   UNL     1      -2.065  -1.200 -12.070  1.00  0.00    -0.248 NA
ATOM     57  C   UNL     1      -1.890   0.826 -13.211  1.00  0.00     0.031 C 
ATOM     58  C   UNL     1      -3.618  -4.956 -13.847  1.00  0.00     0.029 A 
ATOM     59  C   UNL     1      -3.127  -3.769 -13.327  1.00  0.00     0.049 A 
ATOM     60  H   UNL     1      -2.311  -3.392 -11.416  1.00  0.00     0.167 HD
ATOM     61  C   UNL     1      -2.549  -1.361 -13.364  1.00  0.00     0.074 A 
ATOM     62  C   UNL     1      -2.449  -0.071 -14.011  1.00  0.00     0.031 C 
ATOM     63  C   UNL     1      -3.035  -2.478 -13.961  1.00  0.00     0.037 A 
BRANCH  50  64
ATOM     64  C   UNL     1      -2.884  -7.485 -10.346  1.00  0.00     0.064 A 
ATOM     65  C   UNL     1      -3.869  -7.974  -9.474  1.00  0.00     0.173 A 
ATOM     66  C   UNL     1      -2.165  -8.416 -11.111  1.00  0.00     0.173 A 
ATOM     67  F   UNL     1      -4.574  -7.128  -8.708  1.00  0.00    -0.203 F 
ATOM     68  C   UNL     1      -4.102  -9.342  -9.352  1.00  0.00     0.198 A 
ATOM     69  C   UNL     1      -2.425  -9.780 -11.012  1.00  0.00     0.198 A 
ATOM     70  F   UNL     1      -1.214  -8.002 -11.962  1.00  0.00    -0.203 F 
ATOM     71  F   UNL     1      -5.009  -9.789  -8.472  1.00  0.00    -0.200 F 
ATOM     72  C   UNL     1      -3.386 -10.242 -10.126  1.00  0.00     0.200 A 
ATOM     73  F   UNL     1      -1.742 -10.647 -11.772  1.00  0.00    -0.200 F 
ATOM     74  F   UNL     1      -3.617 -11.557 -10.013  1.00  0.00    -0.200 F 
ENDBRANCH  50  64
BRANCH  51  75
ATOM     75  C   UNL     1      -0.801   2.247 -10.898  1.00  0.00     0.064 A 
ATOM     76  C   UNL     1      -1.796   3.216 -11.089  1.00  0.00     0.173 A 
ATOM     77  C   UNL     1       0.532   2.683 -10.863  1.00  0.00     0.173 A 
ATOM     78  F   UNL     1      -3.083   2.847 -11.166  1.00  0.00    -0.203 F 
ATOM     79  C   UNL     1      -1.470   4.561 -11.259  1.00  0.00     0.198 A 
ATOM     80  C   UNL     1       0.855   4.032 -11.000  1.00  0.00     0.198 A 
ATOM     81  F   UNL     1       1.525   1.797 -10.696  1.00  0.00    -0.203 F 
ATOM     82  F   UNL     1      -2.438   5.456 -11.500  1.00  0.00    -0.200 F 
ATOM     83  C   UNL     1      -0.146   4.969 -11.208  1.00  0.00     0.200 A 
ATOM     84  F   UNL     1       2.135   4.422 -10.944  1.00  0.00    -0.200 F 
ATOM     85  F   UNL     1       0.166   6.261 -11.373  1.00  0.00    -0.200 F 
ENDBRANCH  51  75
BRANCH  63  86
ATOM     86  C   UNL     1      -3.547  -2.354 -15.370  1.00  0.00     0.064 A 
ATOM     87  C   UNL     1      -2.687  -2.140 -16.458  1.00  0.00     0.173 A 
ATOM     88  C   UNL     1      -4.918  -2.500 -15.640  1.00  0.00     0.173 A 
ATOM     89  F   UNL     1      -1.370  -1.983 -16.256  1.00  0.00    -0.203 F 
ATOM     90  C   UNL     1      -3.183  -2.049 -17.757  1.00  0.00     0.198 A 
ATOM     91  C   UNL     1      -5.405  -2.443 -16.944  1.00  0.00     0.198 A 
ATOM     92  F   UNL     1      -5.785  -2.716 -14.640  1.00  0.00    -0.203 F 
ATOM     93  F   UNL     1      -2.348  -1.793 -18.774  1.00  0.00    -0.200 F 
ATOM     94  C   UNL     1      -4.538  -2.208 -18.000  1.00  0.00     0.200 A 
ATOM     95  F   UNL     1      -6.713  -2.617 -17.177  1.00  0.00    -0.200 F 
ATOM     96  F   UNL     1      -5.011  -2.130 -19.251  1.00  0.00    -0.200 F 
ENDBRANCH  63  86
ENDBRANCH  37  38
ENDBRANCH  30  32
ENDBRANCH  29  30
ENDBRANCH  28  29
ENDBRANCH  27  28
ENDBRANCH  26  27
ENDBRANCH  25  26
ENDBRANCH   1  25
TORSDOF 20
