REMARK SMILES CC(C)n1ccc(C#CC(=O)OCCOCCOCCOC(=O)c2ccc(-c3c4nc(c(-c5c(F)c(F)c(F)c(F)c5F)c5ccc([nH]5)c(-c5c(F)c(F)c(F)c(F)c5F)c5nc(c(-c6c(F)c(F)c(F)c(F)c6F)c6ccc3[nH]6)C=C5)C=C4)cc2)n1
REMARK SMILES IDX 16 1 15 2 14 3 13 4 12 5 10 6 11 7 9 8 8 9 7 10 4 11 5 12
REMARK SMILES IDX 87 13 6 14 2 15 1 16 3 17 17 18 18 19 19 20 20 21 21 22
REMARK SMILES IDX 22 23 23 24 24 25 25 26 86 27 26 28 85 29 27 30 28 31 29 32
REMARK SMILES IDX 79 33 30 34 84 35 78 36 80 37 31 38 83 39 77 40 76 41 32 43
REMARK SMILES IDX 64 44 44 45 63 46 45 47 48 48 62 49 81 50 46 51 47 52 61 54
REMARK SMILES IDX 82 55 49 56 33 57 34 58 42 59 35 60 36 61 40 62 43 63 37 64
REMARK SMILES IDX 38 65 41 66 39 67 65 68 66 69 74 70 67 71 68 72 72 73 75 74
REMARK SMILES IDX 69 75 70 76 73 77 71 78 50 79 51 80 59 81 52 82 53 83 57 84
REMARK SMILES IDX 60 85 54 86 55 87 58 88 56 89
REMARK H PARENT 80 42 48 53
REMARK Flexibility Score: inf
ROOT
ATOM      1  C   UNL     1      -8.019   4.002  -0.887  1.00  0.00     0.188 C 
ENDROOT
BRANCH   1   2
ATOM      2  O   UNL     1      -8.997   5.015  -0.684  1.00  0.00    -0.376 OA
BRANCH   2   3
ATOM      3  C   UNL     1      -8.617   6.385  -0.785  1.00  0.00     0.202 C 
BRANCH   3   4
ATOM      4  C   UNL     1      -7.317   6.892  -0.129  1.00  0.00     0.262 C 
BRANCH   4   5
ATOM      5  O   UNL     1      -6.159   6.105  -0.439  1.00  0.00    -0.454 OA
BRANCH   5   6
ATOM      6  C   UNL     1      -5.421   5.666   0.609  1.00  0.00     0.384 C 
ATOM      7  O   UNL     1      -5.550   5.997   1.776  1.00  0.00    -0.236 OA
BRANCH   6   8
ATOM      8  C   UNL     1      -4.503   4.617   0.237  1.00  0.00     0.024 C 
ATOM      9  C   UNL     1      -3.783   3.691  -0.012  1.00  0.00    -0.033 C 
BRANCH   9  10
ATOM     10  C   UNL     1      -2.923   2.577  -0.242  1.00  0.00     0.135 A 
ATOM     11  N   UNL     1      -1.080   1.563  -0.432  1.00  0.00    -0.269 N 
ATOM     12  C   UNL     1      -2.032   0.589  -0.563  1.00  0.00     0.110 A 
ATOM     13  N   UNL     1      -1.608   2.791  -0.245  1.00  0.00    -0.164 NA
ATOM     14  C   UNL     1      -3.249   1.223  -0.437  1.00  0.00     0.059 A 
BRANCH  11  15
ATOM     15  C   UNL     1       0.373   1.432  -0.490  1.00  0.00     0.101 C 
ATOM     16  C   UNL     1       0.892   0.102   0.058  1.00  0.00     0.033 C 
ATOM     17  C   UNL     1       0.878   1.675  -1.911  1.00  0.00     0.033 C 
ENDBRANCH  11  15
ENDBRANCH   9  10
ENDBRANCH   6   8
ENDBRANCH   5   6
ENDBRANCH   4   5
ENDBRANCH   3   4
ENDBRANCH   2   3
ENDBRANCH   1   2
BRANCH   1  18
ATOM     18  C   UNL     1      -7.167   3.993  -2.179  1.00  0.00     0.188 C 
BRANCH  18  19
ATOM     19  O   UNL     1      -7.033   5.251  -2.803  1.00  0.00    -0.376 OA
BRANCH  19  20
ATOM     20  C   UNL     1      -7.723   5.589  -3.994  1.00  0.00     0.202 C 
BRANCH  20  21
ATOM     21  C   UNL     1      -9.132   5.104  -4.342  1.00  0.00     0.261 C 
BRANCH  21  22
ATOM     22  O   UNL     1      -9.658   4.072  -3.535  1.00  0.00    -0.460 OA
BRANCH  22  23
ATOM     23  C   UNL     1      -9.381   2.834  -3.986  1.00  0.00     0.338 C 
ATOM     24  O   UNL     1      -8.574   2.528  -4.849  1.00  0.00    -0.246 OA
BRANCH  23  25
ATOM     25  C   UNL     1     -10.283   1.881  -3.336  1.00  0.00     0.060 A 
ATOM     26  C   UNL     1     -10.036   0.532  -3.594  1.00  0.00     0.016 A 
ATOM     27  C   UNL     1     -11.499   2.332  -2.800  1.00  0.00     0.016 A 
ATOM     28  C   UNL     1     -11.102  -0.333  -3.566  1.00  0.00     0.010 A 
ATOM     29  C   UNL     1     -12.567   1.467  -2.780  1.00  0.00     0.010 A 
ATOM     30  C   UNL     1     -12.370   0.179  -3.270  1.00  0.00    -0.014 A 
BRANCH  30  31
ATOM     31  C   UNL     1     -13.495  -0.678  -3.566  1.00  0.00     0.031 A 
ATOM     32  C   UNL     1     -13.697  -1.788  -2.616  1.00  0.00     0.074 A 
ATOM     33  C   UNL     1     -14.300  -0.445  -4.618  1.00  0.00     0.049 A 
ATOM     34  N   UNL     1     -13.688  -3.056  -2.858  1.00  0.00    -0.248 NA
ATOM     35  C   UNL     1     -13.832  -1.433  -1.197  1.00  0.00     0.031 C 
ATOM     36  C   UNL     1     -14.371   0.754  -5.458  1.00  0.00     0.029 A 
ATOM     37  N   UNL     1     -15.310  -1.221  -5.093  1.00  0.00    -0.354 N 
ATOM     38  C   UNL     1     -13.977  -3.665  -1.643  1.00  0.00     0.074 A 
ATOM     39  C   UNL     1     -13.931  -2.636  -0.636  1.00  0.00     0.031 C 
ATOM     40  C   UNL     1     -15.507   0.711  -6.189  1.00  0.00     0.029 A 
ATOM     41  C   UNL     1     -16.167  -0.563  -5.957  1.00  0.00     0.049 A 
ATOM     42  H   UNL     1     -15.421  -2.167  -4.844  1.00  0.00     0.167 HD
ATOM     43  C   UNL     1     -14.454  -4.934  -1.583  1.00  0.00     0.037 A 
ATOM     44  C   UNL     1     -17.378  -1.008  -6.366  1.00  0.00     0.037 A 
ATOM     45  C   UNL     1     -14.127  -5.690  -2.762  1.00  0.00     0.049 A 
ATOM     46  C   UNL     1     -17.429  -2.474  -6.131  1.00  0.00     0.074 A 
ATOM     47  C   UNL     1     -12.943  -6.063  -3.370  1.00  0.00     0.029 A 
ATOM     48  N   UNL     1     -15.107  -5.920  -3.693  1.00  0.00    -0.354 N 
ATOM     49  N   UNL     1     -16.743  -3.353  -6.808  1.00  0.00    -0.248 NA
ATOM     50  C   UNL     1     -17.952  -2.942  -4.855  1.00  0.00     0.031 C 
ATOM     51  C   UNL     1     -13.218  -6.049  -4.769  1.00  0.00     0.029 A 
ATOM     52  C   UNL     1     -14.555  -5.685  -4.926  1.00  0.00     0.049 A 
ATOM     53  H   UNL     1     -16.033  -6.202  -3.511  1.00  0.00     0.167 HD
ATOM     54  C   UNL     1     -16.403  -4.328  -5.880  1.00  0.00     0.074 A 
ATOM     55  C   UNL     1     -17.263  -4.079  -4.730  1.00  0.00     0.031 C 
ATOM     56  C   UNL     1     -15.265  -5.068  -6.021  1.00  0.00     0.037 A 
BRANCH  43  57
ATOM     57  C   UNL     1     -15.504  -5.362  -0.595  1.00  0.00     0.064 A 
ATOM     58  C   UNL     1     -15.805  -6.728  -0.452  1.00  0.00     0.173 A 
ATOM     59  C   UNL     1     -16.419  -4.465   0.001  1.00  0.00     0.173 A 
ATOM     60  F   UNL     1     -15.020  -7.662  -1.010  1.00  0.00    -0.203 F 
ATOM     61  C   UNL     1     -16.968  -7.159   0.190  1.00  0.00     0.198 A 
ATOM     62  C   UNL     1     -17.547  -4.901   0.691  1.00  0.00     0.198 A 
ATOM     63  F   UNL     1     -16.322  -3.139  -0.155  1.00  0.00    -0.203 F 
ATOM     64  F   UNL     1     -17.277  -8.463   0.196  1.00  0.00    -0.200 F 
ATOM     65  C   UNL     1     -17.838  -6.246   0.758  1.00  0.00     0.200 A 
ATOM     66  F   UNL     1     -18.387  -3.999   1.216  1.00  0.00    -0.200 F 
ATOM     67  F   UNL     1     -18.981  -6.655   1.323  1.00  0.00    -0.200 F 
ENDBRANCH  43  57
BRANCH  44  68
ATOM     68  C   UNL     1     -18.585  -0.203  -6.657  1.00  0.00     0.064 A 
ATOM     69  C   UNL     1     -19.658  -0.742  -7.382  1.00  0.00     0.173 A 
ATOM     70  C   UNL     1     -18.820   1.029  -6.013  1.00  0.00     0.173 A 
ATOM     71  F   UNL     1     -19.535  -1.935  -7.982  1.00  0.00    -0.203 F 
ATOM     72  C   UNL     1     -20.896  -0.095  -7.447  1.00  0.00     0.198 A 
ATOM     73  C   UNL     1     -20.049   1.681  -6.090  1.00  0.00     0.198 A 
ATOM     74  F   UNL     1     -17.891   1.581  -5.218  1.00  0.00    -0.203 F 
ATOM     75  F   UNL     1     -21.917  -0.670  -8.098  1.00  0.00    -0.200 F 
ATOM     76  C   UNL     1     -21.092   1.113  -6.796  1.00  0.00     0.200 A 
ATOM     77  F   UNL     1     -20.234   2.831  -5.427  1.00  0.00    -0.200 F 
ATOM     78  F   UNL     1     -22.293   1.707  -6.815  1.00  0.00    -0.200 F 
ENDBRANCH  44  68
BRANCH  56  79
ATOM     79  C   UNL     1     -14.553  -5.003  -7.341  1.00  0.00     0.064 A 
ATOM     80  C   UNL     1     -13.963  -3.831  -7.846  1.00  0.00     0.173 A 
ATOM     81  C   UNL     1     -14.338  -6.193  -8.049  1.00  0.00     0.173 A 
ATOM     82  F   UNL     1     -14.034  -2.678  -7.169  1.00  0.00    -0.203 F 
ATOM     83  C   UNL     1     -13.236  -3.845  -9.035  1.00  0.00     0.198 A 
ATOM     84  C   UNL     1     -13.579  -6.210  -9.216  1.00  0.00     0.198 A 
ATOM     85  F   UNL     1     -14.825  -7.353  -7.579  1.00  0.00    -0.203 F 
ATOM     86  F   UNL     1     -12.694  -2.711  -9.504  1.00  0.00    -0.200 F 
ATOM     87  C   UNL     1     -13.039  -5.035  -9.715  1.00  0.00     0.200 A 
ATOM     88  F   UNL     1     -13.348  -7.372  -9.844  1.00  0.00    -0.200 F 
ATOM     89  F   UNL     1     -12.305  -5.056 -10.836  1.00  0.00    -0.200 F 
ENDBRANCH  56  79
ENDBRANCH  30  31
ENDBRANCH  23  25
ENDBRANCH  22  23
ENDBRANCH  21  22
ENDBRANCH  20  21
ENDBRANCH  19  20
ENDBRANCH  18  19
ENDBRANCH   1  18
TORSDOF 19
