REMARK SMILES O=C(OCCOCCOCCOC(=O)c1cc(SCc2csc(-c3ccsc3)n2)ccn1)c1ccc(-c2c3nc(c(-c4c(F)c(F)c(F)c(F)c4F)c4ccc([nH]4)c(-c4c(F)c(F)c(F)c(F)c4F)c4nc(c(-c5c(F)c(F)c(F)c(F)c5F)c5ccc2[nH]5)C=C4)C=C3)cc1
REMARK SMILES IDX 8 1 7 2 6 3 5 4 4 5 3 6 2 7 1 8 33 9 34 10 95 11 35 12 94 13
REMARK SMILES IDX 36 14 37 15 38 16 88 17 39 18 93 19 87 20 89 21 40 22 92 23
REMARK SMILES IDX 86 24 85 25 41 27 73 28 53 29 72 30 54 31 57 32 71 33 90 34
REMARK SMILES IDX 55 35 56 36 70 38 91 39 58 40 42 41 43 42 51 43 44 44 45 45
REMARK SMILES IDX 49 46 52 47 46 48 47 49 50 50 48 51 74 52 75 53 83 54 76 55
REMARK SMILES IDX 77 56 81 57 84 58 78 59 79 60 82 61 80 62 59 63 60 64 68 65
REMARK SMILES IDX 61 66 62 67 66 68 69 69 63 70 64 71 67 72 65 73 9 74 10 75
REMARK SMILES IDX 11 76 12 77 13 78 14 79 15 80 16 81 32 82 17 83 31 84 30 85
REMARK SMILES IDX 18 86 19 87 20 88 21 89 29 90 22 91 23 92 24 93 25 94 28 95
REMARK SMILES IDX 26 96 27 97
REMARK H PARENT 89 26 57 37
REMARK Flexibility Score: inf
ROOT
ATOM      1  C   UNL     1       1.674   0.726   3.047  1.00  0.00     0.188 C 
ENDROOT
BRANCH   1   2
ATOM      2  C   UNL     1       2.303   1.041   1.688  1.00  0.00     0.188 C 
BRANCH   2   3
ATOM      3  O   UNL     1       3.623   0.491   1.563  1.00  0.00    -0.376 OA
BRANCH   3   4
ATOM      4  C   UNL     1       4.517   1.318   0.811  1.00  0.00     0.202 C 
BRANCH   4   5
ATOM      5  C   UNL     1       4.368   1.219  -0.715  1.00  0.00     0.261 C 
BRANCH   5   6
ATOM      6  O   UNL     1       3.014   0.974  -1.127  1.00  0.00    -0.460 OA
BRANCH   6   7
ATOM      7  C   UNL     1       2.435  -0.215  -1.428  1.00  0.00     0.338 C 
ATOM      8  O   UNL     1       1.271  -0.217  -1.828  1.00  0.00    -0.246 OA
BRANCH   7   9
ATOM      9  C   UNL     1       3.148  -1.529  -1.357  1.00  0.00     0.060 A 
ATOM     10  C   UNL     1       4.220  -1.823  -0.512  1.00  0.00     0.016 A 
ATOM     11  C   UNL     1       2.659  -2.562  -2.176  1.00  0.00     0.016 A 
ATOM     12  C   UNL     1       4.877  -3.050  -0.576  1.00  0.00     0.010 A 
ATOM     13  C   UNL     1       3.272  -3.819  -2.199  1.00  0.00     0.010 A 
ATOM     14  C   UNL     1       4.419  -4.051  -1.430  1.00  0.00    -0.014 A 
BRANCH  14  15
ATOM     15  C   UNL     1       5.208  -5.294  -1.573  1.00  0.00     0.031 A 
ATOM     16  C   UNL     1       5.995  -5.511  -2.829  1.00  0.00     0.074 A 
ATOM     17  C   UNL     1       5.270  -6.180  -0.563  1.00  0.00     0.049 A 
ATOM     18  N   UNL     1       6.735  -6.531  -3.172  1.00  0.00    -0.248 NA
ATOM     19  C   UNL     1       5.951  -4.432  -3.829  1.00  0.00     0.031 C 
ATOM     20  C   UNL     1       4.586  -6.028   0.716  1.00  0.00     0.029 A 
ATOM     21  N   UNL     1       5.940  -7.372  -0.442  1.00  0.00    -0.354 N 
ATOM     22  C   UNL     1       7.214  -6.234  -4.440  1.00  0.00     0.074 A 
ATOM     23  C   UNL     1       6.686  -4.939  -4.807  1.00  0.00     0.031 C 
ATOM     24  C   UNL     1       4.867  -7.089   1.488  1.00  0.00     0.029 A 
ATOM     25  C   UNL     1       5.734  -8.001   0.762  1.00  0.00     0.049 A 
ATOM     26  H   UNL     1       6.514  -7.742  -1.152  1.00  0.00     0.167 HD
ATOM     27  C   UNL     1       8.017  -6.988  -5.225  1.00  0.00     0.037 A 
ATOM     28  C   UNL     1       6.188  -9.181   1.227  1.00  0.00     0.037 A 
ATOM     29  C   UNL     1       8.539  -8.271  -4.840  1.00  0.00     0.049 A 
ATOM     30  C   UNL     1       7.091  -9.983   0.334  1.00  0.00     0.074 A 
ATOM     31  C   UNL     1       9.328  -9.139  -5.571  1.00  0.00     0.029 A 
ATOM     32  N   UNL     1       8.322  -8.867  -3.605  1.00  0.00    -0.354 N 
ATOM     33  N   UNL     1       7.531  -9.693  -0.866  1.00  0.00    -0.248 NA
ATOM     34  C   UNL     1       7.560 -11.273   0.855  1.00  0.00     0.031 C 
ATOM     35  C   UNL     1       9.558 -10.278  -4.792  1.00  0.00     0.029 A 
ATOM     36  C   UNL     1       8.949 -10.100  -3.560  1.00  0.00     0.049 A 
ATOM     37  H   UNL     1       7.800  -8.471  -2.870  1.00  0.00     0.167 HD
ATOM     38  C   UNL     1       8.320 -10.765  -1.248  1.00  0.00     0.074 A 
ATOM     39  C   UNL     1       8.346 -11.685  -0.129  1.00  0.00     0.031 C 
ATOM     40  C   UNL     1       8.945 -10.988  -2.428  1.00  0.00     0.037 A 
BRANCH  27  41
ATOM     41  C   UNL     1       8.316  -6.464  -6.596  1.00  0.00     0.064 A 
ATOM     42  C   UNL     1       9.197  -5.394  -6.806  1.00  0.00     0.173 A 
ATOM     43  C   UNL     1       7.699  -7.040  -7.716  1.00  0.00     0.173 A 
ATOM     44  F   UNL     1       9.789  -4.791  -5.764  1.00  0.00    -0.203 F 
ATOM     45  C   UNL     1       9.433  -4.905  -8.089  1.00  0.00     0.198 A 
ATOM     46  C   UNL     1       7.955  -6.565  -8.999  1.00  0.00     0.198 A 
ATOM     47  F   UNL     1       6.841  -8.060  -7.565  1.00  0.00    -0.203 F 
ATOM     48  F   UNL     1      10.241  -3.850  -8.264  1.00  0.00    -0.200 F 
ATOM     49  C   UNL     1       8.817  -5.494  -9.184  1.00  0.00     0.200 A 
ATOM     50  F   UNL     1       7.360  -7.136 -10.055  1.00  0.00    -0.200 F 
ATOM     51  F   UNL     1       9.043  -5.021 -10.417  1.00  0.00    -0.200 F 
ENDBRANCH  27  41
BRANCH  28  52
ATOM     52  C   UNL     1       5.813  -9.684   2.580  1.00  0.00     0.064 A 
ATOM     53  C   UNL     1       6.779  -9.853   3.583  1.00  0.00     0.173 A 
ATOM     54  C   UNL     1       4.492 -10.033   2.898  1.00  0.00     0.173 A 
ATOM     55  F   UNL     1       8.060  -9.538   3.335  1.00  0.00    -0.203 F 
ATOM     56  C   UNL     1       6.444 -10.334   4.847  1.00  0.00     0.198 A 
ATOM     57  C   UNL     1       4.155 -10.511   4.165  1.00  0.00     0.198 A 
ATOM     58  F   UNL     1       3.523  -9.898   1.981  1.00  0.00    -0.203 F 
ATOM     59  F   UNL     1       7.396 -10.473   5.780  1.00  0.00    -0.200 F 
ATOM     60  C   UNL     1       5.131 -10.661   5.139  1.00  0.00     0.200 A 
ATOM     61  F   UNL     1       2.881 -10.819   4.445  1.00  0.00    -0.200 F 
ATOM     62  F   UNL     1       4.808 -11.116   6.357  1.00  0.00    -0.200 F 
ENDBRANCH  28  52
BRANCH  40  63
ATOM     63  C   UNL     1       9.689 -12.281  -2.551  1.00  0.00     0.064 A 
ATOM     64  C   UNL     1       9.007 -13.500  -2.677  1.00  0.00     0.173 A 
ATOM     65  C   UNL     1      11.090 -12.300  -2.552  1.00  0.00     0.173 A 
ATOM     66  F   UNL     1       7.665 -13.529  -2.655  1.00  0.00    -0.203 F 
ATOM     67  C   UNL     1       9.704 -14.699  -2.772  1.00  0.00     0.198 A 
ATOM     68  C   UNL     1      11.784 -13.499  -2.677  1.00  0.00     0.198 A 
ATOM     69  F   UNL     1      11.782 -11.158  -2.432  1.00  0.00    -0.203 F 
ATOM     70  F   UNL     1       9.034 -15.858  -2.837  1.00  0.00    -0.200 F 
ATOM     71  C   UNL     1      11.091 -14.697  -2.779  1.00  0.00     0.200 A 
ATOM     72  F   UNL     1      13.123 -13.497  -2.689  1.00  0.00    -0.200 F 
ATOM     73  F   UNL     1      11.762 -15.853  -2.871  1.00  0.00    -0.200 F 
ENDBRANCH  40  63
ENDBRANCH  14  15
ENDBRANCH   7   9
ENDBRANCH   6   7
ENDBRANCH   5   6
ENDBRANCH   4   5
ENDBRANCH   3   4
ENDBRANCH   2   3
ENDBRANCH   1   2
BRANCH   1  74
ATOM     74  O   UNL     1       2.212   1.451   4.155  1.00  0.00    -0.376 OA
BRANCH  74  75
ATOM     75  C   UNL     1       3.602   1.295   4.411  1.00  0.00     0.202 C 
BRANCH  75  76
ATOM     76  C   UNL     1       4.037  -0.034   5.027  1.00  0.00     0.261 C 
BRANCH  76  77
ATOM     77  O   UNL     1       3.616  -1.198   4.308  1.00  0.00    -0.459 OA
BRANCH  77  78
ATOM     78  C   UNL     1       2.660  -1.923   4.938  1.00  0.00     0.357 C 
ATOM     79  O   UNL     1       2.099  -1.656   5.995  1.00  0.00    -0.244 OA
BRANCH  78  80
ATOM     80  C   UNL     1       2.522  -3.238   4.294  1.00  0.00     0.149 A 
ATOM     81  C   UNL     1       3.067  -4.303   4.989  1.00  0.00     0.051 A 
ATOM     82  N   UNL     1       1.814  -3.347   3.142  1.00  0.00    -0.249 NA
ATOM     83  C   UNL     1       2.920  -5.577   4.471  1.00  0.00     0.012 A 
ATOM     84  C   UNL     1       1.622  -4.606   2.696  1.00  0.00     0.113 A 
ATOM     85  C   UNL     1       2.139  -5.737   3.322  1.00  0.00     0.035 A 
BRANCH  83  86
ATOM     86  S   UNL     1       3.683  -7.001   5.237  1.00  0.00    -0.120 SA
BRANCH  86  87
ATOM     87  C   UNL     1       5.187  -6.301   6.045  1.00  0.00     0.132 C 
BRANCH  87  88
ATOM     88  C   UNL     1       6.134  -5.660   5.074  1.00  0.00     0.062 A 
ATOM     89  C   UNL     1       6.963  -6.311   4.184  1.00  0.00     0.091 A 
ATOM     90  N   UNL     1       6.281  -4.275   5.058  1.00  0.00    -0.240 NA
ATOM     91  S   UNL     1       7.731  -5.201   3.143  1.00  0.00    -0.122 S 
ATOM     92  C   UNL     1       7.092  -3.912   4.081  1.00  0.00     0.124 A 
BRANCH  92  93
ATOM     93  C   UNL     1       7.486  -2.483   3.854  1.00  0.00     0.021 A 
ATOM     94  C   UNL     1       7.430  -1.473   4.859  1.00  0.00     0.023 A 
ATOM     95  C   UNL     1       7.984  -1.994   2.664  1.00  0.00     0.076 A 
ATOM     96  C   UNL     1       7.915  -0.264   4.408  1.00  0.00     0.065 A 
ATOM     97  S   UNL     1       8.366  -0.327   2.759  1.00  0.00    -0.152 S 
ENDBRANCH  92  93
ENDBRANCH  87  88
ENDBRANCH  86  87
ENDBRANCH  83  86
ENDBRANCH  78  80
ENDBRANCH  77  78
ENDBRANCH  76  77
ENDBRANCH  75  76
ENDBRANCH  74  75
ENDBRANCH   1  74
TORSDOF 21
