REMARK SMILES COC(=O)[C@H]1CCN(S(=O)(=O)N2CCC[C@H](C(=O)OCCOCCOCCOC(=O)c3ccc(-c4c5nc(c(-c6c(F)c(F)c(F)c(F)c6F)c6ccc([nH]6)c(-c6c(F)c(F)c(F)c(F)c6F)c6nc(c(-c7c(F)c(F)c(F)c(F)c7F)c7ccc4[nH]7)C=C6)C=C5)cc3)C2)C1
REMARK SMILES IDX 23 1 22 2 21 3 20 4 19 5 17 6 18 7 16 8 12 9 13 10 94 11
REMARK SMILES IDX 14 12 15 13 9 14 10 15 11 16 8 17 5 18 6 19 95 20 7 21 3 22
REMARK SMILES IDX 4 23 2 24 1 25 24 26 25 27 26 28 27 29 28 30 29 31 30 32
REMARK SMILES IDX 31 33 32 34 93 35 33 36 92 37 34 38 35 39 36 40 86 41 37 42
REMARK SMILES IDX 91 43 85 44 87 45 38 46 90 47 84 48 83 49 39 51 71 52 51 53
REMARK SMILES IDX 70 54 52 55 55 56 69 57 88 58 53 59 54 60 68 62 89 63 56 64
REMARK SMILES IDX 40 65 41 66 49 67 42 68 43 69 47 70 50 71 44 72 45 73 48 74
REMARK SMILES IDX 46 75 72 76 73 77 81 78 74 79 75 80 79 81 82 82 76 83 77 84
REMARK SMILES IDX 80 85 78 86 57 87 58 88 66 89 59 90 60 91 64 92 67 93 61 94
REMARK SMILES IDX 62 95 65 96 63 97
REMARK H PARENT 87 50 55 61
REMARK Flexibility Score: inf
ROOT
ATOM      1  C   UNL     1       3.977   9.239  -8.394  1.00  0.00     0.188 C 
ENDROOT
BRANCH   1   2
ATOM      2  O   UNL     1       2.924   9.801  -9.162  1.00  0.00    -0.376 OA
BRANCH   2   3
ATOM      3  C   UNL     1       1.803  10.341  -8.456  1.00  0.00     0.202 C 
BRANCH   3   4
ATOM      4  C   UNL     1       1.113   9.453  -7.406  1.00  0.00     0.261 C 
BRANCH   4   5
ATOM      5  O   UNL     1       1.939   9.149  -6.259  1.00  0.00    -0.463 OA
BRANCH   5   6
ATOM      6  C   UNL     1       2.294   7.852  -6.117  1.00  0.00     0.310 C 
ATOM      7  O   UNL     1       1.931   6.950  -6.870  1.00  0.00    -0.252 OA
BRANCH   6   8
ATOM      8  C   UNL     1       3.301   7.577  -5.016  1.00  0.00     0.114 C 
ATOM      9  N   UNL     1       1.590   7.106  -3.350  1.00  0.00    -0.188 NA
ATOM     10  C   UNL     1       2.031   8.134  -2.392  1.00  0.00     0.103 C 
ATOM     11  C   UNL     1       2.674   6.512  -4.147  1.00  0.00     0.118 C 
ATOM     12  C   UNL     1       2.805   9.229  -3.131  1.00  0.00     0.018 C 
ATOM     13  C   UNL     1       3.845   8.675  -4.098  1.00  0.00     0.018 C 
BRANCH   9  14
ATOM     14  S   UNL     1       0.263   6.165  -2.977  1.00  0.00     0.282 S 
ATOM     15  O   UNL     1      -0.118   5.411  -4.142  1.00  0.00    -0.195 OA
ATOM     16  O   UNL     1      -0.698   7.003  -2.291  1.00  0.00    -0.195 OA
BRANCH  14  17
ATOM     17  N   UNL     1       0.878   5.068  -1.833  1.00  0.00    -0.188 NA
ATOM     18  C   UNL     1       0.000   2.799  -1.714  1.00  0.00     0.116 C 
ATOM     19  C   UNL     1       1.146   2.871  -2.710  1.00  0.00     0.033 C 
ATOM     20  C   UNL     1      -0.217   4.232  -1.224  1.00  0.00     0.118 C 
ATOM     21  C   UNL     1       1.909   4.086  -2.245  1.00  0.00     0.104 C 
BRANCH  18  22
ATOM     22  C   UNL     1      -1.296   2.242  -2.249  1.00  0.00     0.310 C 
ATOM     23  O   UNL     1      -2.175   1.802  -1.518  1.00  0.00    -0.252 OA
BRANCH  22  24
ATOM     24  O   UNL     1      -1.381   2.333  -3.598  1.00  0.00    -0.469 OA
ATOM     25  C   UNL     1      -2.616   1.891  -4.160  1.00  0.00     0.282 C 
ENDBRANCH  22  24
ENDBRANCH  18  22
ENDBRANCH  14  17
ENDBRANCH   9  14
ENDBRANCH   6   8
ENDBRANCH   5   6
ENDBRANCH   4   5
ENDBRANCH   3   4
ENDBRANCH   2   3
ENDBRANCH   1   2
BRANCH   1  26
ATOM     26  C   UNL     1       4.660  10.173  -7.394  1.00  0.00     0.188 C 
BRANCH  26  27
ATOM     27  O   UNL     1       3.787  11.057  -6.727  1.00  0.00    -0.376 OA
BRANCH  27  28
ATOM     28  C   UNL     1       4.188  12.383  -6.402  1.00  0.00     0.202 C 
BRANCH  28  29
ATOM     29  C   UNL     1       5.147  13.192  -7.306  1.00  0.00     0.261 C 
BRANCH  29  30
ATOM     30  O   UNL     1       6.349  12.547  -7.772  1.00  0.00    -0.460 OA
BRANCH  30  31
ATOM     31  C   UNL     1       7.167  11.985  -6.851  1.00  0.00     0.338 C 
ATOM     32  O   UNL     1       7.138  12.176  -5.649  1.00  0.00    -0.246 OA
BRANCH  31  33
ATOM     33  C   UNL     1       7.909  10.866  -7.510  1.00  0.00     0.060 A 
ATOM     34  C   UNL     1       8.008   9.650  -6.816  1.00  0.00     0.016 A 
ATOM     35  C   UNL     1       8.399  10.949  -8.818  1.00  0.00     0.016 A 
ATOM     36  C   UNL     1       8.619   8.536  -7.405  1.00  0.00     0.010 A 
ATOM     37  C   UNL     1       9.030   9.838  -9.401  1.00  0.00     0.010 A 
ATOM     38  C   UNL     1       9.170   8.632  -8.690  1.00  0.00    -0.014 A 
BRANCH  38  39
ATOM     39  C   UNL     1      10.050   7.549  -9.213  1.00  0.00     0.031 A 
ATOM     40  C   UNL     1      11.542   7.729  -9.110  1.00  0.00     0.074 A 
ATOM     41  C   UNL     1       9.560   6.422  -9.762  1.00  0.00     0.049 A 
ATOM     42  N   UNL     1      12.511   6.973  -9.561  1.00  0.00    -0.248 NA
ATOM     43  C   UNL     1      12.000   8.933  -8.400  1.00  0.00     0.031 C 
ATOM     44  C   UNL     1       8.145   6.085  -9.888  1.00  0.00     0.029 A 
ATOM     45  N   UNL     1      10.211   5.353 -10.336  1.00  0.00    -0.354 N 
ATOM     46  C   UNL     1      13.689   7.617  -9.204  1.00  0.00     0.074 A 
ATOM     47  C   UNL     1      13.315   8.836  -8.522  1.00  0.00     0.031 C 
ATOM     48  C   UNL     1       8.032   4.902 -10.519  1.00  0.00     0.029 A 
ATOM     49  C   UNL     1       9.365   4.415 -10.878  1.00  0.00     0.049 A 
ATOM     50  H   UNL     1      11.192   5.268 -10.356  1.00  0.00     0.167 HD
ATOM     51  C   UNL     1      14.969   7.228  -9.421  1.00  0.00     0.037 A 
ATOM     52  C   UNL     1       9.632   3.312 -11.609  1.00  0.00     0.037 A 
ATOM     53  C   UNL     1      15.349   6.016 -10.100  1.00  0.00     0.049 A 
ATOM     54  C   UNL     1      11.065   2.943 -11.915  1.00  0.00     0.074 A 
ATOM     55  C   UNL     1      16.621   5.524 -10.336  1.00  0.00     0.029 A 
ATOM     56  N   UNL     1      14.461   5.115 -10.668  1.00  0.00    -0.354 N 
ATOM     57  N   UNL     1      12.173   3.538 -11.545  1.00  0.00    -0.248 NA
ATOM     58  C   UNL     1      11.282   1.747 -12.745  1.00  0.00     0.031 C 
ATOM     59  C   UNL     1      16.506   4.364 -11.107  1.00  0.00     0.029 A 
ATOM     60  C   UNL     1      15.160   4.092 -11.290  1.00  0.00     0.049 A 
ATOM     61  H   UNL     1      13.480   5.190 -10.633  1.00  0.00     0.167 HD
ATOM     62  C   UNL     1      13.213   2.779 -12.074  1.00  0.00     0.074 A 
ATOM     63  C   UNL     1      12.605   1.668 -12.773  1.00  0.00     0.031 C 
ATOM     64  C   UNL     1      14.551   2.987 -11.987  1.00  0.00     0.037 A 
BRANCH  51  65
ATOM     65  C   UNL     1      16.062   8.147  -8.954  1.00  0.00     0.064 A 
ATOM     66  C   UNL     1      16.333   8.347  -7.592  1.00  0.00     0.173 A 
ATOM     67  C   UNL     1      16.872   8.812  -9.887  1.00  0.00     0.173 A 
ATOM     68  F   UNL     1      15.581   7.746  -6.658  1.00  0.00    -0.203 F 
ATOM     69  C   UNL     1      17.353   9.202  -7.183  1.00  0.00     0.198 A 
ATOM     70  C   UNL     1      17.913   9.639  -9.475  1.00  0.00     0.198 A 
ATOM     71  F   UNL     1      16.660   8.652 -11.203  1.00  0.00    -0.203 F 
ATOM     72  F   UNL     1      17.558   9.420  -5.876  1.00  0.00    -0.200 F 
ATOM     73  C   UNL     1      18.147   9.841  -8.124  1.00  0.00     0.200 A 
ATOM     74  F   UNL     1      18.688  10.242 -10.387  1.00  0.00    -0.200 F 
ATOM     75  F   UNL     1      19.133  10.657  -7.728  1.00  0.00    -0.200 F 
ENDBRANCH  51  65
BRANCH  52  76
ATOM     76  C   UNL     1       8.516   2.482 -12.140  1.00  0.00     0.064 A 
ATOM     77  C   UNL     1       8.311   1.167 -11.696  1.00  0.00     0.173 A 
ATOM     78  C   UNL     1       7.651   2.974 -13.130  1.00  0.00     0.173 A 
ATOM     79  F   UNL     1       9.131   0.635 -10.778  1.00  0.00    -0.203 F 
ATOM     80  C   UNL     1       7.296   0.375 -12.232  1.00  0.00     0.198 A 
ATOM     81  C   UNL     1       6.617   2.193 -13.641  1.00  0.00     0.198 A 
ATOM     82  F   UNL     1       7.811   4.220 -13.601  1.00  0.00    -0.203 F 
ATOM     83  F   UNL     1       7.158  -0.895 -11.828  1.00  0.00    -0.200 F 
ATOM     84  C   UNL     1       6.445   0.891 -13.197  1.00  0.00     0.200 A 
ATOM     85  F   UNL     1       5.793   2.699 -14.568  1.00  0.00    -0.200 F 
ATOM     86  F   UNL     1       5.468   0.129 -13.709  1.00  0.00    -0.200 F 
ENDBRANCH  52  76
BRANCH  64  87
ATOM     87  C   UNL     1      15.460   1.981 -12.639  1.00  0.00     0.064 A 
ATOM     88  C   UNL     1      15.557   1.866 -14.034  1.00  0.00     0.173 A 
ATOM     89  C   UNL     1      16.283   1.153 -11.858  1.00  0.00     0.173 A 
ATOM     90  F   UNL     1      14.786   2.623 -14.829  1.00  0.00    -0.203 F 
ATOM     91  C   UNL     1      16.422   0.945 -14.621  1.00  0.00     0.198 A 
ATOM     92  C   UNL     1      17.172   0.258 -12.448  1.00  0.00     0.198 A 
ATOM     93  F   UNL     1      16.240   1.226 -10.519  1.00  0.00    -0.203 F 
ATOM     94  F   UNL     1      16.461   0.820 -15.955  1.00  0.00    -0.200 F 
ATOM     95  C   UNL     1      17.235   0.149 -13.828  1.00  0.00     0.200 A 
ATOM     96  F   UNL     1      17.970  -0.497 -11.680  1.00  0.00    -0.200 F 
ATOM     97  F   UNL     1      18.075  -0.729 -14.395  1.00  0.00    -0.200 F 
ENDBRANCH  64  87
ENDBRANCH  38  39
ENDBRANCH  31  33
ENDBRANCH  30  31
ENDBRANCH  29  30
ENDBRANCH  28  29
ENDBRANCH  27  28
ENDBRANCH  26  27
ENDBRANCH   1  26
TORSDOF 21
