REMARK SMILES CC(C)[C@H](NC(=O)CCNC(=O)c1ccoc1)C(=O)OCCOCCOCCOC(=O)c1ccc(-c2c3nc(c(-c4c(F)c(F)c(F)c(F)c4F)c4ccc([nH]4)c(-c4c(F)c(F)c(F)c(F)c4F)c4nc(c(-c5c(F)c(F)c(F)c(F)c5F)c5ccc2[nH]5)C=C4)C=C3)cc1
REMARK SMILES IDX 23 1 22 2 21 3 20 4 18 5 19 6 4 7 2 8 1 9 3 10 5 11 6 12
REMARK SMILES IDX 7 14 8 15 9 16 10 17 11 18 12 20 13 21 14 22 17 23 15 24
REMARK SMILES IDX 16 25 24 26 25 27 26 28 27 29 28 30 29 31 30 32 31 33 32 34
REMARK SMILES IDX 33 35 94 36 34 37 93 38 35 39 36 40 37 41 87 42 38 43 92 44
REMARK SMILES IDX 86 45 88 46 39 47 91 48 85 49 84 50 40 52 72 53 52 54 71 55
REMARK SMILES IDX 53 56 56 57 70 58 89 59 54 60 55 61 69 63 90 64 57 65 41 66
REMARK SMILES IDX 42 67 50 68 43 69 44 70 48 71 51 72 45 73 46 74 49 75 47 76
REMARK SMILES IDX 73 77 74 78 82 79 75 80 76 81 80 82 83 83 77 84 78 85 81 86
REMARK SMILES IDX 79 87 58 88 59 89 67 90 60 91 61 92 65 93 68 94 62 95 63 96
REMARK SMILES IDX 66 97 64 98
REMARK H PARENT 5 13 10 19 88 51 56 62
REMARK Flexibility Score: inf
ROOT
ATOM      1  O   UNL     1      -1.124   5.573  -2.417  1.00  0.00    -0.376 OA
ENDROOT
BRANCH   1   2
ATOM      2  C   UNL     1      -2.183   5.795  -1.497  1.00  0.00     0.202 C 
BRANCH   2   3
ATOM      3  C   UNL     1      -1.875   5.403  -0.047  1.00  0.00     0.261 C 
BRANCH   3   4
ATOM      4  O   UNL     1      -1.297   4.099   0.148  1.00  0.00    -0.462 OA
BRANCH   4   5
ATOM      5  C   UNL     1      -2.152   3.051   0.060  1.00  0.00     0.328 C 
ATOM      6  O   UNL     1      -3.314   3.150  -0.319  1.00  0.00    -0.250 OA
BRANCH   5   7
ATOM      7  C   UNL     1      -1.567   1.762   0.677  1.00  0.00     0.194 C 
BRANCH   7   8
ATOM      8  C   UNL     1      -1.969   1.724   2.179  1.00  0.00     0.017 C 
ATOM      9  C   UNL     1      -1.419   2.895   3.002  1.00  0.00     0.010 C 
ATOM     10  C   UNL     1      -3.488   1.631   2.342  1.00  0.00     0.010 C 
ENDBRANCH   7   8
BRANCH   7  11
ATOM     11  N   UNL     1      -0.115   1.536   0.584  1.00  0.00    -0.342 N 
ATOM     12  C   UNL     1       0.587   0.384   0.362  1.00  0.00     0.222 C 
ATOM     13  H   UNL     1       0.438   2.342   0.700  1.00  0.00     0.164 HD
ATOM     14  O   UNL     1       1.798   0.385   0.593  1.00  0.00    -0.275 OA
BRANCH  12  15
ATOM     15  C   UNL     1      -0.074  -0.863  -0.217  1.00  0.00     0.121 C 
BRANCH  15  16
ATOM     16  C   UNL     1      -0.599  -1.872   0.812  1.00  0.00     0.126 C 
BRANCH  16  17
ATOM     17  N   UNL     1      -1.950  -1.536   1.230  1.00  0.00    -0.351 N 
ATOM     18  C   UNL     1      -3.157  -2.136   1.028  1.00  0.00     0.254 C 
ATOM     19  H   UNL     1      -2.004  -0.712   1.764  1.00  0.00     0.163 HD
ATOM     20  O   UNL     1      -4.155  -1.419   1.025  1.00  0.00    -0.269 OA
BRANCH  18  21
ATOM     21  C   UNL     1      -3.260  -3.565   0.899  1.00  0.00     0.077 A 
ATOM     22  C   UNL     1      -2.593  -4.609   1.596  1.00  0.00     0.056 A 
ATOM     23  C   UNL     1      -4.234  -4.188   0.145  1.00  0.00     0.208 A 
ATOM     24  C   UNL     1      -3.223  -5.778   1.234  1.00  0.00     0.195 A 
ATOM     25  O   UNL     1      -4.207  -5.530   0.333  1.00  0.00    -0.472 OA
ENDBRANCH  18  21
ENDBRANCH  16  17
ENDBRANCH  15  16
ENDBRANCH  12  15
ENDBRANCH   7  11
ENDBRANCH   5   7
ENDBRANCH   4   5
ENDBRANCH   3   4
ENDBRANCH   2   3
ENDBRANCH   1   2
BRANCH   1  26
ATOM     26  C   UNL     1      -0.941   4.218  -2.797  1.00  0.00     0.188 C 
BRANCH  26  27
ATOM     27  C   UNL     1       0.322   3.553  -2.220  1.00  0.00     0.188 C 
BRANCH  27  28
ATOM     28  O   UNL     1       1.256   4.298  -1.455  1.00  0.00    -0.376 OA
BRANCH  28  29
ATOM     29  C   UNL     1       1.656   5.581  -1.920  1.00  0.00     0.202 C 
BRANCH  29  30
ATOM     30  C   UNL     1       2.248   5.720  -3.333  1.00  0.00     0.261 C 
BRANCH  30  31
ATOM     31  O   UNL     1       1.516   5.036  -4.363  1.00  0.00    -0.460 OA
BRANCH  31  32
ATOM     32  C   UNL     1       2.139   3.949  -4.893  1.00  0.00     0.338 C 
ATOM     33  O   UNL     1       3.255   3.545  -4.660  1.00  0.00    -0.246 OA
BRANCH  32  34
ATOM     34  C   UNL     1       1.151   3.169  -5.674  1.00  0.00     0.060 A 
ATOM     35  C   UNL     1       0.934   1.829  -5.314  1.00  0.00     0.016 A 
ATOM     36  C   UNL     1       0.466   3.734  -6.748  1.00  0.00     0.016 A 
ATOM     37  C   UNL     1       0.039   1.042  -6.037  1.00  0.00     0.010 A 
ATOM     38  C   UNL     1      -0.394   2.932  -7.502  1.00  0.00     0.010 A 
ATOM     39  C   UNL     1      -0.586   1.578  -7.168  1.00  0.00    -0.014 A 
BRANCH  39  40
ATOM     40  C   UNL     1      -1.226   0.680  -8.156  1.00  0.00     0.031 A 
ATOM     41  C   UNL     1      -0.361   0.133  -9.256  1.00  0.00     0.074 A 
ATOM     42  C   UNL     1      -2.537   0.391  -8.110  1.00  0.00     0.049 A 
ATOM     43  N   UNL     1      -0.702  -0.505 -10.345  1.00  0.00    -0.248 NA
ATOM     44  C   UNL     1       1.089   0.344  -9.109  1.00  0.00     0.031 C 
ATOM     45  C   UNL     1      -3.459   0.798  -7.055  1.00  0.00     0.029 A 
ATOM     46  N   UNL     1      -3.321  -0.299  -9.001  1.00  0.00    -0.354 N 
ATOM     47  C   UNL     1       0.486  -0.750 -11.020  1.00  0.00     0.074 A 
ATOM     48  C   UNL     1       1.556  -0.193 -10.224  1.00  0.00     0.031 C 
ATOM     49  C   UNL     1      -4.697   0.381  -7.376  1.00  0.00     0.029 A 
ATOM     50  C   UNL     1      -4.657  -0.280  -8.681  1.00  0.00     0.049 A 
ATOM     51  H   UNL     1      -2.962  -0.763  -9.791  1.00  0.00     0.167 HD
ATOM     52  C   UNL     1       0.666  -1.375 -12.205  1.00  0.00     0.037 A 
ATOM     53  C   UNL     1      -5.721  -0.705  -9.390  1.00  0.00     0.037 A 
ATOM     54  C   UNL     1      -0.402  -1.916 -12.999  1.00  0.00     0.049 A 
ATOM     55  C   UNL     1      -5.507  -1.316 -10.753  1.00  0.00     0.074 A 
ATOM     56  C   UNL     1      -0.329  -2.563 -14.219  1.00  0.00     0.029 A 
ATOM     57  N   UNL     1      -1.743  -1.862 -12.649  1.00  0.00    -0.354 N 
ATOM     58  N   UNL     1      -4.385  -1.539 -11.395  1.00  0.00    -0.248 NA
ATOM     59  C   UNL     1      -6.709  -1.722 -11.498  1.00  0.00     0.031 C 
ATOM     60  C   UNL     1      -1.632  -2.863 -14.628  1.00  0.00     0.029 A 
ATOM     61  C   UNL     1      -2.510  -2.447 -13.640  1.00  0.00     0.049 A 
ATOM     62  H   UNL     1      -2.095  -1.467 -11.819  1.00  0.00     0.167 HD
ATOM     63  C   UNL     1      -4.741  -2.139 -12.596  1.00  0.00     0.074 A 
ATOM     64  C   UNL     1      -6.185  -2.246 -12.598  1.00  0.00     0.031 C 
ATOM     65  C   UNL     1      -3.945  -2.567 -13.606  1.00  0.00     0.037 A 
BRANCH  52  66
ATOM     66  C   UNL     1       2.066  -1.462 -12.731  1.00  0.00     0.064 A 
ATOM     67  C   UNL     1       3.014  -2.325 -12.165  1.00  0.00     0.173 A 
ATOM     68  C   UNL     1       2.459  -0.677 -13.825  1.00  0.00     0.173 A 
ATOM     69  F   UNL     1       2.692  -3.079 -11.102  1.00  0.00    -0.203 F 
ATOM     70  C   UNL     1       4.313  -2.384 -12.662  1.00  0.00     0.198 A 
ATOM     71  C   UNL     1       3.751  -0.758 -14.336  1.00  0.00     0.198 A 
ATOM     72  F   UNL     1       1.589   0.167 -14.399  1.00  0.00    -0.203 F 
ATOM     73  F   UNL     1       5.217  -3.183 -12.077  1.00  0.00    -0.200 F 
ATOM     74  C   UNL     1       4.678  -1.606 -13.751  1.00  0.00     0.200 A 
ATOM     75  F   UNL     1       4.099  -0.011 -15.393  1.00  0.00    -0.200 F 
ATOM     76  F   UNL     1       5.928  -1.667 -14.230  1.00  0.00    -0.200 F 
ENDBRANCH  52  66
BRANCH  53  77
ATOM     77  C   UNL     1      -7.096  -0.533  -8.849  1.00  0.00     0.064 A 
ATOM     78  C   UNL     1      -7.867  -1.641  -8.472  1.00  0.00     0.173 A 
ATOM     79  C   UNL     1      -7.677   0.738  -8.727  1.00  0.00     0.173 A 
ATOM     80  F   UNL     1      -7.366  -2.878  -8.600  1.00  0.00    -0.203 F 
ATOM     81  C   UNL     1      -9.172  -1.486  -8.010  1.00  0.00     0.198 A 
ATOM     82  C   UNL     1      -8.973   0.894  -8.240  1.00  0.00     0.198 A 
ATOM     83  F   UNL     1      -6.985   1.831  -9.083  1.00  0.00    -0.203 F 
ATOM     84  F   UNL     1      -9.904  -2.565  -7.702  1.00  0.00    -0.200 F 
ATOM     85  C   UNL     1      -9.723  -0.218  -7.888  1.00  0.00     0.200 A 
ATOM     86  F   UNL     1      -9.498   2.121  -8.119  1.00  0.00    -0.200 F 
ATOM     87  F   UNL     1     -10.978  -0.070  -7.445  1.00  0.00    -0.200 F 
ENDBRANCH  53  77
BRANCH  65  88
ATOM     88  C   UNL     1      -4.599  -3.243 -14.774  1.00  0.00     0.064 A 
ATOM     89  C   UNL     1      -5.296  -2.517 -15.750  1.00  0.00     0.173 A 
ATOM     90  C   UNL     1      -4.445  -4.625 -14.963  1.00  0.00     0.173 A 
ATOM     91  F   UNL     1      -5.479  -1.196 -15.607  1.00  0.00    -0.203 F 
ATOM     92  C   UNL     1      -5.823  -3.154 -16.871  1.00  0.00     0.198 A 
ATOM     93  C   UNL     1      -4.951  -5.253 -16.097  1.00  0.00     0.198 A 
ATOM     94  F   UNL     1      -3.778  -5.360 -14.061  1.00  0.00    -0.203 F 
ATOM     95  F   UNL     1      -6.508  -2.446 -17.780  1.00  0.00    -0.200 F 
ATOM     96  C   UNL     1      -5.641  -4.518 -17.049  1.00  0.00     0.200 A 
ATOM     97  F   UNL     1      -4.761  -6.568 -16.274  1.00  0.00    -0.200 F 
ATOM     98  F   UNL     1      -6.132  -5.124 -18.138  1.00  0.00    -0.200 F 
ENDBRANCH  65  88
ENDBRANCH  39  40
ENDBRANCH  32  34
ENDBRANCH  31  32
ENDBRANCH  30  31
ENDBRANCH  29  30
ENDBRANCH  28  29
ENDBRANCH  27  28
ENDBRANCH  26  27
ENDBRANCH   1  26
TORSDOF 23
