REMARK SMILES Nc1ccc(-c2cc(Cl)cc3c2O[C@H](C(F)(F)F)C(C(=O)OCCOCCOCCOC(=O)c2ccc(-c4c5nc(c(-c6c(F)c(F)c(F)c(F)c6F)c6ccc([nH]6)c(-c6c(F)c(F)c(F)c(F)c6F)c6nc(c(-c7c(F)c(F)c(F)c(F)c7F)c7ccc4[nH]7)C=C6)C=C5)cc2)=C3)cc1
REMARK SMILES IDX 26 1 25 2 24 3 23 4 22 5 20 6 21 7 19 8 6 9 7 10 12 11 8 12
REMARK SMILES IDX 11 13 13 14 9 15 10 16 97 17 14 18 5 19 2 20 3 21 99 22 4 23
REMARK SMILES IDX 98 24 1 25 15 28 16 29 17 30 18 31 27 32 28 33 29 34 30 35
REMARK SMILES IDX 31 36 32 37 33 38 34 39 35 40 96 41 36 42 95 43 37 44 38 45
REMARK SMILES IDX 39 46 89 47 40 48 94 49 88 50 90 51 41 52 93 53 87 54 86 55
REMARK SMILES IDX 42 57 74 58 54 59 73 60 55 61 58 62 72 63 91 64 56 65 57 66
REMARK SMILES IDX 71 68 92 69 59 70 43 71 44 72 52 73 45 74 46 75 50 76 53 77
REMARK SMILES IDX 47 78 48 79 51 80 49 81 75 82 76 83 84 84 77 85 78 86 82 87
REMARK SMILES IDX 85 88 79 89 80 90 83 91 81 92 60 93 61 94 69 95 62 96 63 97
REMARK SMILES IDX 67 98 70 99 64 100 65 101 68 102 66 103
REMARK H PARENT 1 26 1 27 90 56 58 67
REMARK Flexibility Score: inf
ROOT
ATOM      1  C   UNL     1      -7.665  -1.443   5.445  1.00  0.00     0.188 C 
ENDROOT
BRANCH   1   2
ATOM      2  O   UNL     1      -8.136  -2.404   6.367  1.00  0.00    -0.376 OA
BRANCH   2   3
ATOM      3  C   UNL     1      -7.364  -3.546   6.702  1.00  0.00     0.202 C 
BRANCH   3   4
ATOM      4  C   UNL     1      -6.601  -4.344   5.643  1.00  0.00     0.261 C 
BRANCH   4   5
ATOM      5  O   UNL     1      -5.819  -3.542   4.750  1.00  0.00    -0.460 OA
BRANCH   5   6
ATOM      6  C   UNL     1      -6.177  -3.625   3.447  1.00  0.00     0.338 C 
ATOM      7  O   UNL     1      -7.063  -4.316   2.973  1.00  0.00    -0.246 OA
BRANCH   6   8
ATOM      8  C   UNL     1      -5.431  -2.623   2.664  1.00  0.00     0.087 C 
ATOM      9  C   UNL     1      -3.335  -0.049   0.112  1.00  0.00     0.026 A 
ATOM     10  C   UNL     1      -4.066   0.669  -0.853  1.00  0.00     0.033 A 
ATOM     11  C   UNL     1      -4.052  -0.845   1.034  1.00  0.00     0.135 A 
ATOM     12  C   UNL     1      -5.456   0.588  -0.904  1.00  0.00     0.042 A 
ATOM     13  C   UNL     1      -5.445  -0.963   0.942  1.00  0.00     0.019 A 
ATOM     14  O   UNL     1      -3.329  -1.469   2.016  1.00  0.00    -0.475 OA
ATOM     15  Cl  UNL     1      -6.323   1.474  -2.096  1.00  0.00    -0.084 Cl
ATOM     16  C   UNL     1      -6.148  -0.231  -0.018  1.00  0.00     0.032 A 
ATOM     17  C   UNL     1      -6.151  -1.901   1.796  1.00  0.00     0.027 C 
ATOM     18  C   UNL     1      -3.952  -2.465   2.866  1.00  0.00     0.316 C 
BRANCH   9  19
ATOM     19  C   UNL     1      -1.858  -0.011   0.088  1.00  0.00    -0.014 A 
ATOM     20  C   UNL     1       0.979   0.028   0.011  1.00  0.00     0.031 A 
ATOM     21  C   UNL     1       0.285  -1.179  -0.020  1.00  0.00     0.026 A 
ATOM     22  C   UNL     1       0.248   1.216   0.029  1.00  0.00     0.026 A 
ATOM     23  C   UNL     1      -1.112  -1.200   0.023  1.00  0.00     0.011 A 
ATOM     24  C   UNL     1      -1.152   1.200   0.081  1.00  0.00     0.011 A 
BRANCH  20  25
ATOM     25  N   UNL     1       2.359   0.047  -0.109  1.00  0.00    -0.399 N 
ATOM     26  H   UNL     1       2.864  -0.798  -0.121  1.00  0.00     0.156 HD
ATOM     27  H   UNL     1       2.835   0.906  -0.183  1.00  0.00     0.156 HD
ENDBRANCH  20  25
ENDBRANCH   9  19
BRANCH  18  28
ATOM     28  C   UNL     1      -3.189  -3.786   2.695  1.00  0.00     0.430 C 
ATOM     29  F   UNL     1      -1.856  -3.612   2.855  1.00  0.00    -0.167 F 
ATOM     30  F   UNL     1      -3.572  -4.710   3.607  1.00  0.00    -0.167 F 
ATOM     31  F   UNL     1      -3.383  -4.322   1.468  1.00  0.00    -0.167 F 
ENDBRANCH  18  28
ENDBRANCH   6   8
ENDBRANCH   5   6
ENDBRANCH   4   5
ENDBRANCH   3   4
ENDBRANCH   2   3
ENDBRANCH   1   2
BRANCH   1  32
ATOM     32  C   UNL     1      -6.324  -0.708   5.655  1.00  0.00     0.188 C 
BRANCH  32  33
ATOM     33  O   UNL     1      -5.549  -0.922   6.816  1.00  0.00    -0.376 OA
BRANCH  33  34
ATOM     34  C   UNL     1      -6.116  -0.673   8.095  1.00  0.00     0.202 C 
BRANCH  34  35
ATOM     35  C   UNL     1      -6.877   0.626   8.382  1.00  0.00     0.261 C 
BRANCH  35  36
ATOM     36  O   UNL     1      -7.947   0.889   7.464  1.00  0.00    -0.460 OA
BRANCH  36  37
ATOM     37  C   UNL     1      -7.822   2.036   6.743  1.00  0.00     0.338 C 
ATOM     38  O   UNL     1      -6.935   2.856   6.802  1.00  0.00    -0.246 OA
BRANCH  37  39
ATOM     39  C   UNL     1      -8.860   2.038   5.691  1.00  0.00     0.060 A 
ATOM     40  C   UNL     1     -10.214   1.972   6.020  1.00  0.00     0.016 A 
ATOM     41  C   UNL     1      -8.451   2.105   4.352  1.00  0.00     0.016 A 
ATOM     42  C   UNL     1     -11.166   1.992   4.999  1.00  0.00     0.010 A 
ATOM     43  C   UNL     1      -9.404   2.107   3.332  1.00  0.00     0.010 A 
ATOM     44  C   UNL     1     -10.768   2.070   3.651  1.00  0.00    -0.014 A 
BRANCH  44  45
ATOM     45  C   UNL     1     -11.789   2.273   2.596  1.00  0.00     0.031 A 
ATOM     46  C   UNL     1     -12.295   1.143   1.755  1.00  0.00     0.074 A 
ATOM     47  C   UNL     1     -12.265   3.518   2.413  1.00  0.00     0.049 A 
ATOM     48  N   UNL     1     -13.261   1.148   0.871  1.00  0.00    -0.248 NA
ATOM     49  C   UNL     1     -11.633  -0.159   1.919  1.00  0.00     0.031 C 
ATOM     50  C   UNL     1     -11.819   4.699   3.152  1.00  0.00     0.029 A 
ATOM     51  N   UNL     1     -13.229   3.996   1.564  1.00  0.00    -0.354 N 
ATOM     52  C   UNL     1     -13.347  -0.151   0.393  1.00  0.00     0.074 A 
ATOM     53  C   UNL     1     -12.298  -0.908   1.047  1.00  0.00     0.031 C 
ATOM     54  C   UNL     1     -12.528   5.762   2.746  1.00  0.00     0.029 A 
ATOM     55  C   UNL     1     -13.465   5.341   1.707  1.00  0.00     0.049 A 
ATOM     56  H   UNL     1     -13.706   3.430   0.915  1.00  0.00     0.167 HD
ATOM     57  C   UNL     1     -14.238  -0.662  -0.491  1.00  0.00     0.037 A 
ATOM     58  C   UNL     1     -14.346   6.144   1.082  1.00  0.00     0.037 A 
ATOM     59  C   UNL     1     -15.268   0.104  -1.150  1.00  0.00     0.049 A 
ATOM     60  C   UNL     1     -15.289   5.557   0.071  1.00  0.00     0.074 A 
ATOM     61  C   UNL     1     -16.242  -0.340  -2.029  1.00  0.00     0.029 A 
ATOM     62  N   UNL     1     -15.449   1.473  -1.016  1.00  0.00    -0.354 N 
ATOM     63  N   UNL     1     -15.421   4.310  -0.309  1.00  0.00    -0.248 NA
ATOM     64  C   UNL     1     -16.212   6.489  -0.592  1.00  0.00     0.031 C 
ATOM     65  C   UNL     1     -16.976   0.766  -2.468  1.00  0.00     0.029 A 
ATOM     66  C   UNL     1     -16.498   1.894  -1.822  1.00  0.00     0.049 A 
ATOM     67  H   UNL     1     -14.913   2.060  -0.435  1.00  0.00     0.167 HD
ATOM     68  C   UNL     1     -16.453   4.302  -1.238  1.00  0.00     0.074 A 
ATOM     69  C   UNL     1     -16.925   5.667  -1.350  1.00  0.00     0.031 C 
ATOM     70  C   UNL     1     -16.959   3.255  -1.934  1.00  0.00     0.037 A 
BRANCH  57  71
ATOM     71  C   UNL     1     -14.164  -2.131  -0.796  1.00  0.00     0.064 A 
ATOM     72  C   UNL     1     -14.570  -3.089   0.145  1.00  0.00     0.173 A 
ATOM     73  C   UNL     1     -13.786  -2.582  -2.070  1.00  0.00     0.173 A 
ATOM     74  F   UNL     1     -14.941  -2.709   1.378  1.00  0.00    -0.203 F 
ATOM     75  C   UNL     1     -14.592  -4.444  -0.175  1.00  0.00     0.198 A 
ATOM     76  C   UNL     1     -13.833  -3.935  -2.394  1.00  0.00     0.198 A 
ATOM     77  F   UNL     1     -13.401  -1.706  -3.010  1.00  0.00    -0.203 F 
ATOM     78  F   UNL     1     -14.966  -5.342   0.747  1.00  0.00    -0.200 F 
ATOM     79  C   UNL     1     -14.234  -4.865  -1.446  1.00  0.00     0.200 A 
ATOM     80  F   UNL     1     -13.505  -4.339  -3.630  1.00  0.00    -0.200 F 
ATOM     81  F   UNL     1     -14.278  -6.167  -1.760  1.00  0.00    -0.200 F 
ENDBRANCH  57  71
BRANCH  58  82
ATOM     82  C   UNL     1     -14.402   7.582   1.443  1.00  0.00     0.064 A 
ATOM     83  C   UNL     1     -15.489   8.100   2.158  1.00  0.00     0.173 A 
ATOM     84  C   UNL     1     -13.357   8.457   1.113  1.00  0.00     0.173 A 
ATOM     85  F   UNL     1     -16.519   7.303   2.481  1.00  0.00    -0.203 F 
ATOM     86  C   UNL     1     -15.534   9.443   2.524  1.00  0.00     0.198 A 
ATOM     87  C   UNL     1     -13.390   9.794   1.503  1.00  0.00     0.198 A 
ATOM     88  F   UNL     1     -12.292   8.006   0.435  1.00  0.00    -0.203 F 
ATOM     89  F   UNL     1     -16.599   9.921   3.182  1.00  0.00    -0.200 F 
ATOM     90  C   UNL     1     -14.480  10.287   2.204  1.00  0.00     0.200 A 
ATOM     91  F   UNL     1     -12.363  10.601   1.206  1.00  0.00    -0.200 F 
ATOM     92  F   UNL     1     -14.518  11.575   2.569  1.00  0.00    -0.200 F 
ENDBRANCH  58  82
BRANCH  70  93
ATOM     93  C   UNL     1     -18.091   3.535  -2.881  1.00  0.00     0.064 A 
ATOM     94  C   UNL     1     -17.884   4.223  -4.086  1.00  0.00     0.173 A 
ATOM     95  C   UNL     1     -19.383   3.058  -2.612  1.00  0.00     0.173 A 
ATOM     96  F   UNL     1     -16.671   4.713  -4.384  1.00  0.00    -0.203 F 
ATOM     97  C   UNL     1     -18.932   4.438  -4.978  1.00  0.00     0.198 A 
ATOM     98  C   UNL     1     -20.422   3.248  -3.519  1.00  0.00     0.198 A 
ATOM     99  F   UNL     1     -19.634   2.388  -1.477  1.00  0.00    -0.203 F 
ATOM    100  F   UNL     1     -18.720   5.132  -6.104  1.00  0.00    -0.200 F 
ATOM    101  C   UNL     1     -20.197   3.942  -4.698  1.00  0.00     0.200 A 
ATOM    102  F   UNL     1     -21.640   2.756  -3.254  1.00  0.00    -0.200 F 
ATOM    103  F   UNL     1     -21.201   4.136  -5.565  1.00  0.00    -0.200 F 
ENDBRANCH  70  93
ENDBRANCH  44  45
ENDBRANCH  37  39
ENDBRANCH  36  37
ENDBRANCH  35  36
ENDBRANCH  34  35
ENDBRANCH  33  34
ENDBRANCH  32  33
ENDBRANCH   1  32
TORSDOF 20
