REMARK SMILES COc1cc(C)cc2c1O[C@H](C(F)(F)F)C(C(=O)OCCOCCOCCOC(=O)c1ccc(-c3c4nc(c(-c5c(F)c(F)c(F)c(F)c5F)c5ccc([nH]5)c(-c5c(F)c(F)c(F)c(F)c5F)c5nc(c(-c6c(F)c(F)c(F)c(F)c6F)c6ccc3[nH]6)C=C5)C=C4)cc1)=C2
REMARK SMILES IDX 24 1 23 2 22 3 21 4 20 5 19 6 17 7 18 8 16 9 3 10 4 11 9 12
REMARK SMILES IDX 5 13 8 14 10 15 6 16 7 17 94 18 11 19 2 20 1 21 12 22 13 23
REMARK SMILES IDX 14 24 15 25 25 26 26 27 27 28 28 29 29 30 30 31 31 32 32 33
REMARK SMILES IDX 93 34 33 35 92 36 34 37 35 38 36 39 86 40 37 41 91 42 85 43
REMARK SMILES IDX 87 44 38 45 90 46 84 47 83 48 39 50 71 51 51 52 70 53 52 54
REMARK SMILES IDX 55 55 69 56 88 57 53 58 54 59 68 61 89 62 56 63 40 64 41 65
REMARK SMILES IDX 49 66 42 67 43 68 47 69 50 70 44 71 45 72 48 73 46 74 72 75
REMARK SMILES IDX 73 76 81 77 74 78 75 79 79 80 82 81 76 82 77 83 80 84 78 85
REMARK SMILES IDX 57 86 58 87 66 88 59 89 60 90 64 91 67 92 61 93 62 94 65 95
REMARK SMILES IDX 63 96
REMARK H PARENT 87 49 55 60
REMARK Flexibility Score: inf
ROOT
ATOM      1  C   UNL     1      -3.842   6.261  -0.870  1.00  0.00     0.188 C 
ENDROOT
BRANCH   1   2
ATOM      2  C   UNL     1      -3.554   7.455  -1.803  1.00  0.00     0.188 C 
BRANCH   2   3
ATOM      3  O   UNL     1      -4.601   8.121  -2.474  1.00  0.00    -0.376 OA
BRANCH   3   4
ATOM      4  C   UNL     1      -5.417   7.449  -3.419  1.00  0.00     0.202 C 
BRANCH   4   5
ATOM      5  C   UNL     1      -4.914   6.315  -4.322  1.00  0.00     0.261 C 
BRANCH   5   6
ATOM      6  O   UNL     1      -4.019   5.384  -3.706  1.00  0.00    -0.460 OA
BRANCH   6   7
ATOM      7  C   UNL     1      -2.761   5.382  -4.210  1.00  0.00     0.338 C 
ATOM      8  O   UNL     1      -2.337   6.078  -5.119  1.00  0.00    -0.246 OA
BRANCH   7   9
ATOM      9  C   UNL     1      -1.898   4.518  -3.384  1.00  0.00     0.087 C 
ATOM     10  C   UNL     1       0.743   2.027  -1.323  1.00  0.00     0.161 A 
ATOM     11  C   UNL     1       2.033   2.488  -1.037  1.00  0.00     0.054 A 
ATOM     12  C   UNL     1      -0.176   2.882  -1.952  1.00  0.00     0.169 A 
ATOM     13  C   UNL     1       2.408   3.802  -1.350  1.00  0.00    -0.047 A 
ATOM     14  C   UNL     1       0.198   4.186  -2.286  1.00  0.00     0.021 A 
ATOM     15  O   UNL     1      -1.426   2.380  -2.200  1.00  0.00    -0.471 OA
ATOM     16  C   UNL     1       3.795   4.301  -1.065  1.00  0.00     0.044 C 
ATOM     17  C   UNL     1       1.477   4.651  -1.961  1.00  0.00     0.015 A 
ATOM     18  C   UNL     1      -0.713   5.033  -3.034  1.00  0.00     0.027 C 
ATOM     19  C   UNL     1      -2.370   3.147  -2.986  1.00  0.00     0.316 C 
BRANCH  10  20
ATOM     20  O   UNL     1       0.317   0.742  -1.100  1.00  0.00    -0.493 OA
ATOM     21  C   UNL     1       0.960   0.029  -0.053  1.00  0.00     0.278 C 
ENDBRANCH  10  20
BRANCH  19  22
ATOM     22  C   UNL     1      -2.796   2.303  -4.195  1.00  0.00     0.430 C 
ATOM     23  F   UNL     1      -3.181   1.059  -3.824  1.00  0.00    -0.167 F 
ATOM     24  F   UNL     1      -3.851   2.856  -4.841  1.00  0.00    -0.167 F 
ATOM     25  F   UNL     1      -1.798   2.171  -5.098  1.00  0.00    -0.167 F 
ENDBRANCH  19  22
ENDBRANCH   7   9
ENDBRANCH   6   7
ENDBRANCH   5   6
ENDBRANCH   4   5
ENDBRANCH   3   4
ENDBRANCH   2   3
ENDBRANCH   1   2
BRANCH   1  26
ATOM     26  O   UNL     1      -5.153   5.765  -0.712  1.00  0.00    -0.376 OA
BRANCH  26  27
ATOM     27  C   UNL     1      -6.171   6.599  -0.183  1.00  0.00     0.202 C 
BRANCH  27  28
ATOM     28  C   UNL     1      -5.925   7.612   0.945  1.00  0.00     0.261 C 
BRANCH  28  29
ATOM     29  O   UNL     1      -4.730   8.392   0.833  1.00  0.00    -0.460 OA
BRANCH  29  30
ATOM     30  C   UNL     1      -3.792   8.155   1.792  1.00  0.00     0.338 C 
ATOM     31  O   UNL     1      -3.853   7.372   2.710  1.00  0.00    -0.246 OA
BRANCH  30  32
ATOM     32  C   UNL     1      -2.558   8.880   1.421  1.00  0.00     0.060 A 
ATOM     33  C   UNL     1      -2.558  10.268   1.300  1.00  0.00     0.016 A 
ATOM     34  C   UNL     1      -1.389   8.141   1.190  1.00  0.00     0.016 A 
ATOM     35  C   UNL     1      -1.371  10.923   0.964  1.00  0.00     0.010 A 
ATOM     36  C   UNL     1      -0.208   8.796   0.837  1.00  0.00     0.010 A 
ATOM     37  C   UNL     1      -0.187  10.195   0.742  1.00  0.00    -0.014 A 
BRANCH  37  38
ATOM     38  C   UNL     1       1.098  10.917   0.581  1.00  0.00     0.031 A 
ATOM     39  C   UNL     1       1.737  11.114  -0.758  1.00  0.00     0.074 A 
ATOM     40  C   UNL     1       1.684  11.409   1.688  1.00  0.00     0.049 A 
ATOM     41  N   UNL     1       2.802  11.815  -1.062  1.00  0.00    -0.248 NA
ATOM     42  C   UNL     1       1.113  10.437  -1.903  1.00  0.00     0.031 C 
ATOM     43  C   UNL     1       1.169  11.243   3.048  1.00  0.00     0.029 A 
ATOM     44  N   UNL     1       2.825  12.153   1.848  1.00  0.00    -0.354 N 
ATOM     45  C   UNL     1       2.960  11.691  -2.435  1.00  0.00     0.074 A 
ATOM     46  C   UNL     1       1.914  10.800  -2.898  1.00  0.00     0.031 C 
ATOM     47  C   UNL     1       1.971  11.898   3.901  1.00  0.00     0.029 A 
ATOM     48  C   UNL     1       3.067  12.508   3.152  1.00  0.00     0.049 A 
ATOM     49  H   UNL     1       3.413  12.409   1.101  1.00  0.00     0.167 HD
ATOM     50  C   UNL     1       3.881  12.288  -3.231  1.00  0.00     0.037 A 
ATOM     51  C   UNL     1       4.053  13.251   3.687  1.00  0.00     0.037 A 
ATOM     52  C   UNL     1       4.928  13.161  -2.758  1.00  0.00     0.049 A 
ATOM     53  C   UNL     1       5.089  13.861   2.784  1.00  0.00     0.074 A 
ATOM     54  C   UNL     1       5.881  13.843  -3.497  1.00  0.00     0.029 A 
ATOM     55  N   UNL     1       5.172  13.463  -1.425  1.00  0.00    -0.354 N 
ATOM     56  N   UNL     1       5.179  13.808   1.478  1.00  0.00    -0.248 NA
ATOM     57  C   UNL     1       6.155  14.639   3.429  1.00  0.00     0.031 C 
ATOM     58  C   UNL     1       6.734  14.508  -2.612  1.00  0.00     0.029 A 
ATOM     59  C   UNL     1       6.281  14.291  -1.321  1.00  0.00     0.049 A 
ATOM     60  H   UNL     1       4.637  13.137  -0.666  1.00  0.00     0.167 HD
ATOM     61  C   UNL     1       6.296  14.561   1.142  1.00  0.00     0.074 A 
ATOM     62  C   UNL     1       6.840  15.077   2.381  1.00  0.00     0.031 C 
ATOM     63  C   UNL     1       6.822  14.798  -0.084  1.00  0.00     0.037 A 
BRANCH  50  64
ATOM     64  C   UNL     1       3.800  12.040  -4.710  1.00  0.00     0.064 A 
ATOM     65  C   UNL     1       2.772  12.599  -5.486  1.00  0.00     0.173 A 
ATOM     66  C   UNL     1       4.810  11.329  -5.376  1.00  0.00     0.173 A 
ATOM     67  F   UNL     1       1.782  13.288  -4.899  1.00  0.00    -0.203 F 
ATOM     68  C   UNL     1       2.753  12.444  -6.870  1.00  0.00     0.198 A 
ATOM     69  C   UNL     1       4.803  11.200  -6.763  1.00  0.00     0.198 A 
ATOM     70  F   UNL     1       5.823  10.786  -4.684  1.00  0.00    -0.203 F 
ATOM     71  F   UNL     1       1.749  12.968  -7.587  1.00  0.00    -0.200 F 
ATOM     72  C   UNL     1       3.773  11.755  -7.508  1.00  0.00     0.200 A 
ATOM     73  F   UNL     1       5.800  10.551  -7.380  1.00  0.00    -0.200 F 
ATOM     74  F   UNL     1       3.765  11.627  -8.842  1.00  0.00    -0.200 F 
ENDBRANCH  50  64
BRANCH  51  75
ATOM     75  C   UNL     1       4.073  13.492   5.152  1.00  0.00     0.064 A 
ATOM     76  C   UNL     1       3.799  14.763   5.674  1.00  0.00     0.173 A 
ATOM     77  C   UNL     1       4.333  12.454   6.058  1.00  0.00     0.173 A 
ATOM     78  F   UNL     1       3.562  15.791   4.846  1.00  0.00    -0.203 F 
ATOM     79  C   UNL     1       3.794  14.989   7.048  1.00  0.00     0.198 A 
ATOM     80  C   UNL     1       4.298  12.674   7.432  1.00  0.00     0.198 A 
ATOM     81  F   UNL     1       4.594  11.218   5.606  1.00  0.00    -0.203 F 
ATOM     82  F   UNL     1       3.563  16.221   7.521  1.00  0.00    -0.200 F 
ATOM     83  C   UNL     1       4.035  13.943   7.926  1.00  0.00     0.200 A 
ATOM     84  F   UNL     1       4.514  11.657   8.277  1.00  0.00    -0.200 F 
ATOM     85  F   UNL     1       4.016  14.158   9.249  1.00  0.00    -0.200 F 
ENDBRANCH  51  75
BRANCH  63  86
ATOM     86  C   UNL     1       8.051  15.659  -0.159  1.00  0.00     0.064 A 
ATOM     87  C   UNL     1       9.298  15.195   0.285  1.00  0.00     0.173 A 
ATOM     88  C   UNL     1       7.996  16.936  -0.739  1.00  0.00     0.173 A 
ATOM     89  F   UNL     1       9.404  13.988   0.861  1.00  0.00    -0.203 F 
ATOM     90  C   UNL     1      10.441  15.983   0.165  1.00  0.00     0.198 A 
ATOM     91  C   UNL     1       9.145  17.708  -0.886  1.00  0.00     0.198 A 
ATOM     92  F   UNL     1       6.829  17.426  -1.185  1.00  0.00    -0.203 F 
ATOM     93  F   UNL     1      11.614  15.534   0.631  1.00  0.00    -0.200 F 
ATOM     94  C   UNL     1      10.365  17.234  -0.430  1.00  0.00     0.200 A 
ATOM     95  F   UNL     1       9.073  18.910  -1.476  1.00  0.00    -0.200 F 
ATOM     96  F   UNL     1      11.469  17.983  -0.561  1.00  0.00    -0.200 F 
ENDBRANCH  63  86
ENDBRANCH  37  38
ENDBRANCH  30  32
ENDBRANCH  29  30
ENDBRANCH  28  29
ENDBRANCH  27  28
ENDBRANCH  26  27
ENDBRANCH   1  26
TORSDOF 19
