REMARK SMILES O=C(C[C@]1(C(=O)NC2CCCCC2)CC(c2ccc([N+](=O)[O-])cc2)=NO1)OCCOCCOCCOC(=O)c1ccc(-c2c3nc(c(-c4c(F)c(F)c(F)c(F)c4F)c4ccc([nH]4)c(-c4c(F)c(F)c(F)c(F)c4F)c4nc(c(-c5c(F)c(F)c(F)c(F)c5F)c5ccc2[nH]5)C=C4)C=C3)cc1
REMARK SMILES IDX 31 1 30 2 29 3 28 4 27 5 2 6 1 7 3 8 4 9 14 10 26 11 15 12
REMARK SMILES IDX 25 13 5 14 6 15 7 16 8 18 9 19 13 20 10 21 12 22 11 23 16 24
REMARK SMILES IDX 17 25 24 26 18 27 23 28 19 29 20 30 21 31 22 32 32 33 33 34
REMARK SMILES IDX 34 35 35 36 36 37 37 38 38 39 39 40 40 41 101 42 41 43
REMARK SMILES IDX 100 44 42 45 43 46 44 47 94 48 45 49 99 50 93 51 95 52 46 53
REMARK SMILES IDX 98 54 92 55 91 56 47 58 79 59 59 60 78 61 60 62 63 63 77 64
REMARK SMILES IDX 96 65 61 66 62 67 76 69 97 70 64 71 48 72 49 73 57 74 50 75
REMARK SMILES IDX 51 76 55 77 58 78 52 79 53 80 56 81 54 82 80 83 81 84 89 85
REMARK SMILES IDX 82 86 83 87 87 88 90 89 84 90 85 91 88 92 86 93 65 94 66 95
REMARK SMILES IDX 74 96 67 97 68 98 72 99 75 100 69 101 70 102 73 103 71 104
REMARK H PARENT 7 17 95 57 63 68
REMARK Flexibility Score: inf
ROOT
ATOM      1  C   UNL     1       2.585   1.630  -3.012  1.00  0.00     0.188 C 
ENDROOT
BRANCH   1   2
ATOM      2  O   UNL     1       1.987   0.987  -1.888  1.00  0.00    -0.376 OA
BRANCH   2   3
ATOM      3  C   UNL     1       2.441   1.369  -0.592  1.00  0.00     0.202 C 
BRANCH   3   4
ATOM      4  C   UNL     1       3.940   1.522  -0.338  1.00  0.00     0.261 C 
BRANCH   4   5
ATOM      5  O   UNL     1       4.850   1.089  -1.360  1.00  0.00    -0.463 OA
BRANCH   5   6
ATOM      6  C   UNL     1       5.042  -0.153  -1.831  1.00  0.00     0.310 C 
ATOM      7  O   UNL     1       5.949  -0.353  -2.638  1.00  0.00    -0.252 OA
BRANCH   6   8
ATOM      8  C   UNL     1       4.135  -1.269  -1.413  1.00  0.00     0.185 C 
BRANCH   8   9
ATOM      9  C   UNL     1       4.430  -1.967  -0.085  1.00  0.00     0.231 C 
ATOM     10  C   UNL     1       5.790  -1.612   0.513  1.00  0.00     0.123 C 
ATOM     11  O   UNL     1       4.605  -3.371  -0.347  1.00  0.00    -0.378 OA
ATOM     12  C   UNL     1       6.617  -2.561  -0.277  1.00  0.00     0.092 C 
ATOM     13  N   UNL     1       5.954  -3.566  -0.752  1.00  0.00    -0.089 NA
BRANCH   9  14
ATOM     14  C   UNL     1       3.350  -1.741   1.002  1.00  0.00     0.268 C 
ATOM     15  O   UNL     1       3.595  -0.961   1.937  1.00  0.00    -0.270 OA
ATOM     16  N   UNL     1       2.095  -2.253   1.041  1.00  0.00    -0.350 N 
ATOM     17  H   UNL     1       1.679  -2.103   1.921  1.00  0.00     0.163 HD
BRANCH  16  18
ATOM     18  C   UNL     1       1.179  -2.969   0.139  1.00  0.00     0.082 C 
ATOM     19  C   UNL     1       0.670  -2.045  -0.971  1.00  0.00     0.025 C 
ATOM     20  C   UNL     1       1.603  -4.403  -0.209  1.00  0.00     0.025 C 
ATOM     21  C   UNL     1       0.889  -2.505  -2.394  1.00  0.00     0.002 C 
ATOM     22  C   UNL     1       1.422  -4.785  -1.672  1.00  0.00     0.002 C 
ATOM     23  C   UNL     1       1.880  -3.630  -2.536  1.00  0.00     0.000 C 
ENDBRANCH  16  18
ENDBRANCH   9  14
BRANCH  12  24
ATOM     24  C   UNL     1       8.057  -2.335  -0.473  1.00  0.00    -0.000 A 
ATOM     25  C   UNL     1       8.698  -2.901  -1.580  1.00  0.00     0.017 A 
ATOM     26  C   UNL     1       8.780  -1.564   0.446  1.00  0.00     0.017 A 
ATOM     27  C   UNL     1      10.072  -2.717  -1.760  1.00  0.00     0.086 A 
ATOM     28  C   UNL     1      10.154  -1.383   0.277  1.00  0.00     0.086 A 
ATOM     29  C   UNL     1      10.798  -1.971  -0.820  1.00  0.00     0.269 A 
BRANCH  29  30
ATOM     30  N   UNL     1      12.250  -1.822  -0.969  1.00  0.00     0.062 N 
ATOM     31  O   UNL     1      12.789  -2.365  -1.943  1.00  0.00    -0.258 OA
ATOM     32  O   UNL     1      12.853  -1.171  -0.103  1.00  0.00    -0.258 OA
ENDBRANCH  29  30
ENDBRANCH  12  24
ENDBRANCH   8   9
ENDBRANCH   6   8
ENDBRANCH   5   6
ENDBRANCH   4   5
ENDBRANCH   3   4
ENDBRANCH   2   3
ENDBRANCH   1   2
BRANCH   1  33
ATOM     33  C   UNL     1       1.563   1.899  -4.117  1.00  0.00     0.188 C 
BRANCH  33  34
ATOM     34  O   UNL     1       0.663   2.980  -3.885  1.00  0.00    -0.376 OA
BRANCH  34  35
ATOM     35  C   UNL     1      -0.089   2.943  -2.681  1.00  0.00     0.202 C 
BRANCH  35  36
ATOM     36  C   UNL     1      -1.251   1.941  -2.587  1.00  0.00     0.261 C 
BRANCH  36  37
ATOM     37  O   UNL     1      -0.999   0.610  -3.068  1.00  0.00    -0.460 OA
BRANCH  37  38
ATOM     38  C   UNL     1      -1.465   0.357  -4.320  1.00  0.00     0.338 C 
ATOM     39  O   UNL     1      -1.970   1.143  -5.097  1.00  0.00    -0.246 OA
BRANCH  38  40
ATOM     40  C   UNL     1      -1.281  -1.073  -4.645  1.00  0.00     0.060 A 
ATOM     41  C   UNL     1      -0.317  -1.463  -5.583  1.00  0.00     0.016 A 
ATOM     42  C   UNL     1      -2.134  -2.025  -4.080  1.00  0.00     0.016 A 
ATOM     43  C   UNL     1      -0.208  -2.811  -5.965  1.00  0.00     0.010 A 
ATOM     44  C   UNL     1      -2.018  -3.372  -4.457  1.00  0.00     0.010 A 
ATOM     45  C   UNL     1      -1.076  -3.775  -5.428  1.00  0.00    -0.014 A 
BRANCH  45  46
ATOM     46  C   UNL     1      -1.207  -5.126  -6.060  1.00  0.00     0.031 A 
ATOM     47  C   UNL     1      -2.354  -5.331  -7.005  1.00  0.00     0.074 A 
ATOM     48  C   UNL     1      -0.376  -6.160  -5.827  1.00  0.00     0.049 A 
ATOM     49  N   UNL     1      -2.707  -6.404  -7.661  1.00  0.00    -0.248 NA
ATOM     50  C   UNL     1      -3.228  -4.168  -7.226  1.00  0.00     0.031 C 
ATOM     51  C   UNL     1       0.785  -6.104  -4.966  1.00  0.00     0.029 A 
ATOM     52  N   UNL     1      -0.374  -7.462  -6.275  1.00  0.00    -0.354 N 
ATOM     53  C   UNL     1      -3.842  -6.046  -8.370  1.00  0.00     0.074 A 
ATOM     54  C   UNL     1      -4.160  -4.683  -8.007  1.00  0.00     0.031 C 
ATOM     55  C   UNL     1       1.392  -7.298  -4.918  1.00  0.00     0.029 A 
ATOM     56  C   UNL     1       0.647  -8.228  -5.755  1.00  0.00     0.049 A 
ATOM     57  H   UNL     1      -1.040  -7.813  -6.909  1.00  0.00     0.167 HD
ATOM     58  C   UNL     1      -4.542  -6.777  -9.266  1.00  0.00     0.037 A 
ATOM     59  C   UNL     1       0.956  -9.528  -5.930  1.00  0.00     0.037 A 
ATOM     60  C   UNL     1      -4.233  -8.136  -9.617  1.00  0.00     0.049 A 
ATOM     61  C   UNL     1       0.121 -10.347  -6.874  1.00  0.00     0.074 A 
ATOM     62  C   UNL     1      -4.870  -8.954 -10.532  1.00  0.00     0.029 A 
ATOM     63  N   UNL     1      -3.209  -8.887  -9.053  1.00  0.00    -0.354 N 
ATOM     64  N   UNL     1      -0.918  -9.981  -7.582  1.00  0.00    -0.248 NA
ATOM     65  C   UNL     1       0.513 -11.751  -7.063  1.00  0.00     0.031 C 
ATOM     66  C   UNL     1      -4.275 -10.219 -10.475  1.00  0.00     0.029 A 
ATOM     67  C   UNL     1      -3.217 -10.169  -9.581  1.00  0.00     0.049 A 
ATOM     68  H   UNL     1      -2.572  -8.557  -8.379  1.00  0.00     0.167 HD
ATOM     69  C   UNL     1      -1.276 -11.088  -8.338  1.00  0.00     0.074 A 
ATOM     70  C   UNL     1      -0.340 -12.141  -8.000  1.00  0.00     0.031 C 
ATOM     71  C   UNL     1      -2.280 -11.211  -9.240  1.00  0.00     0.037 A 
BRANCH  58  72
ATOM     72  C   UNL     1      -5.731  -6.108  -9.888  1.00  0.00     0.064 A 
ATOM     73  C   UNL     1      -5.593  -5.010 -10.754  1.00  0.00     0.173 A 
ATOM     74  C   UNL     1      -7.027  -6.538  -9.572  1.00  0.00     0.173 A 
ATOM     75  F   UNL     1      -4.375  -4.542 -11.065  1.00  0.00    -0.203 F 
ATOM     76  C   UNL     1      -6.711  -4.335 -11.235  1.00  0.00     0.198 A 
ATOM     77  C   UNL     1      -8.142  -5.886 -10.089  1.00  0.00     0.198 A 
ATOM     78  F   UNL     1      -7.213  -7.578  -8.747  1.00  0.00    -0.203 F 
ATOM     79  F   UNL     1      -6.556  -3.236 -11.987  1.00  0.00    -0.200 F 
ATOM     80  C   UNL     1      -7.984  -4.777 -10.907  1.00  0.00     0.200 A 
ATOM     81  F   UNL     1      -9.371  -6.319  -9.778  1.00  0.00    -0.200 F 
ATOM     82  F   UNL     1      -9.060  -4.121 -11.364  1.00  0.00    -0.200 F 
ENDBRANCH  58  72
BRANCH  59  83
ATOM     83  C   UNL     1       2.135 -10.124  -5.239  1.00  0.00     0.064 A 
ATOM     84  C   UNL     1       3.277 -10.506  -5.958  1.00  0.00     0.173 A 
ATOM     85  C   UNL     1       2.146 -10.330  -3.851  1.00  0.00     0.173 A 
ATOM     86  F   UNL     1       3.309 -10.357  -7.291  1.00  0.00    -0.203 F 
ATOM     87  C   UNL     1       4.376 -11.082  -5.321  1.00  0.00     0.198 A 
ATOM     88  C   UNL     1       3.256 -10.882  -3.210  1.00  0.00     0.198 A 
ATOM     89  F   UNL     1       1.079  -9.988  -3.113  1.00  0.00    -0.203 F 
ATOM     90  F   UNL     1       5.435 -11.477  -6.041  1.00  0.00    -0.200 F 
ATOM     91  C   UNL     1       4.367 -11.263  -3.946  1.00  0.00     0.200 A 
ATOM     92  F   UNL     1       3.245 -11.048  -1.881  1.00  0.00    -0.200 F 
ATOM     93  F   UNL     1       5.425 -11.812  -3.333  1.00  0.00    -0.200 F 
ENDBRANCH  59  83
BRANCH  71  94
ATOM     94  C   UNL     1      -2.385 -12.516  -9.975  1.00  0.00     0.064 A 
ATOM     95  C   UNL     1      -2.776 -13.703  -9.337  1.00  0.00     0.173 A 
ATOM     96  C   UNL     1      -2.108 -12.571 -11.350  1.00  0.00     0.173 A 
ATOM     97  F   UNL     1      -3.038 -13.708  -8.021  1.00  0.00    -0.203 F 
ATOM     98  C   UNL     1      -2.851 -14.902 -10.041  1.00  0.00     0.198 A 
ATOM     99  C   UNL     1      -2.222 -13.763 -12.058  1.00  0.00     0.198 A 
ATOM    100  F   UNL     1      -1.736 -11.464 -12.010  1.00  0.00    -0.203 F 
ATOM    101  F   UNL     1      -3.167 -16.035  -9.398  1.00  0.00    -0.200 F 
ATOM    102  C   UNL     1      -2.582 -14.930 -11.401  1.00  0.00     0.200 A 
ATOM    103  F   UNL     1      -1.977 -13.784 -13.376  1.00  0.00    -0.200 F 
ATOM    104  F   UNL     1      -2.659 -16.084 -12.078  1.00  0.00    -0.200 F 
ENDBRANCH  71  94
ENDBRANCH  45  46
ENDBRANCH  38  40
ENDBRANCH  37  38
ENDBRANCH  36  37
ENDBRANCH  35  36
ENDBRANCH  34  35
ENDBRANCH  33  34
ENDBRANCH   1  33
TORSDOF 22
