REMARK SMILES CC1(C)C(C(=O)N2CCOC[C@H]2C(=O)OCCOCCOCCOC(=O)c2ccc(-c3c4nc(c(-c5c(F)c(F)c(F)c(F)c5F)c5ccc([nH]5)c(-c5c(F)c(F)c(F)c(F)c5F)c5nc(c(-c6c(F)c(F)c(F)c(F)c6F)c6ccc3[nH]6)C=C5)C=C4)cc2)C1(C)C
REMARK SMILES IDX 19 1 18 2 17 3 16 4 15 5 13 6 14 7 12 8 7 9 8 10 9 11 11 12
REMARK SMILES IDX 10 13 5 14 6 15 4 16 1 17 2 18 3 19 90 20 91 21 92 22 20 23
REMARK SMILES IDX 21 24 22 25 23 26 24 27 25 28 26 29 27 30 28 31 89 32 29 33
REMARK SMILES IDX 88 34 30 35 31 36 32 37 82 38 33 39 87 40 81 41 83 42 34 43
REMARK SMILES IDX 86 44 80 45 79 46 35 48 67 49 47 50 66 51 48 52 51 53 65 54
REMARK SMILES IDX 84 55 49 56 50 57 64 59 85 60 52 61 36 62 37 63 45 64 38 65
REMARK SMILES IDX 39 66 43 67 46 68 40 69 41 70 44 71 42 72 68 73 69 74 77 75
REMARK SMILES IDX 70 76 71 77 75 78 78 79 72 80 73 81 76 82 74 83 53 84 54 85
REMARK SMILES IDX 62 86 55 87 56 88 60 89 63 90 57 91 58 92 61 93 59 94
REMARK H PARENT 83 47 51 58
REMARK Flexibility Score: inf
ROOT
ATOM      1  C   UNL     1      -4.113   6.256  -0.098  1.00  0.00     0.188 C 
ENDROOT
BRANCH   1   2
ATOM      2  O   UNL     1      -5.413   6.718  -0.450  1.00  0.00    -0.376 OA
BRANCH   2   3
ATOM      3  C   UNL     1      -6.152   6.022  -1.447  1.00  0.00     0.202 C 
BRANCH   3   4
ATOM      4  C   UNL     1      -5.475   5.701  -2.788  1.00  0.00     0.261 C 
BRANCH   4   5
ATOM      5  O   UNL     1      -4.243   4.957  -2.684  1.00  0.00    -0.462 OA
BRANCH   5   6
ATOM      6  C   UNL     1      -3.130   5.544  -3.197  1.00  0.00     0.331 C 
ATOM      7  O   UNL     1      -3.130   6.652  -3.731  1.00  0.00    -0.250 OA
BRANCH   6   8
ATOM      8  C   UNL     1      -1.863   4.657  -3.187  1.00  0.00     0.221 C 
ATOM      9  N   UNL     1      -1.652   3.481  -2.292  1.00  0.00    -0.324 N 
ATOM     10  C   UNL     1      -2.554   2.367  -2.541  1.00  0.00     0.149 C 
ATOM     11  C   UNL     1      -2.578   1.996  -4.032  1.00  0.00     0.181 C 
ATOM     12  C   UNL     1      -1.738   4.148  -4.629  1.00  0.00     0.197 C 
ATOM     13  O   UNL     1      -2.732   3.139  -4.891  1.00  0.00    -0.377 OA
BRANCH   9  14
ATOM     14  C   UNL     1      -0.595   3.539  -1.391  1.00  0.00     0.227 C 
ATOM     15  O   UNL     1      -0.179   4.643  -1.030  1.00  0.00    -0.275 OA
BRANCH  14  16
ATOM     16  C   UNL     1       0.164   2.367  -0.821  1.00  0.00     0.091 C 
ATOM     17  C   UNL     1       1.040   0.125   0.148  1.00  0.00     0.012 C 
ATOM     18  C   UNL     1       0.473   0.886  -1.060  1.00  0.00    -0.017 C 
ATOM     19  C   UNL     1      -0.388  -0.038  -1.873  1.00  0.00     0.012 C 
ATOM     20  C   UNL     1       1.365   1.944  -1.714  1.00  0.00    -0.017 C 
ATOM     21  C   UNL     1       2.762   2.220  -1.198  1.00  0.00     0.012 C 
ATOM     22  C   UNL     1       1.300   2.175  -3.210  1.00  0.00     0.012 C 
ENDBRANCH  14  16
ENDBRANCH   9  14
ENDBRANCH   6   8
ENDBRANCH   5   6
ENDBRANCH   4   5
ENDBRANCH   3   4
ENDBRANCH   2   3
ENDBRANCH   1   2
BRANCH   1  23
ATOM     23  C   UNL     1      -3.883   4.749   0.127  1.00  0.00     0.188 C 
BRANCH  23  24
ATOM     24  O   UNL     1      -5.027   3.945  -0.030  1.00  0.00    -0.376 OA
BRANCH  24  25
ATOM     25  C   UNL     1      -5.710   3.467   1.112  1.00  0.00     0.202 C 
BRANCH  25  26
ATOM     26  C   UNL     1      -5.826   4.254   2.432  1.00  0.00     0.261 C 
BRANCH  26  27
ATOM     27  O   UNL     1      -4.849   5.264   2.703  1.00  0.00    -0.460 OA
BRANCH  27  28
ATOM     28  C   UNL     1      -3.712   4.866   3.322  1.00  0.00     0.338 C 
ATOM     29  O   UNL     1      -3.411   3.738   3.658  1.00  0.00    -0.246 OA
BRANCH  28  30
ATOM     30  C   UNL     1      -2.787   6.021   3.348  1.00  0.00     0.060 A 
ATOM     31  C   UNL     1      -1.585   5.950   2.629  1.00  0.00     0.016 A 
ATOM     32  C   UNL     1      -3.106   7.164   4.083  1.00  0.00     0.016 A 
ATOM     33  C   UNL     1      -0.677   7.009   2.677  1.00  0.00     0.010 A 
ATOM     34  C   UNL     1      -2.187   8.214   4.149  1.00  0.00     0.010 A 
ATOM     35  C   UNL     1      -0.952   8.123   3.479  1.00  0.00    -0.014 A 
BRANCH  35  36
ATOM     36  C   UNL     1       0.128   9.086   3.805  1.00  0.00     0.031 A 
ATOM     37  C   UNL     1       0.843   8.928   5.119  1.00  0.00     0.074 A 
ATOM     38  C   UNL     1       0.474  10.076   2.965  1.00  0.00     0.049 A 
ATOM     39  N   UNL     1       1.753   9.686   5.675  1.00  0.00    -0.248 NA
ATOM     40  C   UNL     1       0.468   7.752   5.920  1.00  0.00     0.031 C 
ATOM     41  C   UNL     1      -0.099  10.302   1.641  1.00  0.00     0.029 A 
ATOM     42  N   UNL     1       1.392  11.086   3.116  1.00  0.00    -0.354 N 
ATOM     43  C   UNL     1       2.040   9.092   6.897  1.00  0.00     0.074 A 
ATOM     44  C   UNL     1       1.190   7.928   7.015  1.00  0.00     0.031 C 
ATOM     45  C   UNL     1       0.477  11.390   1.100  1.00  0.00     0.029 A 
ATOM     46  C   UNL     1       1.428  11.958   2.056  1.00  0.00     0.049 A 
ATOM     47  H   UNL     1       1.969  11.176   3.908  1.00  0.00     0.167 HD
ATOM     48  C   UNL     1       2.936   9.481   7.835  1.00  0.00     0.037 A 
ATOM     49  C   UNL     1       2.133  13.094   1.893  1.00  0.00     0.037 A 
ATOM     50  C   UNL     1       3.784  10.637   7.711  1.00  0.00     0.049 A 
ATOM     51  C   UNL     1       3.067  13.552   2.986  1.00  0.00     0.074 A 
ATOM     52  C   UNL     1       4.743  11.102   8.593  1.00  0.00     0.029 A 
ATOM     53  N   UNL     1       3.764  11.518   6.640  1.00  0.00    -0.354 N 
ATOM     54  N   UNL     1       3.351  12.980   4.132  1.00  0.00    -0.248 NA
ATOM     55  C   UNL     1       3.778  14.819   2.760  1.00  0.00     0.031 C 
ATOM     56  C   UNL     1       5.257  12.300   8.086  1.00  0.00     0.029 A 
ATOM     57  C   UNL     1       4.671  12.544   6.854  1.00  0.00     0.049 A 
ATOM     58  H   UNL     1       3.190  11.428   5.845  1.00  0.00     0.167 HD
ATOM     59  C   UNL     1       4.301  13.791   4.741  1.00  0.00     0.074 A 
ATOM     60  C   UNL     1       4.548  14.894   3.837  1.00  0.00     0.031 C 
ATOM     61  C   UNL     1       4.919  13.631   5.939  1.00  0.00     0.037 A 
BRANCH  48  62
ATOM     62  C   UNL     1       3.001   8.672   9.100  1.00  0.00     0.064 A 
ATOM     63  C   UNL     1       3.486   7.355   9.120  1.00  0.00     0.173 A 
ATOM     64  C   UNL     1       2.566   9.227  10.313  1.00  0.00     0.173 A 
ATOM     65  F   UNL     1       3.901   6.770   7.986  1.00  0.00    -0.203 F 
ATOM     66  C   UNL     1       3.491   6.611  10.297  1.00  0.00     0.198 A 
ATOM     67  C   UNL     1       2.608   8.493  11.495  1.00  0.00     0.198 A 
ATOM     68  F   UNL     1       2.097  10.483  10.354  1.00  0.00    -0.203 F 
ATOM     69  F   UNL     1       3.893   5.332  10.278  1.00  0.00    -0.200 F 
ATOM     70  C   UNL     1       3.058   7.182  11.484  1.00  0.00     0.200 A 
ATOM     71  F   UNL     1       2.202   9.052  12.644  1.00  0.00    -0.200 F 
ATOM     72  F   UNL     1       3.063   6.464  12.616  1.00  0.00    -0.200 F 
ENDBRANCH  48  62
BRANCH  49  73
ATOM     73  C   UNL     1       1.992  13.881   0.639  1.00  0.00     0.064 A 
ATOM     74  C   UNL     1       3.054  13.981  -0.270  1.00  0.00     0.173 A 
ATOM     75  C   UNL     1       0.804  14.561   0.331  1.00  0.00     0.173 A 
ATOM     76  F   UNL     1       4.222  13.376  -0.005  1.00  0.00    -0.203 F 
ATOM     77  C   UNL     1       2.939  14.740  -1.433  1.00  0.00     0.198 A 
ATOM     78  C   UNL     1       0.680  15.296  -0.846  1.00  0.00     0.198 A 
ATOM     79  F   UNL     1      -0.239  14.506   1.172  1.00  0.00    -0.203 F 
ATOM     80  F   UNL     1       3.986  14.857  -2.261  1.00  0.00    -0.200 F 
ATOM     81  C   UNL     1       1.749  15.391  -1.724  1.00  0.00     0.200 A 
ATOM     82  F   UNL     1      -0.473  15.918  -1.127  1.00  0.00    -0.200 F 
ATOM     83  F   UNL     1       1.638  16.118  -2.843  1.00  0.00    -0.200 F 
ENDBRANCH  49  73
BRANCH  61  84
ATOM     84  C   UNL     1       5.970  14.636   6.320  1.00  0.00     0.064 A 
ATOM     85  C   UNL     1       5.649  15.959   6.658  1.00  0.00     0.173 A 
ATOM     86  C   UNL     1       7.319  14.253   6.391  1.00  0.00     0.173 A 
ATOM     87  F   UNL     1       4.377  16.382   6.597  1.00  0.00    -0.203 F 
ATOM     88  C   UNL     1       6.640  16.867   7.023  1.00  0.00     0.198 A 
ATOM     89  C   UNL     1       8.303  15.153   6.790  1.00  0.00     0.198 A 
ATOM     90  F   UNL     1       7.683  12.998   6.088  1.00  0.00    -0.203 F 
ATOM     91  F   UNL     1       6.316  18.140   7.290  1.00  0.00    -0.200 F 
ATOM     92  C   UNL     1       7.965  16.462   7.097  1.00  0.00     0.200 A 
ATOM     93  F   UNL     1       9.579  14.753   6.879  1.00  0.00    -0.200 F 
ATOM     94  F   UNL     1       8.916  17.334   7.457  1.00  0.00    -0.200 F 
ENDBRANCH  61  84
ENDBRANCH  35  36
ENDBRANCH  28  30
ENDBRANCH  27  28
ENDBRANCH  26  27
ENDBRANCH  25  26
ENDBRANCH  24  25
ENDBRANCH  23  24
ENDBRANCH   1  23
TORSDOF 19
