REMARK SMILES C=C(C(=O)OCCOCCOCCOC(=O)c1ccc(-c2c3nc(c(-c4c(F)c(F)c(F)c(F)c4F)c4ccc([nH]4)c(-c4c(F)c(F)c(F)c(F)c4F)c4nc(c(-c5c(F)c(F)c(F)c(F)c5F)c5ccc2[nH]5)C=C4)C=C3)cc1)[C@@H]1CC[C@]2(C)C[C@@H](O)CC(=C)[C@H]2C1
REMARK SMILES IDX 9 1 8 2 7 3 6 4 5 5 3 6 4 7 2 8 1 9 80 10 81 11 92 12 82 13
REMARK SMILES IDX 91 14 83 15 89 16 84 17 85 18 88 19 90 20 86 21 87 22 10 24
REMARK SMILES IDX 11 25 12 26 13 27 14 28 15 29 16 30 17 31 18 32 79 33 19 34
REMARK SMILES IDX 78 35 20 36 21 37 22 38 72 39 23 40 77 41 71 42 73 43 24 44
REMARK SMILES IDX 76 45 70 46 69 47 25 49 57 50 37 51 56 52 38 53 41 54 55 55
REMARK SMILES IDX 74 56 39 57 40 58 54 60 75 61 42 62 26 63 27 64 35 65 28 66
REMARK SMILES IDX 29 67 33 68 36 69 30 70 31 71 34 72 32 73 58 74 59 75 67 76
REMARK SMILES IDX 60 77 61 78 65 79 68 80 62 81 63 82 66 83 64 84 43 85 44 86
REMARK SMILES IDX 52 87 45 88 46 89 50 90 53 91 47 92 48 93 51 94 49 95
REMARK H PARENT 87 23 73 48 41 59
REMARK Flexibility Score: inf
ROOT
ATOM      1  C   UNL     1      -2.805   2.313  -1.035  1.00  0.00     0.188 C 
ENDROOT
BRANCH   1   2
ATOM      2  O   UNL     1      -4.080   1.702  -0.984  1.00  0.00    -0.376 OA
BRANCH   2   3
ATOM      3  C   UNL     1      -4.185   0.407  -0.411  1.00  0.00     0.202 C 
BRANCH   3   4
ATOM      4  C   UNL     1      -3.269  -0.687  -0.965  1.00  0.00     0.261 C 
BRANCH   4   5
ATOM      5  O   UNL     1      -1.896  -0.465  -0.591  1.00  0.00    -0.460 OA
BRANCH   5   6
ATOM      6  C   UNL     1      -0.977  -0.429  -1.600  1.00  0.00     0.333 C 
ATOM      7  O   UNL     1      -1.207  -0.589  -2.776  1.00  0.00    -0.247 OA
BRANCH   6   8
ATOM      8  C   UNL     1       0.373  -0.022  -1.063  1.00  0.00     0.033 C 
ATOM      9  C   UNL     1       0.708  -0.479   0.157  1.00  0.00     0.020 C 
BRANCH   8  10
ATOM     10  C   UNL     1       1.263   0.783  -2.019  1.00  0.00     0.026 C 
ATOM     11  C   UNL     1       2.740   0.346  -2.053  1.00  0.00     0.009 C 
ATOM     12  C   UNL     1       1.152   2.324  -1.871  1.00  0.00     0.017 C 
ATOM     13  C   UNL     1       3.641   0.973  -0.983  1.00  0.00     0.008 C 
ATOM     14  C   UNL     1       2.015   2.893  -0.726  1.00  0.00     0.021 C 
ATOM     15  C   UNL     1       3.515   2.510  -0.851  1.00  0.00    -0.024 C 
ATOM     16  C   UNL     1       1.966   4.393  -0.470  1.00  0.00    -0.071 C 
ATOM     17  C   UNL     1       4.184   3.148  -2.098  1.00  0.00     0.012 C 
ATOM     18  C   UNL     1       4.268   2.961   0.451  1.00  0.00     0.039 C 
ATOM     19  C   UNL     1       2.466   4.754   0.909  1.00  0.00     0.062 C 
ATOM     20  C   UNL     1       1.734   5.354  -1.376  1.00  0.00     0.008 C 
ATOM     21  C   UNL     1       3.953   4.375   0.990  1.00  0.00     0.119 C 
BRANCH  21  22
ATOM     22  O   UNL     1       4.758   5.344   0.314  1.00  0.00    -0.393 OA
ATOM     23  H   UNL     1       4.534   5.348  -0.630  1.00  0.00     0.210 HD
ENDBRANCH  21  22
ENDBRANCH   8  10
ENDBRANCH   6   8
ENDBRANCH   5   6
ENDBRANCH   4   5
ENDBRANCH   3   4
ENDBRANCH   2   3
ENDBRANCH   1   2
BRANCH   1  24
ATOM     24  C   UNL     1      -1.976   2.491   0.259  1.00  0.00     0.188 C 
BRANCH  24  25
ATOM     25  O   UNL     1      -2.536   2.241   1.529  1.00  0.00    -0.376 OA
BRANCH  25  26
ATOM     26  C   UNL     1      -3.665   2.982   1.958  1.00  0.00     0.202 C 
BRANCH  26  27
ATOM     27  C   UNL     1      -3.794   4.484   1.669  1.00  0.00     0.261 C 
BRANCH  27  28
ATOM     28  O   UNL     1      -3.479   4.875   0.326  1.00  0.00    -0.460 OA
BRANCH  28  29
ATOM     29  C   UNL     1      -2.645   5.937   0.213  1.00  0.00     0.338 C 
ATOM     30  O   UNL     1      -2.146   6.595   1.109  1.00  0.00    -0.246 OA
BRANCH  29  31
ATOM     31  C   UNL     1      -2.368   6.205  -1.207  1.00  0.00     0.060 A 
ATOM     32  C   UNL     1      -1.416   5.439  -1.879  1.00  0.00     0.016 A 
ATOM     33  C   UNL     1      -2.944   7.305  -1.834  1.00  0.00     0.016 A 
ATOM     34  C   UNL     1      -1.014   5.777  -3.168  1.00  0.00     0.010 A 
ATOM     35  C   UNL     1      -2.538   7.647  -3.129  1.00  0.00     0.010 A 
ATOM     36  C   UNL     1      -1.539   6.909  -3.790  1.00  0.00    -0.014 A 
BRANCH  36  37
ATOM     37  C   UNL     1      -0.944   7.410  -5.053  1.00  0.00     0.031 A 
ATOM     38  C   UNL     1      -0.236   8.734  -5.044  1.00  0.00     0.074 A 
ATOM     39  C   UNL     1      -0.997   6.698  -6.192  1.00  0.00     0.049 A 
ATOM     40  N   UNL     1       0.087   9.514  -6.041  1.00  0.00    -0.248 NA
ATOM     41  C   UNL     1       0.159   9.246  -3.722  1.00  0.00     0.031 C 
ATOM     42  C   UNL     1      -1.510   5.337  -6.321  1.00  0.00     0.029 A 
ATOM     43  N   UNL     1      -0.632   7.045  -7.471  1.00  0.00    -0.354 N 
ATOM     44  C   UNL     1       0.655  10.643  -5.465  1.00  0.00     0.074 A 
ATOM     45  C   UNL     1       0.657  10.434  -4.032  1.00  0.00     0.031 C 
ATOM     46  C   UNL     1      -1.460   4.974  -7.613  1.00  0.00     0.029 A 
ATOM     47  C   UNL     1      -1.007   6.113  -8.406  1.00  0.00     0.049 A 
ATOM     48  H   UNL     1      -0.151   7.875  -7.693  1.00  0.00     0.167 HD
ATOM     49  C   UNL     1       1.109  11.759  -6.083  1.00  0.00     0.037 A 
ATOM     50  C   UNL     1      -1.066   6.200  -9.749  1.00  0.00     0.037 A 
ATOM     51  C   UNL     1       1.137  11.928  -7.513  1.00  0.00     0.049 A 
ATOM     52  C   UNL     1      -0.653   7.480 -10.424  1.00  0.00     0.074 A 
ATOM     53  C   UNL     1       1.578  13.014  -8.248  1.00  0.00     0.029 A 
ATOM     54  N   UNL     1       0.707  10.975  -8.426  1.00  0.00    -0.354 N 
ATOM     55  N   UNL     1      -0.205   8.589  -9.887  1.00  0.00    -0.248 NA
ATOM     56  C   UNL     1      -0.774   7.529 -11.887  1.00  0.00     0.031 C 
ATOM     57  C   UNL     1       1.361  12.740  -9.602  1.00  0.00     0.029 A 
ATOM     58  C   UNL     1       0.845  11.458  -9.716  1.00  0.00     0.049 A 
ATOM     59  H   UNL     1       0.355  10.085  -8.191  1.00  0.00     0.167 HD
ATOM     60  C   UNL     1       0.030   9.459 -10.944  1.00  0.00     0.074 A 
ATOM     61  C   UNL     1      -0.322   8.747 -12.155  1.00  0.00     0.031 C 
ATOM     62  C   UNL     1       0.498  10.732 -10.912  1.00  0.00     0.037 A 
BRANCH  49  63
ATOM     63  C   UNL     1       1.524  12.911  -5.216  1.00  0.00     0.064 A 
ATOM     64  C   UNL     1       2.686  12.886  -4.431  1.00  0.00     0.173 A 
ATOM     65  C   UNL     1       0.730  14.069  -5.173  1.00  0.00     0.173 A 
ATOM     66  F   UNL     1       3.471  11.799  -4.422  1.00  0.00    -0.203 F 
ATOM     67  C   UNL     1       3.017  13.962  -3.609  1.00  0.00     0.198 A 
ATOM     68  C   UNL     1       1.081  15.155  -4.376  1.00  0.00     0.198 A 
ATOM     69  F   UNL     1      -0.391  14.148  -5.906  1.00  0.00    -0.203 F 
ATOM     70  F   UNL     1       4.099  13.892  -2.821  1.00  0.00    -0.200 F 
ATOM     71  C   UNL     1       2.218  15.096  -3.586  1.00  0.00     0.200 A 
ATOM     72  F   UNL     1       0.314  16.253  -4.366  1.00  0.00    -0.200 F 
ATOM     73  F   UNL     1       2.538  16.128  -2.793  1.00  0.00    -0.200 F 
ENDBRANCH  49  63
BRANCH  50  74
ATOM     74  C   UNL     1      -1.630   5.064 -10.524  1.00  0.00     0.064 A 
ATOM     75  C   UNL     1      -0.825   4.283 -11.361  1.00  0.00     0.173 A 
ATOM     76  C   UNL     1      -2.987   4.720 -10.415  1.00  0.00     0.173 A 
ATOM     77  F   UNL     1       0.471   4.590 -11.521  1.00  0.00    -0.203 F 
ATOM     78  C   UNL     1      -1.354   3.197 -12.057  1.00  0.00     0.198 A 
ATOM     79  C   UNL     1      -3.508   3.616 -11.085  1.00  0.00     0.198 A 
ATOM     80  F   UNL     1      -3.802   5.440  -9.630  1.00  0.00    -0.203 F 
ATOM     81  F   UNL     1      -0.570   2.482 -12.875  1.00  0.00    -0.200 F 
ATOM     82  C   UNL     1      -2.692   2.858 -11.909  1.00  0.00     0.200 A 
ATOM     83  F   UNL     1      -4.796   3.285 -10.926  1.00  0.00    -0.200 F 
ATOM     84  F   UNL     1      -3.194   1.802 -12.564  1.00  0.00    -0.200 F 
ENDBRANCH  50  74
BRANCH  62  85
ATOM     85  C   UNL     1       0.705  11.429 -12.225  1.00  0.00     0.064 A 
ATOM     86  C   UNL     1      -0.371  11.905 -12.987  1.00  0.00     0.173 A 
ATOM     87  C   UNL     1       2.005  11.688 -12.688  1.00  0.00     0.173 A 
ATOM     88  F   UNL     1      -1.632  11.671 -12.595  1.00  0.00    -0.203 F 
ATOM     89  C   UNL     1      -0.153  12.607 -14.170  1.00  0.00     0.198 A 
ATOM     90  C   UNL     1       2.219  12.413 -13.856  1.00  0.00     0.198 A 
ATOM     91  F   UNL     1       3.068  11.258 -11.992  1.00  0.00    -0.203 F 
ATOM     92  F   UNL     1      -1.196  13.027 -14.900  1.00  0.00    -0.200 F 
ATOM     93  C   UNL     1       1.141  12.869 -14.598  1.00  0.00     0.200 A 
ATOM     94  F   UNL     1       3.470  12.678 -14.258  1.00  0.00    -0.200 F 
ATOM     95  F   UNL     1       1.348  13.560 -15.727  1.00  0.00    -0.200 F 
ENDBRANCH  62  85
ENDBRANCH  36  37
ENDBRANCH  29  31
ENDBRANCH  28  29
ENDBRANCH  27  28
ENDBRANCH  26  27
ENDBRANCH  25  26
ENDBRANCH  24  25
ENDBRANCH   1  24
TORSDOF 19
