REMARK SMILES COc1cccc([C@H]2Oc3ccccc3[C@@H]3CC(c4cccs4)=NN23)c1OCC(=O)OCCOCCOCCOC(=O)c1ccc(-c2c3nc(c(-c4c(F)c(F)c(F)c(F)c4F)c4ccc([nH]4)c(-c4c(F)c(F)c(F)c(F)c4F)c4nc(c(-c5c(F)c(F)c(F)c(F)c5F)c5ccc2[nH]5)C=C4)C=C3)cc1
REMARK SMILES IDX 35 1 34 2 33 3 32 4 31 5 29 6 30 7 28 8 27 9 26 10 3 11 4 12
REMARK SMILES IDX 5 13 7 14 6 15 2 16 1 17 8 18 9 19 25 20 10 21 16 22 24 23
REMARK SMILES IDX 11 24 15 25 17 26 18 27 12 28 14 29 13 30 19 31 20 32 23 33
REMARK SMILES IDX 21 34 22 35 36 36 37 37 38 38 39 39 40 40 41 41 42 42 43 43
REMARK SMILES IDX 44 44 105 45 45 46 104 47 46 48 47 49 48 50 98 51 49 52
REMARK SMILES IDX 103 53 97 54 99 55 50 56 102 57 96 58 95 59 51 61 83 62
REMARK SMILES IDX 63 63 82 64 64 65 67 66 81 67 100 68 65 69 66 70 80 72
REMARK SMILES IDX 101 73 68 74 52 75 53 76 61 77 54 78 55 79 59 80 62 81 56 82
REMARK SMILES IDX 57 83 60 84 58 85 84 86 85 87 93 88 86 89 87 90 91 91 94 92
REMARK SMILES IDX 88 93 89 94 92 95 90 96 69 97 70 98 78 99 71 100 72 101
REMARK SMILES IDX 76 102 79 103 73 104 74 105 77 106 75 107
REMARK H PARENT 99 60 67 71
REMARK Flexibility Score: inf
ROOT
ATOM      1  C   UNL     1       4.218  -4.128  -3.973  1.00  0.00     0.188 C 
ENDROOT
BRANCH   1   2
ATOM      2  O   UNL     1       5.057  -5.090  -4.608  1.00  0.00    -0.376 OA
BRANCH   2   3
ATOM      3  C   UNL     1       5.988  -4.589  -5.567  1.00  0.00     0.202 C 
BRANCH   3   4
ATOM      4  C   UNL     1       5.327  -3.983  -6.804  1.00  0.00     0.261 C 
BRANCH   4   5
ATOM      5  O   UNL     1       5.027  -2.590  -6.582  1.00  0.00    -0.461 OA
BRANCH   5   6
ATOM      6  C   UNL     1       3.923  -2.097  -7.211  1.00  0.00     0.344 C 
ATOM      7  O   UNL     1       3.140  -2.776  -7.866  1.00  0.00    -0.248 OA
BRANCH   6   8
ATOM      8  C   UNL     1       3.845  -0.573  -7.106  1.00  0.00     0.352 C 
BRANCH   8   9
ATOM      9  O   UNL     1       4.282   0.034  -5.909  1.00  0.00    -0.477 OA
BRANCH   9  10
ATOM     10  C   UNL     1       3.481   0.147  -4.811  1.00  0.00     0.170 A 
ATOM     11  C   UNL     1       2.203  -0.418  -4.625  1.00  0.00     0.161 A 
ATOM     12  C   UNL     1       1.570  -0.333  -3.374  1.00  0.00     0.050 A 
ATOM     13  C   UNL     1       2.233   0.178  -2.268  1.00  0.00     0.005 A 
ATOM     14  C   UNL     1       4.051   0.860  -3.744  1.00  0.00     0.061 A 
ATOM     15  C   UNL     1       3.469   0.763  -2.453  1.00  0.00     0.014 A 
BRANCH  11  16
ATOM     16  O   UNL     1       1.509  -0.902  -5.701  1.00  0.00    -0.493 OA
ATOM     17  C   UNL     1       0.843  -2.145  -5.511  1.00  0.00     0.278 C 
ENDBRANCH  11  16
BRANCH  14  18
ATOM     18  C   UNL     1       5.130   1.931  -3.841  1.00  0.00     0.324 C 
ATOM     19  O   UNL     1       6.277   1.541  -3.044  1.00  0.00    -0.464 OA
ATOM     20  N   UNL     1       5.567   2.555  -5.098  1.00  0.00    -0.246 NA
ATOM     21  C   UNL     1       6.819   2.703  -2.537  1.00  0.00     0.128 A 
ATOM     22  C   UNL     1       6.508   3.666  -4.794  1.00  0.00     0.146 C 
ATOM     23  N   UNL     1       4.743   2.842  -6.149  1.00  0.00    -0.177 NA
ATOM     24  C   UNL     1       7.223   2.707  -1.211  1.00  0.00     0.047 A 
ATOM     25  C   UNL     1       6.769   3.872  -3.317  1.00  0.00     0.019 A 
ATOM     26  C   UNL     1       5.914   4.815  -5.590  1.00  0.00     0.091 C 
ATOM     27  C   UNL     1       5.083   4.027  -6.554  1.00  0.00     0.080 C 
ATOM     28  C   UNL     1       7.430   3.932  -0.589  1.00  0.00     0.004 A 
ATOM     29  C   UNL     1       6.949   5.095  -2.674  1.00  0.00     0.010 A 
ATOM     30  C   UNL     1       7.245   5.120  -1.304  1.00  0.00     0.001 A 
BRANCH  27  31
ATOM     31  C   UNL     1       4.756   4.547  -7.849  1.00  0.00     0.050 A 
ATOM     32  C   UNL     1       5.596   4.592  -8.944  1.00  0.00     0.022 A 
ATOM     33  S   UNL     1       3.223   5.202  -8.188  1.00  0.00    -0.142 S 
ATOM     34  C   UNL     1       4.973   5.186 -10.076  1.00  0.00     0.012 A 
ATOM     35  C   UNL     1       3.678   5.571  -9.802  1.00  0.00     0.065 A 
ENDBRANCH  27  31
ENDBRANCH  14  18
ENDBRANCH   9  10
ENDBRANCH   8   9
ENDBRANCH   6   8
ENDBRANCH   5   6
ENDBRANCH   4   5
ENDBRANCH   3   4
ENDBRANCH   2   3
ENDBRANCH   1   2
BRANCH   1  36
ATOM     36  C   UNL     1       4.920  -2.906  -3.361  1.00  0.00     0.188 C 
BRANCH  36  37
ATOM     37  O   UNL     1       6.193  -3.141  -2.765  1.00  0.00    -0.376 OA
BRANCH  37  38
ATOM     38  C   UNL     1       6.265  -4.173  -1.786  1.00  0.00     0.202 C 
BRANCH  38  39
ATOM     39  C   UNL     1       5.486  -3.846  -0.518  1.00  0.00     0.261 C 
BRANCH  39  40
ATOM     40  O   UNL     1       4.084  -4.076  -0.745  1.00  0.00    -0.460 OA
BRANCH  40  41
ATOM     41  C   UNL     1       3.280  -3.439   0.131  1.00  0.00     0.338 C 
ATOM     42  O   UNL     1       3.608  -2.740   1.072  1.00  0.00    -0.246 OA
BRANCH  41  43
ATOM     43  C   UNL     1       1.876  -3.738  -0.184  1.00  0.00     0.060 A 
ATOM     44  C   UNL     1       1.275  -3.197  -1.323  1.00  0.00     0.016 A 
ATOM     45  C   UNL     1       1.117  -4.420   0.763  1.00  0.00     0.016 A 
ATOM     46  C   UNL     1      -0.116  -3.239  -1.459  1.00  0.00     0.010 A 
ATOM     47  C   UNL     1      -0.264  -4.515   0.594  1.00  0.00     0.010 A 
ATOM     48  C   UNL     1      -0.899  -3.872  -0.485  1.00  0.00    -0.014 A 
BRANCH  48  49
ATOM     49  C   UNL     1      -2.382  -3.761  -0.469  1.00  0.00     0.031 A 
ATOM     50  C   UNL     1      -3.037  -3.037   0.677  1.00  0.00     0.074 A 
ATOM     51  C   UNL     1      -3.151  -4.311  -1.426  1.00  0.00     0.049 A 
ATOM     52  N   UNL     1      -4.272  -3.090   1.101  1.00  0.00    -0.248 NA
ATOM     53  C   UNL     1      -2.168  -2.141   1.458  1.00  0.00     0.031 C 
ATOM     54  C   UNL     1      -2.667  -4.950  -2.646  1.00  0.00     0.029 A 
ATOM     55  N   UNL     1      -4.518  -4.439  -1.497  1.00  0.00    -0.354 N 
ATOM     56  C   UNL     1      -4.314  -2.288   2.235  1.00  0.00     0.074 A 
ATOM     57  C   UNL     1      -2.985  -1.747   2.423  1.00  0.00     0.031 C 
ATOM     58  C   UNL     1      -3.718  -5.416  -3.341  1.00  0.00     0.029 A 
ATOM     59  C   UNL     1      -4.939  -5.182  -2.572  1.00  0.00     0.049 A 
ATOM     60  H   UNL     1      -5.133  -4.037  -0.842  1.00  0.00     0.167 HD
ATOM     61  C   UNL     1      -5.365  -2.043   3.053  1.00  0.00     0.037 A 
ATOM     62  C   UNL     1      -6.157  -5.677  -2.866  1.00  0.00     0.037 A 
ATOM     63  C   UNL     1      -6.694  -2.551   2.835  1.00  0.00     0.049 A 
ATOM     64  C   UNL     1      -7.304  -5.441  -1.918  1.00  0.00     0.074 A 
ATOM     65  C   UNL     1      -7.822  -2.391   3.620  1.00  0.00     0.029 A 
ATOM     66  N   UNL     1      -7.074  -3.302   1.734  1.00  0.00    -0.354 N 
ATOM     67  N   UNL     1      -7.322  -4.778  -0.787  1.00  0.00    -0.248 NA
ATOM     68  C   UNL     1      -8.596  -6.045  -2.276  1.00  0.00     0.031 C 
ATOM     69  C   UNL     1      -8.883  -3.064   3.003  1.00  0.00     0.029 A 
ATOM     70  C   UNL     1      -8.421  -3.611   1.817  1.00  0.00     0.049 A 
ATOM     71  H   UNL     1      -6.476  -3.574   1.001  1.00  0.00     0.167 HD
ATOM     72  C   UNL     1      -8.623  -4.869  -0.310  1.00  0.00     0.074 A 
ATOM     73  C   UNL     1      -9.371  -5.643  -1.279  1.00  0.00     0.031 C 
ATOM     74  C   UNL     1      -9.151  -4.363   0.831  1.00  0.00     0.037 A 
BRANCH  61  75
ATOM     75  C   UNL     1      -5.111  -1.228   4.284  1.00  0.00     0.064 A 
ATOM     76  C   UNL     1      -4.921   0.160   4.228  1.00  0.00     0.173 A 
ATOM     77  C   UNL     1      -5.085  -1.846   5.543  1.00  0.00     0.173 A 
ATOM     78  F   UNL     1      -4.918   0.794   3.046  1.00  0.00    -0.203 F 
ATOM     79  C   UNL     1      -4.697   0.897   5.389  1.00  0.00     0.198 A 
ATOM     80  C   UNL     1      -4.886  -1.103   6.703  1.00  0.00     0.198 A 
ATOM     81  F   UNL     1      -5.263  -3.172   5.649  1.00  0.00    -0.203 F 
ATOM     82  F   UNL     1      -4.480   2.217   5.310  1.00  0.00    -0.200 F 
ATOM     83  C   UNL     1      -4.687   0.267   6.625  1.00  0.00     0.200 A 
ATOM     84  F   UNL     1      -4.885  -1.713   7.897  1.00  0.00    -0.200 F 
ATOM     85  F   UNL     1      -4.477   0.979   7.740  1.00  0.00    -0.200 F 
ENDBRANCH  61  75
BRANCH  62  86
ATOM     86  C   UNL     1      -6.343  -6.507  -4.084  1.00  0.00     0.064 A 
ATOM     87  C   UNL     1      -7.101  -6.039  -5.166  1.00  0.00     0.173 A 
ATOM     88  C   UNL     1      -5.779  -7.787  -4.186  1.00  0.00     0.173 A 
ATOM     89  F   UNL     1      -7.686  -4.835  -5.102  1.00  0.00    -0.203 F 
ATOM     90  C   UNL     1      -7.295  -6.825  -6.300  1.00  0.00     0.198 A 
ATOM     91  C   UNL     1      -5.949  -8.560  -5.332  1.00  0.00     0.198 A 
ATOM     92  F   UNL     1      -5.051  -8.283  -3.175  1.00  0.00    -0.203 F 
ATOM     93  F   UNL     1      -8.059  -6.372  -7.303  1.00  0.00    -0.200 F 
ATOM     94  C   UNL     1      -6.713  -8.081  -6.385  1.00  0.00     0.200 A 
ATOM     95  F   UNL     1      -5.376  -9.769  -5.413  1.00  0.00    -0.200 F 
ATOM     96  F   UNL     1      -6.896  -8.835  -7.478  1.00  0.00    -0.200 F 
ENDBRANCH  62  86
BRANCH  74  97
ATOM     97  C   UNL     1     -10.614  -4.584   1.073  1.00  0.00     0.064 A 
ATOM     98  C   UNL     1     -11.107  -5.823   1.505  1.00  0.00     0.173 A 
ATOM     99  C   UNL     1     -11.523  -3.526   0.924  1.00  0.00     0.173 A 
ATOM    100  F   UNL     1     -10.278  -6.867   1.648  1.00  0.00    -0.203 F 
ATOM    101  C   UNL     1     -12.464  -5.998   1.766  1.00  0.00     0.198 A 
ATOM    102  C   UNL     1     -12.874  -3.699   1.206  1.00  0.00     0.198 A 
ATOM    103  F   UNL     1     -11.095  -2.320   0.519  1.00  0.00    -0.203 F 
ATOM    104  F   UNL     1     -12.921  -7.198   2.148  1.00  0.00    -0.200 F 
ATOM    105  C   UNL     1     -13.344  -4.935   1.623  1.00  0.00     0.200 A 
ATOM    106  F   UNL     1     -13.722  -2.669   1.077  1.00  0.00    -0.200 F 
ATOM    107  F   UNL     1     -14.648  -5.104   1.883  1.00  0.00    -0.200 F 
ENDBRANCH  74  97
ENDBRANCH  48  49
ENDBRANCH  41  43
ENDBRANCH  40  41
ENDBRANCH  39  40
ENDBRANCH  38  39
ENDBRANCH  37  38
ENDBRANCH  36  37
ENDBRANCH   1  36
TORSDOF 22
