REMARK SMILES CCCCN1C(=O)[C@@H]2[C@H](CCC(=O)OCCOCCOCCOC(=O)c3ccc(-c4c5nc(c(-c6c(F)c(F)c(F)c(F)c6F)c6ccc([nH]6)c(-c6c(F)c(F)c(F)c(F)c6F)c6nc(c(-c7c(F)c(F)c(F)c(F)c7F)c7ccc4[nH]7)C=C6)C=C5)cc3)[NH2+][C@]3(C(=O)Nc4c(CC)cccc43)[C@@H]2C1=O
REMARK SMILES IDX 17 1 16 2 15 3 14 4 12 5 13 6 11 7 10 8 9 9 5 10 6 11 103 12
REMARK SMILES IDX 7 13 8 14 102 15 104 16 90 17 89 18 91 19 101 20 92 23 93 24
REMARK SMILES IDX 94 25 100 26 95 28 99 29 98 30 4 31 3 32 2 33 1 34 96 35
REMARK SMILES IDX 97 36 18 37 19 38 20 39 21 40 22 41 23 42 24 43 25 44 26 45
REMARK SMILES IDX 27 46 88 47 28 48 87 49 29 50 30 51 31 52 81 53 32 54 86 55
REMARK SMILES IDX 80 56 82 57 33 58 85 59 79 60 78 61 34 63 66 64 46 65 65 66
REMARK SMILES IDX 47 67 50 68 64 69 83 70 48 71 49 72 63 74 84 75 51 76 35 77
REMARK SMILES IDX 36 78 44 79 37 80 38 81 42 82 45 83 39 84 40 85 43 86 41 87
REMARK SMILES IDX 67 88 68 89 76 90 69 91 70 92 74 93 77 94 71 95 72 96 75 97
REMARK SMILES IDX 73 98 52 99 53 100 61 101 54 102 55 103 59 104 62 105 56 106
REMARK SMILES IDX 57 107 60 108 58 109
REMARK H PARENT 89 21 89 22 93 27 82 62 50 73
REMARK Flexibility Score: inf
ROOT
ATOM      1  O   UNL     1      -3.731  -3.184  -3.523  1.00  0.00    -0.376 OA
ENDROOT
BRANCH   1   2
ATOM      2  C   UNL     1      -4.389  -3.310  -2.261  1.00  0.00     0.202 C 
BRANCH   2   3
ATOM      3  C   UNL     1      -3.590  -2.940  -1.003  1.00  0.00     0.261 C 
BRANCH   3   4
ATOM      4  O   UNL     1      -3.208  -1.547  -0.954  1.00  0.00    -0.463 OA
BRANCH   4   5
ATOM      5  C   UNL     1      -1.905  -1.306  -0.675  1.00  0.00     0.306 C 
ATOM      6  O   UNL     1      -1.089  -2.174  -0.381  1.00  0.00    -0.252 OA
BRANCH   5   7
ATOM      7  C   UNL     1      -1.457   0.120  -0.942  1.00  0.00     0.129 C 
BRANCH   7   8
ATOM      8  C   UNL     1      -2.369   1.349  -0.955  1.00  0.00     0.077 C 
BRANCH   8   9
ATOM      9  C   UNL     1      -3.609   1.406  -0.049  1.00  0.00     0.197 C 
ATOM     10  N   UNL     1      -1.277   2.209   1.935  1.00  0.00    -0.282 N 
ATOM     11  C   UNL     1      -2.044   1.078   1.931  1.00  0.00     0.239 C 
ATOM     12  C   UNL     1      -2.071   3.336   1.950  1.00  0.00     0.240 C 
ATOM     13  O   UNL     1      -1.736  -0.059   2.193  1.00  0.00    -0.274 OA
ATOM     14  C   UNL     1      -3.416   1.456   1.470  1.00  0.00     0.157 C 
ATOM     15  C   UNL     1      -3.522   2.918   1.864  1.00  0.00     0.174 C 
ATOM     16  O   UNL     1      -1.687   4.479   2.147  1.00  0.00    -0.274 OA
ATOM     17  C   UNL     1      -4.388   3.535   0.779  1.00  0.00     0.216 C 
ATOM     18  N   UNL     1      -4.267   2.672  -0.410  1.00  0.00    -0.326 N 
ATOM     19  C   UNL     1      -4.048   5.014   0.399  1.00  0.00     0.291 C 
ATOM     20  C   UNL     1      -5.841   3.668   1.201  1.00  0.00     0.047 A 
ATOM     21  H   UNL     1      -5.197   2.475  -0.781  1.00  0.00     0.347 HD
ATOM     22  H   UNL     1      -3.707   3.151  -1.116  1.00  0.00     0.347 HD
ATOM     23  O   UNL     1      -3.048   5.438  -0.159  1.00  0.00    -0.267 OA
ATOM     24  N   UNL     1      -5.153   5.790   0.742  1.00  0.00    -0.320 N 
ATOM     25  C   UNL     1      -6.216   5.016   1.191  1.00  0.00     0.054 A 
ATOM     26  C   UNL     1      -6.761   2.681   1.523  1.00  0.00     0.013 A 
ATOM     27  H   UNL     1      -5.178   6.772   0.675  1.00  0.00     0.170 HD
ATOM     28  C   UNL     1      -7.494   5.439   1.534  1.00  0.00    -0.024 A 
ATOM     29  C   UNL     1      -8.058   3.072   1.853  1.00  0.00     0.001 A 
ATOM     30  C   UNL     1      -8.416   4.431   1.871  1.00  0.00     0.006 A 
BRANCH  10  31
ATOM     31  C   UNL     1       0.181   2.294   1.850  1.00  0.00     0.128 C 
BRANCH  31  32
ATOM     32  C   UNL     1       1.048   1.195   2.482  1.00  0.00     0.022 C 
BRANCH  32  33
ATOM     33  C   UNL     1       1.281  -0.105   1.696  1.00  0.00    -0.002 C 
ATOM     34  C   UNL     1       1.936   0.046   0.330  1.00  0.00     0.004 C 
ENDBRANCH  32  33
ENDBRANCH  31  32
ENDBRANCH  10  31
BRANCH  28  35
ATOM     35  C   UNL     1      -7.912   6.885   1.567  1.00  0.00     0.034 C 
ATOM     36  C   UNL     1      -8.966   7.224   0.521  1.00  0.00     0.009 C 
ENDBRANCH  28  35
ENDBRANCH   8   9
ENDBRANCH   7   8
ENDBRANCH   5   7
ENDBRANCH   4   5
ENDBRANCH   3   4
ENDBRANCH   2   3
ENDBRANCH   1   2
BRANCH   1  37
ATOM     37  C   UNL     1      -3.102  -1.950  -3.850  1.00  0.00     0.188 C 
BRANCH  37  38
ATOM     38  C   UNL     1      -3.871  -0.651  -3.573  1.00  0.00     0.188 C 
BRANCH  38  39
ATOM     39  O   UNL     1      -5.201  -0.864  -3.164  1.00  0.00    -0.376 OA
BRANCH  39  40
ATOM     40  C   UNL     1      -6.238  -0.149  -3.804  1.00  0.00     0.202 C 
BRANCH  40  41
ATOM     41  C   UNL     1      -6.433  -0.413  -5.303  1.00  0.00     0.261 C 
BRANCH  41  42
ATOM     42  O   UNL     1      -5.251  -0.335  -6.116  1.00  0.00    -0.460 OA
BRANCH  42  43
ATOM     43  C   UNL     1      -4.716   0.890  -6.338  1.00  0.00     0.338 C 
ATOM     44  O   UNL     1      -5.157   1.960  -5.961  1.00  0.00    -0.246 OA
BRANCH  43  45
ATOM     45  C   UNL     1      -3.352   0.665  -6.888  1.00  0.00     0.060 A 
ATOM     46  C   UNL     1      -3.143  -0.266  -7.909  1.00  0.00     0.016 A 
ATOM     47  C   UNL     1      -2.259   1.324  -6.305  1.00  0.00     0.016 A 
ATOM     48  C   UNL     1      -1.846  -0.521  -8.360  1.00  0.00     0.010 A 
ATOM     49  C   UNL     1      -0.958   1.060  -6.753  1.00  0.00     0.010 A 
ATOM     50  C   UNL     1      -0.744   0.151  -7.800  1.00  0.00    -0.014 A 
BRANCH  50  51
ATOM     51  C   UNL     1       0.579   0.050  -8.467  1.00  0.00     0.031 A 
ATOM     52  C   UNL     1       1.682  -0.832  -7.964  1.00  0.00     0.074 A 
ATOM     53  C   UNL     1       0.761   0.781  -9.584  1.00  0.00     0.049 A 
ATOM     54  N   UNL     1       2.835  -1.100  -8.529  1.00  0.00    -0.248 NA
ATOM     55  C   UNL     1       1.480  -1.492  -6.668  1.00  0.00     0.031 C 
ATOM     56  C   UNL     1      -0.224   1.710 -10.142  1.00  0.00     0.029 A 
ATOM     57  N   UNL     1       1.821   0.856 -10.451  1.00  0.00    -0.354 N 
ATOM     58  C   UNL     1       3.488  -1.974  -7.672  1.00  0.00     0.074 A 
ATOM     59  C   UNL     1       2.621  -2.162  -6.526  1.00  0.00     0.031 C 
ATOM     60  C   UNL     1       0.269   2.245 -11.268  1.00  0.00     0.029 A 
ATOM     61  C   UNL     1       1.607   1.713 -11.502  1.00  0.00     0.049 A 
ATOM     62  H   UNL     1       2.654   0.345 -10.332  1.00  0.00     0.167 HD
ATOM     63  C   UNL     1       4.692  -2.573  -7.843  1.00  0.00     0.037 A 
ATOM     64  C   UNL     1       2.396   2.034 -12.545  1.00  0.00     0.037 A 
ATOM     65  C   UNL     1       5.552  -2.381  -8.988  1.00  0.00     0.049 A 
ATOM     66  C   UNL     1       3.731   1.361 -12.696  1.00  0.00     0.074 A 
ATOM     67  C   UNL     1       6.755  -3.006  -9.273  1.00  0.00     0.029 A 
ATOM     68  N   UNL     1       5.314  -1.492 -10.024  1.00  0.00    -0.354 N 
ATOM     69  N   UNL     1       4.286   0.449 -11.937  1.00  0.00    -0.248 NA
ATOM     70  C   UNL     1       4.544   1.751 -13.857  1.00  0.00     0.031 C 
ATOM     71  C   UNL     1       7.272  -2.456 -10.448  1.00  0.00     0.029 A 
ATOM     72  C   UNL     1       6.365  -1.527 -10.929  1.00  0.00     0.049 A 
ATOM     73  H   UNL     1       4.517  -0.919 -10.106  1.00  0.00     0.167 HD
ATOM     74  C   UNL     1       5.500   0.142 -12.536  1.00  0.00     0.074 A 
ATOM     75  C   UNL     1       5.591   0.947 -13.736  1.00  0.00     0.031 C 
ATOM     76  C   UNL     1       6.453  -0.726 -12.122  1.00  0.00     0.037 A 
BRANCH  63  77
ATOM     77  C   UNL     1       5.176  -3.530  -6.793  1.00  0.00     0.064 A 
ATOM     78  C   UNL     1       4.642  -4.823  -6.692  1.00  0.00     0.173 A 
ATOM     79  C   UNL     1       6.295  -3.217  -6.003  1.00  0.00     0.173 A 
ATOM     80  F   UNL     1       3.579  -5.173  -7.431  1.00  0.00    -0.203 F 
ATOM     81  C   UNL     1       5.215  -5.769  -5.846  1.00  0.00     0.198 A 
ATOM     82  C   UNL     1       6.877  -4.173  -5.175  1.00  0.00     0.198 A 
ATOM     83  F   UNL     1       6.855  -2.000  -6.078  1.00  0.00    -0.203 F 
ATOM     84  F   UNL     1       4.691  -7.001  -5.770  1.00  0.00    -0.200 F 
ATOM     85  C   UNL     1       6.339  -5.449  -5.099  1.00  0.00     0.200 A 
ATOM     86  F   UNL     1       7.978  -3.869  -4.473  1.00  0.00    -0.200 F 
ATOM     87  F   UNL     1       6.912  -6.374  -4.316  1.00  0.00    -0.200 F 
ENDBRANCH  63  77
BRANCH  64  88
ATOM     88  C   UNL     1       1.926   3.028 -13.542  1.00  0.00     0.064 A 
ATOM     89  C   UNL     1       1.609   2.645 -14.852  1.00  0.00     0.173 A 
ATOM     90  C   UNL     1       1.783   4.381 -13.202  1.00  0.00     0.173 A 
ATOM     91  F   UNL     1       1.744   1.365 -15.227  1.00  0.00    -0.203 F 
ATOM     92  C   UNL     1       1.190   3.583 -15.792  1.00  0.00     0.198 A 
ATOM     93  C   UNL     1       1.334   5.313 -14.134  1.00  0.00     0.198 A 
ATOM     94  F   UNL     1       2.066   4.796 -11.958  1.00  0.00    -0.203 F 
ATOM     95  F   UNL     1       0.940   3.199 -17.051  1.00  0.00    -0.200 F 
ATOM     96  C   UNL     1       1.047   4.915 -15.431  1.00  0.00     0.200 A 
ATOM     97  F   UNL     1       1.180   6.595 -13.777  1.00  0.00    -0.200 F 
ATOM     98  F   UNL     1       0.640   5.816 -16.336  1.00  0.00    -0.200 F 
ENDBRANCH  64  88
BRANCH  76  99
ATOM     99  C   UNL     1       7.683  -0.866 -12.973  1.00  0.00     0.064 A 
ATOM    100  C   UNL     1       8.646   0.152 -13.040  1.00  0.00     0.173 A 
ATOM    101  C   UNL     1       7.932  -2.052 -13.680  1.00  0.00     0.173 A 
ATOM    102  F   UNL     1       8.449   1.312 -12.395  1.00  0.00    -0.203 F 
ATOM    103  C   UNL     1       9.805  -0.007 -13.796  1.00  0.00     0.198 A 
ATOM    104  C   UNL     1       9.106  -2.219 -14.410  1.00  0.00     0.198 A 
ATOM    105  F   UNL     1       7.047  -3.059 -13.645  1.00  0.00    -0.203 F 
ATOM    106  F   UNL     1      10.692   0.995 -13.876  1.00  0.00    -0.200 F 
ATOM    107  C   UNL     1      10.039  -1.195 -14.471  1.00  0.00     0.200 A 
ATOM    108  F   UNL     1       9.337  -3.373 -15.050  1.00  0.00    -0.200 F 
ATOM    109  F   UNL     1      11.162  -1.351 -15.186  1.00  0.00    -0.200 F 
ENDBRANCH  76  99
ENDBRANCH  50  51
ENDBRANCH  43  45
ENDBRANCH  42  43
ENDBRANCH  41  42
ENDBRANCH  40  41
ENDBRANCH  39  40
ENDBRANCH  38  39
ENDBRANCH  37  38
ENDBRANCH   1  37
TORSDOF 23
