REMARK SMILES O=C(Cc1ccn[nH]1)NC[C@H]1CCCC[C@H]1C(=O)OCCOCCOCCOC(=O)c1ccc(-c2c3nc(c(-c4c(F)c(F)c(F)c(F)c4F)c4ccc([nH]4)c(-c4c(F)c(F)c(F)c(F)c4F)c4nc(c(-c5c(F)c(F)c(F)c(F)c5F)c5ccc2[nH]5)C=C4)C=C3)cc1
REMARK SMILES IDX 23 1 22 2 21 3 20 4 19 5 17 6 18 7 16 8 11 9 12 10 13 11
REMARK SMILES IDX 15 12 14 13 10 14 9 15 1 16 2 17 3 19 4 20 5 21 8 22 6 23
REMARK SMILES IDX 7 24 24 26 25 27 26 28 27 29 28 30 29 31 30 32 31 33 32 34
REMARK SMILES IDX 93 35 33 36 92 37 34 38 35 39 36 40 86 41 37 42 91 43 85 44
REMARK SMILES IDX 87 45 38 46 90 47 84 48 83 49 39 51 71 52 51 53 70 54 52 55
REMARK SMILES IDX 55 56 69 57 88 58 53 59 54 60 68 62 89 63 56 64 40 65 41 66
REMARK SMILES IDX 49 67 42 68 43 69 47 70 50 71 44 72 45 73 48 74 46 75 72 76
REMARK SMILES IDX 73 77 81 78 74 79 75 80 79 81 82 82 76 83 77 84 80 85 78 86
REMARK SMILES IDX 57 87 58 88 66 89 59 90 60 91 64 92 67 93 61 94 62 95 65 96
REMARK SMILES IDX 63 97
REMARK H PARENT 9 18 8 25 87 50 55 61
REMARK Flexibility Score: inf
ROOT
ATOM      1  C   UNL     1       3.833   3.003  -4.489  1.00  0.00     0.188 C 
ENDROOT
BRANCH   1   2
ATOM      2  O   UNL     1       4.950   3.473  -5.231  1.00  0.00    -0.376 OA
BRANCH   2   3
ATOM      3  C   UNL     1       6.162   3.678  -4.505  1.00  0.00     0.202 C 
BRANCH   3   4
ATOM      4  C   UNL     1       6.140   4.767  -3.423  1.00  0.00     0.261 C 
BRANCH   4   5
ATOM      5  O   UNL     1       5.073   4.633  -2.457  1.00  0.00    -0.463 OA
BRANCH   5   6
ATOM      6  C   UNL     1       4.142   5.615  -2.475  1.00  0.00     0.309 C 
ATOM      7  O   UNL     1       4.184   6.590  -3.221  1.00  0.00    -0.252 OA
BRANCH   6   8
ATOM      8  C   UNL     1       2.957   5.405  -1.532  1.00  0.00     0.104 C 
ATOM      9  C   UNL     1       2.798   4.111  -0.686  1.00  0.00     0.022 C 
ATOM     10  C   UNL     1       1.494   4.186   0.159  1.00  0.00     0.006 C 
ATOM     11  C   UNL     1       1.285   5.503   0.915  1.00  0.00     0.000 C 
ATOM     12  C   UNL     1       2.758   6.703  -0.736  1.00  0.00     0.016 C 
ATOM     13  C   UNL     1       1.435   6.715   0.012  1.00  0.00     0.001 C 
BRANCH   9  14
ATOM     14  C   UNL     1       3.986   3.634   0.178  1.00  0.00     0.120 C 
BRANCH  14  15
ATOM     15  N   UNL     1       4.212   4.457   1.340  1.00  0.00    -0.355 N 
ATOM     16  O   UNL     1       4.504   2.748   2.848  1.00  0.00    -0.275 OA
ATOM     17  C   UNL     1       4.428   3.949   2.605  1.00  0.00     0.226 C 
ATOM     18  H   UNL     1       4.213   5.435   1.225  1.00  0.00     0.163 HD
BRANCH  17  19
ATOM     19  C   UNL     1       4.452   5.006   3.703  1.00  0.00     0.155 C 
BRANCH  19  20
ATOM     20  C   UNL     1       5.653   5.887   3.627  1.00  0.00     0.044 A 
ATOM     21  C   UNL     1       6.743   6.004   4.464  1.00  0.00     0.045 A 
ATOM     22  N   UNL     1       5.840   6.841   2.662  1.00  0.00    -0.282 N 
ATOM     23  C   UNL     1       7.531   7.021   3.896  1.00  0.00     0.135 A 
ATOM     24  N   UNL     1       6.984   7.523   2.789  1.00  0.00    -0.184 NA
ATOM     25  H   UNL     1       5.191   7.010   1.942  1.00  0.00     0.190 HD
ENDBRANCH  19  20
ENDBRANCH  17  19
ENDBRANCH  14  15
ENDBRANCH   9  14
ENDBRANCH   6   8
ENDBRANCH   5   6
ENDBRANCH   4   5
ENDBRANCH   3   4
ENDBRANCH   2   3
ENDBRANCH   1   2
BRANCH   1  26
ATOM     26  C   UNL     1       4.029   1.705  -3.707  1.00  0.00     0.188 C 
BRANCH  26  27
ATOM     27  O   UNL     1       5.171   1.644  -2.864  1.00  0.00    -0.376 OA
BRANCH  27  28
ATOM     28  C   UNL     1       5.364   0.407  -2.163  1.00  0.00     0.202 C 
BRANCH  28  29
ATOM     29  C   UNL     1       5.303  -0.892  -2.999  1.00  0.00     0.261 C 
BRANCH  29  30
ATOM     30  O   UNL     1       4.056  -1.145  -3.688  1.00  0.00    -0.460 OA
BRANCH  30  31
ATOM     31  C   UNL     1       2.909  -1.081  -2.973  1.00  0.00     0.338 C 
ATOM     32  O   UNL     1       2.812  -1.078  -1.758  1.00  0.00    -0.246 OA
BRANCH  31  33
ATOM     33  C   UNL     1       1.790  -0.724  -3.893  1.00  0.00     0.060 A 
ATOM     34  C   UNL     1       0.817   0.175  -3.429  1.00  0.00     0.016 A 
ATOM     35  C   UNL     1       1.726  -1.186  -5.211  1.00  0.00     0.016 A 
ATOM     36  C   UNL     1      -0.239   0.572  -4.255  1.00  0.00     0.010 A 
ATOM     37  C   UNL     1       0.659  -0.800  -6.035  1.00  0.00     0.010 A 
ATOM     38  C   UNL     1      -0.350   0.052  -5.551  1.00  0.00    -0.014 A 
BRANCH  38  39
ATOM     39  C   UNL     1      -1.621   0.216  -6.308  1.00  0.00     0.031 A 
ATOM     40  C   UNL     1      -2.617  -0.912  -6.273  1.00  0.00     0.074 A 
ATOM     41  C   UNL     1      -1.912   1.333  -6.999  1.00  0.00     0.049 A 
ATOM     42  N   UNL     1      -3.769  -1.033  -6.885  1.00  0.00    -0.248 NA
ATOM     43  C   UNL     1      -2.258  -2.064  -5.433  1.00  0.00     0.031 C 
ATOM     44  C   UNL     1      -1.064   2.517  -7.094  1.00  0.00     0.029 A 
ATOM     45  N   UNL     1      -3.011   1.641  -7.768  1.00  0.00    -0.354 N 
ATOM     46  C   UNL     1      -4.263  -2.276  -6.513  1.00  0.00     0.074 A 
ATOM     47  C   UNL     1      -3.273  -2.884  -5.650  1.00  0.00     0.031 C 
ATOM     48  C   UNL     1      -1.662   3.416  -7.897  1.00  0.00     0.029 A 
ATOM     49  C   UNL     1      -2.920   2.858  -8.397  1.00  0.00     0.049 A 
ATOM     50  H   UNL     1      -3.789   1.045  -7.858  1.00  0.00     0.167 HD
ATOM     51  C   UNL     1      -5.438  -2.860  -6.851  1.00  0.00     0.037 A 
ATOM     52  C   UNL     1      -3.741   3.442  -9.295  1.00  0.00     0.037 A 
ATOM     53  C   UNL     1      -6.426  -2.264  -7.710  1.00  0.00     0.049 A 
ATOM     54  C   UNL     1      -5.014   2.747  -9.714  1.00  0.00     0.074 A 
ATOM     55  C   UNL     1      -7.660  -2.767  -8.083  1.00  0.00     0.029 A 
ATOM     56  N   UNL     1      -6.285  -1.039  -8.346  1.00  0.00    -0.354 N 
ATOM     57  N   UNL     1      -5.494   1.589  -9.329  1.00  0.00    -0.248 NA
ATOM     58  C   UNL     1      -5.864   3.446 -10.691  1.00  0.00     0.031 C 
ATOM     59  C   UNL     1      -8.237  -1.878  -8.996  1.00  0.00     0.029 A 
ATOM     60  C   UNL     1      -7.395  -0.787  -9.138  1.00  0.00     0.049 A 
ATOM     61  H   UNL     1      -5.512  -0.438  -8.249  1.00  0.00     0.167 HD
ATOM     62  C   UNL     1      -6.705   1.433  -9.993  1.00  0.00     0.074 A 
ATOM     63  C   UNL     1      -6.897   2.621 -10.797  1.00  0.00     0.031 C 
ATOM     64  C   UNL     1      -7.581   0.398  -9.938  1.00  0.00     0.037 A 
BRANCH  51  65
ATOM     65  C   UNL     1      -5.695  -4.240  -6.317  1.00  0.00     0.064 A 
ATOM     66  C   UNL     1      -5.927  -4.479  -4.954  1.00  0.00     0.173 A 
ATOM     67  C   UNL     1      -5.710  -5.341  -7.187  1.00  0.00     0.173 A 
ATOM     68  F   UNL     1      -5.907  -3.463  -4.077  1.00  0.00    -0.203 F 
ATOM     69  C   UNL     1      -6.122  -5.772  -4.476  1.00  0.00     0.198 A 
ATOM     70  C   UNL     1      -5.942  -6.628  -6.711  1.00  0.00     0.198 A 
ATOM     71  F   UNL     1      -5.499  -5.169  -8.501  1.00  0.00    -0.203 F 
ATOM     72  F   UNL     1      -6.274  -5.983  -3.161  1.00  0.00    -0.200 F 
ATOM     73  C   UNL     1      -6.135  -6.844  -5.355  1.00  0.00     0.200 A 
ATOM     74  F   UNL     1      -5.968  -7.661  -7.564  1.00  0.00    -0.200 F 
ATOM     75  F   UNL     1      -6.322  -8.089  -4.894  1.00  0.00    -0.200 F 
ENDBRANCH  51  65
BRANCH  52  76
ATOM     76  C   UNL     1      -3.369   4.755  -9.889  1.00  0.00     0.064 A 
ATOM     77  C   UNL     1      -4.096   5.918  -9.604  1.00  0.00     0.173 A 
ATOM     78  C   UNL     1      -2.282   4.865 -10.771  1.00  0.00     0.173 A 
ATOM     79  F   UNL     1      -5.164   5.859  -8.796  1.00  0.00    -0.203 F 
ATOM     80  C   UNL     1      -3.757   7.140 -10.186  1.00  0.00     0.198 A 
ATOM     81  C   UNL     1      -1.927   6.092 -11.328  1.00  0.00     0.198 A 
ATOM     82  F   UNL     1      -1.560   3.780 -11.085  1.00  0.00    -0.203 F 
ATOM     83  F   UNL     1      -4.497   8.228  -9.932  1.00  0.00    -0.200 F 
ATOM     84  C   UNL     1      -2.668   7.227 -11.040  1.00  0.00     0.200 A 
ATOM     85  F   UNL     1      -0.869   6.172 -12.146  1.00  0.00    -0.200 F 
ATOM     86  F   UNL     1      -2.339   8.403 -11.592  1.00  0.00    -0.200 F 
ENDBRANCH  52  76
BRANCH  64  87
ATOM     87  C   UNL     1      -8.848   0.508 -10.741  1.00  0.00     0.064 A 
ATOM     88  C   UNL     1      -8.848   0.430 -12.142  1.00  0.00     0.173 A 
ATOM     89  C   UNL     1     -10.088   0.642 -10.095  1.00  0.00     0.173 A 
ATOM     90  F   UNL     1      -7.691   0.313 -12.811  1.00  0.00    -0.203 F 
ATOM     91  C   UNL     1     -10.036   0.507 -12.866  1.00  0.00     0.198 A 
ATOM     92  C   UNL     1     -11.277   0.686 -10.820  1.00  0.00     0.198 A 
ATOM     93  F   UNL     1     -10.150   0.713  -8.757  1.00  0.00    -0.203 F 
ATOM     94  F   UNL     1     -10.006   0.477 -14.205  1.00  0.00    -0.200 F 
ATOM     95  C   UNL     1     -11.249   0.626 -12.204  1.00  0.00     0.200 A 
ATOM     96  F   UNL     1     -12.449   0.783 -10.177  1.00  0.00    -0.200 F 
ATOM     97  F   UNL     1     -12.392   0.689 -12.902  1.00  0.00    -0.200 F 
ENDBRANCH  64  87
ENDBRANCH  38  39
ENDBRANCH  31  33
ENDBRANCH  30  31
ENDBRANCH  29  30
ENDBRANCH  28  29
ENDBRANCH  27  28
ENDBRANCH  26  27
ENDBRANCH   1  26
TORSDOF 21
