REMARK SMILES [NH3+][C@@H](Cc1ccc(OC(F)F)cc1)C(=O)OCCOCCOCCOC(=O)c1ccc(-c2c3nc(c(-c4c(F)c(F)c(F)c(F)c4F)c4ccc([nH]4)c(-c4c(F)c(F)c(F)c(F)c4F)c4nc(c(-c5c(F)c(F)c(F)c(F)c5F)c5ccc2[nH]5)C=C4)C=C3)cc1
REMARK SMILES IDX 20 1 19 2 18 3 17 4 16 5 14 6 15 7 2 8 1 9 3 13 4 14 5 15
REMARK SMILES IDX 13 16 6 17 12 18 7 19 8 20 9 21 10 22 11 23 21 24 22 25
REMARK SMILES IDX 23 26 24 27 25 28 26 29 27 30 28 31 29 32 90 33 30 34 89 35
REMARK SMILES IDX 31 36 32 37 33 38 83 39 34 40 88 41 82 42 84 43 35 44 87 45
REMARK SMILES IDX 81 46 80 47 36 49 68 50 48 51 67 52 49 53 52 54 66 55 85 56
REMARK SMILES IDX 50 57 51 58 65 60 86 61 53 62 37 63 38 64 46 65 39 66 40 67
REMARK SMILES IDX 44 68 47 69 41 70 42 71 45 72 43 73 69 74 70 75 78 76 71 77
REMARK SMILES IDX 72 78 76 79 79 80 73 81 74 82 77 83 75 84 54 85 55 86 63 87
REMARK SMILES IDX 56 88 57 89 61 90 64 91 58 92 59 93 62 94 60 95
REMARK H PARENT 1 10 1 11 1 12 84 48 52 59
REMARK Flexibility Score: inf
ROOT
ATOM      1  C   UNL     1      -2.066  -1.436   1.291  1.00  0.00     0.188 C 
ENDROOT
BRANCH   1   2
ATOM      2  O   UNL     1      -3.361  -0.932   1.613  1.00  0.00    -0.376 OA
BRANCH   2   3
ATOM      3  C   UNL     1      -3.775   0.304   1.046  1.00  0.00     0.202 C 
BRANCH   3   4
ATOM      4  C   UNL     1      -2.895   1.536   1.284  1.00  0.00     0.261 C 
BRANCH   4   5
ATOM      5  O   UNL     1      -1.487   1.318   1.085  1.00  0.00    -0.459 OA
BRANCH   5   6
ATOM      6  C   UNL     1      -0.672   1.607   2.135  1.00  0.00     0.365 C 
ATOM      7  O   UNL     1      -1.063   2.009   3.228  1.00  0.00    -0.245 OA
BRANCH   6   8
ATOM      8  C   UNL     1       0.825   1.458   1.820  1.00  0.00     0.296 C 
BRANCH   8   9
ATOM      9  N   UNL     1       1.215   0.233   1.076  1.00  0.00    -0.346 N 
ATOM     10  H   UNL     1       2.223   0.235   0.921  1.00  0.00     0.345 HD
ATOM     11  H   UNL     1       0.733   0.212   0.178  1.00  0.00     0.345 HD
ATOM     12  H   UNL     1       0.957  -0.591   1.620  1.00  0.00     0.345 HD
ENDBRANCH   8   9
BRANCH   8  13
ATOM     13  C   UNL     1       1.408   2.757   1.239  1.00  0.00     0.113 C 
BRANCH  13  14
ATOM     14  C   UNL     1       0.842   3.383  -0.021  1.00  0.00    -0.041 A 
ATOM     15  C   UNL     1       1.062   4.756  -0.211  1.00  0.00     0.008 A 
ATOM     16  C   UNL     1       0.154   2.696  -1.026  1.00  0.00     0.008 A 
ATOM     17  C   UNL     1       0.578   5.416  -1.343  1.00  0.00     0.047 A 
ATOM     18  C   UNL     1      -0.336   3.359  -2.160  1.00  0.00     0.047 A 
ATOM     19  C   UNL     1      -0.129   4.724  -2.325  1.00  0.00     0.126 A 
BRANCH  19  20
ATOM     20  O   UNL     1      -0.554   5.489  -3.371  1.00  0.00    -0.435 OA
BRANCH  20  21
ATOM     21  C   UNL     1      -1.260   4.852  -4.428  1.00  0.00     0.542 C 
ATOM     22  F   UNL     1      -0.494   3.880  -4.979  1.00  0.00    -0.167 F 
ATOM     23  F   UNL     1      -2.395   4.285  -3.955  1.00  0.00    -0.167 F 
ENDBRANCH  20  21
ENDBRANCH  19  20
ENDBRANCH  13  14
ENDBRANCH   8  13
ENDBRANCH   6   8
ENDBRANCH   5   6
ENDBRANCH   4   5
ENDBRANCH   3   4
ENDBRANCH   2   3
ENDBRANCH   1   2
BRANCH   1  24
ATOM     24  C   UNL     1      -1.545  -1.326  -0.158  1.00  0.00     0.188 C 
BRANCH  24  25
ATOM     25  O   UNL     1      -2.524  -0.909  -1.089  1.00  0.00    -0.376 OA
BRANCH  25  26
ATOM     26  C   UNL     1      -2.897  -1.836  -2.089  1.00  0.00     0.202 C 
BRANCH  26  27
ATOM     27  C   UNL     1      -3.567  -3.139  -1.624  1.00  0.00     0.261 C 
BRANCH  27  28
ATOM     28  O   UNL     1      -2.972  -3.793  -0.488  1.00  0.00    -0.460 OA
BRANCH  28  29
ATOM     29  C   UNL     1      -1.877  -4.554  -0.716  1.00  0.00     0.338 C 
ATOM     30  O   UNL     1      -1.334  -4.750  -1.786  1.00  0.00    -0.246 OA
BRANCH  29  31
ATOM     31  C   UNL     1      -1.312  -4.973   0.591  1.00  0.00     0.060 A 
ATOM     32  C   UNL     1      -0.011  -4.569   0.915  1.00  0.00     0.016 A 
ATOM     33  C   UNL     1      -2.042  -5.763   1.483  1.00  0.00     0.016 A 
ATOM     34  C   UNL     1       0.579  -4.991   2.110  1.00  0.00     0.010 A 
ATOM     35  C   UNL     1      -1.443  -6.199   2.674  1.00  0.00     0.010 A 
ATOM     36  C   UNL     1      -0.116  -5.846   2.978  1.00  0.00    -0.014 A 
BRANCH  36  37
ATOM     37  C   UNL     1       0.616  -6.501   4.096  1.00  0.00     0.031 A 
ATOM     38  C   UNL     1       1.119  -7.909   3.907  1.00  0.00     0.074 A 
ATOM     39  C   UNL     1       0.888  -5.849   5.242  1.00  0.00     0.049 A 
ATOM     40  N   UNL     1       1.799  -8.672   4.727  1.00  0.00    -0.248 NA
ATOM     41  C   UNL     1       0.814  -8.541   2.614  1.00  0.00     0.031 C 
ATOM     42  C   UNL     1       0.486  -4.479   5.550  1.00  0.00     0.029 A 
ATOM     43  N   UNL     1       1.569  -6.261   6.363  1.00  0.00    -0.354 N 
ATOM     44  C   UNL     1       2.011  -9.864   4.046  1.00  0.00     0.074 A 
ATOM     45  C   UNL     1       1.347  -9.744   2.766  1.00  0.00     0.031 C 
ATOM     46  C   UNL     1       0.917  -4.166   6.785  1.00  0.00     0.029 A 
ATOM     47  C   UNL     1       1.608  -5.320   7.362  1.00  0.00     0.049 A 
ATOM     48  H   UNL     1       1.989  -7.148   6.442  1.00  0.00     0.167 HD
ATOM     49  C   UNL     1       2.711 -10.956   4.441  1.00  0.00     0.037 A 
ATOM     50  C   UNL     1       2.128  -5.387   8.604  1.00  0.00     0.037 A 
ATOM     51  C   UNL     1       3.361 -11.091   5.718  1.00  0.00     0.049 A 
ATOM     52  C   UNL     1       2.846  -6.639   9.046  1.00  0.00     0.074 A 
ATOM     53  C   UNL     1       4.088 -12.162   6.209  1.00  0.00     0.029 A 
ATOM     54  N   UNL     1       3.356 -10.124   6.713  1.00  0.00    -0.354 N 
ATOM     55  N   UNL     1       3.066  -7.749   8.384  1.00  0.00    -0.248 NA
ATOM     56  C   UNL     1       3.401  -6.639  10.408  1.00  0.00     0.031 C 
ATOM     57  C   UNL     1       4.482 -11.863   7.518  1.00  0.00     0.029 A 
ATOM     58  C   UNL     1       4.052 -10.582   7.822  1.00  0.00     0.049 A 
ATOM     59  H   UNL     1       2.922  -9.243   6.642  1.00  0.00     0.167 HD
ATOM     60  C   UNL     1       3.803  -8.565   9.236  1.00  0.00     0.074 A 
ATOM     61  C   UNL     1       4.016  -7.811  10.453  1.00  0.00     0.031 C 
ATOM     62  C   UNL     1       4.260  -9.825   9.030  1.00  0.00     0.037 A 
BRANCH  49  63
ATOM     63  C   UNL     1       2.800 -12.104   3.476  1.00  0.00     0.064 A 
ATOM     64  C   UNL     1       3.566 -12.018   2.302  1.00  0.00     0.173 A 
ATOM     65  C   UNL     1       2.146 -13.315   3.744  1.00  0.00     0.173 A 
ATOM     66  F   UNL     1       4.200 -10.877   1.992  1.00  0.00    -0.203 F 
ATOM     67  C   UNL     1       3.652 -13.093   1.422  1.00  0.00     0.198 A 
ATOM     68  C   UNL     1       2.260 -14.399   2.877  1.00  0.00     0.198 A 
ATOM     69  F   UNL     1       1.405 -13.453   4.854  1.00  0.00    -0.203 F 
ATOM     70  F   UNL     1       4.352 -12.972   0.285  1.00  0.00    -0.200 F 
ATOM     71  C   UNL     1       3.007 -14.285   1.714  1.00  0.00     0.200 A 
ATOM     72  F   UNL     1       1.647 -15.555   3.168  1.00  0.00    -0.200 F 
ATOM     73  F   UNL     1       3.099 -15.323   0.872  1.00  0.00    -0.200 F 
ENDBRANCH  49  63
BRANCH  50  74
ATOM     74  C   UNL     1       1.982  -4.237   9.538  1.00  0.00     0.064 A 
ATOM     75  C   UNL     1       3.093  -3.498   9.967  1.00  0.00     0.173 A 
ATOM     76  C   UNL     1       0.727  -3.884  10.058  1.00  0.00     0.173 A 
ATOM     77  F   UNL     1       4.319  -3.815   9.526  1.00  0.00    -0.203 F 
ATOM     78  C   UNL     1       2.959  -2.469  10.899  1.00  0.00     0.198 A 
ATOM     79  C   UNL     1       0.589  -2.834  10.963  1.00  0.00     0.198 A 
ATOM     80  F   UNL     1      -0.368  -4.564   9.687  1.00  0.00    -0.203 F 
ATOM     81  F   UNL     1       4.047  -1.821  11.339  1.00  0.00    -0.200 F 
ATOM     82  C   UNL     1       1.707  -2.134  11.392  1.00  0.00     0.200 A 
ATOM     83  F   UNL     1      -0.624  -2.509  11.430  1.00  0.00    -0.200 F 
ATOM     84  F   UNL     1       1.579  -1.148  12.290  1.00  0.00    -0.200 F 
ENDBRANCH  50  74
BRANCH  62  85
ATOM     85  C   UNL     1       5.064 -10.457  10.133  1.00  0.00     0.064 A 
ATOM     86  C   UNL     1       4.481 -10.828  11.355  1.00  0.00     0.173 A 
ATOM     87  C   UNL     1       6.435 -10.705   9.962  1.00  0.00     0.173 A 
ATOM     88  F   UNL     1       3.177 -10.604  11.576  1.00  0.00    -0.203 F 
ATOM     89  C   UNL     1       5.249 -11.381  12.378  1.00  0.00     0.198 A 
ATOM     90  C   UNL     1       7.192 -11.291  10.973  1.00  0.00     0.198 A 
ATOM     91  F   UNL     1       7.043 -10.382   8.811  1.00  0.00    -0.203 F 
ATOM     92  F   UNL     1       4.683 -11.665  13.559  1.00  0.00    -0.200 F 
ATOM     93  C   UNL     1       6.601 -11.617  12.185  1.00  0.00     0.200 A 
ATOM     94  F   UNL     1       8.496 -11.534  10.779  1.00  0.00    -0.200 F 
ATOM     95  F   UNL     1       7.338 -12.147  13.171  1.00  0.00    -0.200 F 
ENDBRANCH  62  85
ENDBRANCH  36  37
ENDBRANCH  29  31
ENDBRANCH  28  29
ENDBRANCH  27  28
ENDBRANCH  26  27
ENDBRANCH  25  26
ENDBRANCH  24  25
ENDBRANCH   1  24
TORSDOF 22
