REMARK SMILES O=C(Nc1ccc2c(c1)OCO2)N[C@H]1C=C[C@@H](C(=O)OCCOCCOCCOC(=O)c2ccc(-c3c4nc(c(-c5c(F)c(F)c(F)c(F)c5F)c5ccc([nH]5)c(-c5c(F)c(F)c(F)c(F)c5F)c5nc(c(-c6c(F)c(F)c(F)c(F)c6F)c6ccc3[nH]6)C=C5)C=C4)cc2)C1
REMARK SMILES IDX 24 1 23 2 22 3 21 4 20 5 18 6 19 7 17 8 14 9 15 10 95 11
REMARK SMILES IDX 16 12 13 13 1 14 2 15 3 16 4 19 5 20 9 21 6 22 8 23 7 24
REMARK SMILES IDX 10 25 12 26 11 27 25 28 26 29 27 30 28 31 29 32 30 33 31 34
REMARK SMILES IDX 32 35 33 36 94 37 34 38 93 39 35 40 36 41 37 42 87 43 38 44
REMARK SMILES IDX 92 45 86 46 88 47 39 48 91 49 85 50 84 51 40 53 72 54 52 55
REMARK SMILES IDX 71 56 53 57 56 58 70 59 89 60 54 61 55 62 69 64 90 65 57 66
REMARK SMILES IDX 41 67 42 68 50 69 43 70 44 71 48 72 51 73 45 74 46 75 49 76
REMARK SMILES IDX 47 77 73 78 74 79 82 80 75 81 76 82 80 83 83 84 77 85 78 86
REMARK SMILES IDX 81 87 79 88 58 89 59 90 67 91 60 92 61 93 65 94 68 95 62 96
REMARK SMILES IDX 63 97 66 98 64 99
REMARK H PARENT 3 17 13 18 88 52 56 63
REMARK Flexibility Score: inf
ROOT
ATOM      1  C   UNL     1       4.984  -3.691   6.040  1.00  0.00     0.188 C 
ENDROOT
BRANCH   1   2
ATOM      2  O   UNL     1       6.139  -4.516   6.139  1.00  0.00    -0.376 OA
BRANCH   2   3
ATOM      3  C   UNL     1       6.933  -4.728   4.973  1.00  0.00     0.202 C 
BRANCH   3   4
ATOM      4  C   UNL     1       6.229  -5.205   3.691  1.00  0.00     0.261 C 
BRANCH   4   5
ATOM      5  O   UNL     1       5.133  -4.370   3.259  1.00  0.00    -0.463 OA
BRANCH   5   6
ATOM      6  C   UNL     1       4.013  -5.019   2.841  1.00  0.00     0.312 C 
ATOM      7  O   UNL     1       3.917  -6.242   2.780  1.00  0.00    -0.252 OA
BRANCH   6   8
ATOM      8  C   UNL     1       2.825  -4.101   2.518  1.00  0.00     0.124 C 
ATOM      9  C   UNL     1       2.204  -2.071   1.256  1.00  0.00     0.107 C 
ATOM     10  C   UNL     1       2.014  -3.305   0.447  1.00  0.00    -0.006 C 
ATOM     11  C   UNL     1       3.028  -2.583   2.443  1.00  0.00     0.048 C 
ATOM     12  C   UNL     1       2.321  -4.409   1.137  1.00  0.00    -0.014 C 
BRANCH   9  13
ATOM     13  N   UNL     1       2.933  -1.081   0.510  1.00  0.00    -0.332 N 
ATOM     14  O   UNL     1       1.130  -0.035  -0.413  1.00  0.00    -0.248 OA
ATOM     15  C   UNL     1       2.346  -0.133  -0.271  1.00  0.00     0.319 C 
ATOM     16  N   UNL     1       3.179   0.811  -0.808  1.00  0.00    -0.308 N 
ATOM     17  H   UNL     1       2.724   1.613  -1.153  1.00  0.00     0.171 HD
ATOM     18  H   UNL     1       3.916  -1.089   0.568  1.00  0.00     0.165 HD
BRANCH  16  19
ATOM     19  C   UNL     1       4.579   0.822  -0.948  1.00  0.00     0.046 A 
ATOM     20  C   UNL     1       5.343  -0.358  -1.066  1.00  0.00     0.030 A 
ATOM     21  C   UNL     1       5.217   2.067  -0.980  1.00  0.00     0.076 A 
ATOM     22  C   UNL     1       6.739  -0.312  -1.123  1.00  0.00     0.053 A 
ATOM     23  C   UNL     1       6.597   2.083  -1.022  1.00  0.00     0.167 A 
ATOM     24  C   UNL     1       7.337   0.926  -1.080  1.00  0.00     0.165 A 
ATOM     25  O   UNL     1       7.380   3.196  -0.989  1.00  0.00    -0.454 OA
ATOM     26  O   UNL     1       8.675   1.163  -1.091  1.00  0.00    -0.454 OA
ATOM     27  C   UNL     1       8.695   2.602  -0.986  1.00  0.00     0.468 C 
ENDBRANCH  16  19
ENDBRANCH   9  13
ENDBRANCH   6   8
ENDBRANCH   5   6
ENDBRANCH   4   5
ENDBRANCH   3   4
ENDBRANCH   2   3
ENDBRANCH   1   2
BRANCH   1  28
ATOM     28  C   UNL     1       5.088  -2.357   5.281  1.00  0.00     0.188 C 
BRANCH  28  29
ATOM     29  O   UNL     1       6.367  -2.074   4.764  1.00  0.00    -0.376 OA
BRANCH  29  30
ATOM     30  C   UNL     1       7.052  -0.943   5.269  1.00  0.00     0.202 C 
BRANCH  30  31
ATOM     31  C   UNL     1       7.261  -0.818   6.788  1.00  0.00     0.261 C 
BRANCH  31  32
ATOM     32  O   UNL     1       6.134  -1.129   7.624  1.00  0.00    -0.460 OA
BRANCH  32  33
ATOM     33  C   UNL     1       5.151  -0.201   7.708  1.00  0.00     0.338 C 
ATOM     34  O   UNL     1       5.109   0.877   7.151  1.00  0.00    -0.246 OA
BRANCH  33  35
ATOM     35  C   UNL     1       4.010  -0.826   8.420  1.00  0.00     0.060 A 
ATOM     36  C   UNL     1       2.783  -0.959   7.754  1.00  0.00     0.016 A 
ATOM     37  C   UNL     1       4.153  -1.287   9.730  1.00  0.00     0.016 A 
ATOM     38  C   UNL     1       1.688  -1.530   8.407  1.00  0.00     0.010 A 
ATOM     39  C   UNL     1       3.050  -1.836  10.391  1.00  0.00     0.010 A 
ATOM     40  C   UNL     1       1.805  -1.934   9.743  1.00  0.00    -0.014 A 
BRANCH  40  41
ATOM     41  C   UNL     1       0.590  -2.269  10.527  1.00  0.00     0.031 A 
ATOM     42  C   UNL     1      -0.020  -1.197  11.387  1.00  0.00     0.074 A 
ATOM     43  C   UNL     1       0.033  -3.492  10.481  1.00  0.00     0.049 A 
ATOM     44  N   UNL     1      -1.026  -1.266  12.222  1.00  0.00    -0.248 NA
ATOM     45  C   UNL     1       0.595   0.137  11.294  1.00  0.00     0.031 C 
ATOM     46  C   UNL     1       0.498  -4.604   9.657  1.00  0.00     0.029 A 
ATOM     47  N   UNL     1      -1.044  -4.004  11.163  1.00  0.00    -0.354 N 
ATOM     48  C   UNL     1      -1.157   0.008  12.758  1.00  0.00     0.074 A 
ATOM     49  C   UNL     1      -0.112   0.824  12.178  1.00  0.00     0.031 C 
ATOM     50  C   UNL     1      -0.279  -5.676   9.894  1.00  0.00     0.029 A 
ATOM     51  C   UNL     1      -1.271  -5.335  10.913  1.00  0.00     0.049 A 
ATOM     52  H   UNL     1      -1.601  -3.468  11.773  1.00  0.00     0.167 HD
ATOM     53  C   UNL     1      -2.071   0.461  13.649  1.00  0.00     0.037 A 
ATOM     54  C   UNL     1      -2.160  -6.184  11.467  1.00  0.00     0.037 A 
ATOM     55  C   UNL     1      -3.107  -0.351  14.229  1.00  0.00     0.049 A 
ATOM     56  C   UNL     1      -3.118  -5.677  12.518  1.00  0.00     0.074 A 
ATOM     57  C   UNL     1      -4.089   0.018  15.131  1.00  0.00     0.029 A 
ATOM     58  N   UNL     1      -3.289  -1.702  13.970  1.00  0.00    -0.354 N 
ATOM     59  N   UNL     1      -3.251  -4.467  13.005  1.00  0.00    -0.248 NA
ATOM     60  C   UNL     1      -4.051  -6.657  13.094  1.00  0.00     0.031 C 
ATOM     61  C   UNL     1      -4.830  -1.121  15.462  1.00  0.00     0.029 A 
ATOM     62  C   UNL     1      -4.351  -2.187  14.717  1.00  0.00     0.049 A 
ATOM     63  H   UNL     1      -2.744  -2.236  13.349  1.00  0.00     0.167 HD
ATOM     64  C   UNL     1      -4.300  -4.532  13.915  1.00  0.00     0.074 A 
ATOM     65  C   UNL     1      -4.776  -5.899  13.905  1.00  0.00     0.031 C 
ATOM     66  C   UNL     1      -4.823  -3.548  14.689  1.00  0.00     0.037 A 
BRANCH  53  67
ATOM     67  C   UNL     1      -1.969   1.897  14.074  1.00  0.00     0.064 A 
ATOM     68  C   UNL     1      -2.279   2.950  13.201  1.00  0.00     0.173 A 
ATOM     69  C   UNL     1      -1.580   2.221  15.383  1.00  0.00     0.173 A 
ATOM     70  F   UNL     1      -2.639   2.695  11.935  1.00  0.00    -0.203 F 
ATOM     71  C   UNL     1      -2.177   4.276  13.615  1.00  0.00     0.198 A 
ATOM     72  C   UNL     1      -1.510   3.547  15.802  1.00  0.00     0.198 A 
ATOM     73  F   UNL     1      -1.274   1.252  16.258  1.00  0.00    -0.203 F 
ATOM     74  F   UNL     1      -2.428   5.268  12.749  1.00  0.00    -0.200 F 
ATOM     75  C   UNL     1      -1.801   4.573  14.916  1.00  0.00     0.200 A 
ATOM     76  F   UNL     1      -1.158   3.831  17.064  1.00  0.00    -0.200 F 
ATOM     77  F   UNL     1      -1.710   5.849  15.315  1.00  0.00    -0.200 F 
ENDBRANCH  53  67
BRANCH  54  78
ATOM     78  C   UNL     1      -2.181  -7.614  11.057  1.00  0.00     0.064 A 
ATOM     79  C   UNL     1      -3.274  -8.154  10.364  1.00  0.00     0.173 A 
ATOM     80  C   UNL     1      -1.124  -8.479  11.379  1.00  0.00     0.173 A 
ATOM     81  F   UNL     1      -4.323  -7.376  10.059  1.00  0.00    -0.203 F 
ATOM     82  C   UNL     1      -3.318  -9.506  10.027  1.00  0.00     0.198 A 
ATOM     83  C   UNL     1      -1.155  -9.823  11.015  1.00  0.00     0.198 A 
ATOM     84  F   UNL     1      -0.058  -8.016  12.048  1.00  0.00    -0.203 F 
ATOM     85  F   UNL     1      -4.399 -10.006   9.413  1.00  0.00    -0.200 F 
ATOM     86  C   UNL     1      -2.256 -10.338  10.347  1.00  0.00     0.200 A 
ATOM     87  F   UNL     1      -0.123 -10.622  11.319  1.00  0.00    -0.200 F 
ATOM     88  F   UNL     1      -2.299 -11.637  10.024  1.00  0.00    -0.200 F 
ENDBRANCH  54  78
BRANCH  66  89
ATOM     89  C   UNL     1      -6.002  -3.896  15.554  1.00  0.00     0.064 A 
ATOM     90  C   UNL     1      -5.875  -4.715  16.686  1.00  0.00     0.173 A 
ATOM     91  C   UNL     1      -7.269  -3.363  15.270  1.00  0.00     0.173 A 
ATOM     92  F   UNL     1      -4.689  -5.260  16.995  1.00  0.00    -0.203 F 
ATOM     93  C   UNL     1      -6.978  -5.009  17.484  1.00  0.00     0.198 A 
ATOM     94  C   UNL     1      -8.363  -3.632  16.089  1.00  0.00     0.198 A 
ATOM     95  F   UNL     1      -7.445  -2.565  14.206  1.00  0.00    -0.203 F 
ATOM     96  F   UNL     1      -6.843  -5.835  18.531  1.00  0.00    -0.200 F 
ATOM     97  C   UNL     1      -8.218  -4.462  17.190  1.00  0.00     0.200 A 
ATOM     98  F   UNL     1      -9.556  -3.087  15.813  1.00  0.00    -0.200 F 
ATOM     99  F   UNL     1      -9.276  -4.739  17.965  1.00  0.00    -0.200 F 
ENDBRANCH  66  89
ENDBRANCH  40  41
ENDBRANCH  33  35
ENDBRANCH  32  33
ENDBRANCH  31  32
ENDBRANCH  30  31
ENDBRANCH  29  30
ENDBRANCH  28  29
ENDBRANCH   1  28
TORSDOF 19
