REMARK SMILES NC(=O)C1CC[NH+](Cc2ccc(C(=O)OCCOCCOCCOC(=O)c3ccc(-c4c5nc(c(-c6c(F)c(F)c(F)c(F)c6F)c6ccc([nH]6)c(-c6c(F)c(F)c(F)c(F)c6F)c6nc(c(-c7c(F)c(F)c(F)c(F)c7F)c7ccc4[nH]7)C=C6)C=C5)cc3)cc2)CC1
REMARK SMILES IDX 19 1 18 2 17 3 16 4 15 5 13 6 14 7 12 8 9 9 10 10 91 11
REMARK SMILES IDX 11 12 90 13 8 14 7 15 4 16 5 17 93 18 6 19 92 20 2 22 1 23
REMARK SMILES IDX 3 26 20 27 21 28 22 29 23 30 24 31 25 32 26 33 27 34 28 35
REMARK SMILES IDX 89 36 29 37 88 38 30 39 31 40 32 41 82 42 33 43 87 44 81 45
REMARK SMILES IDX 83 46 34 47 86 48 80 49 79 50 35 52 67 53 47 54 66 55 48 56
REMARK SMILES IDX 51 57 65 58 84 59 49 60 50 61 64 63 85 64 52 65 36 66 37 67
REMARK SMILES IDX 45 68 38 69 39 70 43 71 46 72 40 73 41 74 44 75 42 76 68 77
REMARK SMILES IDX 69 78 77 79 70 80 71 81 75 82 78 83 72 84 73 85 76 86 74 87
REMARK SMILES IDX 53 88 54 89 62 90 55 91 56 92 60 93 63 94 57 95 58 96 61 97
REMARK SMILES IDX 59 98
REMARK H PARENT 7 21 1 24 1 25 83 51 51 62
REMARK Flexibility Score: inf
ROOT
ATOM      1  C   UNL     1      -6.158   4.335   3.890  1.00  0.00     0.188 C 
ENDROOT
BRANCH   1   2
ATOM      2  O   UNL     1      -7.061   3.423   4.478  1.00  0.00    -0.376 OA
BRANCH   2   3
ATOM      3  C   UNL     1      -6.703   2.067   4.688  1.00  0.00     0.202 C 
BRANCH   3   4
ATOM      4  C   UNL     1      -5.752   1.274   3.779  1.00  0.00     0.261 C 
BRANCH   4   5
ATOM      5  O   UNL     1      -4.638   2.001   3.258  1.00  0.00    -0.460 OA
BRANCH   5   6
ATOM      6  C   UNL     1      -4.678   2.236   1.922  1.00  0.00     0.338 C 
ATOM      7  O   UNL     1      -5.537   1.859   1.142  1.00  0.00    -0.246 OA
BRANCH   6   8
ATOM      8  C   UNL     1      -3.623   3.209   1.554  1.00  0.00     0.060 A 
ATOM      9  C   UNL     1      -1.645   4.981   0.685  1.00  0.00     0.006 A 
ATOM     10  C   UNL     1      -2.907   4.981   0.072  1.00  0.00     0.010 A 
ATOM     11  C   UNL     1      -1.448   4.211   1.841  1.00  0.00     0.010 A 
ATOM     12  C   UNL     1      -3.892   4.096   0.505  1.00  0.00     0.016 A 
ATOM     13  C   UNL     1      -2.413   3.294   2.249  1.00  0.00     0.016 A 
BRANCH   9  14
ATOM     14  C   UNL     1      -0.464   5.630  -0.019  1.00  0.00     0.299 C 
BRANCH  14  15
ATOM     15  N   UNL     1       0.392   4.686  -0.787  1.00  0.00    -0.331 N 
ATOM     16  C   UNL     1       1.290   2.014  -1.675  1.00  0.00     0.089 C 
ATOM     17  C   UNL     1       2.091   2.869  -0.691  1.00  0.00     0.075 C 
ATOM     18  C   UNL     1       0.474   2.938  -2.583  1.00  0.00     0.075 C 
ATOM     19  C   UNL     1       1.173   3.806   0.089  1.00  0.00     0.263 C 
ATOM     20  C   UNL     1      -0.381   3.931  -1.789  1.00  0.00     0.263 C 
ATOM     21  H   UNL     1       1.065   5.253  -1.302  1.00  0.00     0.348 HD
BRANCH  16  22
ATOM     22  C   UNL     1       0.411   0.984  -0.960  1.00  0.00     0.220 C 
ATOM     23  N   UNL     1       1.079   0.066  -0.205  1.00  0.00    -0.369 N 
ATOM     24  H   UNL     1       0.578  -0.627   0.284  1.00  0.00     0.159 HD
ATOM     25  H   UNL     1       2.061   0.095  -0.148  1.00  0.00     0.159 HD
ATOM     26  O   UNL     1      -0.809   0.923  -1.050  1.00  0.00    -0.275 OA
ENDBRANCH  16  22
ENDBRANCH  14  15
ENDBRANCH   9  14
ENDBRANCH   6   8
ENDBRANCH   5   6
ENDBRANCH   4   5
ENDBRANCH   3   4
ENDBRANCH   2   3
ENDBRANCH   1   2
BRANCH   1  27
ATOM     27  C   UNL     1      -4.816   4.656   4.576  1.00  0.00     0.188 C 
BRANCH  27  28
ATOM     28  O   UNL     1      -4.417   3.917   5.704  1.00  0.00    -0.376 OA
BRANCH  28  29
ATOM     29  C   UNL     1      -5.087   4.097   6.939  1.00  0.00     0.202 C 
BRANCH  29  30
ATOM     30  C   UNL     1      -5.937   5.326   7.321  1.00  0.00     0.261 C 
BRANCH  30  31
ATOM     31  O   UNL     1      -6.521   6.097   6.266  1.00  0.00    -0.460 OA
BRANCH  31  32
ATOM     32  C   UNL     1      -5.982   7.324   6.059  1.00  0.00     0.338 C 
ATOM     33  O   UNL     1      -5.049   7.840   6.658  1.00  0.00    -0.246 OA
BRANCH  32  34
ATOM     34  C   UNL     1      -6.592   7.909   4.852  1.00  0.00     0.060 A 
ATOM     35  C   UNL     1      -5.834   8.003   3.676  1.00  0.00     0.016 A 
ATOM     36  C   UNL     1      -7.909   8.363   4.884  1.00  0.00     0.016 A 
ATOM     37  C   UNL     1      -6.403   8.531   2.516  1.00  0.00     0.010 A 
ATOM     38  C   UNL     1      -8.468   8.919   3.731  1.00  0.00     0.010 A 
ATOM     39  C   UNL     1      -7.718   9.010   2.543  1.00  0.00    -0.014 A 
BRANCH  39  40
ATOM     40  C   UNL     1      -8.297   9.700   1.366  1.00  0.00     0.031 A 
ATOM     41  C   UNL     1      -8.337  11.198   1.345  1.00  0.00     0.074 A 
ATOM     42  C   UNL     1      -8.829   8.996   0.351  1.00  0.00     0.049 A 
ATOM     43  N   UNL     1      -8.922  12.004   0.496  1.00  0.00    -0.248 NA
ATOM     44  C   UNL     1      -7.625  11.879   2.436  1.00  0.00     0.031 C 
ATOM     45  C   UNL     1      -8.821   7.540   0.240  1.00  0.00     0.029 A 
ATOM     46  N   UNL     1      -9.510   9.419  -0.764  1.00  0.00    -0.354 N 
ATOM     47  C   UNL     1      -8.664  13.287   0.959  1.00  0.00     0.074 A 
ATOM     48  C   UNL     1      -7.888  13.150   2.174  1.00  0.00     0.031 C 
ATOM     49  C   UNL     1      -9.503   7.186  -0.862  1.00  0.00     0.029 A 
ATOM     50  C   UNL     1     -10.031   8.389  -1.506  1.00  0.00     0.049 A 
ATOM     51  H   UNL     1      -9.615  10.368  -1.007  1.00  0.00     0.167 HD
ATOM     52  C   UNL     1      -9.045  14.470   0.418  1.00  0.00     0.037 A 
ATOM     53  C   UNL     1     -10.878   8.411  -2.554  1.00  0.00     0.037 A 
ATOM     54  C   UNL     1      -9.829  14.595  -0.783  1.00  0.00     0.049 A 
ATOM     55  C   UNL     1     -11.361   9.734  -3.092  1.00  0.00     0.074 A 
ATOM     56  C   UNL     1     -10.228  15.748  -1.437  1.00  0.00     0.029 A 
ATOM     57  N   UNL     1     -10.355  13.529  -1.499  1.00  0.00    -0.354 N 
ATOM     58  N   UNL     1     -11.079  10.947  -2.681  1.00  0.00    -0.248 NA
ATOM     59  C   UNL     1     -12.281   9.691  -4.238  1.00  0.00     0.031 C 
ATOM     60  C   UNL     1     -11.055  15.382  -2.503  1.00  0.00     0.029 A 
ATOM     61  C   UNL     1     -11.116  13.999  -2.559  1.00  0.00     0.049 A 
ATOM     62  H   UNL     1     -10.209  12.579  -1.286  1.00  0.00     0.167 HD
ATOM     63  C   UNL     1     -11.773  11.809  -3.522  1.00  0.00     0.074 A 
ATOM     64  C   UNL     1     -12.475  10.980  -4.479  1.00  0.00     0.031 C 
ATOM     65  C   UNL     1     -11.823  13.165  -3.500  1.00  0.00     0.037 A 
BRANCH  52  66
ATOM     66  C   UNL     1      -8.659  15.720   1.156  1.00  0.00     0.064 A 
ATOM     67  C   UNL     1      -7.326  16.145   1.256  1.00  0.00     0.173 A 
ATOM     68  C   UNL     1      -9.645  16.510   1.769  1.00  0.00     0.173 A 
ATOM     69  F   UNL     1      -6.343  15.422   0.698  1.00  0.00    -0.203 F 
ATOM     70  C   UNL     1      -6.990  17.289   1.977  1.00  0.00     0.198 A 
ATOM     71  C   UNL     1      -9.309  17.672   2.458  1.00  0.00     0.198 A 
ATOM     72  F   UNL     1     -10.937  16.155   1.699  1.00  0.00    -0.203 F 
ATOM     73  F   UNL     1      -5.703  17.639   2.113  1.00  0.00    -0.200 F 
ATOM     74  C   UNL     1      -7.981  18.053   2.572  1.00  0.00     0.200 A 
ATOM     75  F   UNL     1     -10.271  18.418   3.019  1.00  0.00    -0.200 F 
ATOM     76  F   UNL     1      -7.656  19.153   3.266  1.00  0.00    -0.200 F 
ENDBRANCH  52  66
BRANCH  53  77
ATOM     77  C   UNL     1     -11.359   7.128  -3.132  1.00  0.00     0.064 A 
ATOM     78  C   UNL     1     -10.968   6.716  -4.412  1.00  0.00     0.173 A 
ATOM     79  C   UNL     1     -12.212   6.283  -2.406  1.00  0.00     0.173 A 
ATOM     80  F   UNL     1     -10.179   7.503  -5.158  1.00  0.00    -0.203 F 
ATOM     81  C   UNL     1     -11.416   5.508  -4.946  1.00  0.00     0.198 A 
ATOM     82  C   UNL     1     -12.635   5.063  -2.928  1.00  0.00     0.198 A 
ATOM     83  F   UNL     1     -12.623   6.636  -1.179  1.00  0.00    -0.203 F 
ATOM     84  F   UNL     1     -11.059   5.155  -6.189  1.00  0.00    -0.200 F 
ATOM     85  C   UNL     1     -12.240   4.679  -4.200  1.00  0.00     0.200 A 
ATOM     86  F   UNL     1     -13.423   4.261  -2.200  1.00  0.00    -0.200 F 
ATOM     87  F   UNL     1     -12.661   3.513  -4.711  1.00  0.00    -0.200 F 
ENDBRANCH  53  77
BRANCH  65  88
ATOM     88  C   UNL     1     -12.657  13.848  -4.548  1.00  0.00     0.064 A 
ATOM     89  C   UNL     1     -14.059  13.802  -4.518  1.00  0.00     0.173 A 
ATOM     90  C   UNL     1     -12.049  14.610  -5.558  1.00  0.00     0.173 A 
ATOM     91  F   UNL     1     -14.691  13.077  -3.583  1.00  0.00    -0.203 F 
ATOM     92  C   UNL     1     -14.819  14.479  -5.470  1.00  0.00     0.198 A 
ATOM     93  C   UNL     1     -12.812  15.312  -6.488  1.00  0.00     0.198 A 
ATOM     94  F   UNL     1     -10.712  14.694  -5.630  1.00  0.00    -0.203 F 
ATOM     95  F   UNL     1     -16.156  14.388  -5.445  1.00  0.00    -0.200 F 
ATOM     96  C   UNL     1     -14.196  15.242  -6.446  1.00  0.00     0.200 A 
ATOM     97  F   UNL     1     -12.208  16.061  -7.420  1.00  0.00    -0.200 F 
ATOM     98  F   UNL     1     -14.930  15.905  -7.351  1.00  0.00    -0.200 F 
ENDBRANCH  65  88
ENDBRANCH  39  40
ENDBRANCH  32  34
ENDBRANCH  31  32
ENDBRANCH  30  31
ENDBRANCH  29  30
ENDBRANCH  28  29
ENDBRANCH  27  28
ENDBRANCH   1  27
TORSDOF 20
