REMARK SMILES COc1cc(-c2ccc(NC(=O)CCC(=O)OCCOCCOCCOC(=O)c3ccc(-c4c5nc(c(-c6c(F)c(F)c(F)c(F)c6F)c6ccc([nH]6)c(-c6c(F)c(F)c(F)c(F)c6F)c6nc(c(-c7c(F)c(F)c(F)c(F)c7F)c7ccc4[nH]7)C=C6)C=C5)cc3)c(OC)c2)ccc1N
REMARK SMILES IDX 20 1 19 2 18 3 17 4 15 5 16 6 14 7 13 8 11 9 10 10 12 12
REMARK SMILES IDX 9 13 6 14 7 15 95 16 8 17 92 18 5 19 3 20 4 21 98 22 97 23
REMARK SMILES IDX 96 24 2 25 1 26 99 27 93 30 94 31 21 32 22 33 23 34 24 35
REMARK SMILES IDX 25 36 26 37 27 38 28 39 29 40 30 41 91 42 31 43 90 44 32 45
REMARK SMILES IDX 33 46 34 47 84 48 35 49 89 50 83 51 85 52 36 53 88 54 82 55
REMARK SMILES IDX 81 56 37 58 69 59 49 60 68 61 50 62 53 63 67 64 86 65 51 66
REMARK SMILES IDX 52 67 66 69 87 70 54 71 38 72 39 73 47 74 40 75 41 76 45 77
REMARK SMILES IDX 48 78 42 79 43 80 46 81 44 82 70 83 71 84 79 85 72 86 73 87
REMARK SMILES IDX 77 88 80 89 74 90 75 91 78 92 76 93 55 94 56 95 64 96 57 97
REMARK SMILES IDX 58 98 62 99 65 100 59 101 60 102 63 103 61 104
REMARK H PARENT 10 11 99 28 99 29 85 57 53 68
REMARK Flexibility Score: inf
ROOT
ATOM      1  O   UNL     1      -0.850  -5.856  -3.124  1.00  0.00    -0.376 OA
ENDROOT
BRANCH   1   2
ATOM      2  C   UNL     1      -1.378  -6.920  -2.153  1.00  0.00     0.202 C 
BRANCH   2   3
ATOM      3  C   UNL     1      -2.621  -6.706  -0.349  1.00  0.00     0.261 C 
BRANCH   3   4
ATOM      4  O   UNL     1      -4.009  -5.523  -0.275  1.00  0.00    -0.463 OA
BRANCH   4   5
ATOM      5  C   UNL     1      -4.979  -4.931  -1.177  1.00  0.00     0.306 C 
ATOM      6  O   UNL     1      -5.686  -4.015  -0.738  1.00  0.00    -0.252 OA
BRANCH   5   7
ATOM      7  C   UNL     1      -5.192  -5.350  -2.888  1.00  0.00     0.132 C 
BRANCH   7   8
ATOM      8  C   UNL     1      -4.966  -6.734  -3.947  1.00  0.00     0.112 C 
BRANCH   8   9
ATOM      9  C   UNL     1      -4.232  -8.347  -3.972  1.00  0.00     0.225 C 
ATOM     10  N   UNL     1      -3.422  -9.009  -2.984  1.00  0.00    -0.323 N 
ATOM     11  H   UNL     1      -3.180  -9.952  -3.126  1.00  0.00     0.170 HD
ATOM     12  O   UNL     1      -4.442  -9.006  -5.006  1.00  0.00    -0.275 OA
BRANCH  10  13
ATOM     13  C   UNL     1      -2.959  -8.357  -1.812  1.00  0.00     0.083 A 
ATOM     14  C   UNL     1      -0.955  -5.484  -0.696  1.00  0.00    -0.014 A 
ATOM     15  C   UNL     1      -0.555  -7.176  -0.196  1.00  0.00     0.011 A 
ATOM     16  C   UNL     1      -2.459  -5.269  -1.690  1.00  0.00     0.057 A 
ATOM     17  C   UNL     1      -1.532  -8.581  -0.795  1.00  0.00     0.031 A 
ATOM     18  C   UNL     1      -3.458  -6.792  -2.144  1.00  0.00     0.142 A 
BRANCH  14  19
ATOM     19  C   UNL     1       0.067  -4.416  -0.638  1.00  0.00    -0.014 A 
ATOM     20  C   UNL     1       0.856  -2.165  -0.079  1.00  0.00     0.142 A 
ATOM     21  C   UNL     1      -0.137  -3.171  -0.032  1.00  0.00     0.057 A 
ATOM     22  C   UNL     1       2.091  -2.399  -0.713  1.00  0.00     0.074 A 
ATOM     23  C   UNL     1       2.262  -3.615  -1.375  1.00  0.00     0.030 A 
ATOM     24  C   UNL     1       1.284  -4.613  -1.310  1.00  0.00     0.011 A 
BRANCH  20  25
ATOM     25  O   UNL     1       0.561  -1.016   0.619  1.00  0.00    -0.495 OA
ATOM     26  C   UNL     1       0.710   0.192  -0.126  1.00  0.00     0.278 C 
ENDBRANCH  20  25
BRANCH  22  27
ATOM     27  N   UNL     1       3.113  -1.456  -0.786  1.00  0.00    -0.396 N 
ATOM     28  H   UNL     1       3.017  -0.590  -0.327  1.00  0.00     0.156 HD
ATOM     29  H   UNL     1       3.931  -1.655  -1.296  1.00  0.00     0.156 HD
ENDBRANCH  22  27
ENDBRANCH  14  19
BRANCH  18  30
ATOM     30  O   UNL     1      -4.869  -7.107  -1.408  1.00  0.00    -0.495 OA
ATOM     31  C   UNL     1      -5.846  -8.137  -1.622  1.00  0.00     0.278 C 
ENDBRANCH  18  30
ENDBRANCH  10  13
ENDBRANCH   8   9
ENDBRANCH   7   8
ENDBRANCH   5   7
ENDBRANCH   4   5
ENDBRANCH   3   4
ENDBRANCH   2   3
ENDBRANCH   1   2
BRANCH   1  32
ATOM     32  C   UNL     1      -1.533  -5.724  -4.368  1.00  0.00     0.188 C 
BRANCH  32  33
ATOM     33  C   UNL     1      -1.546  -6.898  -5.368  1.00  0.00     0.188 C 
BRANCH  33  34
ATOM     34  O   UNL     1      -0.751  -8.044  -5.140  1.00  0.00    -0.376 OA
BRANCH  34  35
ATOM     35  C   UNL     1       0.628  -7.860  -4.864  1.00  0.00     0.202 C 
BRANCH  35  36
ATOM     36  C   UNL     1       1.468  -6.981  -5.799  1.00  0.00     0.261 C 
BRANCH  36  37
ATOM     37  O   UNL     1       1.000  -5.624  -5.917  1.00  0.00    -0.460 OA
BRANCH  37  38
ATOM     38  C   UNL     1       0.507  -5.257  -7.129  1.00  0.00     0.338 C 
ATOM     39  O   UNL     1       0.453  -5.929  -8.143  1.00  0.00    -0.246 OA
BRANCH  38  40
ATOM     40  C   UNL     1      -0.172  -3.950  -6.992  1.00  0.00     0.060 A 
ATOM     41  C   UNL     1      -1.570  -3.871  -7.146  1.00  0.00     0.016 A 
ATOM     42  C   UNL     1       0.571  -2.812  -6.690  1.00  0.00     0.016 A 
ATOM     43  C   UNL     1      -2.229  -2.652  -6.986  1.00  0.00     0.010 A 
ATOM     44  C   UNL     1      -0.080  -1.583  -6.596  1.00  0.00     0.010 A 
ATOM     45  C   UNL     1      -1.475  -1.495  -6.769  1.00  0.00    -0.014 A 
BRANCH  45  46
ATOM     46  C   UNL     1      -2.075  -0.162  -6.998  1.00  0.00     0.031 A 
ATOM     47  C   UNL     1      -1.979   0.402  -8.387  1.00  0.00     0.074 A 
ATOM     48  C   UNL     1      -2.628   0.548  -6.002  1.00  0.00     0.049 A 
ATOM     49  N   UNL     1      -2.245   1.605  -8.820  1.00  0.00    -0.248 NA
ATOM     50  C   UNL     1      -1.501  -0.523  -9.430  1.00  0.00     0.031 C 
ATOM     51  C   UNL     1      -2.828   0.078  -4.634  1.00  0.00     0.029 A 
ATOM     52  N   UNL     1      -3.095   1.839  -5.990  1.00  0.00    -0.354 N 
ATOM     53  C   UNL     1      -1.952   1.585 -10.177  1.00  0.00     0.074 A 
ATOM     54  C   UNL     1      -1.470   0.261 -10.495  1.00  0.00     0.031 C 
ATOM     55  C   UNL     1      -3.346   1.081  -3.903  1.00  0.00     0.029 A 
ATOM     56  C   UNL     1      -3.466   2.273  -4.742  1.00  0.00     0.049 A 
ATOM     57  H   UNL     1      -3.158   2.398  -6.798  1.00  0.00     0.167 HD
ATOM     58  C   UNL     1      -2.071   2.589 -11.076  1.00  0.00     0.037 A 
ATOM     59  C   UNL     1      -3.817   3.507  -4.327  1.00  0.00     0.037 A 
ATOM     60  C   UNL     1      -2.528   3.910 -10.742  1.00  0.00     0.049 A 
ATOM     61  C   UNL     1      -3.846   4.637  -5.330  1.00  0.00     0.074 A 
ATOM     62  C   UNL     1      -2.693   5.002 -11.573  1.00  0.00     0.029 A 
ATOM     63  N   UNL     1      -2.877   4.321  -9.463  1.00  0.00    -0.354 N 
ATOM     64  N   UNL     1      -3.588   4.615  -6.617  1.00  0.00    -0.248 NA
ATOM     65  C   UNL     1      -4.212   5.967  -4.820  1.00  0.00     0.031 C 
ATOM     66  C   UNL     1      -3.075   6.092 -10.786  1.00  0.00     0.029 A 
ATOM     67  C   UNL     1      -3.224   5.661  -9.477  1.00  0.00     0.049 A 
ATOM     68  H   UNL     1      -2.878   3.745  -8.665  1.00  0.00     0.167 HD
ATOM     69  C   UNL     1      -3.793   5.913  -7.073  1.00  0.00     0.074 A 
ATOM     70  C   UNL     1      -4.214   6.693  -5.929  1.00  0.00     0.031 C 
ATOM     71  C   UNL     1      -3.647   6.417  -8.325  1.00  0.00     0.037 A 
BRANCH  58  72
ATOM     72  C   UNL     1      -1.661   2.306 -12.492  1.00  0.00     0.064 A 
ATOM     73  C   UNL     1      -2.394   1.438 -13.317  1.00  0.00     0.173 A 
ATOM     74  C   UNL     1      -0.533   2.934 -13.041  1.00  0.00     0.173 A 
ATOM     75  F   UNL     1      -3.469   0.795 -12.835  1.00  0.00    -0.203 F 
ATOM     76  C   UNL     1      -1.999   1.193 -14.629  1.00  0.00     0.198 A 
ATOM     77  C   UNL     1      -0.162   2.713 -14.364  1.00  0.00     0.198 A 
ATOM     78  F   UNL     1       0.206   3.770 -12.296  1.00  0.00    -0.203 F 
ATOM     79  F   UNL     1      -2.685   0.321 -15.382  1.00  0.00    -0.200 F 
ATOM     80  C   UNL     1      -0.890   1.838 -15.155  1.00  0.00     0.200 A 
ATOM     81  F   UNL     1       0.903   3.348 -14.874  1.00  0.00    -0.200 F 
ATOM     82  F   UNL     1      -0.518   1.611 -16.422  1.00  0.00    -0.200 F 
ENDBRANCH  58  72
BRANCH  59  83
ATOM     83  C   UNL     1      -4.137   3.757  -2.894  1.00  0.00     0.064 A 
ATOM     84  C   UNL     1      -5.423   4.153  -2.500  1.00  0.00     0.173 A 
ATOM     85  C   UNL     1      -3.157   3.649  -1.895  1.00  0.00     0.173 A 
ATOM     86  F   UNL     1      -6.388   4.303  -3.419  1.00  0.00    -0.203 F 
ATOM     87  C   UNL     1      -5.709   4.459  -1.170  1.00  0.00     0.198 A 
ATOM     88  C   UNL     1      -3.454   3.920  -0.560  1.00  0.00     0.198 A 
ATOM     89  F   UNL     1      -1.907   3.282  -2.214  1.00  0.00    -0.203 F 
ATOM     90  F   UNL     1      -6.929   4.902  -0.835  1.00  0.00    -0.200 F 
ATOM     91  C   UNL     1      -4.726   4.337  -0.201  1.00  0.00     0.200 A 
ATOM     92  F   UNL     1      -2.501   3.792   0.374  1.00  0.00    -0.200 F 
ATOM     93  F   UNL     1      -4.999   4.637   1.076  1.00  0.00    -0.200 F 
ENDBRANCH  59  83
BRANCH  71  94
ATOM     94  C   UNL     1      -3.985   7.867  -8.533  1.00  0.00     0.064 A 
ATOM     95  C   UNL     1      -3.193   8.896  -8.000  1.00  0.00     0.173 A 
ATOM     96  C   UNL     1      -5.091   8.232  -9.317  1.00  0.00     0.173 A 
ATOM     97  F   UNL     1      -2.130   8.604  -7.236  1.00  0.00    -0.203 F 
ATOM     98  C   UNL     1      -3.517  10.233  -8.217  1.00  0.00     0.198 A 
ATOM     99  C   UNL     1      -5.388   9.569  -9.565  1.00  0.00     0.198 A 
ATOM    100  F   UNL     1      -5.874   7.289  -9.862  1.00  0.00    -0.203 F 
ATOM    101  F   UNL     1      -2.780  11.199  -7.650  1.00  0.00    -0.200 F 
ATOM    102  C   UNL     1      -4.607  10.569  -9.005  1.00  0.00     0.200 A 
ATOM    103  F   UNL     1      -6.428   9.889 -10.346  1.00  0.00    -0.200 F 
ATOM    104  F   UNL     1      -4.910  11.856  -9.221  1.00  0.00    -0.200 F 
ENDBRANCH  71  94
ENDBRANCH  45  46
ENDBRANCH  38  40
ENDBRANCH  37  38
ENDBRANCH  36  37
ENDBRANCH  35  36
ENDBRANCH  34  35
ENDBRANCH  33  34
ENDBRANCH  32  33
ENDBRANCH   1  32
TORSDOF 24
