REMARK SMILES CCNC(=O)C[NH2+][C@@H](C)[C@@H](C)C(=O)OCCOCCOCCOC(=O)c1ccc(-c2c3nc(c(-c4c(F)c(F)c(F)c(F)c4F)c4ccc([nH]4)c(-c4c(F)c(F)c(F)c(F)c4F)c4nc(c(-c5c(F)c(F)c(F)c(F)c5F)c5ccc2[nH]5)C=C4)C=C3)cc1
REMARK SMILES IDX 17 1 16 2 15 3 14 4 12 5 13 6 10 7 11 8 8 9 9 10 7 11 6 14
REMARK SMILES IDX 4 15 3 16 5 18 2 19 1 20 18 21 19 22 20 23 21 24 22 25 23 26
REMARK SMILES IDX 24 27 25 28 26 29 27 30 88 31 28 32 87 33 29 34 30 35 31 36
REMARK SMILES IDX 81 37 32 38 86 39 80 40 82 41 33 42 85 43 79 44 78 45 34 47
REMARK SMILES IDX 66 48 46 49 65 50 47 51 50 52 64 53 83 54 48 55 49 56 63 58
REMARK SMILES IDX 84 59 51 60 35 61 36 62 44 63 37 64 38 65 42 66 45 67 39 68
REMARK SMILES IDX 40 69 43 70 41 71 67 72 68 73 76 74 69 75 70 76 74 77 77 78
REMARK SMILES IDX 71 79 72 80 75 81 73 82 52 83 53 84 61 85 54 86 55 87 59 88
REMARK SMILES IDX 62 89 56 90 57 91 60 92 58 93
REMARK H PARENT 7 12 7 13 3 17 82 46 50 57
REMARK Flexibility Score: inf
ROOT
ATOM      1  O   UNL     1      -8.402   0.965   1.751  1.00  0.00    -0.376 OA
ENDROOT
BRANCH   1   2
ATOM      2  C   UNL     1      -8.132   0.600   0.399  1.00  0.00     0.202 C 
BRANCH   2   3
ATOM      3  C   UNL     1      -6.758   0.948  -0.201  1.00  0.00     0.261 C 
BRANCH   3   4
ATOM      4  O   UNL     1      -5.600   0.199   0.275  1.00  0.00    -0.463 OA
BRANCH   4   5
ATOM      5  C   UNL     1      -4.677   0.945   0.931  1.00  0.00     0.314 C 
ATOM      6  O   UNL     1      -4.887   2.104   1.291  1.00  0.00    -0.252 OA
BRANCH   5   7
ATOM      7  C   UNL     1      -3.292   0.339   1.164  1.00  0.00     0.154 C 
ATOM      8  C   UNL     1      -2.345   1.163   0.273  1.00  0.00     0.026 C 
BRANCH   7   9
ATOM      9  C   UNL     1      -2.953  -1.175   1.034  1.00  0.00     0.193 C 
ATOM     10  C   UNL     1      -3.884  -2.075   1.829  1.00  0.00     0.076 C 
BRANCH   9  11
ATOM     11  N   UNL     1      -1.554  -1.358   1.503  1.00  0.00    -0.336 N 
ATOM     12  H   UNL     1      -0.949  -0.789   0.912  1.00  0.00     0.346 HD
ATOM     13  H   UNL     1      -1.551  -1.082   2.485  1.00  0.00     0.346 HD
BRANCH  11  14
ATOM     14  C   UNL     1      -1.048  -2.740   1.472  1.00  0.00     0.362 C 
BRANCH  14  15
ATOM     15  C   UNL     1       0.468  -2.767   1.713  1.00  0.00     0.275 C 
ATOM     16  N   UNL     1       1.311  -2.255   0.768  1.00  0.00    -0.351 N 
ATOM     17  H   UNL     1       2.269  -2.438   0.898  1.00  0.00     0.163 HD
ATOM     18  O   UNL     1       0.949  -3.275   2.728  1.00  0.00    -0.269 OA
BRANCH  16  19
ATOM     19  C   UNL     1       0.964  -1.475  -0.403  1.00  0.00     0.112 C 
ATOM     20  C   UNL     1       1.252  -0.004  -0.162  1.00  0.00     0.027 C 
ENDBRANCH  16  19
ENDBRANCH  14  15
ENDBRANCH  11  14
ENDBRANCH   9  11
ENDBRANCH   7   9
ENDBRANCH   5   7
ENDBRANCH   4   5
ENDBRANCH   3   4
ENDBRANCH   2   3
ENDBRANCH   1   2
BRANCH   1  21
ATOM     21  C   UNL     1      -7.472   0.585   2.748  1.00  0.00     0.188 C 
BRANCH  21  22
ATOM     22  C   UNL     1      -7.066  -0.891   2.834  1.00  0.00     0.188 C 
BRANCH  22  23
ATOM     23  O   UNL     1      -7.544  -1.670   1.753  1.00  0.00    -0.376 OA
BRANCH  23  24
ATOM     24  C   UNL     1      -7.446  -3.086   1.844  1.00  0.00     0.202 C 
BRANCH  24  25
ATOM     25  C   UNL     1      -8.434  -3.687   2.850  1.00  0.00     0.261 C 
BRANCH  25  26
ATOM     26  O   UNL     1      -8.115  -3.370   4.218  1.00  0.00    -0.460 OA
BRANCH  26  27
ATOM     27  C   UNL     1      -6.881  -3.731   4.638  1.00  0.00     0.338 C 
ATOM     28  O   UNL     1      -6.113  -4.499   4.083  1.00  0.00    -0.246 OA
BRANCH  27  29
ATOM     29  C   UNL     1      -6.492  -2.851   5.763  1.00  0.00     0.060 A 
ATOM     30  C   UNL     1      -5.177  -2.369   5.793  1.00  0.00     0.016 A 
ATOM     31  C   UNL     1      -7.402  -2.478   6.756  1.00  0.00     0.016 A 
ATOM     32  C   UNL     1      -4.747  -1.576   6.855  1.00  0.00     0.010 A 
ATOM     33  C   UNL     1      -6.970  -1.686   7.824  1.00  0.00     0.010 A 
ATOM     34  C   UNL     1      -5.627  -1.277   7.904  1.00  0.00    -0.014 A 
BRANCH  34  35
ATOM     35  C   UNL     1      -5.076  -0.768   9.184  1.00  0.00     0.031 A 
ATOM     36  C   UNL     1      -4.843  -1.757  10.295  1.00  0.00     0.074 A 
ATOM     37  C   UNL     1      -4.728   0.520   9.345  1.00  0.00     0.049 A 
ATOM     38  N   UNL     1      -4.391  -1.563  11.507  1.00  0.00    -0.248 NA
ATOM     39  C   UNL     1      -5.169  -3.161   9.993  1.00  0.00     0.031 C 
ATOM     40  C   UNL     1      -4.855   1.566   8.334  1.00  0.00     0.029 A 
ATOM     41  N   UNL     1      -4.192   1.164  10.433  1.00  0.00    -0.354 N 
ATOM     42  C   UNL     1      -4.383  -2.814  12.109  1.00  0.00     0.074 A 
ATOM     43  C   UNL     1      -4.915  -3.754  11.148  1.00  0.00     0.031 C 
ATOM     44  C   UNL     1      -4.413   2.726   8.851  1.00  0.00     0.029 A 
ATOM     45  C   UNL     1      -4.003   2.510  10.239  1.00  0.00     0.049 A 
ATOM     46  H   UNL     1      -3.964   0.704  11.274  1.00  0.00     0.167 HD
ATOM     47  C   UNL     1      -3.954  -3.157  13.347  1.00  0.00     0.037 A 
ATOM     48  C   UNL     1      -3.566   3.458  11.092  1.00  0.00     0.037 A 
ATOM     49  C   UNL     1      -3.423  -2.225  14.304  1.00  0.00     0.049 A 
ATOM     50  C   UNL     1      -3.160   3.065  12.491  1.00  0.00     0.074 A 
ATOM     51  C   UNL     1      -2.969  -2.470  15.588  1.00  0.00     0.029 A 
ATOM     52  N   UNL     1      -3.277  -0.863  14.081  1.00  0.00    -0.354 N 
ATOM     53  N   UNL     1      -3.152   1.880  13.053  1.00  0.00    -0.248 NA
ATOM     54  C   UNL     1      -2.695   4.146  13.373  1.00  0.00     0.031 C 
ATOM     55  C   UNL     1      -2.596  -1.249  16.160  1.00  0.00     0.029 A 
ATOM     56  C   UNL     1      -2.758  -0.252  15.210  1.00  0.00     0.049 A 
ATOM     57  H   UNL     1      -3.508  -0.400  13.243  1.00  0.00     0.167 HD
ATOM     58  C   UNL     1      -2.655   2.067  14.338  1.00  0.00     0.074 A 
ATOM     59  C   UNL     1      -2.358   3.478  14.467  1.00  0.00     0.031 C 
ATOM     60  C   UNL     1      -2.461   1.154  15.322  1.00  0.00     0.037 A 
BRANCH  47  61
ATOM     61  C   UNL     1      -4.075  -4.601  13.739  1.00  0.00     0.064 A 
ATOM     62  C   UNL     1      -3.273  -5.595  13.157  1.00  0.00     0.173 A 
ATOM     63  C   UNL     1      -5.006  -4.995  14.712  1.00  0.00     0.173 A 
ATOM     64  F   UNL     1      -2.383  -5.274  12.207  1.00  0.00    -0.203 F 
ATOM     65  C   UNL     1      -3.423  -6.934  13.511  1.00  0.00     0.198 A 
ATOM     66  C   UNL     1      -5.129  -6.330  15.087  1.00  0.00     0.198 A 
ATOM     67  F   UNL     1      -5.798  -4.085  15.299  1.00  0.00    -0.203 F 
ATOM     68  F   UNL     1      -2.689  -7.873  12.898  1.00  0.00    -0.200 F 
ATOM     69  C   UNL     1      -4.345  -7.299  14.479  1.00  0.00     0.200 A 
ATOM     70  F   UNL     1      -6.014  -6.679  16.031  1.00  0.00    -0.200 F 
ATOM     71  F   UNL     1      -4.487  -8.587  14.820  1.00  0.00    -0.200 F 
ENDBRANCH  47  61
BRANCH  48  72
ATOM     72  C   UNL     1      -3.504   4.878  10.655  1.00  0.00     0.064 A 
ATOM     73  C   UNL     1      -2.280   5.545  10.513  1.00  0.00     0.173 A 
ATOM     74  C   UNL     1      -4.676   5.607  10.399  1.00  0.00     0.173 A 
ATOM     75  F   UNL     1      -1.132   4.902  10.775  1.00  0.00    -0.203 F 
ATOM     76  C   UNL     1      -2.230   6.891  10.150  1.00  0.00     0.198 A 
ATOM     77  C   UNL     1      -4.624   6.942  10.007  1.00  0.00     0.198 A 
ATOM     78  F   UNL     1      -5.874   5.018  10.527  1.00  0.00    -0.203 F 
ATOM     79  F   UNL     1      -1.049   7.518  10.074  1.00  0.00    -0.200 F 
ATOM     80  C   UNL     1      -3.402   7.586   9.892  1.00  0.00     0.200 A 
ATOM     81  F   UNL     1      -5.758   7.607   9.749  1.00  0.00    -0.200 F 
ATOM     82  F   UNL     1      -3.353   8.879   9.542  1.00  0.00    -0.200 F 
ENDBRANCH  48  72
BRANCH  60  83
ATOM     83  C   UNL     1      -1.859   1.640  16.611  1.00  0.00     0.064 A 
ATOM     84  C   UNL     1      -2.573   2.458  17.500  1.00  0.00     0.173 A 
ATOM     85  C   UNL     1      -0.561   1.251  16.978  1.00  0.00     0.173 A 
ATOM     86  F   UNL     1      -3.813   2.867  17.193  1.00  0.00    -0.203 F 
ATOM     87  C   UNL     1      -1.998   2.895  18.691  1.00  0.00     0.198 A 
ATOM     88  C   UNL     1      -0.002   1.663  18.184  1.00  0.00     0.198 A 
ATOM     89  F   UNL     1       0.162   0.461  16.171  1.00  0.00    -0.203 F 
ATOM     90  F   UNL     1      -2.678   3.721  19.498  1.00  0.00    -0.200 F 
ATOM     91  C   UNL     1      -0.716   2.492  19.035  1.00  0.00     0.200 A 
ATOM     92  F   UNL     1       1.230   1.258  18.523  1.00  0.00    -0.200 F 
ATOM     93  F   UNL     1      -0.166   2.910  20.183  1.00  0.00    -0.200 F 
ENDBRANCH  60  83
ENDBRANCH  34  35
ENDBRANCH  27  29
ENDBRANCH  26  27
ENDBRANCH  25  26
ENDBRANCH  24  25
ENDBRANCH  23  24
ENDBRANCH  22  23
ENDBRANCH  21  22
ENDBRANCH   1  21
TORSDOF 22
