REMARK SMILES O=C(CSc1ccnc(C(=O)OCCOCCOCCOC(=O)c2ccc(-c3c4nc(c(-c5c(F)c(F)c(F)c(F)c5F)c5ccc([nH]5)c(-c5c(F)c(F)c(F)c(F)c5F)c5nc(c(-c6c(F)c(F)c(F)c(F)c6F)c6ccc3[nH]6)C=C5)C=C4)cc2)c1)NCC(F)(F)F
REMARK SMILES IDX 15 1 14 2 13 3 12 4 10 5 11 6 9 7 5 8 6 9 87 10 7 11 8 12
REMARK SMILES IDX 4 13 3 14 2 15 1 16 88 17 89 19 90 20 91 21 92 22 93 23
REMARK SMILES IDX 16 24 17 25 18 26 19 27 20 28 21 29 22 30 23 31 24 32 25 33
REMARK SMILES IDX 86 34 26 35 85 36 27 37 28 38 29 39 79 40 30 41 84 42 78 43
REMARK SMILES IDX 80 44 31 45 83 46 77 47 76 48 32 50 64 51 44 52 63 53 45 54
REMARK SMILES IDX 48 55 62 56 81 57 46 58 47 59 61 61 82 62 49 63 33 64 34 65
REMARK SMILES IDX 42 66 35 67 36 68 40 69 43 70 37 71 38 72 41 73 39 74 65 75
REMARK SMILES IDX 66 76 74 77 67 78 68 79 72 80 75 81 69 82 70 83 73 84 71 85
REMARK SMILES IDX 50 86 51 87 59 88 52 89 53 90 57 91 60 92 54 93 55 94 58 95
REMARK SMILES IDX 56 96
REMARK H PARENT 88 18 80 49 48 60
REMARK Flexibility Score: inf
ROOT
ATOM      1  O   UNL     1       3.884  -8.643   3.065  1.00  0.00    -0.376 OA
ENDROOT
BRANCH   1   2
ATOM      2  C   UNL     1       4.895  -8.588   2.062  1.00  0.00     0.202 C 
BRANCH   2   3
ATOM      3  C   UNL     1       4.644  -7.755   0.797  1.00  0.00     0.261 C 
BRANCH   3   4
ATOM      4  O   UNL     1       4.317  -6.381   1.066  1.00  0.00    -0.459 OA
BRANCH   4   5
ATOM      5  C   UNL     1       3.139  -5.946   0.542  1.00  0.00     0.357 C 
ATOM      6  O   UNL     1       2.423  -6.548  -0.240  1.00  0.00    -0.244 OA
BRANCH   5   7
ATOM      7  C   UNL     1       2.769  -4.654   1.183  1.00  0.00     0.149 A 
ATOM      8  C   UNL     1       3.227  -2.397   1.797  1.00  0.00     0.012 A 
ATOM      9  C   UNL     1       1.972  -2.347   2.403  1.00  0.00     0.035 A 
ATOM     10  C   UNL     1       3.651  -3.584   1.198  1.00  0.00     0.051 A 
ATOM     11  C   UNL     1       1.167  -3.470   2.347  1.00  0.00     0.113 A 
ATOM     12  N   UNL     1       1.533  -4.619   1.749  1.00  0.00    -0.249 NA
BRANCH   8  13
ATOM     13  S   UNL     1       4.320  -0.983   1.748  1.00  0.00    -0.116 SA
BRANCH  13  14
ATOM     14  C   UNL     1       3.164   0.365   1.300  1.00  0.00     0.174 C 
BRANCH  14  15
ATOM     15  C   UNL     1       2.330   0.024   0.075  1.00  0.00     0.230 C 
ATOM     16  O   UNL     1       1.105   0.115   0.082  1.00  0.00    -0.274 OA
ATOM     17  N   UNL     1       3.046  -0.350  -1.038  1.00  0.00    -0.346 N 
ATOM     18  H   UNL     1       4.027  -0.395  -0.978  1.00  0.00     0.163 HD
BRANCH  17  19
ATOM     19  C   UNL     1       2.401  -0.683  -2.311  1.00  0.00     0.231 C 
BRANCH  19  20
ATOM     20  C   UNL     1       2.706   0.294  -3.445  1.00  0.00     0.405 C 
ATOM     21  F   UNL     1       4.039   0.337  -3.685  1.00  0.00    -0.169 F 
ATOM     22  F   UNL     1       2.098  -0.086  -4.590  1.00  0.00    -0.169 F 
ATOM     23  F   UNL     1       2.302   1.549  -3.155  1.00  0.00    -0.169 F 
ENDBRANCH  19  20
ENDBRANCH  17  19
ENDBRANCH  14  15
ENDBRANCH  13  14
ENDBRANCH   8  13
ENDBRANCH   5   7
ENDBRANCH   4   5
ENDBRANCH   3   4
ENDBRANCH   2   3
ENDBRANCH   1   2
BRANCH   1  24
ATOM     24  C   UNL     1       3.351  -7.431   3.591  1.00  0.00     0.188 C 
BRANCH  24  25
ATOM     25  C   UNL     1       4.316  -6.324   4.069  1.00  0.00     0.188 C 
BRANCH  25  26
ATOM     26  O   UNL     1       5.676  -6.632   3.865  1.00  0.00    -0.376 OA
BRANCH  26  27
ATOM     27  C   UNL     1       6.470  -7.037   4.967  1.00  0.00     0.202 C 
BRANCH  27  28
ATOM     28  C   UNL     1       5.965  -7.994   6.064  1.00  0.00     0.261 C 
BRANCH  28  29
ATOM     29  O   UNL     1       4.558  -8.037   6.320  1.00  0.00    -0.460 OA
BRANCH  29  30
ATOM     30  C   UNL     1       4.080  -7.191   7.260  1.00  0.00     0.338 C 
ATOM     31  O   UNL     1       4.695  -6.344   7.877  1.00  0.00    -0.246 OA
BRANCH  30  32
ATOM     32  C   UNL     1       2.614  -7.359   7.311  1.00  0.00     0.060 A 
ATOM     33  C   UNL     1       1.799  -6.289   6.923  1.00  0.00     0.016 A 
ATOM     34  C   UNL     1       2.050  -8.558   7.755  1.00  0.00     0.016 A 
ATOM     35  C   UNL     1       0.411  -6.408   7.001  1.00  0.00     0.010 A 
ATOM     36  C   UNL     1       0.660  -8.669   7.849  1.00  0.00     0.010 A 
ATOM     37  C   UNL     1      -0.164  -7.585   7.499  1.00  0.00    -0.014 A 
BRANCH  37  38
ATOM     38  C   UNL     1      -1.614  -7.628   7.807  1.00  0.00     0.031 A 
ATOM     39  C   UNL     1      -2.058  -7.370   9.219  1.00  0.00     0.074 A 
ATOM     40  C   UNL     1      -2.522  -7.887   6.851  1.00  0.00     0.049 A 
ATOM     41  N   UNL     1      -3.261  -7.398   9.734  1.00  0.00    -0.248 NA
ATOM     42  C   UNL     1      -0.997  -7.037  10.183  1.00  0.00     0.031 C 
ATOM     43  C   UNL     1      -2.220  -8.123   5.442  1.00  0.00     0.029 A 
ATOM     44  N   UNL     1      -3.887  -8.008   6.931  1.00  0.00    -0.354 N 
ATOM     45  C   UNL     1      -3.101  -7.093  11.078  1.00  0.00     0.074 A 
ATOM     46  C   UNL     1      -1.684  -6.912  11.308  1.00  0.00     0.031 C 
ATOM     47  C   UNL     1      -3.367  -8.377   4.789  1.00  0.00     0.029 A 
ATOM     48  C   UNL     1      -4.477  -8.352   5.741  1.00  0.00     0.049 A 
ATOM     49  H   UNL     1      -4.394  -7.862   7.763  1.00  0.00     0.167 HD
ATOM     50  C   UNL     1      -4.052  -6.967  12.035  1.00  0.00     0.037 A 
ATOM     51  C   UNL     1      -5.764  -8.636   5.461  1.00  0.00     0.037 A 
ATOM     52  C   UNL     1      -5.460  -7.157  11.807  1.00  0.00     0.049 A 
ATOM     53  C   UNL     1      -6.797  -8.560   6.556  1.00  0.00     0.074 A 
ATOM     54  C   UNL     1      -6.505  -7.028  12.705  1.00  0.00     0.029 A 
ATOM     55  N   UNL     1      -6.019  -7.532  10.594  1.00  0.00    -0.354 N 
ATOM     56  N   UNL     1      -6.646  -8.235   7.817  1.00  0.00    -0.248 NA
ATOM     57  C   UNL     1      -8.181  -8.890   6.186  1.00  0.00     0.031 C 
ATOM     58  C   UNL     1      -7.691  -7.378  12.049  1.00  0.00     0.029 A 
ATOM     59  C   UNL     1      -7.392  -7.669  10.727  1.00  0.00     0.049 A 
ATOM     60  H   UNL     1      -5.515  -7.679   9.761  1.00  0.00     0.167 HD
ATOM     61  C   UNL     1      -7.913  -8.294   8.384  1.00  0.00     0.074 A 
ATOM     62  C   UNL     1      -8.825  -8.676   7.325  1.00  0.00     0.031 C 
ATOM     63  C   UNL     1      -8.288  -8.049   9.664  1.00  0.00     0.037 A 
BRANCH  50  64
ATOM     64  C   UNL     1      -3.588  -6.640  13.424  1.00  0.00     0.064 A 
ATOM     65  C   UNL     1      -3.070  -5.378  13.752  1.00  0.00     0.173 A 
ATOM     66  C   UNL     1      -3.669  -7.602  14.443  1.00  0.00     0.173 A 
ATOM     67  F   UNL     1      -2.957  -4.429  12.811  1.00  0.00    -0.203 F 
ATOM     68  C   UNL     1      -2.619  -5.102  15.040  1.00  0.00     0.198 A 
ATOM     69  C   UNL     1      -3.244  -7.313  15.736  1.00  0.00     0.198 A 
ATOM     70  F   UNL     1      -4.159  -8.823  14.183  1.00  0.00    -0.203 F 
ATOM     71  F   UNL     1      -2.075  -3.909  15.317  1.00  0.00    -0.200 F 
ATOM     72  C   UNL     1      -2.711  -6.067  16.032  1.00  0.00     0.200 A 
ATOM     73  F   UNL     1      -3.344  -8.243  16.696  1.00  0.00    -0.200 F 
ATOM     74  F   UNL     1      -2.275  -5.801  17.271  1.00  0.00    -0.200 F 
ENDBRANCH  50  64
BRANCH  51  75
ATOM     75  C   UNL     1      -6.148  -9.028   4.080  1.00  0.00     0.064 A 
ATOM     76  C   UNL     1      -6.918  -8.180   3.274  1.00  0.00     0.173 A 
ATOM     77  C   UNL     1      -5.755 -10.262   3.541  1.00  0.00     0.173 A 
ATOM     78  F   UNL     1      -7.344  -7.003   3.756  1.00  0.00    -0.203 F 
ATOM     79  C   UNL     1      -7.290  -8.555   1.984  1.00  0.00     0.198 A 
ATOM     80  C   UNL     1      -6.105 -10.625   2.243  1.00  0.00     0.198 A 
ATOM     81  F   UNL     1      -5.023 -11.113   4.275  1.00  0.00    -0.203 F 
ATOM     82  F   UNL     1      -8.063  -7.743   1.250  1.00  0.00    -0.200 F 
ATOM     83  C   UNL     1      -6.877  -9.774   1.467  1.00  0.00     0.200 A 
ATOM     84  F   UNL     1      -5.699 -11.801   1.745  1.00  0.00    -0.200 F 
ATOM     85  F   UNL     1      -7.233 -10.132   0.226  1.00  0.00    -0.200 F 
ENDBRANCH  51  75
BRANCH  63  86
ATOM     86  C   UNL     1      -9.751  -8.155   9.990  1.00  0.00     0.064 A 
ATOM     87  C   UNL     1     -10.405  -9.394  10.056  1.00  0.00     0.173 A 
ATOM     88  C   UNL     1     -10.496  -7.003  10.288  1.00  0.00     0.173 A 
ATOM     89  F   UNL     1      -9.742 -10.524   9.767  1.00  0.00    -0.203 F 
ATOM     90  C   UNL     1     -11.756  -9.474  10.386  1.00  0.00     0.198 A 
ATOM     91  C   UNL     1     -11.838  -7.089  10.647  1.00  0.00     0.198 A 
ATOM     92  F   UNL     1      -9.917  -5.794  10.248  1.00  0.00    -0.203 F 
ATOM     93  F   UNL     1     -12.371 -10.664  10.400  1.00  0.00    -0.200 F 
ATOM     94  C   UNL     1     -12.469  -8.323  10.688  1.00  0.00     0.200 A 
ATOM     95  F   UNL     1     -12.521  -5.978  10.953  1.00  0.00    -0.200 F 
ATOM     96  F   UNL     1     -13.766  -8.403  11.014  1.00  0.00    -0.200 F 
ENDBRANCH  63  86
ENDBRANCH  37  38
ENDBRANCH  30  32
ENDBRANCH  29  30
ENDBRANCH  28  29
ENDBRANCH  27  28
ENDBRANCH  26  27
ENDBRANCH  25  26
ENDBRANCH  24  25
ENDBRANCH   1  24
TORSDOF 22
