REMARK SMILES C/C(=N\NC(N)=O)c1nnn(-c2ccc(C(=O)OCCOCCOCCOC(=O)c3ccc(-c4c5nc(c(-c6c(F)c(F)c(F)c(F)c6F)c6ccc([nH]6)c(-c6c(F)c(F)c(F)c(F)c6F)c6nc(c(-c7c(F)c(F)c(F)c(F)c7F)c7ccc4[nH]7)C=C6)C=C5)cc3)cc2)c1C
REMARK SMILES IDX 22 1 21 2 20 3 19 4 18 5 16 6 17 7 15 8 12 9 13 10 94 11
REMARK SMILES IDX 14 12 93 13 11 14 8 15 9 16 95 17 10 18 96 19 2 20 1 21 3 22
REMARK SMILES IDX 4 23 5 24 6 26 7 27 23 30 24 31 25 32 26 33 27 34 28 35
REMARK SMILES IDX 29 36 30 37 31 38 92 39 32 40 91 41 33 42 34 43 35 44 85 45
REMARK SMILES IDX 36 46 90 47 84 48 86 49 37 50 89 51 83 52 82 53 38 55 70 56
REMARK SMILES IDX 50 57 69 58 51 59 54 60 68 61 87 62 52 63 53 64 67 66 88 67
REMARK SMILES IDX 55 68 39 69 40 70 48 71 41 72 42 73 46 74 49 75 43 76 44 77
REMARK SMILES IDX 47 78 45 79 71 80 72 81 80 82 73 83 74 84 78 85 81 86 75 87
REMARK SMILES IDX 76 88 79 89 77 90 56 91 57 92 65 93 58 94 59 95 63 96 66 97
REMARK SMILES IDX 60 98 61 99 64 100 62 101
REMARK H PARENT 4 25 6 28 6 29 86 54 54 65
REMARK Flexibility Score: inf
ROOT
ATOM      1  C   UNL     1       6.992   2.347   9.077  1.00  0.00     0.188 C 
ENDROOT
BRANCH   1   2
ATOM      2  O   UNL     1       8.357   2.544   9.380  1.00  0.00    -0.376 OA
BRANCH   2   3
ATOM      3  C   UNL     1       9.318   1.751   8.697  1.00  0.00     0.202 C 
BRANCH   3   4
ATOM      4  C   UNL     1       9.262   1.510   7.172  1.00  0.00     0.261 C 
BRANCH   4   5
ATOM      5  O   UNL     1       8.017   1.758   6.515  1.00  0.00    -0.460 OA
BRANCH   5   6
ATOM      6  C   UNL     1       7.223   0.685   6.293  1.00  0.00     0.338 C 
ATOM      7  O   UNL     1       7.450  -0.467   6.615  1.00  0.00    -0.246 OA
BRANCH   6   8
ATOM      8  C   UNL     1       5.930   1.138   5.724  1.00  0.00     0.060 A 
ATOM      9  C   UNL     1       3.494   1.776   4.555  1.00  0.00     0.067 A 
ATOM     10  C   UNL     1       3.529   0.827   5.582  1.00  0.00     0.029 A 
ATOM     11  C   UNL     1       4.642   2.496   4.200  1.00  0.00     0.029 A 
ATOM     12  C   UNL     1       4.760   0.487   6.143  1.00  0.00     0.018 A 
ATOM     13  C   UNL     1       5.863   2.184   4.797  1.00  0.00     0.018 A 
BRANCH   9  14
ATOM     14  N   UNL     1       2.345   1.836   3.737  1.00  0.00    -0.217 N 
ATOM     15  C   UNL     1       0.964   1.453   2.097  1.00  0.00     0.132 A 
ATOM     16  N   UNL     1       0.241   1.610   3.248  1.00  0.00    -0.128 NA
ATOM     17  C   UNL     1       2.311   1.592   2.373  1.00  0.00     0.071 A 
ATOM     18  N   UNL     1       1.095   1.776   4.250  1.00  0.00    -0.061 NA
ATOM     19  C   UNL     1       3.501   1.328   1.526  1.00  0.00     0.069 C 
BRANCH  15  20
ATOM     20  C   UNL     1       0.379   0.983   0.856  1.00  0.00     0.087 C 
ATOM     21  C   UNL     1       0.474  -0.501   0.597  1.00  0.00     0.071 C 
ATOM     22  N   UNL     1      -0.174   1.893   0.110  1.00  0.00    -0.174 NA
BRANCH  22  23
ATOM     23  N   UNL     1      -0.669   1.581  -1.126  1.00  0.00    -0.229 N 
ATOM     24  C   UNL     1       0.021   0.902  -2.109  1.00  0.00     0.332 C 
ATOM     25  H   UNL     1      -1.591   1.863  -1.330  1.00  0.00     0.195 HD
ATOM     26  N   UNL     1      -0.706   0.760  -3.252  1.00  0.00    -0.350 N 
ATOM     27  O   UNL     1       1.151   0.439  -2.030  1.00  0.00    -0.247 OA
ATOM     28  H   UNL     1      -1.615   1.135  -3.307  1.00  0.00     0.161 HD
ATOM     29  H   UNL     1      -0.324   0.281  -4.022  1.00  0.00     0.161 HD
ENDBRANCH  22  23
ENDBRANCH  15  20
ENDBRANCH   9  14
ENDBRANCH   6   8
ENDBRANCH   5   6
ENDBRANCH   4   5
ENDBRANCH   3   4
ENDBRANCH   2   3
ENDBRANCH   1   2
BRANCH   1  30
ATOM     30  C   UNL     1       6.361   3.513   8.285  1.00  0.00     0.188 C 
BRANCH  30  31
ATOM     31  O   UNL     1       7.165   4.451   7.575  1.00  0.00    -0.376 OA
BRANCH  31  32
ATOM     32  C   UNL     1       8.312   5.047   8.172  1.00  0.00     0.202 C 
BRANCH  32  33
ATOM     33  C   UNL     1       8.203   5.791   9.502  1.00  0.00     0.261 C 
BRANCH  33  34
ATOM     34  O   UNL     1       7.565   5.045  10.528  1.00  0.00    -0.460 OA
BRANCH  34  35
ATOM     35  C   UNL     1       6.273   5.377  10.726  1.00  0.00     0.338 C 
ATOM     36  O   UNL     1       5.613   6.184  10.095  1.00  0.00    -0.246 OA
BRANCH  35  37
ATOM     37  C   UNL     1       5.750   4.643  11.887  1.00  0.00     0.060 A 
ATOM     38  C   UNL     1       4.398   4.839  12.175  1.00  0.00     0.016 A 
ATOM     39  C   UNL     1       6.619   4.019  12.794  1.00  0.00     0.016 A 
ATOM     40  C   UNL     1       3.974   4.659  13.471  1.00  0.00     0.010 A 
ATOM     41  C   UNL     1       6.195   3.841  14.094  1.00  0.00     0.010 A 
ATOM     42  C   UNL     1       4.914   4.276  14.432  1.00  0.00    -0.014 A 
BRANCH  42  43
ATOM     43  C   UNL     1       4.555   4.515  15.814  1.00  0.00     0.031 A 
ATOM     44  C   UNL     1       3.652   3.535  16.442  1.00  0.00     0.074 A 
ATOM     45  C   UNL     1       5.056   5.570  16.486  1.00  0.00     0.049 A 
ATOM     46  N   UNL     1       2.498   3.748  16.982  1.00  0.00    -0.248 NA
ATOM     47  C   UNL     1       4.074   2.129  16.425  1.00  0.00     0.031 C 
ATOM     48  C   UNL     1       6.154   6.455  16.083  1.00  0.00     0.029 A 
ATOM     49  N   UNL     1       4.739   6.010  17.735  1.00  0.00    -0.354 N 
ATOM     50  C   UNL     1       2.111   2.529  17.522  1.00  0.00     0.074 A 
ATOM     51  C   UNL     1       3.061   1.546  17.065  1.00  0.00     0.031 C 
ATOM     52  C   UNL     1       6.546   7.183  17.150  1.00  0.00     0.029 A 
ATOM     53  C   UNL     1       5.654   6.903  18.264  1.00  0.00     0.049 A 
ATOM     54  H   UNL     1       3.932   5.718  18.219  1.00  0.00     0.167 HD
ATOM     55  C   UNL     1       1.157   2.445  18.484  1.00  0.00     0.037 A 
ATOM     56  C   UNL     1       5.723   7.314  19.551  1.00  0.00     0.037 A 
ATOM     57  C   UNL     1       0.283   3.585  18.496  1.00  0.00     0.049 A 
ATOM     58  C   UNL     1       4.411   7.051  20.189  1.00  0.00     0.074 A 
ATOM     59  C   UNL     1      -0.564   4.163  17.569  1.00  0.00     0.029 A 
ATOM     60  N   UNL     1       0.412   4.511  19.499  1.00  0.00    -0.354 N 
ATOM     61  N   UNL     1       3.316   7.708  19.929  1.00  0.00    -0.248 NA
ATOM     62  C   UNL     1       4.225   5.782  20.878  1.00  0.00     0.031 C 
ATOM     63  C   UNL     1      -0.523   5.562  17.838  1.00  0.00     0.029 A 
ATOM     64  C   UNL     1       0.344   5.750  18.914  1.00  0.00     0.049 A 
ATOM     65  H   UNL     1       0.532   4.322  20.458  1.00  0.00     0.167 HD
ATOM     66  C   UNL     1       2.303   6.768  20.045  1.00  0.00     0.074 A 
ATOM     67  C   UNL     1       2.904   5.644  20.750  1.00  0.00     0.031 C 
ATOM     68  C   UNL     1       1.156   6.874  19.313  1.00  0.00     0.037 A 
BRANCH  55  69
ATOM     69  C   UNL     1       1.234   1.455  19.610  1.00  0.00     0.064 A 
ATOM     70  C   UNL     1       0.101   1.199  20.400  1.00  0.00     0.173 A 
ATOM     71  C   UNL     1       2.459   0.953  20.104  1.00  0.00     0.173 A 
ATOM     72  F   UNL     1      -1.100   1.678  20.044  1.00  0.00    -0.203 F 
ATOM     73  C   UNL     1       0.195   0.517  21.616  1.00  0.00     0.198 A 
ATOM     74  C   UNL     1       2.541   0.225  21.287  1.00  0.00     0.198 A 
ATOM     75  F   UNL     1       3.629   1.242  19.517  1.00  0.00    -0.203 F 
ATOM     76  F   UNL     1      -0.890   0.388  22.391  1.00  0.00    -0.200 F 
ATOM     77  C   UNL     1       1.413   0.028  22.056  1.00  0.00     0.200 A 
ATOM     78  F   UNL     1       3.733  -0.218  21.709  1.00  0.00    -0.200 F 
ATOM     79  F   UNL     1       1.511  -0.585  23.243  1.00  0.00    -0.200 F 
ENDBRANCH  55  69
BRANCH  56  80
ATOM     80  C   UNL     1       6.935   7.669  20.322  1.00  0.00     0.064 A 
ATOM     81  C   UNL     1       6.847   8.402  21.515  1.00  0.00     0.173 A 
ATOM     82  C   UNL     1       8.185   7.085  20.035  1.00  0.00     0.173 A 
ATOM     83  F   UNL     1       5.679   8.944  21.889  1.00  0.00    -0.203 F 
ATOM     84  C   UNL     1       7.942   8.535  22.373  1.00  0.00     0.198 A 
ATOM     85  C   UNL     1       9.281   7.232  20.883  1.00  0.00     0.198 A 
ATOM     86  F   UNL     1       8.346   6.284  18.972  1.00  0.00    -0.203 F 
ATOM     87  F   UNL     1       7.806   9.192  23.533  1.00  0.00    -0.200 F 
ATOM     88  C   UNL     1       9.157   7.947  22.059  1.00  0.00     0.200 A 
ATOM     89  F   UNL     1      10.440   6.628  20.582  1.00  0.00    -0.200 F 
ATOM     90  F   UNL     1      10.193   8.033  22.904  1.00  0.00    -0.200 F 
ENDBRANCH  56  80
BRANCH  68  91
ATOM     91  C   UNL     1       0.888   8.186  18.634  1.00  0.00     0.064 A 
ATOM     92  C   UNL     1       1.701   8.709  17.613  1.00  0.00     0.173 A 
ATOM     93  C   UNL     1      -0.292   8.876  18.940  1.00  0.00     0.173 A 
ATOM     94  F   UNL     1       2.787   8.047  17.193  1.00  0.00    -0.203 F 
ATOM     95  C   UNL     1       1.373   9.901  16.971  1.00  0.00     0.198 A 
ATOM     96  C   UNL     1      -0.635  10.048  18.271  1.00  0.00     0.198 A 
ATOM     97  F   UNL     1      -1.137   8.388  19.862  1.00  0.00    -0.203 F 
ATOM     98  F   UNL     1       2.175  10.392  16.014  1.00  0.00    -0.200 F 
ATOM     99  C   UNL     1       0.203  10.567  17.297  1.00  0.00     0.200 A 
ATOM    100  F   UNL     1      -1.792  10.663  18.554  1.00  0.00    -0.200 F 
ATOM    101  F   UNL     1      -0.130  11.696  16.656  1.00  0.00    -0.200 F 
ENDBRANCH  68  91
ENDBRANCH  42  43
ENDBRANCH  35  37
ENDBRANCH  34  35
ENDBRANCH  33  34
ENDBRANCH  32  33
ENDBRANCH  31  32
ENDBRANCH  30  31
ENDBRANCH   1  30
TORSDOF 20
