REMARK SMILES O=C(C[N@@H+]1CCC[C@@H]1C(=O)OCCOCCOCCOC(=O)c1ccc(-c2c3nc(c(-c4c(F)c(F)c(F)c(F)c4F)c4ccc([nH]4)c(-c4c(F)c(F)c(F)c(F)c4F)c4nc(c(-c5c(F)c(F)c(F)c(F)c5F)c5ccc2[nH]5)C=C4)C=C3)cc1)NCc1ccc(Cl)cc1
REMARK SMILES IDX 15 1 14 2 13 3 12 4 11 5 9 6 10 7 8 8 4 9 5 10 6 12 7 13
REMARK SMILES IDX 3 14 2 15 1 16 86 17 87 19 88 20 89 21 94 22 90 23 93 24
REMARK SMILES IDX 91 25 92 26 16 27 17 28 18 29 19 30 20 31 21 32 22 33 23 34
REMARK SMILES IDX 24 35 85 36 25 37 84 38 26 39 27 40 28 41 78 42 29 43 83 44
REMARK SMILES IDX 77 45 79 46 30 47 82 48 76 49 75 50 31 52 63 53 43 54 62 55
REMARK SMILES IDX 44 56 47 57 61 58 80 59 45 60 46 61 60 63 81 64 48 65 32 66
REMARK SMILES IDX 33 67 41 68 34 69 35 70 39 71 42 72 36 73 37 74 40 75 38 76
REMARK SMILES IDX 64 77 65 78 73 79 66 80 67 81 71 82 74 83 68 84 69 85 72 86
REMARK SMILES IDX 70 87 49 88 50 89 58 90 51 91 52 92 56 93 59 94 53 95 54 96
REMARK SMILES IDX 57 97 55 98
REMARK H PARENT 4 11 86 18 79 51 47 62
REMARK Flexibility Score: inf
ROOT
ATOM      1  C   UNL     1       6.069   1.099   4.408  1.00  0.00     0.188 C 
ENDROOT
BRANCH   1   2
ATOM      2  O   UNL     1       5.252   2.114   4.956  1.00  0.00    -0.376 OA
BRANCH   2   3
ATOM      3  C   UNL     1       3.853   2.107   4.699  1.00  0.00     0.202 C 
BRANCH   3   4
ATOM      4  C   UNL     1       3.288   1.660   3.344  1.00  0.00     0.261 C 
BRANCH   4   5
ATOM      5  O   UNL     1       3.615   0.314   2.955  1.00  0.00    -0.459 OA
BRANCH   5   6
ATOM      6  C   UNL     1       4.305   0.169   1.791  1.00  0.00     0.365 C 
ATOM      7  O   UNL     1       4.740   1.099   1.117  1.00  0.00    -0.245 OA
BRANCH   6   8
ATOM      8  C   UNL     1       4.391  -1.289   1.316  1.00  0.00     0.295 C 
ATOM      9  N   UNL     1       3.409  -1.589   0.240  1.00  0.00    -0.315 N 
ATOM     10  C   UNL     1       3.330  -3.060   0.223  1.00  0.00     0.263 C 
ATOM     11  H   UNL     1       3.716  -1.175  -0.641  1.00  0.00     0.349 HD
ATOM     12  C   UNL     1       3.385  -3.465   1.685  1.00  0.00     0.068 C 
ATOM     13  C   UNL     1       4.318  -2.445   2.314  1.00  0.00     0.083 C 
BRANCH   9  14
ATOM     14  C   UNL     1       2.060  -1.004   0.459  1.00  0.00     0.364 C 
BRANCH  14  15
ATOM     15  C   UNL     1       1.571  -0.386  -0.852  1.00  0.00     0.275 C 
ATOM     16  O   UNL     1       0.425  -0.542  -1.264  1.00  0.00    -0.268 OA
ATOM     17  N   UNL     1       2.508   0.423  -1.455  1.00  0.00    -0.347 N 
ATOM     18  H   UNL     1       3.386   0.529  -1.022  1.00  0.00     0.164 HD
BRANCH  17  19
ATOM     19  C   UNL     1       2.262   1.121  -2.688  1.00  0.00     0.151 C 
BRANCH  19  20
ATOM     20  C   UNL     1       2.656   2.573  -2.595  1.00  0.00    -0.029 A 
ATOM     21  C   UNL     1       4.006   2.955  -2.598  1.00  0.00     0.007 A 
ATOM     22  C   UNL     1       1.669   3.568  -2.516  1.00  0.00     0.007 A 
ATOM     23  C   UNL     1       4.361   4.307  -2.562  1.00  0.00     0.021 A 
ATOM     24  C   UNL     1       2.023   4.919  -2.483  1.00  0.00     0.021 A 
ATOM     25  C   UNL     1       3.367   5.282  -2.514  1.00  0.00     0.041 A 
ATOM     26  Cl  UNL     1       3.803   6.947  -2.502  1.00  0.00    -0.084 Cl
ENDBRANCH  19  20
ENDBRANCH  17  19
ENDBRANCH  14  15
ENDBRANCH   9  14
ENDBRANCH   6   8
ENDBRANCH   5   6
ENDBRANCH   4   5
ENDBRANCH   3   4
ENDBRANCH   2   3
ENDBRANCH   1   2
BRANCH   1  27
ATOM     27  C   UNL     1       5.743  -0.367   4.724  1.00  0.00     0.188 C 
BRANCH  27  28
ATOM     28  O   UNL     1       4.598  -0.655   5.484  1.00  0.00    -0.376 OA
BRANCH  28  29
ATOM     29  C   UNL     1       4.611  -0.479   6.892  1.00  0.00     0.202 C 
BRANCH  29  30
ATOM     30  C   UNL     1       5.841  -0.105   7.750  1.00  0.00     0.261 C 
BRANCH  30  31
ATOM     31  O   UNL     1       7.083   0.164   7.094  1.00  0.00    -0.460 OA
BRANCH  31  32
ATOM     32  C   UNL     1       7.940  -0.883   6.971  1.00  0.00     0.338 C 
ATOM     33  O   UNL     1       7.779  -2.018   7.367  1.00  0.00    -0.246 OA
BRANCH  32  34
ATOM     34  C   UNL     1       9.008  -0.475   6.025  1.00  0.00     0.060 A 
ATOM     35  C   UNL     1       9.140  -1.174   4.814  1.00  0.00     0.016 A 
ATOM     36  C   UNL     1       9.843   0.605   6.310  1.00  0.00     0.016 A 
ATOM     37  C   UNL     1      10.118  -0.806   3.891  1.00  0.00     0.010 A 
ATOM     38  C   UNL     1      10.847   0.950   5.401  1.00  0.00     0.010 A 
ATOM     39  C   UNL     1      11.008   0.228   4.202  1.00  0.00    -0.014 A 
BRANCH  39  40
ATOM     40  C   UNL     1      12.244   0.405   3.403  1.00  0.00     0.031 A 
ATOM     41  C   UNL     1      13.507  -0.234   3.910  1.00  0.00     0.074 A 
ATOM     42  C   UNL     1      12.258   1.105   2.256  1.00  0.00     0.049 A 
ATOM     43  N   UNL     1      14.729  -0.156   3.450  1.00  0.00    -0.248 NA
ATOM     44  C   UNL     1      13.365  -1.072   5.111  1.00  0.00     0.031 C 
ATOM     45  C   UNL     1      11.095   1.718   1.623  1.00  0.00     0.029 A 
ATOM     46  N   UNL     1      13.306   1.425   1.427  1.00  0.00    -0.354 N 
ATOM     47  C   UNL     1      15.502  -0.923   4.312  1.00  0.00     0.074 A 
ATOM     48  C   UNL     1      14.619  -1.425   5.342  1.00  0.00     0.031 C 
ATOM     49  C   UNL     1      11.494   2.351   0.505  1.00  0.00     0.029 A 
ATOM     50  C   UNL     1      12.945   2.221   0.369  1.00  0.00     0.049 A 
ATOM     51  H   UNL     1      14.227   1.112   1.578  1.00  0.00     0.167 HD
ATOM     52  C   UNL     1      16.828  -1.191   4.248  1.00  0.00     0.037 A 
ATOM     53  C   UNL     1      13.708   2.796  -0.582  1.00  0.00     0.037 A 
ATOM     54  C   UNL     1      17.707  -0.674   3.233  1.00  0.00     0.049 A 
ATOM     55  C   UNL     1      15.201   2.579  -0.570  1.00  0.00     0.074 A 
ATOM     56  C   UNL     1      19.065  -0.887   3.075  1.00  0.00     0.029 A 
ATOM     57  N   UNL     1      17.315   0.176   2.208  1.00  0.00    -0.354 N 
ATOM     58  N   UNL     1      15.928   1.844   0.236  1.00  0.00    -0.248 NA
ATOM     59  C   UNL     1      15.978   3.278  -1.604  1.00  0.00     0.031 C 
ATOM     60  C   UNL     1      19.506  -0.113   1.996  1.00  0.00     0.029 A 
ATOM     61  C   UNL     1      18.412   0.525   1.435  1.00  0.00     0.049 A 
ATOM     62  H   UNL     1      16.394   0.487   2.054  1.00  0.00     0.167 HD
ATOM     63  C   UNL     1      17.239   1.960  -0.214  1.00  0.00     0.074 A 
ATOM     64  C   UNL     1      17.205   2.833  -1.369  1.00  0.00     0.031 C 
ATOM     65  C   UNL     1      18.366   1.390   0.281  1.00  0.00     0.037 A 
BRANCH  52  66
ATOM     66  C   UNL     1      17.405  -2.045   5.342  1.00  0.00     0.064 A 
ATOM     67  C   UNL     1      17.062  -3.400   5.486  1.00  0.00     0.173 A 
ATOM     68  C   UNL     1      18.295  -1.495   6.277  1.00  0.00     0.173 A 
ATOM     69  F   UNL     1      16.202  -3.973   4.630  1.00  0.00    -0.203 F 
ATOM     70  C   UNL     1      17.547  -4.154   6.551  1.00  0.00     0.198 A 
ATOM     71  C   UNL     1      18.810  -2.263   7.317  1.00  0.00     0.198 A 
ATOM     72  F   UNL     1      18.662  -0.208   6.186  1.00  0.00    -0.203 F 
ATOM     73  F   UNL     1      17.142  -5.421   6.712  1.00  0.00    -0.200 F 
ATOM     74  C   UNL     1      18.423  -3.586   7.464  1.00  0.00     0.200 A 
ATOM     75  F   UNL     1      19.668  -1.716   8.189  1.00  0.00    -0.200 F 
ATOM     76  F   UNL     1      18.884  -4.311   8.492  1.00  0.00    -0.200 F 
ENDBRANCH  52  66
BRANCH  53  77
ATOM     77  C   UNL     1      13.072   3.630  -1.636  1.00  0.00     0.064 A 
ATOM     78  C   UNL     1      13.047   3.201  -2.970  1.00  0.00     0.173 A 
ATOM     79  C   UNL     1      12.485   4.869  -1.338  1.00  0.00     0.173 A 
ATOM     80  F   UNL     1      13.622   2.038  -3.310  1.00  0.00    -0.203 F 
ATOM     81  C   UNL     1      12.465   3.982  -3.967  1.00  0.00     0.198 A 
ATOM     82  C   UNL     1      11.879   5.636  -2.331  1.00  0.00     0.198 A 
ATOM     83  F   UNL     1      12.491   5.330  -0.079  1.00  0.00    -0.203 F 
ATOM     84  F   UNL     1      12.490   3.565  -5.241  1.00  0.00    -0.200 F 
ATOM     85  C   UNL     1      11.874   5.194  -3.646  1.00  0.00     0.200 A 
ATOM     86  F   UNL     1      11.300   6.802  -2.015  1.00  0.00    -0.200 F 
ATOM     87  F   UNL     1      11.306   5.940  -4.604  1.00  0.00    -0.200 F 
ENDBRANCH  53  77
BRANCH  65  88
ATOM     88  C   UNL     1      19.656   1.647  -0.449  1.00  0.00     0.064 A 
ATOM     89  C   UNL     1      20.278   2.905  -0.443  1.00  0.00     0.173 A 
ATOM     90  C   UNL     1      20.304   0.603  -1.129  1.00  0.00     0.173 A 
ATOM     91  F   UNL     1      19.698   3.941   0.181  1.00  0.00    -0.203 F 
ATOM     92  C   UNL     1      21.482   3.113  -1.112  1.00  0.00     0.198 A 
ATOM     93  C   UNL     1      21.525   0.806  -1.767  1.00  0.00     0.198 A 
ATOM     94  F   UNL     1      19.760  -0.623  -1.161  1.00  0.00    -0.203 F 
ATOM     95  F   UNL     1      22.030   4.336  -1.136  1.00  0.00    -0.200 F 
ATOM     96  C   UNL     1      22.108   2.063  -1.765  1.00  0.00     0.200 A 
ATOM     97  F   UNL     1      22.137  -0.216  -2.381  1.00  0.00    -0.200 F 
ATOM     98  F   UNL     1      23.272   2.263  -2.400  1.00  0.00    -0.200 F 
ENDBRANCH  65  88
ENDBRANCH  39  40
ENDBRANCH  32  34
ENDBRANCH  31  32
ENDBRANCH  30  31
ENDBRANCH  29  30
ENDBRANCH  28  29
ENDBRANCH  27  28
ENDBRANCH   1  27
TORSDOF 21
