REMARK SMILES C[NH+]1CCC([NH+]2CCC(Oc3ccc4ccccc4c3)(C(=O)OCCOCCOCCOC(=O)c3ccc(-c4c5nc(c(-c6c(F)c(F)c(F)c(F)c6F)c6ccc([nH]6)c(-c6c(F)c(F)c(F)c(F)c6F)c6nc(c(-c7c(F)c(F)c(F)c(F)c7F)c7ccc4[nH]7)C=C6)C=C5)cc3)CC2)CC1
REMARK SMILES IDX 27 1 26 2 25 3 24 4 23 5 21 6 22 7 9 8 6 9 7 10 99 11 8 13
REMARK SMILES IDX 98 14 5 15 1 16 2 17 3 18 101 19 4 21 100 22 10 23 11 24
REMARK SMILES IDX 12 25 20 26 13 27 19 28 14 29 18 30 15 31 17 32 16 33 28 34
REMARK SMILES IDX 29 35 30 36 31 37 32 38 33 39 34 40 35 41 36 42 97 43 37 44
REMARK SMILES IDX 96 45 38 46 39 47 40 48 90 49 41 50 95 51 89 52 91 53 42 54
REMARK SMILES IDX 94 55 88 56 87 57 43 59 75 60 55 61 74 62 56 63 59 64 73 65
REMARK SMILES IDX 92 66 57 67 58 68 72 70 93 71 60 72 44 73 45 74 53 75 46 76
REMARK SMILES IDX 47 77 51 78 54 79 48 80 49 81 52 82 50 83 76 84 77 85 85 86
REMARK SMILES IDX 78 87 79 88 83 89 86 90 80 91 81 92 84 93 82 94 61 95 62 96
REMARK SMILES IDX 70 97 63 98 64 99 68 100 71 101 65 102 66 103 69 104 67 105
REMARK H PARENT 6 12 2 20 91 58 59 69
REMARK Flexibility Score: inf
ROOT
ATOM      1  C   UNL     1       3.120  -4.239   2.565  1.00  0.00     0.188 C 
ENDROOT
BRANCH   1   2
ATOM      2  O   UNL     1       3.763  -4.978   3.593  1.00  0.00    -0.376 OA
BRANCH   2   3
ATOM      3  C   UNL     1       4.660  -4.288   4.459  1.00  0.00     0.202 C 
BRANCH   3   4
ATOM      4  C   UNL     1       5.913  -3.712   3.792  1.00  0.00     0.261 C 
BRANCH   4   5
ATOM      5  O   UNL     1       5.751  -2.323   3.420  1.00  0.00    -0.460 OA
BRANCH   5   6
ATOM      6  C   UNL     1       5.776  -2.019   2.088  1.00  0.00     0.351 C 
ATOM      7  O   UNL     1       5.771  -2.870   1.203  1.00  0.00    -0.247 OA
BRANCH   6   8
ATOM      8  C   UNL     1       5.881  -0.497   1.820  1.00  0.00     0.216 C 
ATOM      9  N   UNL     1       3.441   0.726   0.611  1.00  0.00    -0.332 N 
ATOM     10  C   UNL     1       3.510   0.578   2.069  1.00  0.00     0.267 C 
ATOM     11  C   UNL     1       4.194  -0.338  -0.067  1.00  0.00     0.267 C 
ATOM     12  H   UNL     1       3.888   1.619   0.402  1.00  0.00     0.348 HD
ATOM     13  C   UNL     1       4.918   0.380   2.643  1.00  0.00     0.122 C 
ATOM     14  C   UNL     1       5.675  -0.258   0.312  1.00  0.00     0.122 C 
BRANCH   9  15
ATOM     15  C   UNL     1       2.052   0.853   0.076  1.00  0.00     0.195 C 
ATOM     16  C   UNL     1      -2.208   1.447  -0.303  1.00  0.00     0.332 C 
ATOM     17  N   UNL     1      -0.847   1.338   0.221  1.00  0.00    -0.337 N 
ATOM     18  C   UNL     1       0.046   2.348  -0.365  1.00  0.00     0.268 C 
ATOM     19  C   UNL     1      -0.325  -0.011   0.004  1.00  0.00     0.268 C 
ATOM     20  H   UNL     1      -0.885   1.516   1.224  1.00  0.00     0.347 HD
ATOM     21  C   UNL     1       1.468   2.268   0.228  1.00  0.00     0.126 C 
ATOM     22  C   UNL     1       1.044  -0.146   0.655  1.00  0.00     0.126 C 
ENDBRANCH   9  15
BRANCH   8  23
ATOM     23  O   UNL     1       7.246  -0.333   2.312  1.00  0.00    -0.475 OA
BRANCH  23  24
ATOM     24  C   UNL     1       7.997   0.656   1.758  1.00  0.00     0.121 A 
ATOM     25  C   UNL     1       7.871   1.974   2.179  1.00  0.00     0.047 A 
ATOM     26  C   UNL     1       8.988   0.297   0.847  1.00  0.00     0.055 A 
ATOM     27  C   UNL     1       8.672   2.962   1.615  1.00  0.00     0.012 A 
ATOM     28  C   UNL     1       9.825   1.276   0.294  1.00  0.00    -0.015 A 
ATOM     29  C   UNL     1       9.650   2.629   0.669  1.00  0.00    -0.018 A 
ATOM     30  C   UNL     1      10.841   0.945  -0.616  1.00  0.00     0.009 A 
ATOM     31  C   UNL     1      10.473   3.614   0.108  1.00  0.00     0.009 A 
ATOM     32  C   UNL     1      11.663   1.936  -1.154  1.00  0.00     0.001 A 
ATOM     33  C   UNL     1      11.475   3.269  -0.798  1.00  0.00     0.001 A 
ENDBRANCH  23  24
ENDBRANCH   8  23
ENDBRANCH   6   8
ENDBRANCH   5   6
ENDBRANCH   4   5
ENDBRANCH   3   4
ENDBRANCH   2   3
ENDBRANCH   1   2
BRANCH   1  34
ATOM     34  C   UNL     1       2.629  -2.832   2.919  1.00  0.00     0.188 C 
BRANCH  34  35
ATOM     35  O   UNL     1       2.012  -2.621   4.179  1.00  0.00    -0.376 OA
BRANCH  35  36
ATOM     36  C   UNL     1       0.947  -3.504   4.509  1.00  0.00     0.202 C 
BRANCH  36  37
ATOM     37  C   UNL     1      -0.292  -3.347   3.626  1.00  0.00     0.261 C 
BRANCH  37  38
ATOM     38  O   UNL     1      -0.008  -3.738   2.270  1.00  0.00    -0.460 OA
BRANCH  38  39
ATOM     39  C   UNL     1      -1.084  -3.787   1.454  1.00  0.00     0.338 C 
ATOM     40  O   UNL     1      -2.255  -3.744   1.815  1.00  0.00    -0.246 OA
BRANCH  39  41
ATOM     41  C   UNL     1      -0.675  -3.756   0.023  1.00  0.00     0.060 A 
ATOM     42  C   UNL     1       0.621  -3.421  -0.375  1.00  0.00     0.016 A 
ATOM     43  C   UNL     1      -1.656  -3.904  -0.959  1.00  0.00     0.016 A 
ATOM     44  C   UNL     1       0.896  -3.073  -1.700  1.00  0.00     0.010 A 
ATOM     45  C   UNL     1      -1.348  -3.675  -2.306  1.00  0.00     0.010 A 
ATOM     46  C   UNL     1      -0.078  -3.209  -2.692  1.00  0.00    -0.014 A 
BRANCH  46  47
ATOM     47  C   UNL     1       0.184  -2.856  -4.118  1.00  0.00     0.031 A 
ATOM     48  C   UNL     1      -0.753  -1.927  -4.845  1.00  0.00     0.074 A 
ATOM     49  C   UNL     1       1.232  -3.371  -4.793  1.00  0.00     0.049 A 
ATOM     50  N   UNL     1      -0.954  -1.783  -6.130  1.00  0.00    -0.248 NA
ATOM     51  C   UNL     1      -1.579  -1.042  -4.007  1.00  0.00     0.031 C 
ATOM     52  C   UNL     1       2.306  -4.184  -4.223  1.00  0.00     0.029 A 
ATOM     53  N   UNL     1       1.548  -3.302  -6.131  1.00  0.00    -0.354 N 
ATOM     54  C   UNL     1      -1.972  -0.846  -6.253  1.00  0.00     0.074 A 
ATOM     55  C   UNL     1      -2.330  -0.431  -4.913  1.00  0.00     0.031 C 
ATOM     56  C   UNL     1       3.162  -4.531  -5.194  1.00  0.00     0.029 A 
ATOM     57  C   UNL     1       2.625  -4.084  -6.473  1.00  0.00     0.049 A 
ATOM     58  H   UNL     1       1.053  -2.748  -6.777  1.00  0.00     0.167 HD
ATOM     59  C   UNL     1      -2.565  -0.395  -7.385  1.00  0.00     0.037 A 
ATOM     60  C   UNL     1       3.077  -4.489  -7.675  1.00  0.00     0.037 A 
ATOM     61  C   UNL     1      -2.175  -0.786  -8.714  1.00  0.00     0.049 A 
ATOM     62  C   UNL     1       2.337  -4.079  -8.916  1.00  0.00     0.074 A 
ATOM     63  C   UNL     1      -2.727  -0.410  -9.927  1.00  0.00     0.029 A 
ATOM     64  N   UNL     1      -1.119  -1.636  -9.004  1.00  0.00    -0.354 N 
ATOM     65  N   UNL     1       1.286  -3.306  -9.033  1.00  0.00    -0.248 NA
ATOM     66  C   UNL     1       2.822  -4.633 -10.187  1.00  0.00     0.031 C 
ATOM     67  C   UNL     1      -2.027  -1.062 -10.949  1.00  0.00     0.029 A 
ATOM     68  C   UNL     1      -1.013  -1.810 -10.375  1.00  0.00     0.049 A 
ATOM     69  H   UNL     1      -0.530  -2.055  -8.335  1.00  0.00     0.167 HD
ATOM     70  C   UNL     1       0.986  -3.275 -10.388  1.00  0.00     0.074 A 
ATOM     71  C   UNL     1       1.978  -4.093 -11.055  1.00  0.00     0.031 C 
ATOM     72  C   UNL     1      -0.023  -2.630 -11.022  1.00  0.00     0.037 A 
BRANCH  59  73
ATOM     73  C   UNL     1      -3.741   0.525  -7.240  1.00  0.00     0.064 A 
ATOM     74  C   UNL     1      -3.595   1.874  -6.892  1.00  0.00     0.173 A 
ATOM     75  C   UNL     1      -5.036   0.052  -7.508  1.00  0.00     0.173 A 
ATOM     76  F   UNL     1      -2.382   2.371  -6.609  1.00  0.00    -0.203 F 
ATOM     77  C   UNL     1      -4.704   2.714  -6.805  1.00  0.00     0.198 A 
ATOM     78  C   UNL     1      -6.139   0.898  -7.442  1.00  0.00     0.198 A 
ATOM     79  F   UNL     1      -5.229  -1.232  -7.846  1.00  0.00    -0.203 F 
ATOM     80  F   UNL     1      -4.547   3.994  -6.439  1.00  0.00    -0.200 F 
ATOM     81  C   UNL     1      -5.973   2.228  -7.088  1.00  0.00     0.200 A 
ATOM     82  F   UNL     1      -7.361   0.428  -7.725  1.00  0.00    -0.200 F 
ATOM     83  F   UNL     1      -7.036   3.040  -7.012  1.00  0.00    -0.200 F 
ENDBRANCH  59  73
BRANCH  60  84
ATOM     84  C   UNL     1       4.229  -5.426  -7.746  1.00  0.00     0.064 A 
ATOM     85  C   UNL     1       5.462  -5.018  -8.270  1.00  0.00     0.173 A 
ATOM     86  C   UNL     1       4.124  -6.743  -7.269  1.00  0.00     0.173 A 
ATOM     87  F   UNL     1       5.601  -3.781  -8.769  1.00  0.00    -0.203 F 
ATOM     88  C   UNL     1       6.548  -5.891  -8.310  1.00  0.00     0.198 A 
ATOM     89  C   UNL     1       5.219  -7.602  -7.279  1.00  0.00     0.198 A 
ATOM     90  F   UNL     1       2.962  -7.184  -6.764  1.00  0.00    -0.203 F 
ATOM     91  F   UNL     1       7.708  -5.488  -8.846  1.00  0.00    -0.200 F 
ATOM     92  C   UNL     1       6.429  -7.177  -7.803  1.00  0.00     0.200 A 
ATOM     93  F   UNL     1       5.102  -8.837  -6.773  1.00  0.00    -0.200 F 
ATOM     94  F   UNL     1       7.480  -8.008  -7.825  1.00  0.00    -0.200 F 
ENDBRANCH  60  84
BRANCH  72  95
ATOM     95  C   UNL     1      -0.087  -2.763 -12.513  1.00  0.00     0.064 A 
ATOM     96  C   UNL     1      -0.540  -3.941 -13.124  1.00  0.00     0.173 A 
ATOM     97  C   UNL     1       0.287  -1.692 -13.337  1.00  0.00     0.173 A 
ATOM     98  F   UNL     1      -0.891  -4.997 -12.376  1.00  0.00    -0.203 F 
ATOM     99  C   UNL     1      -0.597  -4.048 -14.511  1.00  0.00     0.198 A 
ATOM    100  C   UNL     1       0.208  -1.795 -14.723  1.00  0.00     0.198 A 
ATOM    101  F   UNL     1       0.725  -0.544 -12.798  1.00  0.00    -0.203 F 
ATOM    102  F   UNL     1      -0.993  -5.197 -15.076  1.00  0.00    -0.200 F 
ATOM    103  C   UNL     1      -0.228  -2.974 -15.308  1.00  0.00     0.200 A 
ATOM    104  F   UNL     1       0.557  -0.754 -15.491  1.00  0.00    -0.200 F 
ATOM    105  F   UNL     1      -0.284  -3.079 -16.643  1.00  0.00    -0.200 F 
ENDBRANCH  72  95
ENDBRANCH  46  47
ENDBRANCH  39  41
ENDBRANCH  38  39
ENDBRANCH  37  38
ENDBRANCH  36  37
ENDBRANCH  35  36
ENDBRANCH  34  35
ENDBRANCH   1  34
TORSDOF 20
