REMARK SMILES O=C(OCCOCCOCCOC(=O)c1cc(-c2cccc(Cl)c2)oc1C(F)(F)F)c1ccc(-c2c3nc(c(-c4c(F)c(F)c(F)c(F)c4F)c4ccc([nH]4)c(-c4c(F)c(F)c(F)c(F)c4F)c4nc(c(-c5c(F)c(F)c(F)c(F)c5F)c5ccc2[nH]5)C=C4)C=C3)cc1
REMARK SMILES IDX 7 1 6 2 5 3 4 4 3 5 2 6 1 7 31 8 32 9 93 10 33 11 92 12
REMARK SMILES IDX 34 13 35 14 36 15 86 16 37 17 91 18 85 19 87 20 38 21 90 22
REMARK SMILES IDX 84 23 83 24 39 26 71 27 51 28 70 29 52 30 55 31 69 32 88 33
REMARK SMILES IDX 53 34 54 35 68 37 89 38 56 39 40 40 41 41 49 42 42 43 43 44
REMARK SMILES IDX 47 45 50 46 44 47 45 48 48 49 46 50 72 51 73 52 81 53 74 54
REMARK SMILES IDX 75 55 79 56 82 57 76 58 77 59 80 60 78 61 57 62 58 63 66 64
REMARK SMILES IDX 59 65 60 66 64 67 67 68 61 69 62 70 65 71 63 72 8 73 9 74
REMARK SMILES IDX 10 75 11 76 12 77 13 78 14 79 15 80 16 81 26 82 17 83 25 84
REMARK SMILES IDX 27 85 28 86 29 87 30 88 18 89 19 90 24 91 20 92 22 93 21 94
REMARK SMILES IDX 23 95
REMARK H PARENT 87 25 55 36
REMARK Flexibility Score: inf
ROOT
ATOM      1  C   UNL     1       3.118  -2.623   0.489  1.00  0.00     0.188 C 
ENDROOT
BRANCH   1   2
ATOM      2  O   UNL     1       4.271  -1.780   0.309  1.00  0.00    -0.376 OA
BRANCH   2   3
ATOM      3  C   UNL     1       4.671  -1.166   1.540  1.00  0.00     0.202 C 
BRANCH   3   4
ATOM      4  C   UNL     1       4.259   0.308   1.575  1.00  0.00     0.261 C 
BRANCH   4   5
ATOM      5  O   UNL     1       2.825   0.405   1.438  1.00  0.00    -0.460 OA
BRANCH   5   6
ATOM      6  C   UNL     1       2.137   0.856   0.362  1.00  0.00     0.338 C 
ATOM      7  O   UNL     1       0.929   0.666   0.263  1.00  0.00    -0.246 OA
BRANCH   6   8
ATOM      8  C   UNL     1       2.797   1.752  -0.614  1.00  0.00     0.060 A 
ATOM      9  C   UNL     1       3.865   1.349  -1.422  1.00  0.00     0.016 A 
ATOM     10  C   UNL     1       2.253   3.032  -0.774  1.00  0.00     0.016 A 
ATOM     11  C   UNL     1       4.467   2.269  -2.290  1.00  0.00     0.010 A 
ATOM     12  C   UNL     1       2.824   3.933  -1.676  1.00  0.00     0.010 A 
ATOM     13  C   UNL     1       3.963   3.574  -2.412  1.00  0.00    -0.014 A 
BRANCH  13  14
ATOM     14  C   UNL     1       4.644   4.597  -3.249  1.00  0.00     0.031 A 
ATOM     15  C   UNL     1       5.329   5.768  -2.592  1.00  0.00     0.074 A 
ATOM     16  C   UNL     1       4.653   4.504  -4.592  1.00  0.00     0.049 A 
ATOM     17  N   UNL     1       5.839   6.846  -3.134  1.00  0.00    -0.248 NA
ATOM     18  C   UNL     1       5.447   5.721  -1.126  1.00  0.00     0.031 C 
ATOM     19  C   UNL     1       4.048   3.429  -5.377  1.00  0.00     0.029 A 
ATOM     20  N   UNL     1       5.200   5.341  -5.533  1.00  0.00    -0.354 N 
ATOM     21  C   UNL     1       6.297   7.622  -2.079  1.00  0.00     0.074 A 
ATOM     22  C   UNL     1       6.018   6.888  -0.862  1.00  0.00     0.031 C 
ATOM     23  C   UNL     1       4.279   3.659  -6.681  1.00  0.00     0.029 A 
ATOM     24  C   UNL     1       5.013   4.914  -6.823  1.00  0.00     0.049 A 
ATOM     25  H   UNL     1       5.679   6.170  -5.304  1.00  0.00     0.167 HD
ATOM     26  C   UNL     1       6.892   8.838  -2.114  1.00  0.00     0.037 A 
ATOM     27  C   UNL     1       5.373   5.481  -7.989  1.00  0.00     0.037 A 
ATOM     28  C   UNL     1       7.208   9.569  -3.311  1.00  0.00     0.049 A 
ATOM     29  C   UNL     1       6.046   6.822  -8.005  1.00  0.00     0.074 A 
ATOM     30  C   UNL     1       7.792  10.819  -3.436  1.00  0.00     0.029 A 
ATOM     31  N   UNL     1       6.984   9.102  -4.595  1.00  0.00    -0.354 N 
ATOM     32  N   UNL     1       6.376   7.592  -7.000  1.00  0.00    -0.248 NA
ATOM     33  C   UNL     1       6.375   7.381  -9.326  1.00  0.00     0.031 C 
ATOM     34  C   UNL     1       7.924  11.107  -4.800  1.00  0.00     0.029 A 
ATOM     35  C   UNL     1       7.429  10.033  -5.519  1.00  0.00     0.049 A 
ATOM     36  H   UNL     1       6.569   8.238  -4.818  1.00  0.00     0.167 HD
ATOM     37  C   UNL     1       6.913   8.740  -7.564  1.00  0.00     0.074 A 
ATOM     38  C   UNL     1       6.895   8.556  -9.000  1.00  0.00     0.031 C 
ATOM     39  C   UNL     1       7.369   9.853  -6.943  1.00  0.00     0.037 A 
BRANCH  26  40
ATOM     40  C   UNL     1       7.229   9.467  -0.800  1.00  0.00     0.064 A 
ATOM     41  C   UNL     1       8.405   9.134  -0.116  1.00  0.00     0.173 A 
ATOM     42  C   UNL     1       6.378  10.426  -0.233  1.00  0.00     0.173 A 
ATOM     43  F   UNL     1       9.239   8.210  -0.616  1.00  0.00    -0.203 F 
ATOM     44  C   UNL     1       8.713   9.733   1.102  1.00  0.00     0.198 A 
ATOM     45  C   UNL     1       6.694  11.030   0.981  1.00  0.00     0.198 A 
ATOM     46  F   UNL     1       5.240  10.770  -0.853  1.00  0.00    -0.203 F 
ATOM     47  F   UNL     1       9.830   9.384   1.756  1.00  0.00    -0.200 F 
ATOM     48  C   UNL     1       7.859  10.682   1.648  1.00  0.00     0.200 A 
ATOM     49  F   UNL     1       5.867  11.944   1.508  1.00  0.00    -0.200 F 
ATOM     50  F   UNL     1       8.155  11.253   2.823  1.00  0.00    -0.200 F 
ENDBRANCH  26  40
BRANCH  27  51
ATOM     51  C   UNL     1       5.063   4.795  -9.262  1.00  0.00     0.064 A 
ATOM     52  C   UNL     1       5.930   3.828  -9.784  1.00  0.00     0.173 A 
ATOM     53  C   UNL     1       3.910   5.117  -9.988  1.00  0.00     0.173 A 
ATOM     54  F   UNL     1       7.055   3.510  -9.127  1.00  0.00    -0.203 F 
ATOM     55  C   UNL     1       5.651   3.200 -10.994  1.00  0.00     0.198 A 
ATOM     56  C   UNL     1       3.640   4.498 -11.204  1.00  0.00     0.198 A 
ATOM     57  F   UNL     1       3.067   6.051  -9.526  1.00  0.00    -0.203 F 
ATOM     58  F   UNL     1       6.494   2.279 -11.480  1.00  0.00    -0.200 F 
ATOM     59  C   UNL     1       4.507   3.536 -11.703  1.00  0.00     0.200 A 
ATOM     60  F   UNL     1       2.541   4.829 -11.895  1.00  0.00    -0.200 F 
ATOM     61  F   UNL     1       4.238   2.931 -12.868  1.00  0.00    -0.200 F 
ENDBRANCH  27  51
BRANCH  39  62
ATOM     62  C   UNL     1       7.840  10.971  -7.815  1.00  0.00     0.064 A 
ATOM     63  C   UNL     1       6.936  11.922  -8.309  1.00  0.00     0.173 A 
ATOM     64  C   UNL     1       9.195  11.109  -8.142  1.00  0.00     0.173 A 
ATOM     65  F   UNL     1       5.628  11.817  -8.031  1.00  0.00    -0.203 F 
ATOM     66  C   UNL     1       7.375  12.973  -9.109  1.00  0.00     0.198 A 
ATOM     67  C   UNL     1       9.631  12.164  -8.938  1.00  0.00     0.198 A 
ATOM     68  F   UNL     1      10.091  10.215  -7.698  1.00  0.00    -0.203 F 
ATOM     69  F   UNL     1       6.494  13.864  -9.586  1.00  0.00    -0.200 F 
ATOM     70  C   UNL     1       8.721  13.095  -9.421  1.00  0.00     0.200 A 
ATOM     71  F   UNL     1      10.930  12.277  -9.247  1.00  0.00    -0.200 F 
ATOM     72  F   UNL     1       9.142  14.104 -10.196  1.00  0.00    -0.200 F 
ENDBRANCH  39  62
ENDBRANCH  13  14
ENDBRANCH   6   8
ENDBRANCH   5   6
ENDBRANCH   4   5
ENDBRANCH   3   4
ENDBRANCH   2   3
ENDBRANCH   1   2
BRANCH   1  73
ATOM     73  C   UNL     1       2.604  -3.105  -0.865  1.00  0.00     0.188 C 
BRANCH  73  74
ATOM     74  O   UNL     1       3.368  -4.214  -1.346  1.00  0.00    -0.376 OA
BRANCH  74  75
ATOM     75  C   UNL     1       4.461  -3.857  -2.193  1.00  0.00     0.202 C 
BRANCH  75  76
ATOM     76  C   UNL     1       4.117  -4.115  -3.665  1.00  0.00     0.261 C 
BRANCH  76  77
ATOM     77  O   UNL     1       3.756  -2.908  -4.367  1.00  0.00    -0.460 OA
BRANCH  77  78
ATOM     78  C   UNL     1       2.448  -2.546  -4.316  1.00  0.00     0.342 C 
ATOM     79  O   UNL     1       1.570  -3.125  -3.694  1.00  0.00    -0.246 OA
BRANCH  78  80
ATOM     80  C   UNL     1       2.177  -1.365  -5.105  1.00  0.00     0.111 A 
ATOM     81  C   UNL     1       2.631  -1.028  -6.413  1.00  0.00     0.067 A 
ATOM     82  C   UNL     1       1.327  -0.343  -4.722  1.00  0.00     0.223 A 
ATOM     83  C   UNL     1       1.940   0.106  -6.794  1.00  0.00     0.135 A 
ATOM     84  O   UNL     1       1.196   0.555  -5.741  1.00  0.00    -0.451 OA
BRANCH  82  85
ATOM     85  C   UNL     1       0.574  -0.077  -3.470  1.00  0.00     0.450 C 
ATOM     86  F   UNL     1       0.381   1.252  -3.268  1.00  0.00    -0.163 F 
ATOM     87  F   UNL     1      -0.647  -0.664  -3.471  1.00  0.00    -0.163 F 
ATOM     88  F   UNL     1       1.249  -0.537  -2.387  1.00  0.00    -0.163 F 
ENDBRANCH  82  85
BRANCH  83  89
ATOM     89  C   UNL     1       1.777   0.837  -8.047  1.00  0.00     0.019 A 
ATOM     90  C   UNL     1       2.291   0.317  -9.246  1.00  0.00     0.012 A 
ATOM     91  C   UNL     1       1.038   2.029  -8.098  1.00  0.00     0.032 A 
ATOM     92  C   UNL     1       2.040   0.948 -10.468  1.00  0.00     0.002 A 
ATOM     93  C   UNL     1       0.792   2.657  -9.319  1.00  0.00     0.041 A 
ATOM     94  C   UNL     1       1.277   2.113 -10.504  1.00  0.00     0.020 A 
ATOM     95  Cl  UNL     1      -0.124   4.112  -9.361  1.00  0.00    -0.084 Cl
ENDBRANCH  83  89
ENDBRANCH  78  80
ENDBRANCH  77  78
ENDBRANCH  76  77
ENDBRANCH  75  76
ENDBRANCH  74  75
ENDBRANCH  73  74
ENDBRANCH   1  73
TORSDOF 19
