REMARK SMILES COc1ccc(C2=NN(C(=O)CCC(=O)OCCOCCOCCOC(=O)c3ccc(-c4c5nc(c(-c6c(F)c(F)c(F)c(F)c6F)c6ccc([nH]6)c(-c6c(F)c(F)c(F)c(F)c6F)c6nc(c(-c7c(F)c(F)c(F)c(F)c7F)c7ccc4[nH]7)C=C6)C=C5)cc3)[C@H](c3ccc(Cl)cc3Cl)C2)cc1
REMARK SMILES IDX 19 1 18 2 17 3 16 4 14 5 15 6 13 7 12 8 10 9 11 10 9 11 7 12
REMARK SMILES IDX 8 13 100 14 91 15 6 16 3 17 4 18 102 19 5 20 101 21 2 22
REMARK SMILES IDX 1 23 92 24 93 25 98 26 94 27 97 28 99 29 95 30 96 31 20 32
REMARK SMILES IDX 21 33 22 34 23 35 24 36 25 37 26 38 27 39 28 40 29 41 90 42
REMARK SMILES IDX 30 43 89 44 31 45 32 46 33 47 83 48 34 49 88 50 82 51 84 52
REMARK SMILES IDX 35 53 87 54 81 55 80 56 36 58 68 59 48 60 67 61 49 62 52 63
REMARK SMILES IDX 66 64 85 65 50 66 51 67 65 69 86 70 53 71 37 72 38 73 46 74
REMARK SMILES IDX 39 75 40 76 44 77 47 78 41 79 42 80 45 81 43 82 69 83 70 84
REMARK SMILES IDX 78 85 71 86 72 87 76 88 79 89 73 90 74 91 77 92 75 93 54 94
REMARK SMILES IDX 55 95 63 96 56 97 57 98 61 99 64 100 58 101 59 102 62 103
REMARK SMILES IDX 60 104
REMARK H PARENT 84 57 52 68
REMARK Flexibility Score: inf
ROOT
ATOM      1  O   UNL     1       4.520  10.053   3.005  1.00  0.00    -0.376 OA
ENDROOT
BRANCH   1   2
ATOM      2  C   UNL     1       5.702   9.249   2.743  1.00  0.00     0.202 C 
BRANCH   2   3
ATOM      3  C   UNL     1       5.895   7.746   3.028  1.00  0.00     0.261 C 
BRANCH   3   4
ATOM      4  O   UNL     1       5.284   7.348   4.229  1.00  0.00    -0.463 OA
BRANCH   4   5
ATOM      5  C   UNL     1       5.772   7.863   5.368  1.00  0.00     0.306 C 
ATOM      6  O   UNL     1       6.904   8.265   5.522  1.00  0.00    -0.252 OA
BRANCH   5   7
ATOM      7  C   UNL     1       4.672   7.944   6.398  1.00  0.00     0.132 C 
BRANCH   7   8
ATOM      8  C   UNL     1       3.219   7.912   5.883  1.00  0.00     0.114 C 
BRANCH   8   9
ATOM      9  C   UNL     1       2.919   7.090   4.612  1.00  0.00     0.243 C 
ATOM     10  O   UNL     1       2.816   5.878   4.927  1.00  0.00    -0.273 OA
BRANCH   9  11
ATOM     11  N   UNL     1       2.706   7.503   3.243  1.00  0.00    -0.225 N 
ATOM     12  C   UNL     1       2.031   6.391   1.436  1.00  0.00     0.071 C 
ATOM     13  N   UNL     1       2.151   6.360   2.698  1.00  0.00    -0.174 NA
ATOM     14  C   UNL     1       2.502   7.612   0.741  1.00  0.00     0.091 C 
ATOM     15  C   UNL     1       2.746   8.755   1.902  1.00  0.00     0.149 C 
BRANCH  12  16
ATOM     16  C   UNL     1       1.600   5.149   0.769  1.00  0.00    -0.002 A 
ATOM     17  C   UNL     1       0.761   2.580   0.014  1.00  0.00     0.118 A 
ATOM     18  C   UNL     1      -0.136   3.657   0.015  1.00  0.00     0.047 A 
ATOM     19  C   UNL     1       2.084   2.795   0.397  1.00  0.00     0.047 A 
ATOM     20  C   UNL     1       0.271   4.940   0.409  1.00  0.00     0.014 A 
ATOM     21  C   UNL     1       2.500   4.075   0.782  1.00  0.00     0.014 A 
BRANCH  17  22
ATOM     22  O   UNL     1       0.234   1.383  -0.388  1.00  0.00    -0.497 OA
ATOM     23  C   UNL     1       0.926   0.205   0.019  1.00  0.00     0.278 C 
ENDBRANCH  17  22
ENDBRANCH  12  16
BRANCH  15  24
ATOM     24  C   UNL     1       2.151  10.631   1.970  1.00  0.00    -0.004 A 
ATOM     25  C   UNL     1       2.895  11.501   1.271  1.00  0.00     0.009 A 
ATOM     26  C   UNL     1       0.868  11.474   2.501  1.00  0.00     0.047 A 
ATOM     27  C   UNL     1       2.346  12.777   0.818  1.00  0.00     0.021 A 
ATOM     28  C   UNL     1       0.597  12.852   2.293  1.00  0.00     0.041 A 
ATOM     29  Cl  UNL     1      -0.752  10.929   3.210  1.00  0.00    -0.084 Cl
ATOM     30  C   UNL     1       1.262  13.456   1.300  1.00  0.00     0.042 A 
ATOM     31  Cl  UNL     1       0.680  14.878   0.537  1.00  0.00    -0.084 Cl
ENDBRANCH  15  24
ENDBRANCH   9  11
ENDBRANCH   8   9
ENDBRANCH   7   8
ENDBRANCH   5   7
ENDBRANCH   4   5
ENDBRANCH   3   4
ENDBRANCH   2   3
ENDBRANCH   1   2
BRANCH   1  32
ATOM     32  C   UNL     1       3.435  10.029   3.986  1.00  0.00     0.188 C 
BRANCH  32  33
ATOM     33  C   UNL     1       1.619   9.486   3.782  1.00  0.00     0.188 C 
BRANCH  33  34
ATOM     34  O   UNL     1       0.725   9.003   2.264  1.00  0.00    -0.376 OA
BRANCH  34  35
ATOM     35  C   UNL     1       0.657   9.627   0.583  1.00  0.00     0.202 C 
BRANCH  35  36
ATOM     36  C   UNL     1       1.954   9.912  -0.763  1.00  0.00     0.261 C 
BRANCH  36  37
ATOM     37  O   UNL     1       2.731  11.261  -1.168  1.00  0.00    -0.460 OA
BRANCH  37  38
ATOM     38  C   UNL     1       4.171  11.418  -1.255  1.00  0.00     0.338 C 
ATOM     39  O   UNL     1       4.910  10.447  -1.383  1.00  0.00    -0.246 OA
BRANCH  38  40
ATOM     40  C   UNL     1       4.810  12.815  -0.661  1.00  0.00     0.060 A 
ATOM     41  C   UNL     1       5.334  12.796   0.659  1.00  0.00     0.016 A 
ATOM     42  C   UNL     1       4.612  14.117  -1.156  1.00  0.00     0.016 A 
ATOM     43  C   UNL     1       5.366  13.954   1.505  1.00  0.00     0.010 A 
ATOM     44  C   UNL     1       4.851  15.308  -0.338  1.00  0.00     0.010 A 
ATOM     45  C   UNL     1       5.217  15.264   1.028  1.00  0.00    -0.014 A 
BRANCH  45  46
ATOM     46  C   UNL     1       5.565  16.500   1.901  1.00  0.00     0.031 A 
ATOM     47  C   UNL     1       4.751  17.803   1.930  1.00  0.00     0.074 A 
ATOM     48  C   UNL     1       6.671  16.526   2.696  1.00  0.00     0.049 A 
ATOM     49  N   UNL     1       5.113  19.016   2.313  1.00  0.00    -0.248 NA
ATOM     50  C   UNL     1       3.343  17.725   1.528  1.00  0.00     0.031 C 
ATOM     51  C   UNL     1       7.554  15.398   2.989  1.00  0.00     0.029 A 
ATOM     52  N   UNL     1       7.273  17.571   3.392  1.00  0.00    -0.354 N 
ATOM     53  C   UNL     1       4.007  19.850   2.138  1.00  0.00     0.074 A 
ATOM     54  C   UNL     1       2.943  18.990   1.649  1.00  0.00     0.031 C 
ATOM     55  C   UNL     1       8.565  15.796   3.771  1.00  0.00     0.029 A 
ATOM     56  C   UNL     1       8.495  17.239   3.943  1.00  0.00     0.049 A 
ATOM     57  H   UNL     1       6.866  18.463   3.482  1.00  0.00     0.167 HD
ATOM     58  C   UNL     1       3.881  21.195   2.341  1.00  0.00     0.037 A 
ATOM     59  C   UNL     1       9.511  17.972   4.452  1.00  0.00     0.037 A 
ATOM     60  C   UNL     1       4.901  22.078   2.875  1.00  0.00     0.049 A 
ATOM     61  C   UNL     1       9.433  19.473   4.512  1.00  0.00     0.074 A 
ATOM     62  C   UNL     1       4.848  23.456   3.059  1.00  0.00     0.029 A 
ATOM     63  N   UNL     1       6.147  21.681   3.330  1.00  0.00    -0.354 N 
ATOM     64  N   UNL     1       8.440  20.263   4.200  1.00  0.00    -0.248 NA
ATOM     65  C   UNL     1      10.636  20.186   4.979  1.00  0.00     0.031 C 
ATOM     66  C   UNL     1       6.077  23.895   3.566  1.00  0.00     0.029 A 
ATOM     67  C   UNL     1       6.876  22.785   3.764  1.00  0.00     0.049 A 
ATOM     68  H   UNL     1       6.472  20.752   3.345  1.00  0.00     0.167 HD
ATOM     69  C   UNL     1       8.881  21.554   4.467  1.00  0.00     0.074 A 
ATOM     70  C   UNL     1      10.229  21.447   4.976  1.00  0.00     0.031 C 
ATOM     71  C   UNL     1       8.211  22.718   4.299  1.00  0.00     0.037 A 
BRANCH  58  72
ATOM     72  C   UNL     1       2.595  21.862   1.909  1.00  0.00     0.064 A 
ATOM     73  C   UNL     1       1.401  21.744   2.633  1.00  0.00     0.173 A 
ATOM     74  C   UNL     1       2.594  22.720   0.792  1.00  0.00     0.173 A 
ATOM     75  F   UNL     1       1.345  20.957   3.718  1.00  0.00    -0.203 F 
ATOM     76  C   UNL     1       0.248  22.423   2.235  1.00  0.00     0.198 A 
ATOM     77  C   UNL     1       1.450  23.421   0.416  1.00  0.00     0.198 A 
ATOM     78  F   UNL     1       3.718  22.907   0.084  1.00  0.00    -0.203 F 
ATOM     79  F   UNL     1      -0.894  22.262   2.919  1.00  0.00    -0.200 F 
ATOM     80  C   UNL     1       0.274  23.263   1.130  1.00  0.00     0.200 A 
ATOM     81  F   UNL     1       1.489  24.254  -0.634  1.00  0.00    -0.200 F 
ATOM     82  F   UNL     1      -0.833  23.918   0.754  1.00  0.00    -0.200 F 
ENDBRANCH  58  72
BRANCH  59  83
ATOM     83  C   UNL     1      10.777  17.296   4.870  1.00  0.00     0.064 A 
ATOM     84  C   UNL     1      11.200  17.308   6.207  1.00  0.00     0.173 A 
ATOM     85  C   UNL     1      11.614  16.672   3.930  1.00  0.00     0.173 A 
ATOM     86  F   UNL     1      10.462  17.931   7.137  1.00  0.00    -0.203 F 
ATOM     87  C   UNL     1      12.415  16.736   6.583  1.00  0.00     0.198 A 
ATOM     88  C   UNL     1      12.807  16.065   4.314  1.00  0.00     0.198 A 
ATOM     89  F   UNL     1      11.268  16.645   2.635  1.00  0.00    -0.203 F 
ATOM     90  F   UNL     1      12.826  16.819   7.856  1.00  0.00    -0.200 F 
ATOM     91  C   UNL     1      13.213  16.107   5.639  1.00  0.00     0.200 A 
ATOM     92  F   UNL     1      13.568  15.449   3.399  1.00  0.00    -0.200 F 
ATOM     93  F   UNL     1      14.378  15.555   6.002  1.00  0.00    -0.200 F 
ENDBRANCH  59  83
BRANCH  71  94
ATOM     94  C   UNL     1       8.890  23.990   4.735  1.00  0.00     0.064 A 
ATOM     95  C   UNL     1       9.990  24.524   4.045  1.00  0.00     0.173 A 
ATOM     96  C   UNL     1       8.426  24.693   5.859  1.00  0.00     0.173 A 
ATOM     97  F   UNL     1      10.491  23.886   2.977  1.00  0.00    -0.203 F 
ATOM     98  C   UNL     1      10.612  25.696   4.477  1.00  0.00     0.198 A 
ATOM     99  C   UNL     1       9.032  25.879   6.271  1.00  0.00     0.198 A 
ATOM    100  F   UNL     1       7.380  24.231   6.560  1.00  0.00    -0.203 F 
ATOM    101  F   UNL     1      11.691  26.157   3.830  1.00  0.00    -0.200 F 
ATOM    102  C   UNL     1      10.129  26.375   5.585  1.00  0.00     0.200 A 
ATOM    103  F   UNL     1       8.557  26.538   7.337  1.00  0.00    -0.200 F 
ATOM    104  F   UNL     1      10.726  27.503   5.996  1.00  0.00    -0.200 F 
ENDBRANCH  71  94
ENDBRANCH  45  46
ENDBRANCH  38  40
ENDBRANCH  37  38
ENDBRANCH  36  37
ENDBRANCH  35  36
ENDBRANCH  34  35
ENDBRANCH  33  34
ENDBRANCH  32  33
ENDBRANCH   1  32
TORSDOF 23
