REMARK SMILES COc1ccc(-n2c(SCc3cn(-c4ccc(C(=O)OCCOCCOCCOC(=O)c5ccc(-c6c7nc(c(-c8c(F)c(F)c(F)c(F)c8F)c8ccc([nH]8)c(-c8c(F)c(F)c(F)c(F)c8F)c8nc(c(-c9c(F)c(F)c(F)c(F)c9F)c9ccc6[nH]9)C=C8)C=C7)cc5)cc4)nn3)nc3ccccc3c2=O)cc1
REMARK SMILES IDX 22 1 21 2 20 3 18 4 19 5 17 6 14 7 15 8 96 9 16 10 95 11
REMARK SMILES IDX 13 12 11 13 12 14 98 15 97 16 10 17 9 18 8 19 7 20 106 21
REMARK SMILES IDX 99 22 105 23 107 24 100 25 104 26 101 27 103 28 102 29 6 30
REMARK SMILES IDX 3 31 4 32 109 33 5 34 108 35 2 36 1 37 23 38 24 39 25 40
REMARK SMILES IDX 26 41 27 42 28 43 29 44 30 45 31 46 32 47 33 48 94 49 34 50
REMARK SMILES IDX 93 51 35 52 36 53 37 54 87 55 38 56 92 57 86 58 88 59 39 60
REMARK SMILES IDX 91 61 85 62 84 63 40 65 72 66 52 67 71 68 53 69 56 70 70 71
REMARK SMILES IDX 89 72 54 73 55 74 69 76 90 77 57 78 41 79 42 80 50 81 43 82
REMARK SMILES IDX 44 83 48 84 51 85 45 86 46 87 49 88 47 89 73 90 74 91 82 92
REMARK SMILES IDX 75 93 76 94 80 95 83 96 77 97 78 98 81 99 79 100 58 101
REMARK SMILES IDX 59 102 67 103 60 104 61 105 65 106 68 107 62 108 63 109
REMARK SMILES IDX 66 110 64 111
REMARK H PARENT 88 64 56 75
REMARK Flexibility Score: inf
ROOT
ATOM      1  C   UNL     1      -1.801 -10.636   3.563  1.00  0.00     0.202 C 
ENDROOT
BRANCH   1   2
ATOM      2  C   UNL     1      -0.311 -10.367   3.850  1.00  0.00     0.261 C 
BRANCH   2   3
ATOM      3  O   UNL     1       0.084  -9.014   4.014  1.00  0.00    -0.460 OA
BRANCH   3   4
ATOM      4  C   UNL     1       0.638  -8.435   2.930  1.00  0.00     0.338 C 
ATOM      5  O   UNL     1       0.857  -8.940   1.839  1.00  0.00    -0.246 OA
BRANCH   4   6
ATOM      6  C   UNL     1       0.741  -6.997   3.197  1.00  0.00     0.060 A 
ATOM      7  C   UNL     1       1.047  -4.308   3.540  1.00  0.00     0.066 A 
ATOM      8  C   UNL     1       0.351  -4.750   2.415  1.00  0.00     0.029 A 
ATOM      9  C   UNL     1       1.444  -5.172   4.570  1.00  0.00     0.029 A 
ATOM     10  C   UNL     1       0.244  -6.115   2.223  1.00  0.00     0.018 A 
ATOM     11  C   UNL     1       1.273  -6.534   4.404  1.00  0.00     0.018 A 
BRANCH   7  12
ATOM     12  N   UNL     1       1.620  -3.037   3.483  1.00  0.00    -0.220 N 
ATOM     13  C   UNL     1       3.133  -1.503   3.367  1.00  0.00     0.093 A 
ATOM     14  C   UNL     1       2.917  -2.777   3.818  1.00  0.00     0.141 A 
ATOM     15  N   UNL     1       2.013  -1.051   2.746  1.00  0.00    -0.134 NA
ATOM     16  N   UNL     1       1.100  -2.009   2.789  1.00  0.00    -0.062 NA
BRANCH  13  17
ATOM     17  C   UNL     1       4.333  -0.684   3.524  1.00  0.00     0.138 C 
BRANCH  17  18
ATOM     18  S   UNL     1       4.796  -0.598   5.252  1.00  0.00    -0.081 SA
BRANCH  18  19
ATOM     19  C   UNL     1       3.232  -0.197   6.094  1.00  0.00     0.176 A 
ATOM     20  N   UNL     1       2.933   1.147   6.005  1.00  0.00    -0.255 N 
ATOM     21  C   UNL     1       3.546   1.961   6.945  1.00  0.00     0.266 A 
ATOM     22  N   UNL     1       3.074  -0.781   7.247  1.00  0.00    -0.223 NA
ATOM     23  C   UNL     1       4.295   1.193   7.997  1.00  0.00     0.066 A 
ATOM     24  O   UNL     1       3.561   3.187   6.948  1.00  0.00    -0.268 OA
ATOM     25  C   UNL     1       3.919  -0.155   8.195  1.00  0.00     0.079 A 
ATOM     26  C   UNL     1       5.478   1.677   8.548  1.00  0.00     0.016 A 
ATOM     27  C   UNL     1       4.637  -0.961   9.076  1.00  0.00     0.029 A 
ATOM     28  C   UNL     1       6.259   0.820   9.330  1.00  0.00     0.001 A 
ATOM     29  C   UNL     1       5.822  -0.476   9.627  1.00  0.00     0.002 A 
BRANCH  20  30
ATOM     30  C   UNL     1       2.130   1.615   4.939  1.00  0.00     0.052 A 
ATOM     31  C   UNL     1       0.776   1.807   2.507  1.00  0.00     0.119 A 
ATOM     32  C   UNL     1       0.103   1.323   3.625  1.00  0.00     0.048 A 
ATOM     33  C   UNL     1       2.062   2.335   2.633  1.00  0.00     0.048 A 
ATOM     34  C   UNL     1       0.794   1.191   4.835  1.00  0.00     0.030 A 
ATOM     35  C   UNL     1       2.728   2.274   3.861  1.00  0.00     0.030 A 
BRANCH  31  36
ATOM     36  O   UNL     1       0.172   1.753   1.279  1.00  0.00    -0.497 OA
ATOM     37  C   UNL     1       0.675   0.642   0.522  1.00  0.00     0.278 C 
ENDBRANCH  31  36
ENDBRANCH  20  30
ENDBRANCH  18  19
ENDBRANCH  17  18
ENDBRANCH  13  17
ENDBRANCH   7  12
ENDBRANCH   4   6
ENDBRANCH   3   4
ENDBRANCH   2   3
ENDBRANCH   1   2
BRANCH   1  38
ATOM     38  O   UNL     1      -2.832  -9.662   3.508  1.00  0.00    -0.376 OA
BRANCH  38  39
ATOM     39  C   UNL     1      -2.550  -8.310   3.232  1.00  0.00     0.188 C 
BRANCH  39  40
ATOM     40  C   UNL     1      -2.414  -7.405   4.473  1.00  0.00     0.188 C 
BRANCH  40  41
ATOM     41  O   UNL     1      -2.073  -7.946   5.737  1.00  0.00    -0.376 OA
BRANCH  41  42
ATOM     42  C   UNL     1      -2.820  -8.997   6.327  1.00  0.00     0.202 C 
BRANCH  42  43
ATOM     43  C   UNL     1      -4.338  -9.144   6.204  1.00  0.00     0.261 C 
BRANCH  43  44
ATOM     44  O   UNL     1      -4.941  -8.652   5.023  1.00  0.00    -0.460 OA
BRANCH  44  45
ATOM     45  C   UNL     1      -5.455  -7.414   5.161  1.00  0.00     0.338 C 
ATOM     46  O   UNL     1      -5.204  -6.595   6.028  1.00  0.00    -0.246 OA
BRANCH  45  47
ATOM     47  C   UNL     1      -6.504  -7.226   4.162  1.00  0.00     0.060 A 
ATOM     48  C   UNL     1      -6.900  -5.915   3.893  1.00  0.00     0.016 A 
ATOM     49  C   UNL     1      -7.264  -8.336   3.770  1.00  0.00     0.016 A 
ATOM     50  C   UNL     1      -8.166  -5.712   3.392  1.00  0.00     0.010 A 
ATOM     51  C   UNL     1      -8.534  -8.130   3.292  1.00  0.00     0.010 A 
ATOM     52  C   UNL     1      -8.996  -6.821   3.183  1.00  0.00    -0.014 A 
BRANCH  52  53
ATOM     53  C   UNL     1     -10.334  -6.583   2.682  1.00  0.00     0.031 A 
ATOM     54  C   UNL     1     -10.307  -6.165   1.265  1.00  0.00     0.074 A 
ATOM     55  C   UNL     1     -11.442  -6.819   3.412  1.00  0.00     0.049 A 
ATOM     56  N   UNL     1     -10.603  -5.000   0.798  1.00  0.00    -0.248 NA
ATOM     57  C   UNL     1      -9.683  -7.064   0.278  1.00  0.00     0.031 C 
ATOM     58  C   UNL     1     -11.514  -7.463   4.727  1.00  0.00     0.029 A 
ATOM     59  N   UNL     1     -12.757  -6.627   3.097  1.00  0.00    -0.354 N 
ATOM     60  C   UNL     1     -10.443  -5.106  -0.579  1.00  0.00     0.074 A 
ATOM     61  C   UNL     1      -9.671  -6.294  -0.811  1.00  0.00     0.031 C 
ATOM     62  C   UNL     1     -12.793  -7.821   4.982  1.00  0.00     0.029 A 
ATOM     63  C   UNL     1     -13.644  -7.326   3.914  1.00  0.00     0.049 A 
ATOM     64  H   UNL     1     -13.052  -6.048   2.358  1.00  0.00     0.167 HD
ATOM     65  C   UNL     1     -11.283  -4.418  -1.397  1.00  0.00     0.037 A 
ATOM     66  C   UNL     1     -14.966  -7.530   3.680  1.00  0.00     0.037 A 
ATOM     67  C   UNL     1     -11.921  -3.347  -0.668  1.00  0.00     0.049 A 
ATOM     68  C   UNL     1     -15.406  -6.495   2.718  1.00  0.00     0.074 A 
ATOM     69  C   UNL     1     -11.527  -2.172  -0.065  1.00  0.00     0.029 A 
ATOM     70  N   UNL     1     -13.130  -3.694  -0.128  1.00  0.00    -0.354 N 
ATOM     71  N   UNL     1     -15.505  -5.230   3.015  1.00  0.00    -0.248 NA
ATOM     72  C   UNL     1     -15.390  -6.802   1.294  1.00  0.00     0.031 C 
ATOM     73  C   UNL     1     -12.441  -1.959   1.012  1.00  0.00     0.029 A 
ATOM     74  C   UNL     1     -13.400  -2.972   0.997  1.00  0.00     0.049 A 
ATOM     75  H   UNL     1     -13.729  -4.378  -0.505  1.00  0.00     0.167 HD
ATOM     76  C   UNL     1     -15.093  -4.580   1.867  1.00  0.00     0.074 A 
ATOM     77  C   UNL     1     -15.219  -5.572   0.805  1.00  0.00     0.031 C 
ATOM     78  C   UNL     1     -14.379  -3.419   1.962  1.00  0.00     0.037 A 
BRANCH  65  79
ATOM     79  C   UNL     1     -11.960  -5.043  -2.607  1.00  0.00     0.064 A 
ATOM     80  C   UNL     1     -12.815  -4.234  -3.385  1.00  0.00     0.173 A 
ATOM     81  C   UNL     1     -12.089  -6.434  -2.824  1.00  0.00     0.173 A 
ATOM     82  F   UNL     1     -12.807  -2.900  -3.242  1.00  0.00    -0.203 F 
ATOM     83  C   UNL     1     -13.774  -4.780  -4.244  1.00  0.00     0.198 A 
ATOM     84  C   UNL     1     -13.011  -6.972  -3.720  1.00  0.00     0.198 A 
ATOM     85  F   UNL     1     -11.426  -7.345  -2.105  1.00  0.00    -0.203 F 
ATOM     86  F   UNL     1     -14.652  -3.977  -4.858  1.00  0.00    -0.200 F 
ATOM     87  C   UNL     1     -13.874  -6.149  -4.406  1.00  0.00     0.200 A 
ATOM     88  F   UNL     1     -13.111  -8.305  -3.837  1.00  0.00    -0.200 F 
ATOM     89  F   UNL     1     -14.832  -6.679  -5.178  1.00  0.00    -0.200 F 
ENDBRANCH  65  79
BRANCH  66  90
ATOM     90  C   UNL     1     -15.820  -8.703   4.004  1.00  0.00     0.064 A 
ATOM     91  C   UNL     1     -17.220  -8.636   3.871  1.00  0.00     0.173 A 
ATOM     92  C   UNL     1     -15.273  -9.991   4.153  1.00  0.00     0.173 A 
ATOM     93  F   UNL     1     -17.827  -7.454   3.688  1.00  0.00    -0.203 F 
ATOM     94  C   UNL     1     -18.014  -9.788   3.838  1.00  0.00     0.198 A 
ATOM     95  C   UNL     1     -16.067 -11.139   4.128  1.00  0.00     0.198 A 
ATOM     96  F   UNL     1     -13.947 -10.172   4.223  1.00  0.00    -0.203 F 
ATOM     97  F   UNL     1     -19.334  -9.686   3.629  1.00  0.00    -0.200 F 
ATOM     98  C   UNL     1     -17.434 -11.040   3.951  1.00  0.00     0.200 A 
ATOM     99  F   UNL     1     -15.489 -12.347   4.204  1.00  0.00    -0.200 F 
ATOM    100  F   UNL     1     -18.182 -12.147   3.846  1.00  0.00    -0.200 F 
ENDBRANCH  66  90
BRANCH  78 101
ATOM    101  C   UNL     1     -14.527  -2.627   3.226  1.00  0.00     0.064 A 
ATOM    102  C   UNL     1     -14.152  -3.070   4.506  1.00  0.00     0.173 A 
ATOM    103  C   UNL     1     -15.025  -1.322   3.112  1.00  0.00     0.173 A 
ATOM    104  F   UNL     1     -13.584  -4.270   4.686  1.00  0.00    -0.203 F 
ATOM    105  C   UNL     1     -14.328  -2.256   5.625  1.00  0.00     0.198 A 
ATOM    106  C   UNL     1     -15.156  -0.497   4.222  1.00  0.00     0.198 A 
ATOM    107  F   UNL     1     -15.359  -0.833   1.907  1.00  0.00    -0.203 F 
ATOM    108  F   UNL     1     -13.999  -2.709   6.843  1.00  0.00    -0.200 F 
ATOM    109  C   UNL     1     -14.824  -0.970   5.480  1.00  0.00     0.200 A 
ATOM    110  F   UNL     1     -15.592   0.760   4.068  1.00  0.00    -0.200 F 
ATOM    111  F   UNL     1     -14.965  -0.177   6.552  1.00  0.00    -0.200 F 
ENDBRANCH  78 101
ENDBRANCH  52  53
ENDBRANCH  45  47
ENDBRANCH  44  45
ENDBRANCH  43  44
ENDBRANCH  42  43
ENDBRANCH  41  42
ENDBRANCH  40  41
ENDBRANCH  39  40
ENDBRANCH  38  39
ENDBRANCH   1  38
TORSDOF 23
