REMARK SMILES Cc1ccc(N)cc1S(=O)(=O)Nc1cccc(C(=O)OCCOCCOCCOC(=O)c2ccc(-c3c4nc(c(-c5c(F)c(F)c(F)c(F)c5F)c5ccc([nH]5)c(-c5c(F)c(F)c(F)c(F)c5F)c5nc(c(-c6c(F)c(F)c(F)c(F)c6F)c6ccc3[nH]6)C=C5)C=C4)cc2)c1
REMARK SMILES IDX 24 1 23 2 22 3 21 4 20 5 18 6 19 7 17 8 13 9 14 10 95 11
REMARK SMILES IDX 15 12 16 13 12 14 9 16 10 17 11 18 8 19 1 20 2 21 3 22 4 23
REMARK SMILES IDX 7 24 5 25 6 26 25 29 26 30 27 31 28 32 29 33 30 34 31 35
REMARK SMILES IDX 32 36 33 37 94 38 34 39 93 40 35 41 36 42 37 43 87 44 38 45
REMARK SMILES IDX 92 46 86 47 88 48 39 49 91 50 85 51 84 52 40 54 72 55 52 56
REMARK SMILES IDX 71 57 53 58 56 59 70 60 89 61 54 62 55 63 69 65 90 66 57 67
REMARK SMILES IDX 41 68 42 69 50 70 43 71 44 72 48 73 51 74 45 75 46 76 49 77
REMARK SMILES IDX 47 78 73 79 74 80 82 81 75 82 76 83 80 84 83 85 77 86 78 87
REMARK SMILES IDX 81 88 79 89 58 90 59 91 67 92 60 93 61 94 65 95 68 96 62 97
REMARK SMILES IDX 63 98 66 99 64 100
REMARK H PARENT 12 15 6 27 6 28 88 53 56 64
REMARK Flexibility Score: inf
ROOT
ATOM      1  C   UNL     1      -4.592  -2.962   3.685  1.00  0.00     0.188 C 
ENDROOT
BRANCH   1   2
ATOM      2  O   UNL     1      -3.696  -3.803   4.383  1.00  0.00    -0.376 OA
BRANCH   2   3
ATOM      3  C   UNL     1      -2.295  -3.574   4.334  1.00  0.00     0.202 C 
BRANCH   3   4
ATOM      4  C   UNL     1      -1.584  -3.102   3.060  1.00  0.00     0.261 C 
BRANCH   4   5
ATOM      5  O   UNL     1      -2.192  -1.966   2.438  1.00  0.00    -0.460 OA
BRANCH   5   6
ATOM      6  C   UNL     1      -2.741  -2.200   1.226  1.00  0.00     0.338 C 
ATOM      7  O   UNL     1      -2.709  -3.241   0.585  1.00  0.00    -0.246 OA
BRANCH   6   8
ATOM      8  C   UNL     1      -3.574  -1.052   0.814  1.00  0.00     0.062 A 
ATOM      9  C   UNL     1      -3.741   1.252   0.237  1.00  0.00     0.050 A 
ATOM     10  C   UNL     1      -4.995   1.014  -0.348  1.00  0.00     0.027 A 
ATOM     11  C   UNL     1      -3.115   0.257   0.974  1.00  0.00     0.042 A 
ATOM     12  C   UNL     1      -5.530  -0.271  -0.370  1.00  0.00     0.003 A 
ATOM     13  C   UNL     1      -4.787  -1.319   0.159  1.00  0.00     0.016 A 
BRANCH   9  14
ATOM     14  N   UNL     1      -3.099   2.460  -0.134  1.00  0.00    -0.280 N 
ATOM     15  H   UNL     1      -3.678   3.203  -0.418  1.00  0.00     0.180 HD
BRANCH  14  16
ATOM     16  S   UNL     1      -1.447   2.742  -0.136  1.00  0.00     0.262 S 
ATOM     17  O   UNL     1      -1.113   3.134   1.219  1.00  0.00    -0.201 OA
ATOM     18  O   UNL     1      -1.224   3.652  -1.241  1.00  0.00    -0.201 OA
BRANCH  16  19
ATOM     19  C   UNL     1      -0.484   1.272  -0.496  1.00  0.00     0.092 A 
ATOM     20  C   UNL     1      -2.067   0.024  -2.119  1.00  0.00     0.046 C 
ATOM     21  C   UNL     1      -0.910   0.119  -1.171  1.00  0.00    -0.030 A 
ATOM     22  C   UNL     1      -0.153  -1.057  -0.999  1.00  0.00     0.007 A 
ATOM     23  C   UNL     1       1.089  -1.035  -0.362  1.00  0.00     0.026 A 
ATOM     24  C   UNL     1       0.801   1.288   0.087  1.00  0.00     0.048 A 
ATOM     25  C   UNL     1       1.631   0.169   0.066  1.00  0.00     0.033 A 
BRANCH  25  26
ATOM     26  N   UNL     1       2.906   0.224   0.606  1.00  0.00    -0.399 N 
ATOM     27  H   UNL     1       3.484  -0.572   0.586  1.00  0.00     0.156 HD
ATOM     28  H   UNL     1       3.234   1.060   1.008  1.00  0.00     0.156 HD
ENDBRANCH  25  26
ENDBRANCH  16  19
ENDBRANCH  14  16
ENDBRANCH   9  14
ENDBRANCH   6   8
ENDBRANCH   5   6
ENDBRANCH   4   5
ENDBRANCH   3   4
ENDBRANCH   2   3
ENDBRANCH   1   2
BRANCH   1  29
ATOM     29  C   UNL     1      -4.641  -1.447   3.977  1.00  0.00     0.188 C 
BRANCH  29  30
ATOM     30  O   UNL     1      -3.730  -0.871   4.876  1.00  0.00    -0.376 OA
BRANCH  30  31
ATOM     31  C   UNL     1      -3.838  -1.163   6.257  1.00  0.00     0.202 C 
BRANCH  31  32
ATOM     32  C   UNL     1      -5.146  -1.588   6.955  1.00  0.00     0.261 C 
BRANCH  32  33
ATOM     33  O   UNL     1      -6.108  -2.320   6.182  1.00  0.00    -0.460 OA
BRANCH  33  34
ATOM     34  C   UNL     1      -7.235  -1.633   5.848  1.00  0.00     0.338 C 
ATOM     35  O   UNL     1      -7.520  -0.490   6.139  1.00  0.00    -0.246 OA
BRANCH  34  36
ATOM     36  C   UNL     1      -8.011  -2.429   4.871  1.00  0.00     0.060 A 
ATOM     37  C   UNL     1      -8.146  -1.958   3.554  1.00  0.00     0.016 A 
ATOM     38  C   UNL     1      -8.637  -3.610   5.266  1.00  0.00     0.016 A 
ATOM     39  C   UNL     1      -8.925  -2.659   2.631  1.00  0.00     0.010 A 
ATOM     40  C   UNL     1      -9.441  -4.293   4.350  1.00  0.00     0.010 A 
ATOM     41  C   UNL     1      -9.614  -3.807   3.040  1.00  0.00    -0.014 A 
BRANCH  41  42
ATOM     42  C   UNL     1     -10.685  -4.386   2.191  1.00  0.00     0.031 A 
ATOM     43  C   UNL     1     -12.108  -4.006   2.494  1.00  0.00     0.074 A 
ATOM     44  C   UNL     1     -10.416  -5.246   1.195  1.00  0.00     0.049 A 
ATOM     45  N   UNL     1     -13.223  -4.481   2.002  1.00  0.00    -0.248 NA
ATOM     46  C   UNL     1     -12.293  -2.950   3.501  1.00  0.00     0.031 C 
ATOM     47  C   UNL     1      -9.082  -5.648   0.759  1.00  0.00     0.029 A 
ATOM     48  N   UNL     1     -11.267  -5.955   0.383  1.00  0.00    -0.354 N 
ATOM     49  C   UNL     1     -14.241  -3.794   2.652  1.00  0.00     0.074 A 
ATOM     50  C   UNL     1     -13.612  -2.894   3.594  1.00  0.00     0.031 C 
ATOM     51  C   UNL     1      -9.203  -6.550  -0.231  1.00  0.00     0.029 A 
ATOM     52  C   UNL     1     -10.622  -6.821  -0.465  1.00  0.00     0.049 A 
ATOM     53  H   UNL     1     -12.246  -5.852   0.406  1.00  0.00     0.167 HD
ATOM     54  C   UNL     1     -15.580  -3.901   2.476  1.00  0.00     0.037 A 
ATOM     55  C   UNL     1     -11.124  -7.747  -1.307  1.00  0.00     0.037 A 
ATOM     56  C   UNL     1     -16.203  -4.810   1.550  1.00  0.00     0.049 A 
ATOM     57  C   UNL     1     -12.620  -7.928  -1.408  1.00  0.00     0.074 A 
ATOM     58  C   UNL     1     -17.550  -4.995   1.296  1.00  0.00     0.029 A 
ATOM     59  N   UNL     1     -15.516  -5.697   0.734  1.00  0.00    -0.354 N 
ATOM     60  N   UNL     1     -13.579  -7.273  -0.800  1.00  0.00    -0.248 NA
ATOM     61  C   UNL     1     -13.100  -8.984  -2.312  1.00  0.00     0.031 C 
ATOM     62  C   UNL     1     -17.681  -6.038   0.373  1.00  0.00     0.029 A 
ATOM     63  C   UNL     1     -16.413  -6.452  -0.004  1.00  0.00     0.049 A 
ATOM     64  H   UNL     1     -14.536  -5.779   0.686  1.00  0.00     0.167 HD
ATOM     65  C   UNL     1     -14.772  -7.805  -1.279  1.00  0.00     0.074 A 
ATOM     66  C   UNL     1     -14.415  -8.836  -2.231  1.00  0.00     0.031 C 
ATOM     67  C   UNL     1     -16.046  -7.464  -0.964  1.00  0.00     0.037 A 
BRANCH  54  68
ATOM     68  C   UNL     1     -16.456  -3.038   3.338  1.00  0.00     0.064 A 
ATOM     69  C   UNL     1     -16.492  -1.642   3.195  1.00  0.00     0.173 A 
ATOM     70  C   UNL     1     -17.272  -3.614   4.324  1.00  0.00     0.173 A 
ATOM     71  F   UNL     1     -15.721  -1.037   2.278  1.00  0.00    -0.203 F 
ATOM     72  C   UNL     1     -17.277  -0.854   4.033  1.00  0.00     0.198 A 
ATOM     73  C   UNL     1     -18.084  -2.826   5.135  1.00  0.00     0.198 A 
ATOM     74  F   UNL     1     -17.282  -4.944   4.502  1.00  0.00    -0.203 F 
ATOM     75  F   UNL     1     -17.241   0.481   3.922  1.00  0.00    -0.200 F 
ATOM     76  C   UNL     1     -18.076  -1.447   4.998  1.00  0.00     0.200 A 
ATOM     77  F   UNL     1     -18.868  -3.403   6.057  1.00  0.00    -0.200 F 
ATOM     78  F   UNL     1     -18.831  -0.688   5.804  1.00  0.00    -0.200 F 
ENDBRANCH  54  68
BRANCH  55  79
ATOM     79  C   UNL     1     -10.207  -8.586  -2.125  1.00  0.00     0.064 A 
ATOM     80  C   UNL     1     -10.165  -8.451  -3.520  1.00  0.00     0.173 A 
ATOM     81  C   UNL     1      -9.372  -9.548  -1.538  1.00  0.00     0.173 A 
ATOM     82  F   UNL     1     -10.966  -7.566  -4.130  1.00  0.00    -0.203 F 
ATOM     83  C   UNL     1      -9.335  -9.257  -4.297  1.00  0.00     0.198 A 
ATOM     84  C   UNL     1      -8.520 -10.332  -2.314  1.00  0.00     0.198 A 
ATOM     85  F   UNL     1      -9.378  -9.723  -0.209  1.00  0.00    -0.203 F 
ATOM     86  F   UNL     1      -9.351  -9.139  -5.632  1.00  0.00    -0.200 F 
ATOM     87  C   UNL     1      -8.508 -10.191  -3.694  1.00  0.00     0.200 A 
ATOM     88  F   UNL     1      -7.714 -11.227  -1.726  1.00  0.00    -0.200 F 
ATOM     89  F   UNL     1      -7.706 -10.961  -4.442  1.00  0.00    -0.200 F 
ENDBRANCH  55  79
BRANCH  67  90
ATOM     90  C   UNL     1     -17.160  -8.162  -1.696  1.00  0.00     0.064 A 
ATOM     91  C   UNL     1     -17.472  -9.511  -1.468  1.00  0.00     0.173 A 
ATOM     92  C   UNL     1     -17.964  -7.449  -2.600  1.00  0.00     0.173 A 
ATOM     93  F   UNL     1     -16.729 -10.243  -0.624  1.00  0.00    -0.203 F 
ATOM     94  C   UNL     1     -18.531 -10.123  -2.134  1.00  0.00     0.198 A 
ATOM     95  C   UNL     1     -19.043  -8.055  -3.237  1.00  0.00     0.198 A 
ATOM     96  F   UNL     1     -17.716  -6.154  -2.850  1.00  0.00    -0.203 F 
ATOM     97  F   UNL     1     -18.782 -11.425  -1.935  1.00  0.00    -0.200 F 
ATOM     98  C   UNL     1     -19.322  -9.394  -3.009  1.00  0.00     0.200 A 
ATOM     99  F   UNL     1     -19.816  -7.342  -4.068  1.00  0.00    -0.200 F 
ATOM    100  F   UNL     1     -20.349  -9.982  -3.638  1.00  0.00    -0.200 F 
ENDBRANCH  67  90
ENDBRANCH  41  42
ENDBRANCH  34  36
ENDBRANCH  33  34
ENDBRANCH  32  33
ENDBRANCH  31  32
ENDBRANCH  30  31
ENDBRANCH  29  30
ENDBRANCH   1  29
TORSDOF 21
