REMARK SMILES O=C(OCCOCCOCCOC(=O)c1ccc(-c2c3nc(c(-c4c(F)c(F)c(F)c(F)c4F)c4ccc([nH]4)c(-c4c(F)c(F)c(F)c(F)c4F)c4nc(c(-c5c(F)c(F)c(F)c(F)c5F)c5ccc2[nH]5)C=C4)C=C3)cc1)C1=Cc2cc(Cl)cc(-c3ccc(O)cc3)c2O[C@@H]1C(F)(F)F
REMARK SMILES IDX 7 1 6 2 5 3 4 4 3 5 2 6 1 7 78 8 79 9 95 10 80 11 94 12
REMARK SMILES IDX 81 13 93 14 82 15 85 16 83 17 84 18 96 19 97 20 98 21 99 22
REMARK SMILES IDX 86 23 87 24 92 25 88 26 91 27 89 28 90 29 8 31 9 32 10 33
REMARK SMILES IDX 11 34 12 35 13 36 14 37 15 38 16 39 77 40 17 41 76 42 18 43
REMARK SMILES IDX 19 44 20 45 70 46 21 47 75 48 69 49 71 50 22 51 74 52 68 53
REMARK SMILES IDX 67 54 23 56 55 57 35 58 54 59 36 60 39 61 53 62 72 63 37 64
REMARK SMILES IDX 38 65 52 67 73 68 40 69 24 70 25 71 33 72 26 73 27 74 31 75
REMARK SMILES IDX 34 76 28 77 29 78 32 79 30 80 56 81 57 82 65 83 58 84 59 85
REMARK SMILES IDX 63 86 66 87 60 88 61 89 64 90 62 91 41 92 42 93 50 94 43 95
REMARK SMILES IDX 44 96 48 97 51 98 45 99 46 100 49 101 47 102
REMARK H PARENT 90 30 71 55 39 66
REMARK Flexibility Score: inf
ROOT
ATOM      1  C   UNL     1       2.194   1.669   1.586  1.00  0.00     0.188 C 
ENDROOT
BRANCH   1   2
ATOM      2  O   UNL     1       3.634   1.241   1.813  1.00  0.00    -0.376 OA
BRANCH   2   3
ATOM      3  C   UNL     1       4.532  -0.002   0.929  1.00  0.00     0.202 C 
BRANCH   3   4
ATOM      4  C   UNL     1       3.830  -0.828  -0.956  1.00  0.00     0.261 C 
BRANCH   4   5
ATOM      5  O   UNL     1       2.876  -2.007  -1.125  1.00  0.00    -0.460 OA
BRANCH   5   6
ATOM      6  C   UNL     1       3.076  -2.952  -0.196  1.00  0.00     0.338 C 
ATOM      7  O   UNL     1       2.392  -3.914   0.051  1.00  0.00    -0.246 OA
BRANCH   6   8
ATOM      8  C   UNL     1       3.965  -2.174   0.652  1.00  0.00     0.087 C 
ATOM      9  C   UNL     1       5.340  -2.064   0.212  1.00  0.00     0.027 C 
ATOM     10  C   UNL     1       2.744  -0.709   0.774  1.00  0.00     0.316 C 
ATOM     11  C   UNL     1       6.029  -0.626  -0.591  1.00  0.00     0.019 A 
ATOM     12  O   UNL     1       3.415   0.844  -0.238  1.00  0.00    -0.475 OA
ATOM     13  C   UNL     1       7.269  -0.776  -1.156  1.00  0.00     0.032 A 
ATOM     14  C   UNL     1       5.122   0.816  -0.907  1.00  0.00     0.135 A 
ATOM     15  C   UNL     1       7.714   0.305  -1.920  1.00  0.00     0.042 A 
ATOM     16  C   UNL     1       5.680   1.869  -1.621  1.00  0.00     0.026 A 
ATOM     17  Cl  UNL     1       9.243   0.141  -2.717  1.00  0.00    -0.084 Cl
ATOM     18  C   UNL     1       6.986   1.536  -2.113  1.00  0.00     0.033 A 
BRANCH  10  19
ATOM     19  C   UNL     1       2.556  -1.033   2.465  1.00  0.00     0.430 C 
ATOM     20  F   UNL     1       2.406  -0.069   3.377  1.00  0.00    -0.167 F 
ATOM     21  F   UNL     1       1.461  -1.837   2.600  1.00  0.00    -0.167 F 
ATOM     22  F   UNL     1       3.584  -1.787   2.969  1.00  0.00    -0.167 F 
ENDBRANCH  10  19
BRANCH  16  23
ATOM     23  C   UNL     1       5.230   3.228  -1.910  1.00  0.00    -0.014 A 
ATOM     24  C   UNL     1       4.419   3.517  -3.011  1.00  0.00     0.012 A 
ATOM     25  C   UNL     1       5.803   4.320  -1.219  1.00  0.00     0.012 A 
ATOM     26  C   UNL     1       4.082   4.840  -3.325  1.00  0.00     0.047 A 
ATOM     27  C   UNL     1       5.434   5.643  -1.502  1.00  0.00     0.047 A 
ATOM     28  C   UNL     1       4.540   5.884  -2.532  1.00  0.00     0.115 A 
BRANCH  28  29
ATOM     29  O   UNL     1       4.076   7.139  -2.786  1.00  0.00    -0.508 OA
ATOM     30  H   UNL     1       3.472   7.282  -3.487  1.00  0.00     0.293 HD
ENDBRANCH  28  29
ENDBRANCH  16  23
ENDBRANCH   6   8
ENDBRANCH   5   6
ENDBRANCH   4   5
ENDBRANCH   3   4
ENDBRANCH   2   3
ENDBRANCH   1   2
BRANCH   1  31
ATOM     31  C   UNL     1       1.705   3.122   1.524  1.00  0.00     0.188 C 
BRANCH  31  32
ATOM     32  O   UNL     1       2.426   4.077   0.809  1.00  0.00    -0.376 OA
BRANCH  32  33
ATOM     33  C   UNL     1       3.807   4.112   1.079  1.00  0.00     0.202 C 
BRANCH  33  34
ATOM     34  C   UNL     1       4.329   4.468   2.468  1.00  0.00     0.261 C 
BRANCH  34  35
ATOM     35  O   UNL     1       3.940   3.552   3.491  1.00  0.00    -0.460 OA
BRANCH  35  36
ATOM     36  C   UNL     1       2.931   3.975   4.283  1.00  0.00     0.338 C 
ATOM     37  O   UNL     1       2.356   5.049   4.262  1.00  0.00    -0.246 OA
BRANCH  36  38
ATOM     38  C   UNL     1       2.478   2.833   5.086  1.00  0.00     0.060 A 
ATOM     39  C   UNL     1       1.157   2.385   4.943  1.00  0.00     0.016 A 
ATOM     40  C   UNL     1       3.339   2.264   6.023  1.00  0.00     0.016 A 
ATOM     41  C   UNL     1       0.680   1.373   5.760  1.00  0.00     0.010 A 
ATOM     42  C   UNL     1       2.844   1.290   6.885  1.00  0.00     0.010 A 
ATOM     43  C   UNL     1       1.501   0.887   6.781  1.00  0.00    -0.014 A 
BRANCH  43  44
ATOM     44  C   UNL     1       0.837   0.235   7.923  1.00  0.00     0.031 A 
ATOM     45  C   UNL     1       0.389   1.121   9.050  1.00  0.00     0.074 A 
ATOM     46  C   UNL     1       0.569  -1.078   7.910  1.00  0.00     0.049 A 
ATOM     47  N   UNL     1      -0.253   0.816  10.146  1.00  0.00    -0.248 NA
ATOM     48  C   UNL     1       0.708   2.554   8.919  1.00  0.00     0.031 C 
ATOM     49  C   UNL     1       0.903  -2.000   6.828  1.00  0.00     0.029 A 
ATOM     50  N   UNL     1      -0.059  -1.857   8.844  1.00  0.00    -0.354 N 
ATOM     51  C   UNL     1      -0.408   2.013  10.832  1.00  0.00     0.074 A 
ATOM     52  C   UNL     1       0.236   3.044  10.053  1.00  0.00     0.031 C 
ATOM     53  C   UNL     1       0.478  -3.230   7.163  1.00  0.00     0.029 A 
ATOM     54  C   UNL     1      -0.130  -3.179   8.492  1.00  0.00     0.049 A 
ATOM     55  H   UNL     1      -0.424  -1.501   9.687  1.00  0.00     0.167 HD
ATOM     56  C   UNL     1      -1.040   2.229  12.008  1.00  0.00     0.037 A 
ATOM     57  C   UNL     1      -0.622  -4.222   9.185  1.00  0.00     0.037 A 
ATOM     58  C   UNL     1      -1.658   1.184  12.777  1.00  0.00     0.049 A 
ATOM     59  C   UNL     1      -1.237  -3.967  10.540  1.00  0.00     0.074 A 
ATOM     60  C   UNL     1      -2.333   1.282  13.979  1.00  0.00     0.029 A 
ATOM     61  N   UNL     1      -1.656  -0.159  12.423  1.00  0.00    -0.354 N 
ATOM     62  N   UNL     1      -1.409  -2.832  11.177  1.00  0.00    -0.248 NA
ATOM     63  C   UNL     1      -1.736  -5.141  11.266  1.00  0.00     0.031 C 
ATOM     64  C   UNL     1      -2.661  -0.012  14.396  1.00  0.00     0.029 A 
ATOM     65  C   UNL     1      -2.282  -0.906  13.406  1.00  0.00     0.049 A 
ATOM     66  H   UNL     1      -1.267  -0.525  11.596  1.00  0.00     0.167 HD
ATOM     67  C   UNL     1      -2.077  -3.149  12.354  1.00  0.00     0.074 A 
ATOM     68  C   UNL     1      -2.288  -4.582  12.333  1.00  0.00     0.031 C 
ATOM     69  C   UNL     1      -2.487  -2.333  13.359  1.00  0.00     0.037 A 
BRANCH  56  70
ATOM     70  C   UNL     1      -1.029   3.628  12.554  1.00  0.00     0.064 A 
ATOM     71  C   UNL     1      -1.711   4.683  11.927  1.00  0.00     0.173 A 
ATOM     72  C   UNL     1      -0.318   3.916  13.729  1.00  0.00     0.173 A 
ATOM     73  F   UNL     1      -2.390   4.470  10.790  1.00  0.00    -0.203 F 
ATOM     74  C   UNL     1      -1.650   5.979  12.436  1.00  0.00     0.198 A 
ATOM     75  C   UNL     1      -0.294   5.203  14.257  1.00  0.00     0.198 A 
ATOM     76  F   UNL     1       0.356   2.948  14.367  1.00  0.00    -0.203 F 
ATOM     77  F   UNL     1      -2.253   6.982  11.784  1.00  0.00    -0.200 F 
ATOM     78  C   UNL     1      -0.949   6.236  13.605  1.00  0.00     0.200 A 
ATOM     79  F   UNL     1       0.372   5.445  15.395  1.00  0.00    -0.200 F 
ATOM     80  F   UNL     1      -0.897   7.481  14.097  1.00  0.00    -0.200 F 
ENDBRANCH  56  70
BRANCH  57  81
ATOM     81  C   UNL     1      -0.562  -5.595   8.617  1.00  0.00     0.064 A 
ATOM     82  C   UNL     1      -1.731  -6.300   8.301  1.00  0.00     0.173 A 
ATOM     83  C   UNL     1       0.665  -6.243   8.409  1.00  0.00     0.173 A 
ATOM     84  F   UNL     1      -2.930  -5.733   8.502  1.00  0.00    -0.203 F 
ATOM     85  C   UNL     1      -1.678  -7.611   7.832  1.00  0.00     0.198 A 
ATOM     86  C   UNL     1       0.718  -7.540   7.904  1.00  0.00     0.198 A 
ATOM     87  F   UNL     1       1.815  -5.616   8.695  1.00  0.00    -0.203 F 
ATOM     88  F   UNL     1      -2.814  -8.284   7.602  1.00  0.00    -0.200 F 
ATOM     89  C   UNL     1      -0.453  -8.228   7.628  1.00  0.00     0.200 A 
ATOM     90  F   UNL     1       1.905  -8.127   7.696  1.00  0.00    -0.200 F 
ATOM     91  F   UNL     1      -0.403  -9.490   7.180  1.00  0.00    -0.200 F 
ENDBRANCH  57  81
BRANCH  69  92
ATOM     92  C   UNL     1      -3.263  -2.961  14.485  1.00  0.00     0.064 A 
ATOM     93  C   UNL     1      -2.682  -3.872  15.378  1.00  0.00     0.173 A 
ATOM     94  C   UNL     1      -4.612  -2.620  14.683  1.00  0.00     0.173 A 
ATOM     95  F   UNL     1      -1.399  -4.237  15.234  1.00  0.00    -0.203 F 
ATOM     96  C   UNL     1      -3.435  -4.459  16.392  1.00  0.00     0.198 A 
ATOM     97  C   UNL     1      -5.347  -3.171  15.727  1.00  0.00     0.198 A 
ATOM     98  F   UNL     1      -5.216  -1.740  13.870  1.00  0.00    -0.203 F 
ATOM     99  F   UNL     1      -2.880  -5.388  17.184  1.00  0.00    -0.200 F 
ATOM    100  C   UNL     1      -4.763  -4.103  16.571  1.00  0.00     0.200 A 
ATOM    101  F   UNL     1      -6.622  -2.804  15.914  1.00  0.00    -0.200 F 
ATOM    102  F   UNL     1      -5.484  -4.666  17.550  1.00  0.00    -0.200 F 
ENDBRANCH  69  92
ENDBRANCH  43  44
ENDBRANCH  36  38
ENDBRANCH  35  36
ENDBRANCH  34  35
ENDBRANCH  33  34
ENDBRANCH  32  33
ENDBRANCH  31  32
ENDBRANCH   1  31
TORSDOF 20
