REMARK SMILES N#Cc1cccnc1N1CC[NH+]([C@@H](C(=O)OCCOCCOCCOC(=O)c2ccc(-c3c4nc(c(-c5c(F)c(F)c(F)c(F)c5F)c5ccc([nH]5)c(-c5c(F)c(F)c(F)c(F)c5F)c5nc(c(-c6c(F)c(F)c(F)c(F)c6F)c6ccc3[nH]6)C=C5)C=C4)cc2)c2c[nH]c3cc(CO)ccc23)CC1
REMARK SMILES IDX 20 1 19 2 18 3 17 4 16 5 14 6 15 7 13 8 12 9 9 10 10 11
REMARK SMILES IDX 103 12 11 13 102 14 8 16 3 17 4 18 5 19 7 20 6 21 2 22 1 23
REMARK SMILES IDX 91 24 92 25 101 26 93 27 94 28 100 29 95 31 99 32 96 33
REMARK SMILES IDX 97 34 98 35 21 37 22 38 23 39 24 40 25 41 26 42 27 43 28 44
REMARK SMILES IDX 29 45 90 46 30 47 89 48 31 49 32 50 33 51 83 52 34 53 88 54
REMARK SMILES IDX 82 55 84 56 35 57 87 58 81 59 80 60 36 62 68 63 48 64 67 65
REMARK SMILES IDX 49 66 52 67 66 68 85 69 50 70 51 71 65 73 86 74 53 75 37 76
REMARK SMILES IDX 38 77 46 78 39 79 40 80 44 81 47 82 41 83 42 84 45 85 43 86
REMARK SMILES IDX 69 87 70 88 78 89 71 90 72 91 76 92 79 93 73 94 74 95 77 96
REMARK SMILES IDX 75 97 54 98 55 99 63 100 56 101 57 102 61 103 64 104 58 105
REMARK SMILES IDX 59 106 62 107 60 108
REMARK H PARENT 12 15 93 30 98 36 84 61 52 72
REMARK Flexibility Score: inf
ROOT
ATOM      1  C   UNL     1      -2.945  -5.134   1.338  1.00  0.00     0.188 C 
ENDROOT
BRANCH   1   2
ATOM      2  O   UNL     1      -3.381  -4.873   2.655  1.00  0.00    -0.376 OA
BRANCH   2   3
ATOM      3  C   UNL     1      -2.489  -4.108   3.463  1.00  0.00     0.202 C 
BRANCH   3   4
ATOM      4  C   UNL     1      -1.003  -4.534   3.510  1.00  0.00     0.261 C 
BRANCH   4   5
ATOM      5  O   UNL     1      -0.290  -4.448   2.245  1.00  0.00    -0.459 OA
BRANCH   5   6
ATOM      6  C   UNL     1       0.150  -5.597   1.658  1.00  0.00     0.370 C 
ATOM      7  O   UNL     1       0.027  -6.701   2.188  1.00  0.00    -0.245 OA
BRANCH   6   8
ATOM      8  C   UNL     1       0.787  -5.401   0.245  1.00  0.00     0.328 C 
BRANCH   8   9
ATOM      9  N   UNL     1       1.945  -4.410   0.111  1.00  0.00    -0.316 N 
ATOM     10  N   UNL     1       1.749  -1.433   0.050  1.00  0.00    -0.344 N 
ATOM     11  C   UNL     1       1.312  -2.293  -1.042  1.00  0.00     0.179 C 
ATOM     12  C   UNL     1       1.763  -2.119   1.366  1.00  0.00     0.179 C 
ATOM     13  C   UNL     1       2.220  -3.525  -1.023  1.00  0.00     0.285 C 
ATOM     14  C   UNL     1       2.319  -3.599   1.297  1.00  0.00     0.285 C 
ATOM     15  H   UNL     1       2.479  -5.258  -0.077  1.00  0.00     0.349 HD
BRANCH  10  16
ATOM     16  C   UNL     1       1.223  -0.141  -0.011  1.00  0.00     0.146 A 
ATOM     17  C   UNL     1       2.010   0.983   0.240  1.00  0.00     0.095 A 
ATOM     18  C   UNL     1       1.423   2.260   0.224  1.00  0.00     0.025 A 
ATOM     19  C   UNL     1       0.086   2.405  -0.101  1.00  0.00     0.022 A 
ATOM     20  N   UNL     1      -0.067   0.019  -0.385  1.00  0.00    -0.238 NA
ATOM     21  C   UNL     1      -0.594   1.264  -0.442  1.00  0.00     0.113 A 
BRANCH  17  22
ATOM     22  C   UNL     1       3.425   0.873   0.400  1.00  0.00     0.103 C 
ATOM     23  N   UNL     1       4.581   0.841   0.500  1.00  0.00    -0.192 NA
ENDBRANCH  17  22
ENDBRANCH  10  16
ENDBRANCH   8   9
BRANCH   8  24
ATOM     24  C   UNL     1      -0.130  -6.011  -1.017  1.00  0.00     0.046 A 
ATOM     25  C   UNL     1       0.592  -6.705  -1.990  1.00  0.00     0.094 A 
ATOM     26  C   UNL     1      -0.991  -5.387  -2.014  1.00  0.00     0.009 A 
ATOM     27  N   UNL     1       1.182  -5.613  -2.674  1.00  0.00    -0.361 N 
ATOM     28  C   UNL     1       0.213  -4.493  -2.750  1.00  0.00     0.046 A 
ATOM     29  C   UNL     1      -2.560  -5.554  -2.933  1.00  0.00     0.011 A 
ATOM     30  H   UNL     1       2.095  -5.600  -3.042  1.00  0.00     0.166 HD
ATOM     31  C   UNL     1      -0.015  -3.389  -4.120  1.00  0.00     0.032 A 
ATOM     32  C   UNL     1      -2.835  -4.404  -4.581  1.00  0.00     0.007 A 
ATOM     33  C   UNL     1      -1.501  -3.322  -5.066  1.00  0.00    -0.021 A 
BRANCH  33  34
ATOM     34  C   UNL     1      -1.716  -2.242  -6.069  1.00  0.00     0.191 C 
BRANCH  34  35
ATOM     35  O   UNL     1      -2.347  -1.143  -5.430  1.00  0.00    -0.392 OA
ATOM     36  H   UNL     1      -3.198  -1.429  -5.062  1.00  0.00     0.211 HD
ENDBRANCH  34  35
ENDBRANCH  33  34
ENDBRANCH   8  24
ENDBRANCH   6   8
ENDBRANCH   5   6
ENDBRANCH   4   5
ENDBRANCH   3   4
ENDBRANCH   2   3
ENDBRANCH   1   2
BRANCH   1  37
ATOM     37  C   UNL     1      -2.534  -3.924   0.511  1.00  0.00     0.188 C 
BRANCH  37  38
ATOM     38  O   UNL     1      -1.932  -2.808   1.143  1.00  0.00    -0.376 OA
BRANCH  38  39
ATOM     39  C   UNL     1      -2.474  -1.517   0.884  1.00  0.00     0.202 C 
BRANCH  39  40
ATOM     40  C   UNL     1      -3.023  -1.236  -0.517  1.00  0.00     0.261 C 
BRANCH  40  41
ATOM     41  O   UNL     1      -2.649  -2.275  -1.425  1.00  0.00    -0.460 OA
BRANCH  41  42
ATOM     42  C   UNL     1      -1.775  -2.311  -2.438  1.00  0.00     0.338 C 
ATOM     43  O   UNL     1      -1.141  -1.370  -2.869  1.00  0.00    -0.246 OA
BRANCH  42  44
ATOM     44  C   UNL     1      -2.046  -3.750  -3.023  1.00  0.00     0.060 A 
ATOM     45  C   UNL     1      -1.210  -5.201  -4.172  1.00  0.00     0.016 A 
ATOM     46  C   UNL     1      -3.872  -3.900  -2.827  1.00  0.00     0.016 A 
ATOM     47  C   UNL     1      -2.185  -6.471  -4.871  1.00  0.00     0.010 A 
ATOM     48  C   UNL     1      -4.715  -5.216  -3.627  1.00  0.00     0.010 A 
ATOM     49  C   UNL     1      -3.875  -6.398  -4.617  1.00  0.00    -0.014 A 
BRANCH  49  50
ATOM     50  C   UNL     1      -4.557  -7.318  -5.505  1.00  0.00     0.031 A 
ATOM     51  C   UNL     1      -4.529  -7.059  -6.983  1.00  0.00     0.074 A 
ATOM     52  C   UNL     1      -4.910  -8.468  -4.926  1.00  0.00     0.049 A 
ATOM     53  N   UNL     1      -5.051  -7.760  -7.949  1.00  0.00    -0.248 NA
ATOM     54  C   UNL     1      -3.777  -5.885  -7.468  1.00  0.00     0.031 C 
ATOM     55  C   UNL     1      -4.699  -8.800  -3.511  1.00  0.00     0.029 A 
ATOM     56  N   UNL     1      -5.504  -9.570  -5.446  1.00  0.00    -0.354 N 
ATOM     57  C   UNL     1      -4.703  -7.104  -9.127  1.00  0.00     0.074 A 
ATOM     58  C   UNL     1      -3.910  -5.961  -8.781  1.00  0.00     0.031 C 
ATOM     59  C   UNL     1      -5.239  -9.999  -3.259  1.00  0.00     0.029 A 
ATOM     60  C   UNL     1      -5.869 -10.471  -4.480  1.00  0.00     0.049 A 
ATOM     61  H   UNL     1      -5.656  -9.708  -6.409  1.00  0.00     0.167 HD
ATOM     62  C   UNL     1      -5.049  -7.449 -10.385  1.00  0.00     0.037 A 
ATOM     63  C   UNL     1      -6.708 -11.508  -4.595  1.00  0.00     0.037 A 
ATOM     64  C   UNL     1      -5.862  -8.605 -10.631  1.00  0.00     0.049 A 
ATOM     65  C   UNL     1      -7.228 -11.773  -5.978  1.00  0.00     0.074 A 
ATOM     66  C   UNL     1      -6.375  -9.075 -11.819  1.00  0.00     0.029 A 
ATOM     67  N   UNL     1      -6.288  -9.468  -9.624  1.00  0.00    -0.354 N 
ATOM     68  N   UNL     1      -6.978 -11.116  -7.091  1.00  0.00    -0.248 NA
ATOM     69  C   UNL     1      -8.126 -12.914  -6.138  1.00  0.00     0.031 C 
ATOM     70  C   UNL     1      -7.181 -10.176 -11.517  1.00  0.00     0.029 A 
ATOM     71  C   UNL     1      -7.090 -10.451 -10.156  1.00  0.00     0.049 A 
ATOM     72  H   UNL     1      -6.050  -9.386  -8.672  1.00  0.00     0.167 HD
ATOM     73  C   UNL     1      -7.642 -11.793  -8.095  1.00  0.00     0.074 A 
ATOM     74  C   UNL     1      -8.314 -12.909  -7.450  1.00  0.00     0.031 C 
ATOM     75  C   UNL     1      -7.693 -11.540  -9.427  1.00  0.00     0.037 A 
BRANCH  62  76
ATOM     76  C   UNL     1      -4.667  -6.538 -11.516  1.00  0.00     0.064 A 
ATOM     77  C   UNL     1      -3.345  -6.391 -11.964  1.00  0.00     0.173 A 
ATOM     78  C   UNL     1      -5.660  -5.793 -12.173  1.00  0.00     0.173 A 
ATOM     79  F   UNL     1      -2.346  -7.045 -11.351  1.00  0.00    -0.203 F 
ATOM     80  C   UNL     1      -3.035  -5.537 -13.024  1.00  0.00     0.198 A 
ATOM     81  C   UNL     1      -5.351  -4.961 -13.247  1.00  0.00     0.198 A 
ATOM     82  F   UNL     1      -6.937  -5.870 -11.771  1.00  0.00    -0.203 F 
ATOM     83  F   UNL     1      -1.760  -5.385 -13.411  1.00  0.00    -0.200 F 
ATOM     84  C   UNL     1      -4.039  -4.833 -13.671  1.00  0.00     0.200 A 
ATOM     85  F   UNL     1      -6.325  -4.282 -13.867  1.00  0.00    -0.200 F 
ATOM     86  F   UNL     1      -3.741  -4.022 -14.697  1.00  0.00    -0.200 F 
ENDBRANCH  62  76
BRANCH  63  87
ATOM     87  C   UNL     1      -7.133 -12.261  -3.392  1.00  0.00     0.064 A 
ATOM     88  C   UNL     1      -6.836 -13.619  -3.239  1.00  0.00     0.173 A 
ATOM     89  C   UNL     1      -7.848 -11.631  -2.357  1.00  0.00     0.173 A 
ATOM     90  F   UNL     1      -6.145 -14.263  -4.190  1.00  0.00    -0.203 F 
ATOM     91  C   UNL     1      -7.278 -14.330  -2.124  1.00  0.00     0.198 A 
ATOM     92  C   UNL     1      -8.258 -12.334  -1.227  1.00  0.00     0.198 A 
ATOM     93  F   UNL     1      -8.140 -10.323  -2.436  1.00  0.00    -0.203 F 
ATOM     94  F   UNL     1      -7.031 -15.644  -2.034  1.00  0.00    -0.200 F 
ATOM     95  C   UNL     1      -7.988 -13.688  -1.120  1.00  0.00     0.200 A 
ATOM     96  F   UNL     1      -8.918 -11.700  -0.248  1.00  0.00    -0.200 F 
ATOM     97  F   UNL     1      -8.420 -14.377  -0.055  1.00  0.00    -0.200 F 
ENDBRANCH  63  87
BRANCH  75  98
ATOM     98  C   UNL     1      -8.422 -12.541 -10.258  1.00  0.00     0.064 A 
ATOM     99  C   UNL     1      -9.818 -12.623 -10.252  1.00  0.00     0.173 A 
ATOM    100  C   UNL     1      -7.700 -13.357 -11.142  1.00  0.00     0.173 A 
ATOM    101  F   UNL     1     -10.538 -11.866  -9.409  1.00  0.00    -0.203 F 
ATOM    102  C   UNL     1     -10.472 -13.511 -11.095  1.00  0.00     0.198 A 
ATOM    103  C   UNL     1      -8.360 -14.207 -12.015  1.00  0.00     0.198 A 
ATOM    104  F   UNL     1      -6.360 -13.292 -11.183  1.00  0.00    -0.203 F 
ATOM    105  F   UNL     1     -11.806 -13.614 -11.046  1.00  0.00    -0.200 F 
ATOM    106  C   UNL     1      -9.744 -14.289 -11.985  1.00  0.00     0.200 A 
ATOM    107  F   UNL     1      -7.658 -14.935 -12.893  1.00  0.00    -0.200 F 
ATOM    108  F   UNL     1     -10.380 -15.121 -12.819  1.00  0.00    -0.200 F 
ENDBRANCH  75  98
ENDBRANCH  49  50
ENDBRANCH  42  44
ENDBRANCH  41  42
ENDBRANCH  40  41
ENDBRANCH  39  40
ENDBRANCH  38  39
ENDBRANCH  37  38
ENDBRANCH   1  37
TORSDOF 23
