REMARK SMILES Cc1cc2c(c(C)c1Cl)C=C(C(=O)OCCOCCOCCOC(=O)c1ccc(-c3c4nc(c(-c5c(F)c(F)c(F)c(F)c5F)c5ccc([nH]5)c(-c5c(F)c(F)c(F)c(F)c5F)c5nc(c(-c6c(F)c(F)c(F)c(F)c6F)c6ccc3[nH]6)C=C5)C=C4)cc1)[C@@H](C(F)(F)F)O2
REMARK SMILES IDX 19 1 18 2 17 3 16 4 15 5 14 6 12 7 13 8 11 9 1 10 2 11 3 12
REMARK SMILES IDX 8 13 4 14 6 15 9 16 5 17 94 18 7 19 10 20 89 21 90 22 91 23
REMARK SMILES IDX 92 24 93 25 20 26 21 27 22 28 23 29 24 30 25 31 26 32 27 33
REMARK SMILES IDX 88 34 28 35 87 36 29 37 30 38 31 39 81 40 32 41 86 42 80 43
REMARK SMILES IDX 82 44 33 45 85 46 79 47 78 48 34 50 66 51 46 52 65 53 47 54
REMARK SMILES IDX 50 55 64 56 83 57 48 58 49 59 63 61 84 62 51 63 35 64 36 65
REMARK SMILES IDX 44 66 37 67 38 68 42 69 45 70 39 71 40 72 43 73 41 74 67 75
REMARK SMILES IDX 68 76 76 77 69 78 70 79 74 80 77 81 71 82 72 83 75 84 73 85
REMARK SMILES IDX 52 86 53 87 61 88 54 89 55 90 59 91 62 92 56 93 57 94 60 95
REMARK SMILES IDX 58 96
REMARK H PARENT 82 49 50 60
REMARK Flexibility Score: inf
ROOT
ATOM      1  C   UNL     1       0.326  -0.658   8.489  1.00  0.00     0.188 C 
ENDROOT
BRANCH   1   2
ATOM      2  C   UNL     1      -0.505   0.587   8.863  1.00  0.00     0.188 C 
BRANCH   2   3
ATOM      3  O   UNL     1      -1.339   0.584  10.008  1.00  0.00    -0.376 OA
BRANCH   3   4
ATOM      4  C   UNL     1      -2.250  -0.480  10.234  1.00  0.00     0.202 C 
BRANCH   4   5
ATOM      5  C   UNL     1      -3.147  -1.020   9.108  1.00  0.00     0.261 C 
BRANCH   5   6
ATOM      6  O   UNL     1      -2.486  -1.234   7.853  1.00  0.00    -0.460 OA
BRANCH   6   7
ATOM      7  C   UNL     1      -2.877  -0.417   6.846  1.00  0.00     0.338 C 
ATOM      8  O   UNL     1      -3.748   0.435   6.890  1.00  0.00    -0.246 OA
BRANCH   7   9
ATOM      9  C   UNL     1      -1.972  -0.588   5.690  1.00  0.00     0.087 C 
ATOM     10  C   UNL     1       1.156  -0.094   0.053  1.00  0.00     0.046 C 
ATOM     11  C   UNL     1       0.568   0.130   1.421  1.00  0.00    -0.028 A 
ATOM     12  C   UNL     1       0.194  -0.986   2.179  1.00  0.00     0.052 A 
ATOM     13  C   UNL     1       0.398   1.415   1.973  1.00  0.00     0.047 A 
ATOM     14  C   UNL     1      -0.437  -0.834   3.411  1.00  0.00     0.128 A 
ATOM     15  C   UNL     1      -0.222   1.590   3.233  1.00  0.00    -0.021 A 
ATOM     16  Cl  UNL     1       0.951   2.788   1.062  1.00  0.00    -0.084 Cl
ATOM     17  C   UNL     1      -0.694   0.443   3.922  1.00  0.00     0.022 A 
ATOM     18  O   UNL     1      -0.770  -2.001   4.038  1.00  0.00    -0.475 OA
ATOM     19  C   UNL     1      -0.407   2.960   3.845  1.00  0.00     0.047 C 
ATOM     20  C   UNL     1      -1.512   0.538   5.128  1.00  0.00     0.027 C 
ATOM     21  C   UNL     1      -1.625  -1.967   5.210  1.00  0.00     0.316 C 
BRANCH  21  22
ATOM     22  C   UNL     1      -2.866  -2.823   4.927  1.00  0.00     0.430 C 
ATOM     23  F   UNL     1      -2.523  -4.042   4.446  1.00  0.00    -0.167 F 
ATOM     24  F   UNL     1      -3.594  -3.039   6.048  1.00  0.00    -0.167 F 
ATOM     25  F   UNL     1      -3.683  -2.242   4.019  1.00  0.00    -0.167 F 
ENDBRANCH  21  22
ENDBRANCH   7   9
ENDBRANCH   6   7
ENDBRANCH   5   6
ENDBRANCH   4   5
ENDBRANCH   3   4
ENDBRANCH   2   3
ENDBRANCH   1   2
BRANCH   1  26
ATOM     26  O   UNL     1       0.157  -1.799   9.289  1.00  0.00    -0.376 OA
BRANCH  26  27
ATOM     27  C   UNL     1       0.892  -1.950  10.493  1.00  0.00     0.202 C 
BRANCH  27  28
ATOM     28  C   UNL     1       1.849  -0.911  11.118  1.00  0.00     0.261 C 
BRANCH  28  29
ATOM     29  O   UNL     1       1.934   0.385  10.521  1.00  0.00    -0.460 OA
BRANCH  29  30
ATOM     30  C   UNL     1       3.038   0.617   9.768  1.00  0.00     0.338 C 
ATOM     31  O   UNL     1       3.947  -0.154   9.526  1.00  0.00    -0.246 OA
BRANCH  30  32
ATOM     32  C   UNL     1       2.880   1.922   9.097  1.00  0.00     0.060 A 
ATOM     33  C   UNL     1       2.731   1.942   7.702  1.00  0.00     0.016 A 
ATOM     34  C   UNL     1       2.910   3.110   9.827  1.00  0.00     0.016 A 
ATOM     35  C   UNL     1       2.636   3.158   7.028  1.00  0.00     0.010 A 
ATOM     36  C   UNL     1       2.851   4.329   9.146  1.00  0.00     0.010 A 
ATOM     37  C   UNL     1       2.748   4.357   7.743  1.00  0.00    -0.014 A 
BRANCH  37  38
ATOM     38  C   UNL     1       3.010   5.620   7.013  1.00  0.00     0.031 A 
ATOM     39  C   UNL     1       4.443   6.021   6.798  1.00  0.00     0.074 A 
ATOM     40  C   UNL     1       2.014   6.381   6.529  1.00  0.00     0.049 A 
ATOM     41  N   UNL     1       4.934   7.118   6.280  1.00  0.00    -0.248 NA
ATOM     42  C   UNL     1       5.462   5.047   7.223  1.00  0.00     0.031 C 
ATOM     43  C   UNL     1       0.591   6.061   6.601  1.00  0.00     0.029 A 
ATOM     44  N   UNL     1       2.058   7.591   5.882  1.00  0.00    -0.354 N 
ATOM     45  C   UNL     1       6.313   6.964   6.319  1.00  0.00     0.074 A 
ATOM     46  C   UNL     1       6.585   5.684   6.933  1.00  0.00     0.031 C 
ATOM     47  C   UNL     1      -0.106   7.061   6.031  1.00  0.00     0.029 A 
ATOM     48  C   UNL     1       0.819   8.107   5.595  1.00  0.00     0.049 A 
ATOM     49  H   UNL     1       2.899   8.046   5.646  1.00  0.00     0.167 HD
ATOM     50  C   UNL     1       7.269   7.814   5.875  1.00  0.00     0.037 A 
ATOM     51  C   UNL     1       0.477   9.301   5.070  1.00  0.00     0.037 A 
ATOM     52  C   UNL     1       6.998   9.093   5.279  1.00  0.00     0.049 A 
ATOM     53  C   UNL     1       1.561  10.284   4.696  1.00  0.00     0.074 A 
ATOM     54  C   UNL     1       7.898  10.036   4.816  1.00  0.00     0.029 A 
ATOM     55  N   UNL     1       5.729   9.612   5.067  1.00  0.00    -0.354 N 
ATOM     56  N   UNL     1       2.864  10.145   4.752  1.00  0.00    -0.248 NA
ATOM     57  C   UNL     1       1.122  11.594   4.193  1.00  0.00     0.031 C 
ATOM     58  C   UNL     1       7.176  11.148   4.373  1.00  0.00     0.029 A 
ATOM     59  C   UNL     1       5.823  10.875   4.506  1.00  0.00     0.049 A 
ATOM     60  H   UNL     1       4.887   9.151   5.284  1.00  0.00     0.167 HD
ATOM     61  C   UNL     1       3.398  11.337   4.274  1.00  0.00     0.074 A 
ATOM     62  C   UNL     1       2.278  12.178   3.910  1.00  0.00     0.031 C 
ATOM     63  C   UNL     1       4.698  11.704   4.153  1.00  0.00     0.037 A 
BRANCH  50  64
ATOM     64  C   UNL     1       8.699   7.397   6.046  1.00  0.00     0.064 A 
ATOM     65  C   UNL     1       9.264   6.373   5.272  1.00  0.00     0.173 A 
ATOM     66  C   UNL     1       9.526   8.058   6.967  1.00  0.00     0.173 A 
ATOM     67  F   UNL     1       8.509   5.695   4.394  1.00  0.00    -0.203 F 
ATOM     68  C   UNL     1      10.602   6.017   5.423  1.00  0.00     0.198 A 
ATOM     69  C   UNL     1      10.870   7.719   7.093  1.00  0.00     0.198 A 
ATOM     70  F   UNL     1       9.034   9.042   7.734  1.00  0.00    -0.203 F 
ATOM     71  F   UNL     1      11.111   5.009   4.700  1.00  0.00    -0.200 F 
ATOM     72  C   UNL     1      11.406   6.697   6.325  1.00  0.00     0.200 A 
ATOM     73  F   UNL     1      11.648   8.385   7.958  1.00  0.00    -0.200 F 
ATOM     74  F   UNL     1      12.697   6.363   6.458  1.00  0.00    -0.200 F 
ENDBRANCH  50  64
BRANCH  51  75
ATOM     75  C   UNL     1      -0.956   9.650   4.884  1.00  0.00     0.064 A 
ATOM     76  C   UNL     1      -1.499   9.809   3.601  1.00  0.00     0.173 A 
ATOM     77  C   UNL     1      -1.808   9.853   5.980  1.00  0.00     0.173 A 
ATOM     78  F   UNL     1      -0.718   9.660   2.521  1.00  0.00    -0.203 F 
ATOM     79  C   UNL     1      -2.835  10.165   3.422  1.00  0.00     0.198 A 
ATOM     80  C   UNL     1      -3.151  10.180   5.800  1.00  0.00     0.198 A 
ATOM     81  F   UNL     1      -1.337   9.727   7.229  1.00  0.00    -0.203 F 
ATOM     82  F   UNL     1      -3.315  10.354   2.185  1.00  0.00    -0.200 F 
ATOM     83  C   UNL     1      -3.662  10.342   4.521  1.00  0.00     0.200 A 
ATOM     84  F   UNL     1      -3.948  10.342   6.864  1.00  0.00    -0.200 F 
ATOM     85  F   UNL     1      -4.947  10.677   4.348  1.00  0.00    -0.200 F 
ENDBRANCH  51  75
BRANCH  63  86
ATOM     86  C   UNL     1       4.987  13.070   3.595  1.00  0.00     0.064 A 
ATOM     87  C   UNL     1       4.710  14.235   4.326  1.00  0.00     0.173 A 
ATOM     88  C   UNL     1       5.596  13.215   2.338  1.00  0.00     0.173 A 
ATOM     89  F   UNL     1       4.120  14.154   5.528  1.00  0.00    -0.203 F 
ATOM     90  C   UNL     1       5.005  15.494   3.808  1.00  0.00     0.198 A 
ATOM     91  C   UNL     1       5.922  14.473   1.839  1.00  0.00     0.198 A 
ATOM     92  F   UNL     1       5.894  12.134   1.602  1.00  0.00    -0.203 F 
ATOM     93  F   UNL     1       4.686  16.594   4.503  1.00  0.00    -0.200 F 
ATOM     94  C   UNL     1       5.619  15.611   2.569  1.00  0.00     0.200 A 
ATOM     95  F   UNL     1       6.532  14.583   0.651  1.00  0.00    -0.200 F 
ATOM     96  F   UNL     1       5.912  16.823   2.078  1.00  0.00    -0.200 F 
ENDBRANCH  63  86
ENDBRANCH  37  38
ENDBRANCH  30  32
ENDBRANCH  29  30
ENDBRANCH  28  29
ENDBRANCH  27  28
ENDBRANCH  26  27
ENDBRANCH   1  26
TORSDOF 18
