REMARK SMILES Cc1nc[nH]c1C(=O)[NH+]1CCC2(CC1)C[C@@H](C(=O)OCCOCCOCCOC(=O)c1ccc(-c3c4nc(c(-c5c(F)c(F)c(F)c(F)c5F)c5ccc([nH]5)c(-c5c(F)c(F)c(F)c(F)c5F)c5nc(c(-c6c(F)c(F)c(F)c(F)c6F)c6ccc3[nH]6)C=C5)C=C4)cc1)N(C(=O)C1CC1)C2
REMARK SMILES IDX 23 1 22 2 21 3 20 4 19 5 17 6 18 7 16 8 9 9 10 10 14 11
REMARK SMILES IDX 11 13 13 14 12 15 15 16 100 17 94 18 7 19 8 20 6 21 1 22
REMARK SMILES IDX 2 23 3 24 4 25 5 26 95 28 96 29 97 30 98 31 99 32 24 33
REMARK SMILES IDX 25 34 26 35 27 36 28 37 29 38 30 39 31 40 32 41 93 42 33 43
REMARK SMILES IDX 92 44 34 45 35 46 36 47 86 48 37 49 91 50 85 51 87 52 38 53
REMARK SMILES IDX 90 54 84 55 83 56 39 58 71 59 51 60 70 61 52 62 55 63 69 64
REMARK SMILES IDX 88 65 53 66 54 67 68 69 89 70 56 71 40 72 41 73 49 74 42 75
REMARK SMILES IDX 43 76 47 77 50 78 44 79 45 80 48 81 46 82 72 83 73 84 81 85
REMARK SMILES IDX 74 86 75 87 79 88 82 89 76 90 77 91 80 92 78 93 57 94 58 95
REMARK SMILES IDX 66 96 59 97 60 98 64 99 67 100 61 101 62 102 65 103 63 104
REMARK H PARENT 9 12 5 27 87 57 55 68
REMARK Flexibility Score: inf
ROOT
ATOM      1  C   UNL     1       9.939  -2.604   0.747  1.00  0.00     0.188 C 
ENDROOT
BRANCH   1   2
ATOM      2  O   UNL     1      10.123  -1.643   1.780  1.00  0.00    -0.376 OA
BRANCH   2   3
ATOM      3  C   UNL     1       9.031  -1.291   2.621  1.00  0.00     0.202 C 
BRANCH   3   4
ATOM      4  C   UNL     1       7.722  -0.808   1.972  1.00  0.00     0.261 C 
BRANCH   4   5
ATOM      5  O   UNL     1       7.125  -1.723   1.025  1.00  0.00    -0.462 OA
BRANCH   5   6
ATOM      6  C   UNL     1       7.122  -1.330  -0.277  1.00  0.00     0.328 C 
ATOM      7  O   UNL     1       7.487  -0.220  -0.653  1.00  0.00    -0.250 OA
BRANCH   6   8
ATOM      8  C   UNL     1       6.541  -2.373  -1.273  1.00  0.00     0.195 C 
ATOM      9  N   UNL     1       1.418  -2.660  -0.046  1.00  0.00    -0.266 N 
ATOM     10  C   UNL     1       1.857  -3.638  -1.015  1.00  0.00     0.271 C 
ATOM     11  C   UNL     1       2.374  -2.313   0.996  1.00  0.00     0.271 C 
ATOM     12  H   UNL     1       2.210  -2.189   0.299  1.00  0.00     0.357 HD
ATOM     13  C   UNL     1       3.005  -3.009  -1.774  1.00  0.00     0.071 C 
ATOM     14  C   UNL     1       3.716  -1.846   0.424  1.00  0.00     0.071 C 
ATOM     15  C   UNL     1       4.166  -2.626  -0.832  1.00  0.00     0.001 C 
ATOM     16  C   UNL     1       5.186  -1.837  -1.690  1.00  0.00     0.046 C 
ATOM     17  C   UNL     1       4.905  -3.890  -0.378  1.00  0.00     0.128 C 
ATOM     18  N   UNL     1       6.221  -3.776  -0.931  1.00  0.00    -0.328 N 
BRANCH   9  19
ATOM     19  C   UNL     1       0.078  -2.334  -0.035  1.00  0.00     0.362 C 
ATOM     20  O   UNL     1      -0.774  -3.197  -0.253  1.00  0.00    -0.224 OA
BRANCH  19  21
ATOM     21  C   UNL     1      -0.310  -0.953   0.108  1.00  0.00     0.167 A 
ATOM     22  C   UNL     1       1.688   0.669  -0.377  1.00  0.00     0.069 C 
ATOM     23  C   UNL     1       0.304   0.285  -0.034  1.00  0.00     0.072 A 
ATOM     24  N   UNL     1      -0.614   1.304   0.110  1.00  0.00    -0.241 NA
ATOM     25  C   UNL     1      -1.774   0.717   0.262  1.00  0.00     0.197 A 
ATOM     26  N   UNL     1      -1.641  -0.634   0.278  1.00  0.00    -0.337 N 
ATOM     27  H   UNL     1      -2.375  -1.280   0.393  1.00  0.00     0.168 HD
ENDBRANCH  19  21
ENDBRANCH   9  19
BRANCH  18  28
ATOM     28  C   UNL     1       6.917  -4.854  -1.457  1.00  0.00     0.226 C 
ATOM     29  O   UNL     1       7.769  -4.697  -2.327  1.00  0.00    -0.275 OA
BRANCH  28  30
ATOM     30  C   UNL     1       6.765  -6.242  -0.899  1.00  0.00     0.079 C 
ATOM     31  C   UNL     1       5.694  -6.873  -0.047  1.00  0.00     0.014 C 
ATOM     32  C   UNL     1       5.761  -7.197  -1.511  1.00  0.00     0.014 C 
ENDBRANCH  28  30
ENDBRANCH  18  28
ENDBRANCH   6   8
ENDBRANCH   5   6
ENDBRANCH   4   5
ENDBRANCH   3   4
ENDBRANCH   2   3
ENDBRANCH   1   2
BRANCH   1  33
ATOM     33  C   UNL     1       9.006  -3.801   0.990  1.00  0.00     0.188 C 
BRANCH  33  34
ATOM     34  O   UNL     1       8.565  -3.946   2.316  1.00  0.00    -0.376 OA
BRANCH  34  35
ATOM     35  C   UNL     1       9.050  -5.037   3.067  1.00  0.00     0.202 C 
BRANCH  35  36
ATOM     36  C   UNL     1      10.551  -5.375   3.061  1.00  0.00     0.261 C 
BRANCH  36  37
ATOM     37  O   UNL     1      11.278  -5.190   1.833  1.00  0.00    -0.460 OA
BRANCH  37  38
ATOM     38  C   UNL     1      11.155  -6.137   0.875  1.00  0.00     0.338 C 
ATOM     39  O   UNL     1      10.476  -7.153   0.935  1.00  0.00    -0.246 OA
BRANCH  38  40
ATOM     40  C   UNL     1      11.798  -5.626  -0.361  1.00  0.00     0.060 A 
ATOM     41  C   UNL     1      11.018  -5.431  -1.510  1.00  0.00     0.016 A 
ATOM     42  C   UNL     1      13.159  -5.324  -0.387  1.00  0.00     0.016 A 
ATOM     43  C   UNL     1      11.596  -4.959  -2.692  1.00  0.00     0.010 A 
ATOM     44  C   UNL     1      13.745  -4.879  -1.579  1.00  0.00     0.010 A 
ATOM     45  C   UNL     1      12.973  -4.722  -2.747  1.00  0.00    -0.014 A 
BRANCH  45  46
ATOM     46  C   UNL     1      13.647  -4.499  -4.053  1.00  0.00     0.031 A 
ATOM     47  C   UNL     1      14.352  -5.661  -4.698  1.00  0.00     0.074 A 
ATOM     48  C   UNL     1      13.648  -3.298  -4.658  1.00  0.00     0.049 A 
ATOM     49  N   UNL     1      15.110  -5.693  -5.766  1.00  0.00    -0.248 NA
ATOM     50  C   UNL     1      14.185  -6.967  -4.041  1.00  0.00     0.031 C 
ATOM     51  C   UNL     1      12.960  -2.105  -4.172  1.00  0.00     0.029 A 
ATOM     52  N   UNL     1      14.270  -2.883  -5.811  1.00  0.00    -0.354 N 
ATOM     53  C   UNL     1      15.524  -7.012  -5.894  1.00  0.00     0.074 A 
ATOM     54  C   UNL     1      14.955  -7.746  -4.785  1.00  0.00     0.031 C 
ATOM     55  C   UNL     1      13.217  -1.084  -5.008  1.00  0.00     0.029 A 
ATOM     56  C   UNL     1      14.120  -1.542  -6.065  1.00  0.00     0.049 A 
ATOM     57  H   UNL     1      14.776  -3.490  -6.400  1.00  0.00     0.167 HD
ATOM     58  C   UNL     1      16.304  -7.563  -6.854  1.00  0.00     0.037 A 
ATOM     59  C   UNL     1      14.675  -0.767  -7.019  1.00  0.00     0.037 A 
ATOM     60  C   UNL     1      16.864  -6.834  -7.962  1.00  0.00     0.049 A 
ATOM     61  C   UNL     1      15.605  -1.389  -8.034  1.00  0.00     0.074 A 
ATOM     62  C   UNL     1      17.647  -7.309  -8.999  1.00  0.00     0.029 A 
ATOM     63  N   UNL     1      16.707  -5.471  -8.171  1.00  0.00    -0.354 N 
ATOM     64  N   UNL     1      15.980  -2.638  -8.162  1.00  0.00    -0.248 NA
ATOM     65  C   UNL     1      16.187  -0.488  -9.041  1.00  0.00     0.031 C 
ATOM     66  C   UNL     1      18.019  -6.224  -9.799  1.00  0.00     0.029 A 
ATOM     67  C   UNL     1      17.407  -5.084  -9.303  1.00  0.00     0.049 A 
ATOM     68  H   UNL     1      16.177  -4.869  -7.600  1.00  0.00     0.167 HD
ATOM     69  C   UNL     1      16.811  -2.679  -9.277  1.00  0.00     0.074 A 
ATOM     70  C   UNL     1      16.875  -1.331  -9.797  1.00  0.00     0.031 C 
ATOM     71  C   UNL     1      17.458  -3.740  -9.820  1.00  0.00     0.037 A 
BRANCH  58  72
ATOM     72  C   UNL     1      16.634  -9.023  -6.729  1.00  0.00     0.064 A 
ATOM     73  C   UNL     1      15.669 -10.023  -6.922  1.00  0.00     0.173 A 
ATOM     74  C   UNL     1      17.949  -9.427  -6.449  1.00  0.00     0.173 A 
ATOM     75  F   UNL     1      14.395  -9.691  -7.178  1.00  0.00    -0.203 F 
ATOM     76  C   UNL     1      16.002 -11.371  -6.812  1.00  0.00     0.198 A 
ATOM     77  C   UNL     1      18.286 -10.776  -6.375  1.00  0.00     0.198 A 
ATOM     78  F   UNL     1      18.913  -8.513  -6.260  1.00  0.00    -0.203 F 
ATOM     79  F   UNL     1      15.053 -12.307  -6.950  1.00  0.00    -0.200 F 
ATOM     80  C   UNL     1      17.311 -11.746  -6.548  1.00  0.00     0.200 A 
ATOM     81  F   UNL     1      19.554 -11.136  -6.135  1.00  0.00    -0.200 F 
ATOM     82  F   UNL     1      17.632 -13.044  -6.453  1.00  0.00    -0.200 F 
ENDBRANCH  58  72
BRANCH  59  83
ATOM     83  C   UNL     1      14.392   0.694  -7.052  1.00  0.00     0.064 A 
ATOM     84  C   UNL     1      13.676   1.271  -8.110  1.00  0.00     0.173 A 
ATOM     85  C   UNL     1      14.858   1.547  -6.040  1.00  0.00     0.173 A 
ATOM     86  F   UNL     1      13.238   0.504  -9.119  1.00  0.00    -0.203 F 
ATOM     87  C   UNL     1      13.455   2.646  -8.165  1.00  0.00     0.198 A 
ATOM     88  C   UNL     1      14.607   2.917  -6.079  1.00  0.00     0.198 A 
ATOM     89  F   UNL     1      15.557   1.049  -5.010  1.00  0.00    -0.203 F 
ATOM     90  F   UNL     1      12.817   3.178  -9.217  1.00  0.00    -0.200 F 
ATOM     91  C   UNL     1      13.914   3.467  -7.146  1.00  0.00     0.200 A 
ATOM     92  F   UNL     1      15.046   3.705  -5.088  1.00  0.00    -0.200 F 
ATOM     93  F   UNL     1      13.699   4.789  -7.199  1.00  0.00    -0.200 F 
ENDBRANCH  59  83
BRANCH  71  94
ATOM     94  C   UNL     1      18.258  -3.504 -11.072  1.00  0.00     0.064 A 
ATOM     95  C   UNL     1      19.454  -2.771 -11.062  1.00  0.00     0.173 A 
ATOM     96  C   UNL     1      17.845  -4.065 -12.292  1.00  0.00     0.173 A 
ATOM     97  F   UNL     1      19.890  -2.205  -9.927  1.00  0.00    -0.203 F 
ATOM     98  C   UNL     1      20.191  -2.586 -12.231  1.00  0.00     0.198 A 
ATOM     99  C   UNL     1      18.602  -3.907 -13.449  1.00  0.00     0.198 A 
ATOM    100  F   UNL     1      16.714  -4.784 -12.357  1.00  0.00    -0.203 F 
ATOM    101  F   UNL     1      21.303  -1.839 -12.207  1.00  0.00    -0.200 F 
ATOM    102  C   UNL     1      19.769  -3.160 -13.420  1.00  0.00     0.200 A 
ATOM    103  F   UNL     1      18.202  -4.480 -14.593  1.00  0.00    -0.200 F 
ATOM    104  F   UNL     1      20.485  -2.990 -14.540  1.00  0.00    -0.200 F 
ENDBRANCH  71  94
ENDBRANCH  45  46
ENDBRANCH  38  40
ENDBRANCH  37  38
ENDBRANCH  36  37
ENDBRANCH  35  36
ENDBRANCH  34  35
ENDBRANCH  33  34
ENDBRANCH   1  33
TORSDOF 21
