REMARK SMILES O=C(N/N=C/c1ccc(C(=O)OCCOCCOCCOC(=O)c2ccc(-c3c4nc(c(-c5c(F)c(F)c(F)c(F)c5F)c5ccc([nH]5)c(-c5c(F)c(F)c(F)c(F)c5F)c5nc(c(-c6c(F)c(F)c(F)c(F)c6F)c6ccc3[nH]6)C=C5)C=C4)cc2)cc1)C(=O)Nc1ccc2c(c1)OCO2
REMARK SMILES IDX 16 1 15 2 14 3 13 4 12 5 10 6 11 7 9 8 6 9 7 10 88 11 8 12
REMARK SMILES IDX 87 13 5 14 4 15 3 16 1 17 2 18 89 20 90 21 91 22 92 24 93 25
REMARK SMILES IDX 97 26 94 27 96 28 95 29 98 30 100 31 99 32 17 33 18 34 19 35
REMARK SMILES IDX 20 36 21 37 22 38 23 39 24 40 25 41 86 42 26 43 85 44 27 45
REMARK SMILES IDX 28 46 29 47 79 48 30 49 84 50 78 51 80 52 31 53 83 54 77 55
REMARK SMILES IDX 76 56 32 58 64 59 44 60 63 61 45 62 48 63 62 64 81 65 46 66
REMARK SMILES IDX 47 67 61 69 82 70 49 71 33 72 34 73 42 74 35 75 36 76 40 77
REMARK SMILES IDX 43 78 37 79 38 80 41 81 39 82 65 83 66 84 74 85 67 86 68 87
REMARK SMILES IDX 72 88 75 89 69 90 70 91 73 92 71 93 50 94 51 95 59 96 52 97
REMARK SMILES IDX 53 98 57 99 60 100 54 101 55 102 58 103 56 104
REMARK H PARENT 3 19 91 23 80 57 48 68
REMARK Flexibility Score: inf
ROOT
ATOM      1  C   UNL     1      12.108  -0.360  -1.645  1.00  0.00     0.188 C 
ENDROOT
BRANCH   1   2
ATOM      2  O   UNL     1      13.492  -0.267  -1.342  1.00  0.00    -0.376 OA
BRANCH   2   3
ATOM      3  C   UNL     1      13.966  -0.655  -0.056  1.00  0.00     0.202 C 
BRANCH   3   4
ATOM      4  C   UNL     1      13.271  -0.140   1.212  1.00  0.00     0.261 C 
BRANCH   4   5
ATOM      5  O   UNL     1      11.871  -0.455   1.266  1.00  0.00    -0.460 OA
BRANCH   5   6
ATOM      6  C   UNL     1      11.042   0.615   1.266  1.00  0.00     0.338 C 
ATOM      7  O   UNL     1      11.357   1.792   1.328  1.00  0.00    -0.246 OA
BRANCH   6   8
ATOM      8  C   UNL     1       9.656   0.196   0.985  1.00  0.00     0.060 A 
ATOM      9  C   UNL     1       6.636  -0.217   0.754  1.00  0.00    -0.005 A 
ATOM     10  C   UNL     1       7.518   0.684  -0.066  1.00  0.00     0.010 A 
ATOM     11  C   UNL     1       7.684  -1.153   1.336  1.00  0.00     0.010 A 
ATOM     12  C   UNL     1       8.904   0.937   0.099  1.00  0.00     0.016 A 
ATOM     13  C   UNL     1       9.082  -0.942   1.491  1.00  0.00     0.016 A 
BRANCH   9  14
ATOM     14  C   UNL     1       4.537  -0.051   1.143  1.00  0.00     0.141 C 
ATOM     15  N   UNL     1       3.412  -0.838   1.014  1.00  0.00    -0.180 NA
BRANCH  15  16
ATOM     16  N   UNL     1       2.278  -0.112   0.863  1.00  0.00    -0.239 N 
ATOM     17  O   UNL     1       1.014   1.348  -0.337  1.00  0.00    -0.262 OA
ATOM     18  C   UNL     1       1.978   0.585  -0.300  1.00  0.00     0.329 C 
ATOM     19  H   UNL     1       1.639  -0.077   1.610  1.00  0.00     0.194 HD
BRANCH  18  20
ATOM     20  C   UNL     1       2.776   0.326  -1.608  1.00  0.00     0.315 C 
ATOM     21  O   UNL     1       2.150  -0.036  -2.605  1.00  0.00    -0.263 OA
ATOM     22  N   UNL     1       4.143   0.596  -1.742  1.00  0.00    -0.318 N 
ATOM     23  H   UNL     1       4.462   1.016  -2.573  1.00  0.00     0.170 HD
BRANCH  22  24
ATOM     24  C   UNL     1       5.080   0.290  -0.739  1.00  0.00     0.045 A 
ATOM     25  C   UNL     1       5.432   1.628   0.483  1.00  0.00     0.030 A 
ATOM     26  C   UNL     1       5.169  -1.470  -0.242  1.00  0.00     0.076 A 
ATOM     27  C   UNL     1       5.820   1.176   2.221  1.00  0.00     0.053 A 
ATOM     28  C   UNL     1       5.389  -1.853   1.518  1.00  0.00     0.167 A 
ATOM     29  C   UNL     1       5.700  -0.550   2.714  1.00  0.00     0.165 A 
ATOM     30  O   UNL     1       5.196  -2.990   2.232  1.00  0.00    -0.454 OA
ATOM     31  O   UNL     1       5.693  -1.139   3.931  1.00  0.00    -0.454 OA
ATOM     32  C   UNL     1       5.126  -2.469   3.614  1.00  0.00     0.468 C 
ENDBRANCH  22  24
ENDBRANCH  18  20
ENDBRANCH  15  16
ENDBRANCH   9  14
ENDBRANCH   6   8
ENDBRANCH   5   6
ENDBRANCH   4   5
ENDBRANCH   3   4
ENDBRANCH   2   3
ENDBRANCH   1   2
BRANCH   1  33
ATOM     33  C   UNL     1      11.360  -1.694  -1.440  1.00  0.00     0.188 C 
BRANCH  33  34
ATOM     34  O   UNL     1      12.078  -2.693  -0.764  1.00  0.00    -0.376 OA
BRANCH  34  35
ATOM     35  C   UNL     1      12.837  -3.639  -1.499  1.00  0.00     0.202 C 
BRANCH  35  36
ATOM     36  C   UNL     1      13.256  -3.507  -2.981  1.00  0.00     0.261 C 
BRANCH  36  37
ATOM     37  O   UNL     1      12.775  -2.393  -3.740  1.00  0.00    -0.460 OA
BRANCH  37  38
ATOM     38  C   UNL     1      11.713  -2.632  -4.545  1.00  0.00     0.338 C 
ATOM     39  O   UNL     1      11.090  -3.672  -4.663  1.00  0.00    -0.246 OA
BRANCH  38  40
ATOM     40  C   UNL     1      11.285  -1.354  -5.151  1.00  0.00     0.060 A 
ATOM     41  C   UNL     1      10.025  -0.838  -4.818  1.00  0.00     0.016 A 
ATOM     42  C   UNL     1      12.104  -0.689  -6.064  1.00  0.00     0.016 A 
ATOM     43  C   UNL     1       9.569   0.335  -5.421  1.00  0.00     0.010 A 
ATOM     44  C   UNL     1      11.637   0.475  -6.682  1.00  0.00     0.010 A 
ATOM     45  C   UNL     1      10.357   0.978  -6.385  1.00  0.00    -0.014 A 
BRANCH  45  46
ATOM     46  C   UNL     1       9.785   2.076  -7.204  1.00  0.00     0.031 A 
ATOM     47  C   UNL     1       9.248   1.753  -8.570  1.00  0.00     0.074 A 
ATOM     48  C   UNL     1       9.741   3.340  -6.746  1.00  0.00     0.049 A 
ATOM     49  N   UNL     1       8.773   2.554  -9.490  1.00  0.00    -0.248 NA
ATOM     50  C   UNL     1       9.252   0.332  -8.951  1.00  0.00     0.031 C 
ATOM     51  C   UNL     1      10.192   3.778  -5.427  1.00  0.00     0.029 A 
ATOM     52  N   UNL     1       9.306   4.492  -7.355  1.00  0.00    -0.354 N 
ATOM     53  C   UNL     1       8.428   1.736 -10.559  1.00  0.00     0.074 A 
ATOM     54  C   UNL     1       8.774   0.382 -10.186  1.00  0.00     0.031 C 
ATOM     55  C   UNL     1      10.026   5.109  -5.332  1.00  0.00     0.029 A 
ATOM     56  C   UNL     1       9.491   5.620  -6.594  1.00  0.00     0.049 A 
ATOM     57  H   UNL     1       8.899   4.507  -8.251  1.00  0.00     0.167 HD
ATOM     58  C   UNL     1       7.867   2.083 -11.742  1.00  0.00     0.037 A 
ATOM     59  C   UNL     1       9.280   6.916  -6.895  1.00  0.00     0.037 A 
ATOM     60  C   UNL     1       7.529   3.431 -12.117  1.00  0.00     0.049 A 
ATOM     61  C   UNL     1       8.732   7.285  -8.252  1.00  0.00     0.074 A 
ATOM     62  C   UNL     1       6.943   3.880 -13.288  1.00  0.00     0.029 A 
ATOM     63  N   UNL     1       7.758   4.550 -11.331  1.00  0.00    -0.354 N 
ATOM     64  N   UNL     1       8.384   6.506  -9.247  1.00  0.00    -0.248 NA
ATOM     65  C   UNL     1       8.548   8.719  -8.525  1.00  0.00     0.031 C 
ATOM     66  C   UNL     1       6.868   5.275 -13.233  1.00  0.00     0.029 A 
ATOM     67  C   UNL     1       7.350   5.691 -12.003  1.00  0.00     0.049 A 
ATOM     68  H   UNL     1       8.151   4.535 -10.428  1.00  0.00     0.167 HD
ATOM     69  C   UNL     1       7.911   7.348 -10.247  1.00  0.00     0.074 A 
ATOM     70  C   UNL     1       8.006   8.698  -9.735  1.00  0.00     0.031 C 
ATOM     71  C   UNL     1       7.439   7.030 -11.478  1.00  0.00     0.037 A 
BRANCH  58  72
ATOM     72  C   UNL     1       7.610   0.985 -12.733  1.00  0.00     0.064 A 
ATOM     73  C   UNL     1       6.604   0.029 -12.531  1.00  0.00     0.173 A 
ATOM     74  C   UNL     1       8.359   0.909 -13.917  1.00  0.00     0.173 A 
ATOM     75  F   UNL     1       5.869   0.049 -11.408  1.00  0.00    -0.203 F 
ATOM     76  C   UNL     1       6.375  -0.979 -13.464  1.00  0.00     0.198 A 
ATOM     77  C   UNL     1       8.107  -0.082 -14.862  1.00  0.00     0.198 A 
ATOM     78  F   UNL     1       9.331   1.800 -14.161  1.00  0.00    -0.203 F 
ATOM     79  F   UNL     1       5.441  -1.911 -13.227  1.00  0.00    -0.200 F 
ATOM     80  C   UNL     1       7.121  -1.029 -14.632  1.00  0.00     0.200 A 
ATOM     81  F   UNL     1       8.822  -0.121 -15.996  1.00  0.00    -0.200 F 
ATOM     82  F   UNL     1       6.896  -1.995 -15.533  1.00  0.00    -0.200 F 
ENDBRANCH  58  72
BRANCH  59  83
ATOM     83  C   UNL     1       9.602   7.975  -5.901  1.00  0.00     0.064 A 
ATOM     84  C   UNL     1       8.589   8.744  -5.311  1.00  0.00     0.173 A 
ATOM     85  C   UNL     1      10.928   8.260  -5.544  1.00  0.00     0.173 A 
ATOM     86  F   UNL     1       7.307   8.530  -5.642  1.00  0.00    -0.203 F 
ATOM     87  C   UNL     1       8.892   9.771  -4.419  1.00  0.00     0.198 A 
ATOM     88  C   UNL     1      11.227   9.267  -4.629  1.00  0.00     0.198 A 
ATOM     89  F   UNL     1      11.935   7.557  -6.084  1.00  0.00    -0.203 F 
ATOM     90  F   UNL     1       7.907  10.525  -3.911  1.00  0.00    -0.200 F 
ATOM     91  C   UNL     1      10.210  10.028  -4.074  1.00  0.00     0.200 A 
ATOM     92  F   UNL     1      12.502   9.505  -4.291  1.00  0.00    -0.200 F 
ATOM     93  F   UNL     1      10.500  11.015  -3.216  1.00  0.00    -0.200 F 
ENDBRANCH  59  83
BRANCH  71  94
ATOM     94  C   UNL     1       6.944   8.154 -12.344  1.00  0.00     0.064 A 
ATOM     95  C   UNL     1       7.820   9.080 -12.928  1.00  0.00     0.173 A 
ATOM     96  C   UNL     1       5.575   8.278 -12.630  1.00  0.00     0.173 A 
ATOM     97  F   UNL     1       9.137   9.015 -12.677  1.00  0.00    -0.203 F 
ATOM     98  C   UNL     1       7.343  10.103 -13.745  1.00  0.00     0.198 A 
ATOM     99  C   UNL     1       5.104   9.282 -13.472  1.00  0.00     0.198 A 
ATOM    100  F   UNL     1       4.693   7.414 -12.105  1.00  0.00    -0.203 F 
ATOM    101  F   UNL     1       8.194  11.005 -14.253  1.00  0.00    -0.200 F 
ATOM    102  C   UNL     1       5.987  10.198 -14.022  1.00  0.00     0.200 A 
ATOM    103  F   UNL     1       3.796   9.362 -13.752  1.00  0.00    -0.200 F 
ATOM    104  F   UNL     1       5.531  11.178 -14.815  1.00  0.00    -0.200 F 
ENDBRANCH  71  94
ENDBRANCH  45  46
ENDBRANCH  38  40
ENDBRANCH  37  38
ENDBRANCH  36  37
ENDBRANCH  35  36
ENDBRANCH  34  35
ENDBRANCH  33  34
ENDBRANCH   1  33
TORSDOF 21
