REMARK SMILES COc1ccc(/C=C2/C(=O)N(c3ccccc3)C(=O)N=C2OCCOCCOCCOC(=O)c2ccc(-c3c4nc(c(-c5c(F)c(F)c(F)c(F)c5F)c5ccc([nH]5)c(-c5c(F)c(F)c(F)c(F)c5F)c5nc(c(-c6c(F)c(F)c(F)c(F)c6F)c6ccc3[nH]6)C=C5)C=C4)cc2)cc1C(=O)[O-]
REMARK SMILES IDX 27 1 26 2 25 3 24 4 23 5 22 6 21 7 7 8 8 9 9 10 10 11 11 12
REMARK SMILES IDX 20 13 18 14 19 15 6 16 3 17 4 18 98 19 5 20 97 21 2 22 1 23
REMARK SMILES IDX 99 24 100 25 101 26 12 27 13 28 17 29 14 30 16 31 15 32
REMARK SMILES IDX 28 33 29 34 30 35 31 36 32 37 33 38 34 39 35 40 96 41 36 42
REMARK SMILES IDX 95 43 37 44 38 45 39 46 89 47 40 48 94 49 88 50 90 51 41 52
REMARK SMILES IDX 93 53 87 54 86 55 42 57 74 58 54 59 73 60 55 61 58 62 72 63
REMARK SMILES IDX 91 64 56 65 57 66 71 68 92 69 59 70 43 71 44 72 52 73 45 74
REMARK SMILES IDX 46 75 50 76 53 77 47 78 48 79 51 80 49 81 75 82 76 83 84 84
REMARK SMILES IDX 77 85 78 86 82 87 85 88 79 89 80 90 83 91 81 92 60 93 61 94
REMARK SMILES IDX 69 95 62 96 63 97 67 98 70 99 64 100 65 101 68 102 66 103
REMARK H PARENT 90 56 58 67
REMARK Flexibility Score: inf
ROOT
ATOM      1  C   UNL     1      -0.986   6.698  -1.128  1.00  0.00     0.188 C 
ENDROOT
BRANCH   1   2
ATOM      2  C   UNL     1      -1.934   7.380  -2.135  1.00  0.00     0.188 C 
BRANCH   2   3
ATOM      3  O   UNL     1      -3.118   6.754  -2.582  1.00  0.00    -0.376 OA
BRANCH   3   4
ATOM      4  C   UNL     1      -3.073   5.478  -3.200  1.00  0.00     0.201 C 
BRANCH   4   5
ATOM      5  C   UNL     1      -2.142   5.240  -4.383  1.00  0.00     0.260 C 
BRANCH   5   6
ATOM      6  O   UNL     1      -0.753   5.316  -4.002  1.00  0.00    -0.475 OA
BRANCH   6   7
ATOM      7  C   UNL     1       0.003   6.324  -4.468  1.00  0.00     0.231 C 
ATOM      8  C   UNL     1       2.089   5.388  -3.289  1.00  0.00     0.027 C 
ATOM      9  C   UNL     1       1.381   6.345  -3.947  1.00  0.00     0.103 C 
ATOM     10  C   UNL     1       2.053   7.689  -4.118  1.00  0.00     0.272 C 
ATOM     11  O   UNL     1       3.183   7.890  -3.673  1.00  0.00    -0.268 OA
ATOM     12  N   UNL     1       1.276   8.664  -4.743  1.00  0.00    -0.226 N 
ATOM     13  N   UNL     1      -0.548   7.226  -5.188  1.00  0.00    -0.156 NA
ATOM     14  C   UNL     1       0.073   8.413  -5.404  1.00  0.00     0.358 C 
ATOM     15  O   UNL     1      -0.469   9.242  -6.132  1.00  0.00    -0.245 OA
BRANCH   8  16
ATOM     16  C   UNL     1       1.823   3.996  -2.813  1.00  0.00    -0.024 A 
ATOM     17  C   UNL     1       1.346   1.412  -1.694  1.00  0.00     0.127 A 
ATOM     18  C   UNL     1       0.535   1.918  -2.703  1.00  0.00     0.048 A 
ATOM     19  C   UNL     1       2.492   2.124  -1.345  1.00  0.00     0.040 A 
ATOM     20  C   UNL     1       0.818   3.157  -3.296  1.00  0.00     0.012 A 
ATOM     21  C   UNL     1       2.687   3.432  -1.850  1.00  0.00     0.022 A 
BRANCH  17  22
ATOM     22  O   UNL     1       0.982   0.186  -1.205  1.00  0.00    -0.496 OA
ATOM     23  C   UNL     1       0.698   0.211   0.195  1.00  0.00     0.278 C 
ENDBRANCH  17  22
BRANCH  19  24
ATOM     24  C   UNL     1       3.601   1.540  -0.546  1.00  0.00     0.075 C 
ATOM     25  O   UNL     1       4.386   2.150   0.130  1.00  0.00    -0.545 OA
ATOM     26  O   UNL     1       3.733   0.214  -0.767  1.00  0.00    -0.545 OA
ENDBRANCH  19  24
ENDBRANCH   8  16
BRANCH  12  27
ATOM     27  C   UNL     1       1.742  10.010  -4.783  1.00  0.00     0.054 A 
ATOM     28  C   UNL     1       1.019  11.009  -4.113  1.00  0.00     0.027 A 
ATOM     29  C   UNL     1       2.842  10.361  -5.566  1.00  0.00     0.027 A 
ATOM     30  C   UNL     1       1.403  12.346  -4.221  1.00  0.00     0.002 A 
ATOM     31  C   UNL     1       3.194  11.707  -5.706  1.00  0.00     0.002 A 
ATOM     32  C   UNL     1       2.477  12.697  -5.033  1.00  0.00     0.000 A 
ENDBRANCH  12  27
ENDBRANCH   6   7
ENDBRANCH   5   6
ENDBRANCH   4   5
ENDBRANCH   3   4
ENDBRANCH   2   3
ENDBRANCH   1   2
BRANCH   1  33
ATOM     33  O   UNL     1      -1.303   5.443  -0.571  1.00  0.00    -0.376 OA
BRANCH  33  34
ATOM     34  C   UNL     1      -2.498   5.268   0.171  1.00  0.00     0.202 C 
BRANCH  34  35
ATOM     35  C   UNL     1      -3.074   6.352   1.093  1.00  0.00     0.261 C 
BRANCH  35  36
ATOM     36  O   UNL     1      -3.089   7.686   0.565  1.00  0.00    -0.460 OA
BRANCH  36  37
ATOM     37  C   UNL     1      -2.290   8.575   1.208  1.00  0.00     0.338 C 
ATOM     38  O   UNL     1      -1.578   8.362   2.174  1.00  0.00    -0.246 OA
BRANCH  37  39
ATOM     39  C   UNL     1      -2.239   9.841   0.446  1.00  0.00     0.060 A 
ATOM     40  C   UNL     1      -0.984  10.327   0.052  1.00  0.00     0.016 A 
ATOM     41  C   UNL     1      -3.401  10.548   0.130  1.00  0.00     0.016 A 
ATOM     42  C   UNL     1      -0.887  11.539  -0.634  1.00  0.00     0.010 A 
ATOM     43  C   UNL     1      -3.300  11.775  -0.536  1.00  0.00     0.010 A 
ATOM     44  C   UNL     1      -2.043  12.289  -0.898  1.00  0.00    -0.014 A 
BRANCH  44  45
ATOM     45  C   UNL     1      -1.918  13.691  -1.370  1.00  0.00     0.031 A 
ATOM     46  C   UNL     1      -1.770  14.779  -0.342  1.00  0.00     0.074 A 
ATOM     47  C   UNL     1      -1.923  14.001  -2.678  1.00  0.00     0.049 A 
ATOM     48  N   UNL     1      -1.669  16.073  -0.506  1.00  0.00    -0.248 NA
ATOM     49  C   UNL     1      -1.749  14.344   1.063  1.00  0.00     0.031 C 
ATOM     50  C   UNL     1      -2.044  13.042  -3.771  1.00  0.00     0.029 A 
ATOM     51  N   UNL     1      -1.799  15.217  -3.307  1.00  0.00    -0.354 N 
ATOM     52  C   UNL     1      -1.597  16.609   0.773  1.00  0.00     0.074 A 
ATOM     53  C   UNL     1      -1.666  15.501   1.702  1.00  0.00     0.031 C 
ATOM     54  C   UNL     1      -1.943  13.700  -4.940  1.00  0.00     0.029 A 
ATOM     55  C   UNL     1      -1.810  15.133  -4.678  1.00  0.00     0.049 A 
ATOM     56  H   UNL     1      -1.712  16.068  -2.820  1.00  0.00     0.167 HD
ATOM     57  C   UNL     1      -1.500  17.908   1.143  1.00  0.00     0.037 A 
ATOM     58  C   UNL     1      -1.734  16.106  -5.609  1.00  0.00     0.037 A 
ATOM     59  C   UNL     1      -1.458  19.013   0.223  1.00  0.00     0.049 A 
ATOM     60  C   UNL     1      -1.656  17.550  -5.170  1.00  0.00     0.074 A 
ATOM     61  C   UNL     1      -1.382  20.366   0.503  1.00  0.00     0.029 A 
ATOM     62  N   UNL     1      -1.498  18.893  -1.158  1.00  0.00    -0.354 N 
ATOM     63  N   UNL     1      -1.580  18.049  -3.959  1.00  0.00    -0.248 NA
ATOM     64  C   UNL     1      -1.676  18.569  -6.231  1.00  0.00     0.031 C 
ATOM     65  C   UNL     1      -1.433  21.067  -0.706  1.00  0.00     0.029 A 
ATOM     66  C   UNL     1      -1.472  20.149  -1.743  1.00  0.00     0.049 A 
ATOM     67  H   UNL     1      -1.540  18.041  -1.650  1.00  0.00     0.167 HD
ATOM     68  C   UNL     1      -1.531  19.430  -4.114  1.00  0.00     0.074 A 
ATOM     69  C   UNL     1      -1.553  19.692  -5.537  1.00  0.00     0.031 C 
ATOM     70  C   UNL     1      -1.486  20.396  -3.163  1.00  0.00     0.037 A 
BRANCH  57  71
ATOM     71  C   UNL     1      -1.497  18.203   2.614  1.00  0.00     0.064 A 
ATOM     72  C   UNL     1      -0.402  17.883   3.431  1.00  0.00     0.173 A 
ATOM     73  C   UNL     1      -2.605  18.821   3.213  1.00  0.00     0.173 A 
ATOM     74  F   UNL     1       0.674  17.274   2.911  1.00  0.00    -0.203 F 
ATOM     75  C   UNL     1      -0.431  18.143   4.799  1.00  0.00     0.198 A 
ATOM     76  C   UNL     1      -2.618  19.108   4.575  1.00  0.00     0.198 A 
ATOM     77  F   UNL     1      -3.678  19.148   2.477  1.00  0.00    -0.203 F 
ATOM     78  F   UNL     1       0.602  17.777   5.571  1.00  0.00    -0.200 F 
ATOM     79  C   UNL     1      -1.535  18.760   5.369  1.00  0.00     0.200 A 
ATOM     80  F   UNL     1      -3.681  19.715   5.120  1.00  0.00    -0.200 F 
ATOM     81  F   UNL     1      -1.560  19.011   6.685  1.00  0.00    -0.200 F 
ENDBRANCH  57  71
BRANCH  58  82
ATOM     82  C   UNL     1      -1.744  15.765  -7.059  1.00  0.00     0.064 A 
ATOM     83  C   UNL     1      -0.632  16.037  -7.871  1.00  0.00     0.173 A 
ATOM     84  C   UNL     1      -2.873  15.206  -7.674  1.00  0.00     0.173 A 
ATOM     85  F   UNL     1       0.462  16.604  -7.340  1.00  0.00    -0.203 F 
ATOM     86  C   UNL     1      -0.659  15.784  -9.242  1.00  0.00     0.198 A 
ATOM     87  C   UNL     1      -2.886  14.920  -9.038  1.00  0.00     0.198 A 
ATOM     88  F   UNL     1      -3.971  14.941  -6.950  1.00  0.00    -0.203 F 
ATOM     89  F   UNL     1       0.393  16.117 -10.003  1.00  0.00    -0.200 F 
ATOM     90  C   UNL     1      -1.784  15.220  -9.823  1.00  0.00     0.200 A 
ATOM     91  F   UNL     1      -3.975  14.371  -9.595  1.00  0.00    -0.200 F 
ATOM     92  F   UNL     1      -1.812  14.983 -11.142  1.00  0.00    -0.200 F 
ENDBRANCH  58  82
BRANCH  70  93
ATOM     93  C   UNL     1      -1.427  21.828  -3.621  1.00  0.00     0.064 A 
ATOM     94  C   UNL     1      -2.532  22.461  -4.210  1.00  0.00     0.173 A 
ATOM     95  C   UNL     1      -0.269  22.593  -3.413  1.00  0.00     0.173 A 
ATOM     96  F   UNL     1      -3.661  21.774  -4.441  1.00  0.00    -0.203 F 
ATOM     97  C   UNL     1      -2.470  23.798  -4.597  1.00  0.00     0.198 A 
ATOM     98  C   UNL     1      -0.221  23.938  -3.771  1.00  0.00     0.198 A 
ATOM     99  F   UNL     1       0.814  22.041  -2.845  1.00  0.00    -0.203 F 
ATOM    100  F   UNL     1      -3.523  24.369  -5.199  1.00  0.00    -0.200 F 
ATOM    101  C   UNL     1      -1.319  24.538  -4.369  1.00  0.00     0.200 A 
ATOM    102  F   UNL     1       0.886  24.654  -3.534  1.00  0.00    -0.200 F 
ATOM    103  F   UNL     1      -1.266  25.827  -4.731  1.00  0.00    -0.200 F 
ENDBRANCH  70  93
ENDBRANCH  44  45
ENDBRANCH  37  39
ENDBRANCH  36  37
ENDBRANCH  35  36
ENDBRANCH  34  35
ENDBRANCH  33  34
ENDBRANCH   1  33
TORSDOF 20
