REMARK SMILES CN(C)S(=O)(=O)c1ccc(-n2c(CCC(=O)OCCOCCOCCOC(=O)c3ccc(-c4c5nc(c(-c6c(F)c(F)c(F)c(F)c6F)c6ccc([nH]6)c(-c6c(F)c(F)c(F)c(F)c6F)c6nc(c(-c7c(F)c(F)c(F)c(F)c7F)c7ccc4[nH]7)C=C6)C=C5)cc3)ccc2-c2ccc(F)cc2)cc1
REMARK SMILES IDX 20 1 19 2 18 3 17 4 15 5 16 6 14 7 13 8 12 9 11 10 94 11
REMARK SMILES IDX 92 12 93 13 10 14 7 15 8 16 103 17 9 18 102 19 4 20 5 21
REMARK SMILES IDX 6 22 2 23 1 24 3 25 95 26 96 27 101 28 97 29 100 30 98 31
REMARK SMILES IDX 99 32 21 33 22 34 23 35 24 36 25 37 26 38 27 39 28 40 29 41
REMARK SMILES IDX 30 42 91 43 31 44 90 45 32 46 33 47 34 48 84 49 35 50 89 51
REMARK SMILES IDX 83 52 85 53 36 54 88 55 82 56 81 57 37 59 69 60 49 61 68 62
REMARK SMILES IDX 50 63 53 64 67 65 86 66 51 67 52 68 66 70 87 71 54 72 38 73
REMARK SMILES IDX 39 74 47 75 40 76 41 77 45 78 48 79 42 80 43 81 46 82 44 83
REMARK SMILES IDX 70 84 71 85 79 86 72 87 73 88 77 89 80 90 74 91 75 92 78 93
REMARK SMILES IDX 76 94 55 95 56 96 64 97 57 98 58 99 62 100 65 101 59 102
REMARK SMILES IDX 60 103 63 104 61 105
REMARK H PARENT 85 58 53 69
REMARK Flexibility Score: inf
ROOT
ATOM      1  O   UNL     1       0.255  -5.035  -0.607  1.00  0.00    -0.376 OA
ENDROOT
BRANCH   1   2
ATOM      2  C   UNL     1       0.057  -5.453  -2.547  1.00  0.00     0.202 C 
BRANCH   2   3
ATOM      3  C   UNL     1       0.579  -6.793  -3.514  1.00  0.00     0.261 C 
BRANCH   3   4
ATOM      4  O   UNL     1       0.669  -8.133  -2.955  1.00  0.00    -0.463 OA
BRANCH   4   5
ATOM      5  C   UNL     1       1.903  -8.708  -2.908  1.00  0.00     0.306 C 
ATOM      6  O   UNL     1       2.808  -8.437  -3.691  1.00  0.00    -0.252 OA
BRANCH   5   7
ATOM      7  C   UNL     1       2.122  -9.657  -1.727  1.00  0.00     0.129 C 
BRANCH   7   8
ATOM      8  C   UNL     1       1.494  -9.361  -0.358  1.00  0.00     0.066 C 
BRANCH   8   9
ATOM      9  C   UNL     1       0.008  -9.315  -0.367  1.00  0.00     0.024 A 
ATOM     10  N   UNL     1      -0.769  -8.196  -0.676  1.00  0.00    -0.314 N 
ATOM     11  C   UNL     1      -2.105  -8.650  -0.780  1.00  0.00     0.053 A 
ATOM     12  C   UNL     1      -0.838 -10.354  -0.028  1.00  0.00     0.024 A 
ATOM     13  C   UNL     1      -2.150  -9.942  -0.285  1.00  0.00     0.029 A 
BRANCH  10  14
ATOM     14  C   UNL     1      -0.304  -6.851  -0.926  1.00  0.00     0.046 A 
ATOM     15  C   UNL     1       0.567  -3.400  -1.600  1.00  0.00     0.082 A 
ATOM     16  C   UNL     1      -1.126  -3.860  -1.306  1.00  0.00     0.024 A 
ATOM     17  C   UNL     1       1.867  -4.647  -1.645  1.00  0.00     0.024 A 
ATOM     18  C   UNL     1      -1.560  -5.557  -0.934  1.00  0.00     0.028 A 
ATOM     19  C   UNL     1       1.448  -6.385  -1.267  1.00  0.00     0.028 A 
BRANCH  15  20
ATOM     20  S   UNL     1       0.984  -1.686  -1.672  1.00  0.00     0.242 S 
ATOM     21  O   UNL     1       0.196  -1.099  -2.733  1.00  0.00    -0.207 OA
ATOM     22  O   UNL     1       2.432  -1.625  -1.695  1.00  0.00    -0.207 OA
BRANCH  20  23
ATOM     23  N   UNL     1       0.480  -0.976  -0.175  1.00  0.00    -0.204 NA
ATOM     24  C   UNL     1       1.107   0.359   0.040  1.00  0.00     0.124 C 
ATOM     25  C   UNL     1      -0.982  -0.893   0.065  1.00  0.00     0.124 C 
ENDBRANCH  20  23
ENDBRANCH  15  20
ENDBRANCH  10  14
BRANCH  11  26
ATOM     26  C   UNL     1      -3.254  -7.938  -1.362  1.00  0.00    -0.001 A 
ATOM     27  C   UNL     1      -4.391  -7.676  -0.578  1.00  0.00     0.013 A 
ATOM     28  C   UNL     1      -3.221  -7.476  -2.688  1.00  0.00     0.013 A 
ATOM     29  C   UNL     1      -5.435  -6.897  -1.085  1.00  0.00     0.040 A 
ATOM     30  C   UNL     1      -4.258  -6.682  -3.187  1.00  0.00     0.040 A 
ATOM     31  C   UNL     1      -5.349  -6.392  -2.378  1.00  0.00     0.123 A 
ATOM     32  F   UNL     1      -6.328  -5.605  -2.845  1.00  0.00    -0.207 F 
ENDBRANCH  11  26
ENDBRANCH   8   9
ENDBRANCH   7   8
ENDBRANCH   5   7
ENDBRANCH   4   5
ENDBRANCH   3   4
ENDBRANCH   2   3
ENDBRANCH   1   2
BRANCH   1  33
ATOM     33  C   UNL     1       1.098  -5.116   0.677  1.00  0.00     0.188 C 
BRANCH  33  34
ATOM     34  C   UNL     1       0.529  -6.087   1.731  1.00  0.00     0.188 C 
BRANCH  34  35
ATOM     35  O   UNL     1      -0.862  -6.000   2.059  1.00  0.00    -0.376 OA
BRANCH  35  36
ATOM     36  C   UNL     1      -1.506  -4.731   1.998  1.00  0.00     0.202 C 
BRANCH  36  37
ATOM     37  C   UNL     1      -1.479  -3.932   3.277  1.00  0.00     0.261 C 
BRANCH  37  38
ATOM     38  O   UNL     1      -0.124  -3.671   3.571  1.00  0.00    -0.460 OA
BRANCH  38  39
ATOM     39  C   UNL     1       0.421  -4.640   4.341  1.00  0.00     0.338 C 
ATOM     40  O   UNL     1      -0.106  -5.626   4.804  1.00  0.00    -0.246 OA
BRANCH  39  41
ATOM     41  C   UNL     1       1.810  -4.217   4.622  1.00  0.00     0.060 A 
ATOM     42  C   UNL     1       2.446  -5.209   5.375  1.00  0.00     0.016 A 
ATOM     43  C   UNL     1       1.777  -2.877   5.026  1.00  0.00     0.016 A 
ATOM     44  C   UNL     1       2.569  -4.972   6.720  1.00  0.00     0.010 A 
ATOM     45  C   UNL     1       1.791  -2.646   6.375  1.00  0.00     0.010 A 
ATOM     46  C   UNL     1       2.192  -3.707   7.204  1.00  0.00    -0.014 A 
BRANCH  46  47
ATOM     47  C   UNL     1       2.736  -3.339   8.500  1.00  0.00     0.031 A 
ATOM     48  C   UNL     1       4.220  -2.849   8.212  1.00  0.00     0.074 A 
ATOM     49  C   UNL     1       1.861  -3.496   9.549  1.00  0.00     0.049 A 
ATOM     50  N   UNL     1       5.184  -2.543   9.020  1.00  0.00    -0.248 NA
ATOM     51  C   UNL     1       4.696  -2.651   6.787  1.00  0.00     0.031 C 
ATOM     52  C   UNL     1       0.440  -3.940   9.486  1.00  0.00     0.029 A 
ATOM     53  N   UNL     1       1.986  -3.313  10.903  1.00  0.00    -0.354 N 
ATOM     54  C   UNL     1       6.185  -1.884   8.255  1.00  0.00     0.074 A 
ATOM     55  C   UNL     1       5.882  -2.063   6.883  1.00  0.00     0.031 C 
ATOM     56  C   UNL     1      -0.095  -4.093  10.728  1.00  0.00     0.029 A 
ATOM     57  C   UNL     1       0.892  -3.737  11.728  1.00  0.00     0.049 A 
ATOM     58  H   UNL     1       2.794  -2.907  11.293  1.00  0.00     0.167 HD
ATOM     59  C   UNL     1       7.105  -1.063   8.822  1.00  0.00     0.037 A 
ATOM     60  C   UNL     1       0.862  -3.834  13.107  1.00  0.00     0.037 A 
ATOM     61  C   UNL     1       7.014  -1.184  10.227  1.00  0.00     0.049 A 
ATOM     62  C   UNL     1       2.128  -3.203  13.483  1.00  0.00     0.074 A 
ATOM     63  C   UNL     1       7.532  -2.071  11.127  1.00  0.00     0.029 A 
ATOM     64  N   UNL     1       6.024  -0.449  10.819  1.00  0.00    -0.354 N 
ATOM     65  N   UNL     1       2.370  -1.936  13.382  1.00  0.00    -0.248 NA
ATOM     66  C   UNL     1       3.260  -4.103  13.650  1.00  0.00     0.031 C 
ATOM     67  C   UNL     1       6.699  -1.962  12.259  1.00  0.00     0.029 A 
ATOM     68  C   UNL     1       5.627  -1.127  11.938  1.00  0.00     0.049 A 
ATOM     69  H   UNL     1       5.663   0.409  10.498  1.00  0.00     0.167 HD
ATOM     70  C   UNL     1       3.724  -1.898  13.147  1.00  0.00     0.074 A 
ATOM     71  C   UNL     1       4.235  -3.241  13.404  1.00  0.00     0.031 C 
ATOM     72  C   UNL     1       4.283  -0.918  12.394  1.00  0.00     0.037 A 
BRANCH  59  73
ATOM     73  C   UNL     1       7.920   0.083   8.289  1.00  0.00     0.064 A 
ATOM     74  C   UNL     1       8.961   0.568   9.119  1.00  0.00     0.173 A 
ATOM     75  C   UNL     1       7.454   0.962   7.302  1.00  0.00     0.173 A 
ATOM     76  F   UNL     1       9.520  -0.223  10.049  1.00  0.00    -0.203 F 
ATOM     77  C   UNL     1       9.365   1.898   9.094  1.00  0.00     0.198 A 
ATOM     78  C   UNL     1       7.912   2.283   7.237  1.00  0.00     0.198 A 
ATOM     79  F   UNL     1       6.475   0.605   6.460  1.00  0.00    -0.203 F 
ATOM     80  F   UNL     1      10.214   2.354  10.026  1.00  0.00    -0.200 F 
ATOM     81  C   UNL     1       8.824   2.763   8.165  1.00  0.00     0.200 A 
ATOM     82  F   UNL     1       7.399   3.120   6.324  1.00  0.00    -0.200 F 
ATOM     83  F   UNL     1       9.153   4.062   8.184  1.00  0.00    -0.200 F 
ENDBRANCH  59  73
BRANCH  60  84
ATOM     84  C   UNL     1       0.089  -4.439  14.270  1.00  0.00     0.064 A 
ATOM     85  C   UNL     1      -1.212  -4.945  14.239  1.00  0.00     0.173 A 
ATOM     86  C   UNL     1       0.743  -4.613  15.537  1.00  0.00     0.173 A 
ATOM     87  F   UNL     1      -1.985  -4.758  13.162  1.00  0.00    -0.203 F 
ATOM     88  C   UNL     1      -1.762  -5.656  15.335  1.00  0.00     0.198 A 
ATOM     89  C   UNL     1       0.228  -5.368  16.591  1.00  0.00     0.198 A 
ATOM     90  F   UNL     1       1.933  -4.055  15.802  1.00  0.00    -0.203 F 
ATOM     91  F   UNL     1      -3.019  -6.118  15.268  1.00  0.00    -0.200 F 
ATOM     92  C   UNL     1      -1.027  -5.906  16.486  1.00  0.00     0.200 A 
ATOM     93  F   UNL     1       0.972  -5.577  17.688  1.00  0.00    -0.200 F 
ATOM     94  F   UNL     1      -1.525  -6.646  17.486  1.00  0.00    -0.200 F 
ENDBRANCH  60  84
BRANCH  72  95
ATOM     95  C   UNL     1       3.284   0.101  11.840  1.00  0.00     0.064 A 
ATOM     96  C   UNL     1       2.680   1.037  12.688  1.00  0.00     0.173 A 
ATOM     97  C   UNL     1       2.803   0.088  10.511  1.00  0.00     0.173 A 
ATOM     98  F   UNL     1       3.085   1.135  13.962  1.00  0.00    -0.203 F 
ATOM     99  C   UNL     1       1.658   1.887  12.243  1.00  0.00     0.198 A 
ATOM    100  C   UNL     1       1.775   0.927  10.065  1.00  0.00     0.198 A 
ATOM    101  F   UNL     1       3.348  -0.715   9.597  1.00  0.00    -0.203 F 
ATOM    102  F   UNL     1       1.118   2.777  13.087  1.00  0.00    -0.200 F 
ATOM    103  C   UNL     1       1.199   1.827  10.936  1.00  0.00     0.200 A 
ATOM    104  F   UNL     1       1.361   0.870   8.788  1.00  0.00    -0.200 F 
ATOM    105  F   UNL     1       0.227   2.650  10.514  1.00  0.00    -0.200 F 
ENDBRANCH  72  95
ENDBRANCH  46  47
ENDBRANCH  39  41
ENDBRANCH  38  39
ENDBRANCH  37  38
ENDBRANCH  36  37
ENDBRANCH  35  36
ENDBRANCH  34  35
ENDBRANCH  33  34
ENDBRANCH   1  33
TORSDOF 23
