REMARK SMILES Nc1cc(C(=O)OCCOCCOCCOC(=O)c2ccc(-c3c4nc(c(-c5c(F)c(F)c(F)c(F)c5F)c5ccc([nH]5)c(-c5c(F)c(F)c(F)c(F)c5F)c5nc(c(-c6c(F)c(F)c(F)c(F)c6F)c6ccc3[nH]6)C=C5)C=C4)cc2)nc2ccc(F)cc12
REMARK SMILES IDX 12 1 11 2 10 3 9 4 8 5 7 6 5 7 6 8 4 9 2 10 3 11 89 12 83 13
REMARK SMILES IDX 88 14 82 15 84 16 86 17 85 18 87 19 1 20 13 23 14 24 15 25
REMARK SMILES IDX 16 26 17 27 18 28 19 29 20 30 81 31 21 32 80 33 22 34 23 35
REMARK SMILES IDX 24 36 74 37 25 38 79 39 73 40 75 41 26 42 78 43 72 44 71 45
REMARK SMILES IDX 27 47 59 48 39 49 58 50 40 51 43 52 57 53 76 54 41 55 42 56
REMARK SMILES IDX 56 58 77 59 44 60 28 61 29 62 37 63 30 64 31 65 35 66 38 67
REMARK SMILES IDX 32 68 33 69 36 70 34 71 60 72 61 73 69 74 62 75 63 76 67 77
REMARK SMILES IDX 70 78 64 79 65 80 68 81 66 82 45 83 46 84 54 85 47 86 48 87
REMARK SMILES IDX 52 88 55 89 49 90 50 91 53 92 51 93
REMARK H PARENT 1 21 1 22 75 46 43 57
REMARK Flexibility Score: inf
ROOT
ATOM      1  C   UNL     1      -0.634  -4.522  -2.489  1.00  0.00     0.188 C 
ENDROOT
BRANCH   1   2
ATOM      2  C   UNL     1      -0.764  -4.587  -4.025  1.00  0.00     0.188 C 
BRANCH   2   3
ATOM      3  O   UNL     1      -0.074  -5.580  -4.752  1.00  0.00    -0.376 OA
BRANCH   3   4
ATOM      4  C   UNL     1       1.343  -5.585  -4.810  1.00  0.00     0.202 C 
BRANCH   4   5
ATOM      5  C   UNL     1       2.215  -4.324  -4.711  1.00  0.00     0.261 C 
BRANCH   5   6
ATOM      6  O   UNL     1       1.784  -3.328  -3.776  1.00  0.00    -0.459 OA
BRANCH   6   7
ATOM      7  C   UNL     1       1.393  -2.147  -4.332  1.00  0.00     0.357 C 
ATOM      8  O   UNL     1       1.432  -1.856  -5.517  1.00  0.00    -0.244 OA
BRANCH   7   9
ATOM      9  C   UNL     1       0.734  -1.307  -3.295  1.00  0.00     0.151 A 
ATOM     10  C   UNL     1       0.667  -0.286  -1.141  1.00  0.00     0.043 A 
ATOM     11  C   UNL     1       1.336  -1.081  -2.071  1.00  0.00     0.062 A 
ATOM     12  C   UNL     1      -0.566   0.314  -1.508  1.00  0.00     0.026 A 
ATOM     13  C   UNL     1      -1.117  -0.032  -2.765  1.00  0.00     0.073 A 
ATOM     14  C   UNL     1      -1.271   1.235  -0.697  1.00  0.00     0.051 A 
ATOM     15  N   UNL     1      -0.490  -0.829  -3.635  1.00  0.00    -0.241 NA
ATOM     16  C   UNL     1      -2.357   0.479  -3.131  1.00  0.00     0.032 A 
ATOM     17  C   UNL     1      -2.492   1.754  -1.110  1.00  0.00     0.124 A 
ATOM     18  C   UNL     1      -3.053   1.370  -2.314  1.00  0.00     0.041 A 
ATOM     19  F   UNL     1      -3.131   2.638  -0.333  1.00  0.00    -0.207 F 
BRANCH  10  20
ATOM     20  N   UNL     1       1.300  -0.010   0.072  1.00  0.00    -0.398 N 
ATOM     21  H   UNL     1       2.155  -0.446   0.292  1.00  0.00     0.156 HD
ATOM     22  H   UNL     1       0.891   0.621   0.708  1.00  0.00     0.156 HD
ENDBRANCH  10  20
ENDBRANCH   7   9
ENDBRANCH   6   7
ENDBRANCH   5   6
ENDBRANCH   4   5
ENDBRANCH   3   4
ENDBRANCH   2   3
ENDBRANCH   1   2
BRANCH   1  23
ATOM     23  O   UNL     1       0.325  -5.312  -1.821  1.00  0.00    -0.376 OA
BRANCH  23  24
ATOM     24  C   UNL     1       0.201  -6.726  -1.798  1.00  0.00     0.202 C 
BRANCH  24  25
ATOM     25  C   UNL     1      -1.135  -7.485  -1.865  1.00  0.00     0.261 C 
BRANCH  25  26
ATOM     26  O   UNL     1      -2.154  -6.929  -2.701  1.00  0.00    -0.460 OA
BRANCH  26  27
ATOM     27  C   UNL     1      -3.240  -6.440  -2.044  1.00  0.00     0.338 C 
ATOM     28  O   UNL     1      -3.434  -6.408  -0.849  1.00  0.00    -0.246 OA
BRANCH  27  29
ATOM     29  C   UNL     1      -4.102  -5.756  -3.028  1.00  0.00     0.060 A 
ATOM     30  C   UNL     1      -4.722  -6.479  -4.046  1.00  0.00     0.016 A 
ATOM     31  C   UNL     1      -4.281  -4.370  -2.921  1.00  0.00     0.016 A 
ATOM     32  C   UNL     1      -5.539  -5.808  -4.957  1.00  0.00     0.010 A 
ATOM     33  C   UNL     1      -5.081  -3.699  -3.845  1.00  0.00     0.010 A 
ATOM     34  C   UNL     1      -5.732  -4.417  -4.857  1.00  0.00    -0.014 A 
BRANCH  34  35
ATOM     35  C   UNL     1      -6.747  -3.749  -5.707  1.00  0.00     0.031 A 
ATOM     36  C   UNL     1      -6.371  -2.936  -6.906  1.00  0.00     0.074 A 
ATOM     37  C   UNL     1      -8.040  -3.889  -5.364  1.00  0.00     0.049 A 
ATOM     38  N   UNL     1      -7.154  -2.364  -7.787  1.00  0.00    -0.248 NA
ATOM     39  C   UNL     1      -4.937  -2.730  -7.148  1.00  0.00     0.031 C 
ATOM     40  C   UNL     1      -8.517  -4.634  -4.199  1.00  0.00     0.029 A 
ATOM     41  N   UNL     1      -9.185  -3.428  -5.961  1.00  0.00    -0.354 N 
ATOM     42  C   UNL     1      -6.313  -1.757  -8.707  1.00  0.00     0.074 A 
ATOM     43  C   UNL     1      -4.957  -1.981  -8.245  1.00  0.00     0.031 C 
ATOM     44  C   UNL     1      -9.858  -4.609  -4.185  1.00  0.00     0.029 A 
ATOM     45  C   UNL     1     -10.332  -3.825  -5.321  1.00  0.00     0.049 A 
ATOM     46  H   UNL     1      -9.184  -2.866  -6.770  1.00  0.00     0.167 HD
ATOM     47  C   UNL     1      -6.647  -1.094  -9.842  1.00  0.00     0.037 A 
ATOM     48  C   UNL     1     -11.624  -3.593  -5.620  1.00  0.00     0.037 A 
ATOM     49  C   UNL     1      -8.002  -0.850 -10.277  1.00  0.00     0.049 A 
ATOM     50  C   UNL     1     -11.964  -2.802  -6.851  1.00  0.00     0.074 A 
ATOM     51  C   UNL     1      -8.436  -0.205 -11.424  1.00  0.00     0.029 A 
ATOM     52  N   UNL     1      -9.142  -1.224  -9.579  1.00  0.00    -0.354 N 
ATOM     53  N   UNL     1     -11.163  -2.292  -7.754  1.00  0.00    -0.248 NA
ATOM     54  C   UNL     1     -13.390  -2.562  -7.108  1.00  0.00     0.031 C 
ATOM     55  C   UNL     1      -9.833  -0.138 -11.390  1.00  0.00     0.029 A 
ATOM     56  C   UNL     1     -10.277  -0.797 -10.256  1.00  0.00     0.049 A 
ATOM     57  H   UNL     1      -9.146  -1.720  -8.729  1.00  0.00     0.167 HD
ATOM     58  C   UNL     1     -11.985  -1.694  -8.699  1.00  0.00     0.074 A 
ATOM     59  C   UNL     1     -13.349  -1.919  -8.268  1.00  0.00     0.031 C 
ATOM     60  C   UNL     1     -11.634  -1.020  -9.822  1.00  0.00     0.037 A 
BRANCH  47  61
ATOM     61  C   UNL     1      -5.530  -0.588 -10.711  1.00  0.00     0.064 A 
ATOM     62  C   UNL     1      -4.717  -1.471 -11.440  1.00  0.00     0.173 A 
ATOM     63  C   UNL     1      -5.323   0.788 -10.889  1.00  0.00     0.173 A 
ATOM     64  F   UNL     1      -4.874  -2.797 -11.309  1.00  0.00    -0.203 F 
ATOM     65  C   UNL     1      -3.727  -0.995 -12.296  1.00  0.00     0.198 A 
ATOM     66  C   UNL     1      -4.353   1.261 -11.770  1.00  0.00     0.198 A 
ATOM     67  F   UNL     1      -6.082   1.678 -10.230  1.00  0.00    -0.203 F 
ATOM     68  F   UNL     1      -2.944  -1.858 -12.958  1.00  0.00    -0.200 F 
ATOM     69  C   UNL     1      -3.553   0.370 -12.468  1.00  0.00     0.200 A 
ATOM     70  F   UNL     1      -4.201   2.580 -11.952  1.00  0.00    -0.200 F 
ATOM     71  F   UNL     1      -2.614   0.827 -13.309  1.00  0.00    -0.200 F 
ENDBRANCH  47  61
BRANCH  48  72
ATOM     72  C   UNL     1     -12.683  -4.172  -4.757  1.00  0.00     0.064 A 
ATOM     73  C   UNL     1     -13.489  -5.221  -5.218  1.00  0.00     0.173 A 
ATOM     74  C   UNL     1     -12.881  -3.724  -3.442  1.00  0.00     0.173 A 
ATOM     75  F   UNL     1     -13.347  -5.672  -6.474  1.00  0.00    -0.203 F 
ATOM     76  C   UNL     1     -14.456  -5.798  -4.399  1.00  0.00     0.198 A 
ATOM     77  C   UNL     1     -13.829  -4.321  -2.615  1.00  0.00     0.198 A 
ATOM     78  F   UNL     1     -12.130  -2.726  -2.953  1.00  0.00    -0.203 F 
ATOM     79  F   UNL     1     -15.233  -6.781  -4.874  1.00  0.00    -0.200 F 
ATOM     80  C   UNL     1     -14.618  -5.354  -3.095  1.00  0.00     0.200 A 
ATOM     81  F   UNL     1     -13.969  -3.902  -1.350  1.00  0.00    -0.200 F 
ATOM     82  F   UNL     1     -15.537  -5.923  -2.302  1.00  0.00    -0.200 F 
ENDBRANCH  48  72
BRANCH  60  83
ATOM     83  C   UNL     1     -12.744  -0.486 -10.686  1.00  0.00     0.064 A 
ATOM     84  C   UNL     1     -13.546   0.589 -10.274  1.00  0.00     0.173 A 
ATOM     85  C   UNL     1     -12.973  -1.021 -11.964  1.00  0.00     0.173 A 
ATOM     86  F   UNL     1     -13.381   1.127  -9.057  1.00  0.00    -0.203 F 
ATOM     87  C   UNL     1     -14.549   1.093 -11.100  1.00  0.00     0.198 A 
ATOM     88  C   UNL     1     -13.953  -0.492 -12.800  1.00  0.00     0.198 A 
ATOM     89  F   UNL     1     -12.231  -2.046 -12.411  1.00  0.00    -0.203 F 
ATOM     90  F   UNL     1     -15.332   2.090 -10.666  1.00  0.00    -0.200 F 
ATOM     91  C   UNL     1     -14.744   0.560 -12.365  1.00  0.00     0.200 A 
ATOM     92  F   UNL     1     -14.129  -0.999 -14.028  1.00  0.00    -0.200 F 
ATOM     93  F   UNL     1     -15.699   1.056 -13.163  1.00  0.00    -0.200 F 
ENDBRANCH  60  83
ENDBRANCH  34  35
ENDBRANCH  27  29
ENDBRANCH  26  27
ENDBRANCH  25  26
ENDBRANCH  24  25
ENDBRANCH  23  24
ENDBRANCH   1  23
TORSDOF 18
