REMARK SMILES Cc1cccc(C[N@@H+](C)C[C@]2(C(=O)OCCOCCOCCOC(=O)c3ccc(-c4c5nc(c(-c6c(F)c(F)c(F)c(F)c6F)c6ccc([nH]6)c(-c6c(F)c(F)c(F)c(F)c6F)c6nc(c(-c7c(F)c(F)c(F)c(F)c7F)c7ccc4[nH]7)C=C6)C=C5)cc3)CCOC2)n1
REMARK SMILES IDX 18 1 17 2 16 3 15 4 14 5 12 6 13 7 11 8 89 9 92 10 90 11
REMARK SMILES IDX 91 12 10 13 8 14 9 15 7 17 6 18 1 19 2 20 3 21 93 22 4 23
REMARK SMILES IDX 5 24 19 25 20 26 21 27 22 28 23 29 24 30 25 31 26 32 27 33
REMARK SMILES IDX 88 34 28 35 87 36 29 37 30 38 31 39 81 40 32 41 86 42 80 43
REMARK SMILES IDX 82 44 33 45 85 46 79 47 78 48 34 50 66 51 46 52 65 53 47 54
REMARK SMILES IDX 50 55 64 56 83 57 48 58 49 59 63 61 84 62 51 63 35 64 36 65
REMARK SMILES IDX 44 66 37 67 38 68 42 69 45 70 39 71 40 72 43 73 41 74 67 75
REMARK SMILES IDX 68 76 76 77 69 78 70 79 74 80 77 81 71 82 72 83 75 84 73 85
REMARK SMILES IDX 52 86 53 87 61 88 54 89 55 90 59 91 62 92 56 93 57 94 60 95
REMARK SMILES IDX 58 96
REMARK H PARENT 8 16 82 49 50 60
REMARK Flexibility Score: inf
ROOT
ATOM      1  C   UNL     1      -4.140   4.003  -0.639  1.00  0.00     0.188 C 
ENDROOT
BRANCH   1   2
ATOM      2  O   UNL     1      -4.940   3.200  -1.500  1.00  0.00    -0.376 OA
BRANCH   2   3
ATOM      3  C   UNL     1      -4.810   1.793  -1.325  1.00  0.00     0.202 C 
BRANCH   3   4
ATOM      4  C   UNL     1      -5.634   1.320  -0.133  1.00  0.00     0.261 C 
BRANCH   4   5
ATOM      5  O   UNL     1      -4.998   1.728   1.095  1.00  0.00    -0.463 OA
BRANCH   5   6
ATOM      6  C   UNL     1      -4.199   0.818   1.704  1.00  0.00     0.320 C 
ATOM      7  O   UNL     1      -4.005  -0.315   1.284  1.00  0.00    -0.251 OA
BRANCH   6   8
ATOM      8  C   UNL     1      -3.576   1.366   2.971  1.00  0.00     0.142 C 
ATOM      9  C   UNL     1      -4.235   2.633   3.511  1.00  0.00     0.055 C 
ATOM     10  C   UNL     1      -3.987   0.397   4.094  1.00  0.00     0.185 C 
ATOM     11  C   UNL     1      -4.013   2.540   5.002  1.00  0.00     0.161 C 
ATOM     12  O   UNL     1      -4.018   1.146   5.321  1.00  0.00    -0.380 OA
BRANCH   8  13
ATOM     13  C   UNL     1      -2.019   1.368   2.889  1.00  0.00     0.283 C 
BRANCH  13  14
ATOM     14  N   UNL     1      -1.235   2.316   2.094  1.00  0.00    -0.331 N 
ATOM     15  C   UNL     1      -1.374   3.717   2.424  1.00  0.00     0.333 C 
ATOM     16  H   UNL     1      -0.324   2.046   2.466  1.00  0.00     0.348 HD
BRANCH  14  17
ATOM     17  C   UNL     1      -1.046   2.062   0.662  1.00  0.00     0.319 C 
BRANCH  17  18
ATOM     18  C   UNL     1      -0.362   0.754   0.304  1.00  0.00     0.095 A 
ATOM     19  C   UNL     1       3.082  -0.537   0.208  1.00  0.00     0.067 C 
ATOM     20  C   UNL     1       1.587  -0.498   0.130  1.00  0.00     0.038 A 
ATOM     21  C   UNL     1       0.880  -1.622  -0.283  1.00  0.00     0.023 A 
ATOM     22  N   UNL     1       0.990   0.685   0.414  1.00  0.00    -0.252 NA
ATOM     23  C   UNL     1      -0.497  -1.532  -0.414  1.00  0.00     0.004 A 
ATOM     24  C   UNL     1      -1.124  -0.327  -0.134  1.00  0.00     0.030 A 
ENDBRANCH  17  18
ENDBRANCH  14  17
ENDBRANCH  13  14
ENDBRANCH   8  13
ENDBRANCH   6   8
ENDBRANCH   5   6
ENDBRANCH   4   5
ENDBRANCH   3   4
ENDBRANCH   2   3
ENDBRANCH   1   2
BRANCH   1  25
ATOM     25  C   UNL     1      -4.968   5.003   0.177  1.00  0.00     0.188 C 
BRANCH  25  26
ATOM     26  O   UNL     1      -6.126   5.553  -0.439  1.00  0.00    -0.376 OA
BRANCH  26  27
ATOM     27  C   UNL     1      -6.005   6.007  -1.785  1.00  0.00     0.202 C 
BRANCH  27  28
ATOM     28  C   UNL     1      -5.085   7.212  -1.966  1.00  0.00     0.261 C 
BRANCH  28  29
ATOM     29  O   UNL     1      -3.698   6.831  -1.859  1.00  0.00    -0.460 OA
BRANCH  29  30
ATOM     30  C   UNL     1      -2.900   7.763  -1.293  1.00  0.00     0.338 C 
ATOM     31  O   UNL     1      -3.220   8.862  -0.875  1.00  0.00    -0.246 OA
BRANCH  30  32
ATOM     32  C   UNL     1      -1.514   7.274  -1.210  1.00  0.00     0.060 A 
ATOM     33  C   UNL     1      -1.088   6.622  -0.050  1.00  0.00     0.016 A 
ATOM     34  C   UNL     1      -0.592   7.670  -2.181  1.00  0.00     0.016 A 
ATOM     35  C   UNL     1       0.279   6.421   0.168  1.00  0.00     0.010 A 
ATOM     36  C   UNL     1       0.774   7.451  -1.966  1.00  0.00     0.010 A 
ATOM     37  C   UNL     1       1.222   6.866  -0.769  1.00  0.00    -0.014 A 
BRANCH  37  38
ATOM     38  C   UNL     1       2.671   6.883  -0.425  1.00  0.00     0.031 A 
ATOM     39  C   UNL     1       3.325   8.193  -0.074  1.00  0.00     0.074 A 
ATOM     40  C   UNL     1       3.397   5.752  -0.368  1.00  0.00     0.049 A 
ATOM     41  N   UNL     1       4.590   8.472   0.116  1.00  0.00    -0.248 NA
ATOM     42  C   UNL     1       2.424   9.344   0.099  1.00  0.00     0.031 C 
ATOM     43  C   UNL     1       2.878   4.402  -0.565  1.00  0.00     0.029 A 
ATOM     44  N   UNL     1       4.737   5.567  -0.121  1.00  0.00    -0.354 N 
ATOM     45  C   UNL     1       4.641   9.831   0.401  1.00  0.00     0.074 A 
ATOM     46  C   UNL     1       3.279  10.322   0.359  1.00  0.00     0.031 C 
ATOM     47  C   UNL     1       3.887   3.525  -0.431  1.00  0.00     0.029 A 
ATOM     48  C   UNL     1       5.133   4.254  -0.203  1.00  0.00     0.049 A 
ATOM     49  H   UNL     1       5.353   6.304   0.093  1.00  0.00     0.167 HD
ATOM     50  C   UNL     1       5.722  10.601   0.669  1.00  0.00     0.037 A 
ATOM     51  C   UNL     1       6.365   3.710  -0.142  1.00  0.00     0.037 A 
ATOM     52  C   UNL     1       7.076  10.117   0.729  1.00  0.00     0.049 A 
ATOM     53  C   UNL     1       7.566   4.601   0.048  1.00  0.00     0.074 A 
ATOM     54  C   UNL     1       8.241  10.830   0.954  1.00  0.00     0.029 A 
ATOM     55  N   UNL     1       7.444   8.790   0.573  1.00  0.00    -0.354 N 
ATOM     56  N   UNL     1       7.618   5.896   0.242  1.00  0.00    -0.248 NA
ATOM     57  C   UNL     1       8.886   3.952   0.009  1.00  0.00     0.031 C 
ATOM     58  C   UNL     1       9.319   9.939   0.895  1.00  0.00     0.029 A 
ATOM     59  C   UNL     1       8.820   8.665   0.677  1.00  0.00     0.049 A 
ATOM     60  H   UNL     1       6.820   8.046   0.411  1.00  0.00     0.167 HD
ATOM     61  C   UNL     1       8.965   6.212   0.368  1.00  0.00     0.074 A 
ATOM     62  C   UNL     1       9.700   4.972   0.243  1.00  0.00     0.031 C 
ATOM     63  C   UNL     1       9.541   7.423   0.564  1.00  0.00     0.037 A 
BRANCH  50  64
ATOM     64  C   UNL     1       5.486  12.069   0.861  1.00  0.00     0.064 A 
ATOM     65  C   UNL     1       4.907  12.580   2.032  1.00  0.00     0.173 A 
ATOM     66  C   UNL     1       5.854  12.979  -0.142  1.00  0.00     0.173 A 
ATOM     67  F   UNL     1       4.522  11.750   3.013  1.00  0.00    -0.203 F 
ATOM     68  C   UNL     1       4.680  13.947   2.179  1.00  0.00     0.198 A 
ATOM     69  C   UNL     1       5.649  14.345   0.018  1.00  0.00     0.198 A 
ATOM     70  F   UNL     1       6.415  12.540  -1.279  1.00  0.00    -0.203 F 
ATOM     71  F   UNL     1       4.082  14.410   3.285  1.00  0.00    -0.200 F 
ATOM     72  C   UNL     1       5.055  14.828   1.175  1.00  0.00     0.200 A 
ATOM     73  F   UNL     1       6.019  15.195  -0.949  1.00  0.00    -0.200 F 
ATOM     74  F   UNL     1       4.834  16.142   1.317  1.00  0.00    -0.200 F 
ENDBRANCH  50  64
BRANCH  51  75
ATOM     75  C   UNL     1       6.540   2.244  -0.320  1.00  0.00     0.064 A 
ATOM     76  C   UNL     1       6.993   1.436   0.731  1.00  0.00     0.173 A 
ATOM     77  C   UNL     1       6.295   1.630  -1.558  1.00  0.00     0.173 A 
ATOM     78  F   UNL     1       7.279   1.983   1.922  1.00  0.00    -0.203 F 
ATOM     79  C   UNL     1       7.205   0.071   0.548  1.00  0.00     0.198 A 
ATOM     80  C   UNL     1       6.480   0.261  -1.731  1.00  0.00     0.198 A 
ATOM     81  F   UNL     1       5.873   2.361  -2.600  1.00  0.00    -0.203 F 
ATOM     82  F   UNL     1       7.684  -0.672   1.555  1.00  0.00    -0.200 F 
ATOM     83  C   UNL     1       6.941  -0.517  -0.680  1.00  0.00     0.200 A 
ATOM     84  F   UNL     1       6.213  -0.305  -2.916  1.00  0.00    -0.200 F 
ATOM     85  F   UNL     1       7.139  -1.831  -0.854  1.00  0.00    -0.200 F 
ENDBRANCH  51  75
BRANCH  63  86
ATOM     86  C   UNL     1      11.036   7.468   0.689  1.00  0.00     0.064 A 
ATOM     87  C   UNL     1      11.871   7.309  -0.426  1.00  0.00     0.173 A 
ATOM     88  C   UNL     1      11.637   7.721   1.931  1.00  0.00     0.173 A 
ATOM     89  F   UNL     1      11.345   7.051  -1.632  1.00  0.00    -0.203 F 
ATOM     90  C   UNL     1      13.256   7.383  -0.298  1.00  0.00     0.198 A 
ATOM     91  C   UNL     1      13.021   7.818   2.051  1.00  0.00     0.198 A 
ATOM     92  F   UNL     1      10.882   7.886   3.028  1.00  0.00    -0.203 F 
ATOM     93  F   UNL     1      14.037   7.191  -1.370  1.00  0.00    -0.200 F 
ATOM     94  C   UNL     1      13.829   7.644   0.938  1.00  0.00     0.200 A 
ATOM     95  F   UNL     1      13.573   8.081   3.244  1.00  0.00    -0.200 F 
ATOM     96  F   UNL     1      15.162   7.723   1.056  1.00  0.00    -0.200 F 
ENDBRANCH  63  86
ENDBRANCH  37  38
ENDBRANCH  30  32
ENDBRANCH  29  30
ENDBRANCH  28  29
ENDBRANCH  27  28
ENDBRANCH  26  27
ENDBRANCH  25  26
ENDBRANCH   1  25
TORSDOF 21
