REMARK SMILES CC1(C)C(=O)N([C@H]2COC[C@@H]2C(=O)OCCOCCOCCOC(=O)c2ccc(-c3c4nc(c(-c5c(F)c(F)c(F)c(F)c5F)c5ccc([nH]5)c(-c5c(F)c(F)c(F)c(F)c5F)c5nc(c(-c6c(F)c(F)c(F)c(F)c6F)c6ccc3[nH]6)C=C5)C=C4)cc2)S1(=O)=O
REMARK SMILES IDX 19 1 18 2 17 3 16 4 15 5 14 6 12 7 13 8 11 9 7 10 8 11 9 12
REMARK SMILES IDX 10 13 6 14 1 15 2 16 3 17 4 18 89 19 5 20 90 21 91 22 20 23
REMARK SMILES IDX 21 24 22 25 23 26 24 27 25 28 26 29 27 30 88 31 28 32 87 33
REMARK SMILES IDX 29 34 30 35 31 36 81 37 32 38 86 39 80 40 82 41 33 42 85 43
REMARK SMILES IDX 79 44 78 45 34 47 66 48 46 49 65 50 47 51 50 52 64 53 83 54
REMARK SMILES IDX 48 55 49 56 63 58 84 59 51 60 35 61 36 62 44 63 37 64 38 65
REMARK SMILES IDX 42 66 45 67 39 68 40 69 43 70 41 71 67 72 68 73 76 74 69 75
REMARK SMILES IDX 70 76 74 77 77 78 71 79 72 80 75 81 73 82 52 83 53 84 61 85
REMARK SMILES IDX 54 86 55 87 59 88 62 89 56 90 57 91 60 92 58 93
REMARK H PARENT 82 46 50 57
REMARK Flexibility Score: inf
ROOT
ATOM      1  C   UNL     1       0.688   7.314  -0.004  1.00  0.00     0.188 C 
ENDROOT
BRANCH   1   2
ATOM      2  C   UNL     1       0.852   6.318   1.160  1.00  0.00     0.188 C 
BRANCH   2   3
ATOM      3  O   UNL     1       2.160   5.989   1.615  1.00  0.00    -0.376 OA
BRANCH   3   4
ATOM      4  C   UNL     1       3.158   5.613   0.668  1.00  0.00     0.202 C 
BRANCH   4   5
ATOM      5  C   UNL     1       2.818   4.554  -0.392  1.00  0.00     0.261 C 
BRANCH   5   6
ATOM      6  O   UNL     1       1.675   4.894  -1.200  1.00  0.00    -0.463 OA
BRANCH   6   7
ATOM      7  C   UNL     1       0.688   3.970  -1.271  1.00  0.00     0.313 C 
ATOM      8  O   UNL     1       0.755   2.853  -0.767  1.00  0.00    -0.252 OA
BRANCH   7   9
ATOM      9  C   UNL     1      -0.591   4.493  -1.909  1.00  0.00     0.151 C 
ATOM     10  C   UNL     1      -1.216   3.348  -2.679  1.00  0.00     0.145 C 
ATOM     11  C   UNL     1      -0.548   3.520  -4.044  1.00  0.00     0.187 C 
ATOM     12  O   UNL     1      -0.366   4.928  -4.246  1.00  0.00    -0.378 OA
ATOM     13  C   UNL     1      -0.424   5.569  -2.968  1.00  0.00     0.177 C 
BRANCH  10  14
ATOM     14  N   UNL     1      -2.687   3.398  -2.852  1.00  0.00    -0.231 N 
ATOM     15  C   UNL     1      -5.941   2.609  -2.912  1.00  0.00     0.041 C 
ATOM     16  C   UNL     1      -4.621   2.513  -2.155  1.00  0.00     0.165 C 
ATOM     17  C   UNL     1      -4.735   1.541  -0.976  1.00  0.00     0.041 C 
ATOM     18  C   UNL     1      -3.423   2.216  -3.054  1.00  0.00     0.259 C 
ATOM     19  S   UNL     1      -3.793   4.021  -1.786  1.00  0.00     0.252 S 
ATOM     20  O   UNL     1      -3.044   1.241  -3.692  1.00  0.00    -0.272 OA
ATOM     21  O   UNL     1      -4.419   5.171  -2.388  1.00  0.00    -0.205 OA
ATOM     22  O   UNL     1      -3.250   4.035  -0.447  1.00  0.00    -0.205 OA
ENDBRANCH  10  14
ENDBRANCH   7   9
ENDBRANCH   6   7
ENDBRANCH   5   6
ENDBRANCH   4   5
ENDBRANCH   3   4
ENDBRANCH   2   3
ENDBRANCH   1   2
BRANCH   1  23
ATOM     23  O   UNL     1       1.899   7.671  -0.629  1.00  0.00    -0.376 OA
BRANCH  23  24
ATOM     24  C   UNL     1       2.377   8.995  -0.446  1.00  0.00     0.202 C 
BRANCH  24  25
ATOM     25  C   UNL     1       2.428   9.630   0.959  1.00  0.00     0.261 C 
BRANCH  25  26
ATOM     26  O   UNL     1       1.343   9.340   1.855  1.00  0.00    -0.460 OA
BRANCH  26  27
ATOM     27  C   UNL     1       0.198  10.043   1.696  1.00  0.00     0.338 C 
ATOM     28  O   UNL     1      -0.030  10.901   0.865  1.00  0.00    -0.246 OA
BRANCH  27  29
ATOM     29  C   UNL     1      -0.823   9.434   2.579  1.00  0.00     0.060 A 
ATOM     30  C   UNL     1      -1.940   8.810   2.004  1.00  0.00     0.016 A 
ATOM     31  C   UNL     1      -0.671   9.467   3.966  1.00  0.00     0.016 A 
ATOM     32  C   UNL     1      -2.919   8.235   2.818  1.00  0.00     0.010 A 
ATOM     33  C   UNL     1      -1.664   8.915   4.780  1.00  0.00     0.010 A 
ATOM     34  C   UNL     1      -2.806   8.320   4.211  1.00  0.00    -0.014 A 
BRANCH  34  35
ATOM     35  C   UNL     1      -3.957   7.964   5.077  1.00  0.00     0.031 A 
ATOM     36  C   UNL     1      -4.856   9.070   5.556  1.00  0.00     0.074 A 
ATOM     37  C   UNL     1      -4.203   6.692   5.435  1.00  0.00     0.049 A 
ATOM     38  N   UNL     1      -5.865   9.025   6.389  1.00  0.00    -0.248 NA
ATOM     39  C   UNL     1      -4.571  10.413   5.026  1.00  0.00     0.031 C 
ATOM     40  C   UNL     1      -3.439   5.527   5.000  1.00  0.00     0.029 A 
ATOM     41  N   UNL     1      -5.166   6.174   6.268  1.00  0.00    -0.354 N 
ATOM     42  C   UNL     1      -6.325  10.332   6.491  1.00  0.00     0.074 A 
ATOM     43  C   UNL     1      -5.472  11.150   5.658  1.00  0.00     0.031 C 
ATOM     44  C   UNL     1      -3.950   4.428   5.583  1.00  0.00     0.029 A 
ATOM     45  C   UNL     1      -5.054   4.819   6.461  1.00  0.00     0.049 A 
ATOM     46  H   UNL     1      -5.869   6.722   6.685  1.00  0.00     0.167 HD
ATOM     47  C   UNL     1      -7.370  10.805   7.211  1.00  0.00     0.037 A 
ATOM     48  C   UNL     1      -5.746   3.998   7.275  1.00  0.00     0.037 A 
ATOM     49  C   UNL     1      -8.217   9.988   8.040  1.00  0.00     0.049 A 
ATOM     50  C   UNL     1      -6.854   4.562   8.130  1.00  0.00     0.074 A 
ATOM     51  C   UNL     1      -9.313  10.370   8.792  1.00  0.00     0.029 A 
ATOM     52  N   UNL     1      -8.054   8.624   8.233  1.00  0.00    -0.354 N 
ATOM     53  N   UNL     1      -7.301   5.792   8.205  1.00  0.00    -0.248 NA
ATOM     54  C   UNL     1      -7.555   3.619   9.014  1.00  0.00     0.031 C 
ATOM     55  C   UNL     1      -9.778   9.249   9.487  1.00  0.00     0.029 A 
ATOM     56  C   UNL     1      -9.012   8.155   9.117  1.00  0.00     0.049 A 
ATOM     57  H   UNL     1      -7.360   8.072   7.805  1.00  0.00     0.167 HD
ATOM     58  C   UNL     1      -8.353   5.764   9.114  1.00  0.00     0.074 A 
ATOM     59  C   UNL     1      -8.485   4.393   9.556  1.00  0.00     0.031 C 
ATOM     60  C   UNL     1      -9.140   6.783   9.541  1.00  0.00     0.037 A 
BRANCH  47  61
ATOM     61  C   UNL     1      -7.633  12.281   7.161  1.00  0.00     0.064 A 
ATOM     62  C   UNL     1      -8.132  12.907   6.009  1.00  0.00     0.173 A 
ATOM     63  C   UNL     1      -7.410  13.078   8.295  1.00  0.00     0.173 A 
ATOM     64  F   UNL     1      -8.348  12.193   4.893  1.00  0.00    -0.203 F 
ATOM     65  C   UNL     1      -8.373  14.278   5.985  1.00  0.00     0.198 A 
ATOM     66  C   UNL     1      -7.682  14.443   8.278  1.00  0.00     0.198 A 
ATOM     67  F   UNL     1      -6.936  12.530   9.424  1.00  0.00    -0.203 F 
ATOM     68  F   UNL     1      -8.802  14.862   4.858  1.00  0.00    -0.200 F 
ATOM     69  C   UNL     1      -8.156  15.043   7.121  1.00  0.00     0.200 A 
ATOM     70  F   UNL     1      -7.484  15.178   9.381  1.00  0.00    -0.200 F 
ATOM     71  F   UNL     1      -8.396  16.361   7.100  1.00  0.00    -0.200 F 
ENDBRANCH  47  61
BRANCH  48  72
ATOM     72  C   UNL     1      -5.409   2.550   7.336  1.00  0.00     0.064 A 
ATOM     73  C   UNL     1      -6.304   1.579   6.867  1.00  0.00     0.173 A 
ATOM     74  C   UNL     1      -4.199   2.106   7.890  1.00  0.00     0.173 A 
ATOM     75  F   UNL     1      -7.487   1.951   6.355  1.00  0.00    -0.203 F 
ATOM     76  C   UNL     1      -6.011   0.220   6.966  1.00  0.00     0.198 A 
ATOM     77  C   UNL     1      -3.894   0.749   7.961  1.00  0.00     0.198 A 
ATOM     78  F   UNL     1      -3.310   2.993   8.361  1.00  0.00    -0.203 F 
ATOM     79  F   UNL     1      -6.908  -0.687   6.556  1.00  0.00    -0.200 F 
ATOM     80  C   UNL     1      -4.804  -0.194   7.507  1.00  0.00     0.200 A 
ATOM     81  F   UNL     1      -2.722   0.353   8.476  1.00  0.00    -0.200 F 
ATOM     82  F   UNL     1      -4.522  -1.500   7.601  1.00  0.00    -0.200 F 
ENDBRANCH  48  72
BRANCH  60  83
ATOM     83  C   UNL     1     -10.248   6.451  10.501  1.00  0.00     0.064 A 
ATOM     84  C   UNL     1      -9.993   6.094  11.833  1.00  0.00     0.173 A 
ATOM     85  C   UNL     1     -11.588   6.539  10.091  1.00  0.00     0.173 A 
ATOM     86  F   UNL     1      -8.730   5.982  12.272  1.00  0.00    -0.203 F 
ATOM     87  C   UNL     1     -11.037   5.811  12.711  1.00  0.00     0.198 A 
ATOM     88  C   UNL     1     -12.630   6.289  10.981  1.00  0.00     0.198 A 
ATOM     89  F   UNL     1     -11.889   6.886   8.831  1.00  0.00    -0.203 F 
ATOM     90  F   UNL     1     -10.768   5.423  13.965  1.00  0.00    -0.200 F 
ATOM     91  C   UNL     1     -12.353   5.917  12.287  1.00  0.00     0.200 A 
ATOM     92  F   UNL     1     -13.901   6.409  10.573  1.00  0.00    -0.200 F 
ATOM     93  F   UNL     1     -13.356   5.654  13.137  1.00  0.00    -0.200 F 
ENDBRANCH  60  83
ENDBRANCH  34  35
ENDBRANCH  27  29
ENDBRANCH  26  27
ENDBRANCH  25  26
ENDBRANCH  24  25
ENDBRANCH  23  24
ENDBRANCH   1  23
TORSDOF 18
