REMARK SMILES Cc1cc(F)ccc1S(=O)(=O)Nc1ccc2oc(C)c(C(=O)OCCOCCOCCOC(=O)c3ccc(-c4c5nc(c(-c6c(F)c(F)c(F)c(F)c6F)c6ccc([nH]6)c(-c6c(F)c(F)c(F)c(F)c6F)c6nc(c(-c7c(F)c(F)c(F)c(F)c7F)c7ccc4[nH]7)C=C6)C=C5)cc3)c2c1
REMARK SMILES IDX 27 1 26 2 25 3 24 4 23 5 21 6 22 7 20 8 13 9 14 10 99 11
REMARK SMILES IDX 15 12 98 13 16 14 17 15 18 16 19 17 12 18 9 20 10 21 11 22
REMARK SMILES IDX 8 23 1 24 2 25 3 26 4 27 7 28 5 29 6 30 28 31 29 32 30 33
REMARK SMILES IDX 31 34 32 35 33 36 34 37 35 38 36 39 97 40 37 41 96 42 38 43
REMARK SMILES IDX 39 44 40 45 90 46 41 47 95 48 89 49 91 50 42 51 94 52 88 53
REMARK SMILES IDX 87 54 43 56 75 57 55 58 74 59 56 60 59 61 73 62 92 63 57 64
REMARK SMILES IDX 58 65 72 67 93 68 60 69 44 70 45 71 53 72 46 73 47 74 51 75
REMARK SMILES IDX 54 76 48 77 49 78 52 79 50 80 76 81 77 82 85 83 78 84 79 85
REMARK SMILES IDX 83 86 86 87 80 88 81 89 84 90 82 91 61 92 62 93 70 94 63 95
REMARK SMILES IDX 64 96 68 97 71 98 65 99 66 100 69 101 67 102
REMARK H PARENT 12 19 91 55 59 66
REMARK Flexibility Score: inf
ROOT
ATOM      1  C   UNL     1       7.148   3.777  -2.875  1.00  0.00     0.188 C 
ENDROOT
BRANCH   1   2
ATOM      2  O   UNL     1       7.495   3.658  -4.242  1.00  0.00    -0.376 OA
BRANCH   2   3
ATOM      3  C   UNL     1       7.112   4.713  -5.112  1.00  0.00     0.202 C 
BRANCH   3   4
ATOM      4  C   UNL     1       5.623   5.109  -5.165  1.00  0.00     0.261 C 
BRANCH   4   5
ATOM      5  O   UNL     1       5.014   5.359  -3.880  1.00  0.00    -0.460 OA
BRANCH   5   6
ATOM      6  C   UNL     1       4.129   4.405  -3.434  1.00  0.00     0.342 C 
ATOM      7  O   UNL     1       3.683   3.509  -4.113  1.00  0.00    -0.246 OA
BRANCH   6   8
ATOM      8  C   UNL     1       3.990   4.423  -1.976  1.00  0.00     0.109 A 
ATOM      9  C   UNL     1       4.100   1.027  -0.242  1.00  0.00     0.050 A 
ATOM     10  C   UNL     1       3.913   1.512   1.052  1.00  0.00     0.030 A 
ATOM     11  C   UNL     1       4.327   1.909  -1.310  1.00  0.00     0.039 A 
ATOM     12  C   UNL     1       3.840   2.896   1.295  1.00  0.00     0.050 A 
ATOM     13  C   UNL     1       4.098   3.282  -1.114  1.00  0.00     0.037 A 
ATOM     14  C   UNL     1       3.895   3.735   0.180  1.00  0.00     0.135 A 
ATOM     15  O   UNL     1       3.745   5.088   0.171  1.00  0.00    -0.460 OA
ATOM     16  C   UNL     1       3.820   5.503  -1.131  1.00  0.00     0.116 A 
ATOM     17  C   UNL     1       3.712   6.958  -1.354  1.00  0.00     0.088 C 
BRANCH   9  18
ATOM     18  N   UNL     1       3.950  -0.327  -0.621  1.00  0.00    -0.280 N 
ATOM     19  H   UNL     1       4.548  -0.655  -1.330  1.00  0.00     0.180 HD
BRANCH  18  20
ATOM     20  S   UNL     1       2.869  -1.423   0.007  1.00  0.00     0.262 S 
ATOM     21  O   UNL     1       3.111  -1.529   1.432  1.00  0.00    -0.201 OA
ATOM     22  O   UNL     1       3.026  -2.587  -0.846  1.00  0.00    -0.201 OA
BRANCH  20  23
ATOM     23  C   UNL     1       1.143  -0.943  -0.171  1.00  0.00     0.090 A 
ATOM     24  C   UNL     1       1.292   1.365  -1.351  1.00  0.00     0.046 C 
ATOM     25  C   UNL     1       0.589   0.259  -0.648  1.00  0.00    -0.028 A 
ATOM     26  C   UNL     1      -0.795   0.485  -0.466  1.00  0.00     0.044 A 
ATOM     27  C   UNL     1      -1.625  -0.499   0.044  1.00  0.00     0.123 A 
ATOM     28  C   UNL     1       0.263  -1.946   0.300  1.00  0.00     0.025 A 
ATOM     29  F   UNL     1      -2.933  -0.252   0.179  1.00  0.00    -0.207 F 
ATOM     30  C   UNL     1      -1.113  -1.733   0.390  1.00  0.00     0.040 A 
ENDBRANCH  20  23
ENDBRANCH  18  20
ENDBRANCH   9  18
ENDBRANCH   6   8
ENDBRANCH   5   6
ENDBRANCH   4   5
ENDBRANCH   3   4
ENDBRANCH   2   3
ENDBRANCH   1   2
BRANCH   1  31
ATOM     31  C   UNL     1       7.397   5.094  -2.104  1.00  0.00     0.188 C 
BRANCH  31  32
ATOM     32  O   UNL     1       8.106   6.073  -2.853  1.00  0.00    -0.376 OA
BRANCH  32  33
ATOM     33  C   UNL     1       9.346   6.488  -2.301  1.00  0.00     0.202 C 
BRANCH  33  34
ATOM     34  C   UNL     1      10.514   5.534  -2.565  1.00  0.00     0.261 C 
BRANCH  34  35
ATOM     35  O   UNL     1      10.143   4.158  -2.604  1.00  0.00    -0.460 OA
BRANCH  35  36
ATOM     36  C   UNL     1       9.948   3.621  -1.388  1.00  0.00     0.338 C 
ATOM     37  O   UNL     1      10.045   4.192  -0.314  1.00  0.00    -0.246 OA
BRANCH  36  38
ATOM     38  C   UNL     1       9.650   2.173  -1.524  1.00  0.00     0.060 A 
ATOM     39  C   UNL     1       8.983   1.673  -0.393  1.00  0.00     0.016 A 
ATOM     40  C   UNL     1      10.740   1.524  -2.094  1.00  0.00     0.016 A 
ATOM     41  C   UNL     1       9.734   0.936   0.485  1.00  0.00     0.010 A 
ATOM     42  C   UNL     1      11.511   0.822  -1.215  1.00  0.00     0.010 A 
ATOM     43  C   UNL     1      11.041   0.659   0.096  1.00  0.00    -0.014 A 
BRANCH  43  44
ATOM     44  C   UNL     1      12.026   0.227   1.046  1.00  0.00     0.031 A 
ATOM     45  C   UNL     1      12.045  -1.195   1.357  1.00  0.00     0.074 A 
ATOM     46  C   UNL     1      12.868   1.147   1.551  1.00  0.00     0.049 A 
ATOM     47  N   UNL     1      12.450  -1.700   2.464  1.00  0.00    -0.248 NA
ATOM     48  C   UNL     1      11.459  -2.165   0.437  1.00  0.00     0.031 C 
ATOM     49  C   UNL     1      14.092   0.918   2.296  1.00  0.00     0.029 A 
ATOM     50  N   UNL     1      12.646   2.529   1.633  1.00  0.00    -0.354 N 
ATOM     51  C   UNL     1      12.504  -3.060   2.266  1.00  0.00     0.074 A 
ATOM     52  C   UNL     1      11.714  -3.300   1.084  1.00  0.00     0.031 C 
ATOM     53  C   UNL     1      14.399   2.042   2.967  1.00  0.00     0.029 A 
ATOM     54  C   UNL     1      13.290   2.974   2.803  1.00  0.00     0.049 A 
ATOM     55  H   UNL     1      12.139   3.082   0.996  1.00  0.00     0.167 HD
ATOM     56  C   UNL     1      13.406  -3.779   2.993  1.00  0.00     0.037 A 
ATOM     57  C   UNL     1      12.525   3.447   3.831  1.00  0.00     0.037 A 
ATOM     58  C   UNL     1      14.030  -2.924   4.012  1.00  0.00     0.049 A 
ATOM     59  C   UNL     1      12.468   2.518   5.030  1.00  0.00     0.074 A 
ATOM     60  C   UNL     1      15.208  -2.192   4.038  1.00  0.00     0.029 A 
ATOM     61  N   UNL     1      13.241  -2.406   5.028  1.00  0.00    -0.354 N 
ATOM     62  N   UNL     1      12.958   1.308   5.054  1.00  0.00    -0.248 NA
ATOM     63  C   UNL     1      11.777   2.863   6.273  1.00  0.00     0.031 C 
ATOM     64  C   UNL     1      15.078  -1.177   5.031  1.00  0.00     0.029 A 
ATOM     65  C   UNL     1      13.831  -1.301   5.618  1.00  0.00     0.049 A 
ATOM     66  H   UNL     1      12.371  -2.779   5.298  1.00  0.00     0.167 HD
ATOM     67  C   UNL     1      12.677   0.727   6.257  1.00  0.00     0.074 A 
ATOM     68  C   UNL     1      11.908   1.727   6.978  1.00  0.00     0.031 C 
ATOM     69  C   UNL     1      13.085  -0.529   6.598  1.00  0.00     0.037 A 
BRANCH  56  70
ATOM     70  C   UNL     1      13.980  -5.093   2.507  1.00  0.00     0.064 A 
ATOM     71  C   UNL     1      15.284  -5.471   2.885  1.00  0.00     0.173 A 
ATOM     72  C   UNL     1      13.362  -5.973   1.596  1.00  0.00     0.173 A 
ATOM     73  F   UNL     1      15.953  -4.812   3.841  1.00  0.00    -0.203 F 
ATOM     74  C   UNL     1      15.956  -6.546   2.296  1.00  0.00     0.198 A 
ATOM     75  C   UNL     1      14.049  -7.014   0.965  1.00  0.00     0.198 A 
ATOM     76  F   UNL     1      12.054  -5.907   1.329  1.00  0.00    -0.203 F 
ATOM     77  F   UNL     1      17.203  -6.842   2.689  1.00  0.00    -0.200 F 
ATOM     78  C   UNL     1      15.354  -7.292   1.305  1.00  0.00     0.200 A 
ATOM     79  F   UNL     1      13.430  -7.747   0.027  1.00  0.00    -0.200 F 
ATOM     80  F   UNL     1      16.013  -8.293   0.709  1.00  0.00    -0.200 F 
ENDBRANCH  56  70
BRANCH  57  81
ATOM     81  C   UNL     1      11.411   4.334   3.396  1.00  0.00     0.064 A 
ATOM     82  C   UNL     1      11.719   5.532   2.720  1.00  0.00     0.173 A 
ATOM     83  C   UNL     1      10.072   3.926   3.397  1.00  0.00     0.173 A 
ATOM     84  F   UNL     1      12.986   5.976   2.683  1.00  0.00    -0.203 F 
ATOM     85  C   UNL     1      10.747   6.251   2.025  1.00  0.00     0.198 A 
ATOM     86  C   UNL     1       9.096   4.654   2.710  1.00  0.00     0.198 A 
ATOM     87  F   UNL     1       9.707   2.794   4.016  1.00  0.00    -0.203 F 
ATOM     88  F   UNL     1      11.092   7.340   1.321  1.00  0.00    -0.200 F 
ATOM     89  C   UNL     1       9.436   5.807   2.015  1.00  0.00     0.200 A 
ATOM     90  F   UNL     1       7.831   4.209   2.678  1.00  0.00    -0.200 F 
ATOM     91  F   UNL     1       8.509   6.463   1.300  1.00  0.00    -0.200 F 
ENDBRANCH  57  81
BRANCH  69  92
ATOM     92  C   UNL     1      12.843  -1.092   7.960  1.00  0.00     0.064 A 
ATOM     93  C   UNL     1      13.172  -0.371   9.119  1.00  0.00     0.173 A 
ATOM     94  C   UNL     1      12.392  -2.412   8.142  1.00  0.00     0.173 A 
ATOM     95  F   UNL     1      13.663   0.875   9.034  1.00  0.00    -0.203 F 
ATOM     96  C   UNL     1      13.013  -0.922  10.388  1.00  0.00     0.198 A 
ATOM     97  C   UNL     1      12.290  -2.980   9.409  1.00  0.00     0.198 A 
ATOM     98  F   UNL     1      12.022  -3.170   7.100  1.00  0.00    -0.203 F 
ATOM     99  F   UNL     1      13.281  -0.182  11.473  1.00  0.00    -0.200 F 
ATOM    100  C   UNL     1      12.586  -2.231  10.532  1.00  0.00     0.200 A 
ATOM    101  F   UNL     1      11.901  -4.257   9.535  1.00  0.00    -0.200 F 
ATOM    102  F   UNL     1      12.457  -2.768  11.752  1.00  0.00    -0.200 F 
ENDBRANCH  69  92
ENDBRANCH  43  44
ENDBRANCH  36  38
ENDBRANCH  35  36
ENDBRANCH  34  35
ENDBRANCH  33  34
ENDBRANCH  32  33
ENDBRANCH  31  32
ENDBRANCH   1  31
TORSDOF 20
