REMARK SMILES O=C(CCC(=O)OCCOCCOCCOC(=O)c1ccc(-c2c3nc(c(-c4c(F)c(F)c(F)c(F)c4F)c4ccc([nH]4)c(-c4c(F)c(F)c(F)c(F)c4F)c4nc(c(-c5c(F)c(F)c(F)c(F)c5F)c5ccc2[nH]5)C=C4)C=C3)cc1)/[NH+]=C1\S[C@H]2CS(=O)(=O)C[C@@H]2N1c1ccc(Oc2ccccc2)cc1
REMARK SMILES IDX 10 1 9 2 8 3 7 4 5 5 6 6 4 7 3 8 2 9 1 10 82 11 83 12 84 14
REMARK SMILES IDX 92 15 85 16 91 17 86 18 90 19 87 20 88 21 89 22 93 23 94 24
REMARK SMILES IDX 105 25 95 26 104 27 96 28 97 29 98 30 99 31 103 32 100 33
REMARK SMILES IDX 102 34 101 35 11 36 12 37 13 38 14 39 15 40 16 41 17 42
REMARK SMILES IDX 18 43 19 44 20 45 81 46 21 47 80 48 22 49 23 50 24 51 74 52
REMARK SMILES IDX 25 53 79 54 73 55 75 56 26 57 78 58 72 59 71 60 27 62 59 63
REMARK SMILES IDX 39 64 58 65 40 66 43 67 57 68 76 69 41 70 42 71 56 73 77 74
REMARK SMILES IDX 44 75 28 76 29 77 37 78 30 79 31 80 35 81 38 82 32 83 33 84
REMARK SMILES IDX 36 85 34 86 60 87 61 88 69 89 62 90 63 91 67 92 70 93 64 94
REMARK SMILES IDX 65 95 68 96 66 97 45 98 46 99 54 100 47 101 48 102 52 103
REMARK SMILES IDX 55 104 49 105 50 106 53 107 51 108
REMARK H PARENT 82 13 75 61 43 72
REMARK Flexibility Score: inf
ROOT
ATOM      1  O   UNL     1       6.985  -1.379  -0.259  1.00  0.00    -0.376 OA
ENDROOT
BRANCH   1   2
ATOM      2  C   UNL     1       6.795  -2.318  -1.345  1.00  0.00     0.202 C 
BRANCH   2   3
ATOM      3  C   UNL     1       5.660  -2.224  -2.435  1.00  0.00     0.261 C 
BRANCH   3   4
ATOM      4  O   UNL     1       4.353  -1.784  -2.046  1.00  0.00    -0.463 OA
BRANCH   4   5
ATOM      5  C   UNL     1       3.694  -2.506  -1.127  1.00  0.00     0.306 C 
ATOM      6  O   UNL     1       4.033  -3.624  -0.764  1.00  0.00    -0.252 OA
BRANCH   5   7
ATOM      7  C   UNL     1       2.505  -1.743  -0.575  1.00  0.00     0.135 C 
BRANCH   7   8
ATOM      8  C   UNL     1       2.652  -0.205  -0.464  1.00  0.00     0.139 C 
BRANCH   8   9
ATOM      9  C   UNL     1       2.489   0.577  -1.782  1.00  0.00     0.308 C 
ATOM     10  O   UNL     1       1.442   0.344  -2.398  1.00  0.00    -0.247 OA
ATOM     11  N   UNL     1       3.334   1.589  -2.259  1.00  0.00    -0.204 N 
ATOM     12  C   UNL     1       4.619   1.654  -2.204  1.00  0.00     0.319 C 
ATOM     13  H   UNL     1       2.886   2.351  -2.692  1.00  0.00     0.316 HD
ATOM     14  S   UNL     1       5.567   0.597  -1.276  1.00  0.00    -0.029 SA
ATOM     15  N   UNL     1       5.569   2.481  -2.800  1.00  0.00    -0.217 N 
ATOM     16  C   UNL     1       7.029   1.569  -1.204  1.00  0.00     0.120 C 
ATOM     17  C   UNL     1       6.995   2.094  -2.614  1.00  0.00     0.212 C 
ATOM     18  C   UNL     1       8.409   1.034  -0.927  1.00  0.00     0.156 C 
ATOM     19  C   UNL     1       8.091   3.148  -2.565  1.00  0.00     0.188 C 
ATOM     20  S   UNL     1       9.415   2.310  -1.659  1.00  0.00     0.155 S 
ATOM     21  O   UNL     1       9.883   3.181  -0.603  1.00  0.00    -0.229 OA
ATOM     22  O   UNL     1      10.307   1.678  -2.606  1.00  0.00    -0.229 OA
BRANCH  15  23
ATOM     23  C   UNL     1       5.294   3.452  -3.741  1.00  0.00     0.128 A 
ATOM     24  C   UNL     1       5.984   3.468  -4.960  1.00  0.00     0.056 A 
ATOM     25  C   UNL     1       4.422   4.484  -3.417  1.00  0.00     0.056 A 
ATOM     26  C   UNL     1       5.924   4.578  -5.779  1.00  0.00     0.051 A 
ATOM     27  C   UNL     1       4.350   5.592  -4.242  1.00  0.00     0.051 A 
ATOM     28  C   UNL     1       5.149   5.664  -5.391  1.00  0.00     0.127 A 
BRANCH  28  29
ATOM     29  O   UNL     1       5.258   6.770  -6.204  1.00  0.00    -0.457 OA
BRANCH  29  30
ATOM     30  C   UNL     1       4.692   7.920  -5.724  1.00  0.00     0.127 A 
ATOM     31  C   UNL     1       3.492   8.328  -6.297  1.00  0.00     0.047 A 
ATOM     32  C   UNL     1       5.268   8.617  -4.659  1.00  0.00     0.047 A 
ATOM     33  C   UNL     1       2.827   9.424  -5.763  1.00  0.00     0.004 A 
ATOM     34  C   UNL     1       4.593   9.708  -4.122  1.00  0.00     0.004 A 
ATOM     35  C   UNL     1       3.372  10.107  -4.672  1.00  0.00     0.000 A 
ENDBRANCH  29  30
ENDBRANCH  28  29
ENDBRANCH  15  23
ENDBRANCH   8   9
ENDBRANCH   7   8
ENDBRANCH   5   7
ENDBRANCH   4   5
ENDBRANCH   3   4
ENDBRANCH   2   3
ENDBRANCH   1   2
BRANCH   1  36
ATOM     36  C   UNL     1       6.122  -1.354   0.901  1.00  0.00     0.188 C 
BRANCH  36  37
ATOM     37  C   UNL     1       6.169   0.052   1.693  1.00  0.00     0.188 C 
BRANCH  37  38
ATOM     38  O   UNL     1       4.980   0.871   1.695  1.00  0.00    -0.376 OA
BRANCH  38  39
ATOM     39  C   UNL     1       4.876   2.295   1.446  1.00  0.00     0.202 C 
BRANCH  39  40
ATOM     40  C   UNL     1       5.945   3.386   1.710  1.00  0.00     0.261 C 
BRANCH  40  41
ATOM     41  O   UNL     1       6.922   2.994   2.640  1.00  0.00    -0.460 OA
BRANCH  41  42
ATOM     42  C   UNL     1       6.412   2.906   3.889  1.00  0.00     0.338 C 
ATOM     43  O   UNL     1       5.395   3.399   4.322  1.00  0.00    -0.246 OA
BRANCH  42  44
ATOM     44  C   UNL     1       7.131   1.775   4.468  1.00  0.00     0.060 A 
ATOM     45  C   UNL     1       6.337   0.730   4.946  1.00  0.00     0.016 A 
ATOM     46  C   UNL     1       8.524   1.670   4.363  1.00  0.00     0.016 A 
ATOM     47  C   UNL     1       6.948  -0.441   5.346  1.00  0.00     0.010 A 
ATOM     48  C   UNL     1       9.142   0.510   4.803  1.00  0.00     0.010 A 
ATOM     49  C   UNL     1       8.347  -0.518   5.333  1.00  0.00    -0.014 A 
BRANCH  49  50
ATOM     50  C   UNL     1       8.942  -1.516   6.225  1.00  0.00     0.031 A 
ATOM     51  C   UNL     1       9.089  -1.104   7.659  1.00  0.00     0.074 A 
ATOM     52  C   UNL     1       9.204  -2.756   5.794  1.00  0.00     0.049 A 
ATOM     53  N   UNL     1       9.436  -1.812   8.697  1.00  0.00    -0.248 NA
ATOM     54  C   UNL     1       8.775   0.305   7.968  1.00  0.00     0.031 C 
ATOM     55  C   UNL     1       9.023  -3.238   4.426  1.00  0.00     0.029 A 
ATOM     56  N   UNL     1       9.653  -3.844   6.486  1.00  0.00    -0.354 N 
ATOM     57  C   UNL     1       9.369  -0.940   9.774  1.00  0.00     0.074 A 
ATOM     58  C   UNL     1       8.982   0.354   9.271  1.00  0.00     0.031 C 
ATOM     59  C   UNL     1       9.350  -4.541   4.382  1.00  0.00     0.029 A 
ATOM     60  C   UNL     1       9.777  -4.968   5.713  1.00  0.00     0.049 A 
ATOM     61  H   UNL     1       9.867  -3.823   7.447  1.00  0.00     0.167 HD
ATOM     62  C   UNL     1       9.605  -1.208  11.076  1.00  0.00     0.037 A 
ATOM     63  C   UNL     1      10.193  -6.197   6.066  1.00  0.00     0.037 A 
ATOM     64  C   UNL     1      10.018  -2.500  11.545  1.00  0.00     0.049 A 
ATOM     65  C   UNL     1      10.539  -6.443   7.513  1.00  0.00     0.074 A 
ATOM     66  C   UNL     1      10.307  -2.900  12.834  1.00  0.00     0.029 A 
ATOM     67  N   UNL     1      10.220  -3.601  10.722  1.00  0.00    -0.354 N 
ATOM     68  N   UNL     1      10.457  -5.629   8.540  1.00  0.00    -0.248 NA
ATOM     69  C   UNL     1      11.025  -7.786   7.849  1.00  0.00     0.031 C 
ATOM     70  C   UNL     1      10.749  -4.227  12.782  1.00  0.00     0.029 A 
ATOM     71  C   UNL     1      10.664  -4.675  11.471  1.00  0.00     0.049 A 
ATOM     72  H   UNL     1      10.069  -3.615   9.749  1.00  0.00     0.167 HD
ATOM     73  C   UNL     1      10.851  -6.367   9.648  1.00  0.00     0.074 A 
ATOM     74  C   UNL     1      11.149  -7.702   9.165  1.00  0.00     0.031 C 
ATOM     75  C   UNL     1      10.957  -5.987  10.948  1.00  0.00     0.037 A 
BRANCH  62  76
ATOM     76  C   UNL     1       9.492  -0.065  12.040  1.00  0.00     0.064 A 
ATOM     77  C   UNL     1       8.260   0.534  12.348  1.00  0.00     0.173 A 
ATOM     78  C   UNL     1      10.646   0.464  12.637  1.00  0.00     0.173 A 
ATOM     79  F   UNL     1       7.130   0.091  11.776  1.00  0.00    -0.203 F 
ATOM     80  C   UNL     1       8.193   1.638  13.195  1.00  0.00     0.198 A 
ATOM     81  C   UNL     1      10.570   1.546  13.509  1.00  0.00     0.198 A 
ATOM     82  F   UNL     1      11.850  -0.059  12.362  1.00  0.00    -0.203 F 
ATOM     83  F   UNL     1       7.015   2.236  13.423  1.00  0.00    -0.200 F 
ATOM     84  C   UNL     1       9.346   2.138  13.781  1.00  0.00     0.200 A 
ATOM     85  F   UNL     1      11.686   2.025  14.075  1.00  0.00    -0.200 F 
ATOM     86  F   UNL     1       9.281   3.200  14.595  1.00  0.00    -0.200 F 
ENDBRANCH  62  76
BRANCH  63  87
ATOM     87  C   UNL     1      10.291  -7.275   5.049  1.00  0.00     0.064 A 
ATOM     88  C   UNL     1       9.462  -8.403   5.103  1.00  0.00     0.173 A 
ATOM     89  C   UNL     1      11.229  -7.206   4.008  1.00  0.00     0.173 A 
ATOM     90  F   UNL     1       8.562  -8.526   6.090  1.00  0.00    -0.203 F 
ATOM     91  C   UNL     1       9.581  -9.431   4.169  1.00  0.00     0.198 A 
ATOM     92  C   UNL     1      11.327  -8.219   3.057  1.00  0.00     0.198 A 
ATOM     93  F   UNL     1      12.047  -6.148   3.909  1.00  0.00    -0.203 F 
ATOM     94  F   UNL     1       8.809 -10.521   4.274  1.00  0.00    -0.200 F 
ATOM     95  C   UNL     1      10.510  -9.336   3.144  1.00  0.00     0.200 A 
ATOM     96  F   UNL     1      12.217  -8.116   2.060  1.00  0.00    -0.200 F 
ATOM     97  F   UNL     1      10.623 -10.323   2.245  1.00  0.00    -0.200 F 
ENDBRANCH  63  87
BRANCH  75  98
ATOM     98  C   UNL     1      11.380  -7.044  11.928  1.00  0.00     0.064 A 
ATOM     99  C   UNL     1      12.674  -7.585  11.921  1.00  0.00     0.173 A 
ATOM    100  C   UNL     1      10.474  -7.516  12.891  1.00  0.00     0.173 A 
ATOM    101  F   UNL     1      13.574  -7.173  11.015  1.00  0.00    -0.203 F 
ATOM    102  C   UNL     1      13.028  -8.600  12.806  1.00  0.00     0.198 A 
ATOM    103  C   UNL     1      10.846  -8.499  13.802  1.00  0.00     0.198 A 
ATOM    104  F   UNL     1       9.229  -7.020  12.952  1.00  0.00    -0.203 F 
ATOM    105  F   UNL     1      14.243  -9.158  12.728  1.00  0.00    -0.200 F 
ATOM    106  C   UNL     1      12.116  -9.052  13.748  1.00  0.00     0.200 A 
ATOM    107  F   UNL     1       9.970  -8.919  14.726  1.00  0.00    -0.200 F 
ATOM    108  F   UNL     1      12.458 -10.031  14.596  1.00  0.00    -0.200 F 
ENDBRANCH  75  98
ENDBRANCH  49  50
ENDBRANCH  42  44
ENDBRANCH  41  42
ENDBRANCH  40  41
ENDBRANCH  39  40
ENDBRANCH  38  39
ENDBRANCH  37  38
ENDBRANCH  36  37
ENDBRANCH   1  36
TORSDOF 22
