REMARK SMILES CCNC(=O)c1ccc(SC[C@H](C)C(=O)OCCOCCOCCOC(=O)c2ccc(-c3c4nc(c(-c5c(F)c(F)c(F)c(F)c5F)c5ccc([nH]5)c(-c5c(F)c(F)c(F)c(F)c5F)c5nc(c(-c6c(F)c(F)c(F)c(F)c6F)c6ccc3[nH]6)C=C5)C=C4)cc2)nn1
REMARK SMILES IDX 19 1 18 2 17 3 16 4 14 5 15 6 12 7 13 8 11 9 10 10 9 11 6 12
REMARK SMILES IDX 7 13 92 14 8 15 91 16 4 17 3 18 5 20 2 21 1 22 20 23 21 24
REMARK SMILES IDX 22 25 23 26 24 27 25 28 26 29 27 30 28 31 29 32 90 33 30 34
REMARK SMILES IDX 89 35 31 36 32 37 33 38 83 39 34 40 88 41 82 42 84 43 35 44
REMARK SMILES IDX 87 45 81 46 80 47 36 49 68 50 48 51 67 52 49 53 52 54 66 55
REMARK SMILES IDX 85 56 50 57 51 58 65 60 86 61 53 62 37 63 38 64 46 65 39 66
REMARK SMILES IDX 40 67 44 68 47 69 41 70 42 71 45 72 43 73 69 74 70 75 78 76
REMARK SMILES IDX 71 77 72 78 76 79 79 80 73 81 74 82 77 83 75 84 54 85 55 86
REMARK SMILES IDX 63 87 56 88 57 89 61 90 64 91 58 92 59 93 62 94 60 95
REMARK H PARENT 3 19 84 48 52 59
REMARK Flexibility Score: inf
ROOT
ATOM      1  O   UNL     1      -7.630  -2.054  -4.825  1.00  0.00    -0.376 OA
ENDROOT
BRANCH   1   2
ATOM      2  C   UNL     1      -6.771  -3.160  -5.090  1.00  0.00     0.202 C 
BRANCH   2   3
ATOM      3  C   UNL     1      -5.344  -3.143  -4.516  1.00  0.00     0.261 C 
BRANCH   3   4
ATOM      4  O   UNL     1      -5.269  -3.046  -3.077  1.00  0.00    -0.463 OA
BRANCH   4   5
ATOM      5  C   UNL     1      -4.563  -2.009  -2.567  1.00  0.00     0.309 C 
ATOM      6  O   UNL     1      -3.994  -1.163  -3.251  1.00  0.00    -0.252 OA
BRANCH   5   7
ATOM      7  C   UNL     1      -4.589  -1.903  -1.038  1.00  0.00     0.106 C 
ATOM      8  C   UNL     1      -5.259  -3.041  -0.257  1.00  0.00     0.021 C 
BRANCH   7   9
ATOM      9  C   UNL     1      -3.138  -1.627  -0.612  1.00  0.00     0.091 C 
BRANCH   9  10
ATOM     10  S   UNL     1      -2.769  -1.547   1.177  1.00  0.00    -0.104 SA
BRANCH  10  11
ATOM     11  C   UNL     1      -3.727  -0.188   1.790  1.00  0.00     0.119 A 
ATOM     12  C   UNL     1      -5.051   1.851   3.050  1.00  0.00     0.150 A 
ATOM     13  C   UNL     1      -4.837   1.942   1.684  1.00  0.00     0.039 A 
ATOM     14  N   UNL     1      -4.633   0.788   3.761  1.00  0.00    -0.144 NA
ATOM     15  C   UNL     1      -4.159   0.899   1.044  1.00  0.00     0.040 A 
ATOM     16  N   UNL     1      -3.978  -0.239   3.118  1.00  0.00    -0.143 NA
BRANCH  12  17
ATOM     17  C   UNL     1      -5.645   2.967   3.823  1.00  0.00     0.271 C 
ATOM     18  N   UNL     1      -6.888   3.461   3.500  1.00  0.00    -0.351 N 
ATOM     19  H   UNL     1      -7.137   4.296   3.957  1.00  0.00     0.163 HD
ATOM     20  O   UNL     1      -5.013   3.485   4.740  1.00  0.00    -0.267 OA
BRANCH  18  21
ATOM     21  C   UNL     1      -7.887   2.937   2.589  1.00  0.00     0.113 C 
ATOM     22  C   UNL     1      -9.137   2.517   3.342  1.00  0.00     0.027 C 
ENDBRANCH  18  21
ENDBRANCH  12  17
ENDBRANCH  10  11
ENDBRANCH   9  10
ENDBRANCH   7   9
ENDBRANCH   5   7
ENDBRANCH   4   5
ENDBRANCH   3   4
ENDBRANCH   2   3
ENDBRANCH   1   2
BRANCH   1  23
ATOM     23  C   UNL     1      -7.803  -1.613  -3.484  1.00  0.00     0.188 C 
BRANCH  23  24
ATOM     24  C   UNL     1      -8.046  -2.652  -2.377  1.00  0.00     0.188 C 
BRANCH  24  25
ATOM     25  O   UNL     1      -8.018  -3.988  -2.822  1.00  0.00    -0.376 OA
BRANCH  25  26
ATOM     26  C   UNL     1      -9.205  -4.756  -2.713  1.00  0.00     0.202 C 
BRANCH  26  27
ATOM     27  C   UNL     1     -10.512  -4.217  -3.327  1.00  0.00     0.261 C 
BRANCH  27  28
ATOM     28  O   UNL     1     -10.804  -2.826  -3.111  1.00  0.00    -0.460 OA
BRANCH  28  29
ATOM     29  C   UNL     1     -11.269  -2.474  -1.888  1.00  0.00     0.338 C 
ATOM     30  O   UNL     1     -11.472  -3.205  -0.940  1.00  0.00    -0.246 OA
BRANCH  29  31
ATOM     31  C   UNL     1     -11.260  -0.993  -1.821  1.00  0.00     0.060 A 
ATOM     32  C   UNL     1     -10.438  -0.362  -0.876  1.00  0.00     0.016 A 
ATOM     33  C   UNL     1     -12.040  -0.234  -2.695  1.00  0.00     0.016 A 
ATOM     34  C   UNL     1     -10.407   1.031  -0.791  1.00  0.00     0.010 A 
ATOM     35  C   UNL     1     -12.027   1.161  -2.592  1.00  0.00     0.010 A 
ATOM     36  C   UNL     1     -11.230   1.800  -1.624  1.00  0.00    -0.014 A 
BRANCH  36  37
ATOM     37  C   UNL     1     -11.397   3.252  -1.369  1.00  0.00     0.031 A 
ATOM     38  C   UNL     1     -12.598   3.709  -0.588  1.00  0.00     0.074 A 
ATOM     39  C   UNL     1     -10.505   4.153  -1.817  1.00  0.00     0.049 A 
ATOM     40  N   UNL     1     -12.995   4.922  -0.302  1.00  0.00    -0.248 NA
ATOM     41  C   UNL     1     -13.470   2.648  -0.059  1.00  0.00     0.031 C 
ATOM     42  C   UNL     1      -9.284   3.839  -2.555  1.00  0.00     0.029 A 
ATOM     43  N   UNL     1     -10.504   5.524  -1.730  1.00  0.00    -0.354 N 
ATOM     44  C   UNL     1     -14.168   4.772   0.426  1.00  0.00     0.074 A 
ATOM     45  C   UNL     1     -14.431   3.352   0.518  1.00  0.00     0.031 C 
ATOM     46  C   UNL     1      -8.661   4.988  -2.873  1.00  0.00     0.029 A 
ATOM     47  C   UNL     1      -9.458   6.117  -2.394  1.00  0.00     0.049 A 
ATOM     48  H   UNL     1     -11.189   6.033  -1.239  1.00  0.00     0.167 HD
ATOM     49  C   UNL     1     -14.952   5.731   0.973  1.00  0.00     0.037 A 
ATOM     50  C   UNL     1      -9.195   7.420  -2.615  1.00  0.00     0.037 A 
ATOM     51  C   UNL     1     -14.695   7.143   0.874  1.00  0.00     0.049 A 
ATOM     52  C   UNL     1     -10.126   8.472  -2.062  1.00  0.00     0.074 A 
ATOM     53  C   UNL     1     -15.418   8.192   1.416  1.00  0.00     0.029 A 
ATOM     54  N   UNL     1     -13.639   7.707   0.173  1.00  0.00    -0.354 N 
ATOM     55  N   UNL     1     -11.214   8.323  -1.344  1.00  0.00    -0.248 NA
ATOM     56  C   UNL     1      -9.789   9.874  -2.349  1.00  0.00     0.031 C 
ATOM     57  C   UNL     1     -14.835   9.390   0.992  1.00  0.00     0.029 A 
ATOM     58  C   UNL     1     -13.709   9.089   0.243  1.00  0.00     0.049 A 
ATOM     59  H   UNL     1     -12.943   7.199  -0.304  1.00  0.00     0.167 HD
ATOM     60  C   UNL     1     -11.671   9.607  -1.069  1.00  0.00     0.074 A 
ATOM     61  C   UNL     1     -10.734  10.523  -1.685  1.00  0.00     0.031 C 
ATOM     62  C   UNL     1     -12.766   9.993  -0.368  1.00  0.00     0.037 A 
BRANCH  49  63
ATOM     63  C   UNL     1     -16.186   5.282   1.702  1.00  0.00     0.064 A 
ATOM     64  C   UNL     1     -16.116   4.608   2.930  1.00  0.00     0.173 A 
ATOM     65  C   UNL     1     -17.458   5.556   1.177  1.00  0.00     0.173 A 
ATOM     66  F   UNL     1     -14.924   4.306   3.468  1.00  0.00    -0.203 F 
ATOM     67  C   UNL     1     -17.272   4.199   3.591  1.00  0.00     0.198 A 
ATOM     68  C   UNL     1     -18.612   5.176   1.856  1.00  0.00     0.198 A 
ATOM     69  F   UNL     1     -17.582   6.201   0.007  1.00  0.00    -0.203 F 
ATOM     70  F   UNL     1     -17.179   3.509   4.736  1.00  0.00    -0.200 F 
ATOM     71  C   UNL     1     -18.519   4.490   3.057  1.00  0.00     0.200 A 
ATOM     72  F   UNL     1     -19.816   5.470   1.345  1.00  0.00    -0.200 F 
ATOM     73  F   UNL     1     -19.631   4.102   3.697  1.00  0.00    -0.200 F 
ENDBRANCH  49  63
BRANCH  50  74
ATOM     74  C   UNL     1      -8.002   7.815  -3.412  1.00  0.00     0.064 A 
ATOM     75  C   UNL     1      -6.928   8.494  -2.818  1.00  0.00     0.173 A 
ATOM     76  C   UNL     1      -7.923   7.547  -4.786  1.00  0.00     0.173 A 
ATOM     77  F   UNL     1      -6.968   8.797  -1.513  1.00  0.00    -0.203 F 
ATOM     78  C   UNL     1      -5.831   8.906  -3.573  1.00  0.00     0.198 A 
ATOM     79  C   UNL     1      -6.812   7.932  -5.533  1.00  0.00     0.198 A 
ATOM     80  F   UNL     1      -8.925   6.904  -5.404  1.00  0.00    -0.203 F 
ATOM     81  F   UNL     1      -4.842   9.596  -2.989  1.00  0.00    -0.200 F 
ATOM     82  C   UNL     1      -5.771   8.618  -4.928  1.00  0.00     0.200 A 
ATOM     83  F   UNL     1      -6.752   7.641  -6.840  1.00  0.00    -0.200 F 
ATOM     84  F   UNL     1      -4.713   9.011  -5.651  1.00  0.00    -0.200 F 
ENDBRANCH  50  74
BRANCH  62  85
ATOM     85  C   UNL     1     -12.992  11.468  -0.185  1.00  0.00     0.064 A 
ATOM     86  C   UNL     1     -13.372  12.299  -1.250  1.00  0.00     0.173 A 
ATOM     87  C   UNL     1     -12.865  12.052   1.086  1.00  0.00     0.173 A 
ATOM     88  F   UNL     1     -13.496  11.795  -2.487  1.00  0.00    -0.203 F 
ATOM     89  C   UNL     1     -13.587  13.661  -1.055  1.00  0.00     0.198 A 
ATOM     90  C   UNL     1     -13.114  13.408   1.283  1.00  0.00     0.198 A 
ATOM     91  F   UNL     1     -12.513  11.303   2.142  1.00  0.00    -0.203 F 
ATOM     92  F   UNL     1     -13.897  14.444  -2.098  1.00  0.00    -0.200 F 
ATOM     93  C   UNL     1     -13.466  14.213   0.211  1.00  0.00     0.200 A 
ATOM     94  F   UNL     1     -13.013  13.934   2.512  1.00  0.00    -0.200 F 
ATOM     95  F   UNL     1     -13.680  15.523   0.398  1.00  0.00    -0.200 F 
ENDBRANCH  62  85
ENDBRANCH  36  37
ENDBRANCH  29  31
ENDBRANCH  28  29
ENDBRANCH  27  28
ENDBRANCH  26  27
ENDBRANCH  25  26
ENDBRANCH  24  25
ENDBRANCH  23  24
ENDBRANCH   1  23
TORSDOF 22
