REMARK SMILES CC[NH+]1CCN(C(=O)c2ccccc2C(=O)OCCOCCOCCOC(=O)c2ccc(-c3c4nc(c(-c5c(F)c(F)c(F)c(F)c5F)c5ccc([nH]5)c(-c5c(F)c(F)c(F)c(F)c5F)c5nc(c(-c6c(F)c(F)c(F)c(F)c6F)c6ccc3[nH]6)C=C5)C=C4)cc2)CC1
REMARK SMILES IDX 21 1 20 2 19 3 18 4 17 5 15 6 16 7 14 8 9 9 10 10 11 11
REMARK SMILES IDX 13 12 12 13 7 14 3 15 4 16 93 17 5 19 92 20 6 21 8 22 2 23
REMARK SMILES IDX 1 24 22 25 23 26 24 27 25 28 26 29 27 30 28 31 29 32 30 33
REMARK SMILES IDX 91 34 31 35 90 36 32 37 33 38 34 39 84 40 35 41 89 42 83 43
REMARK SMILES IDX 85 44 36 45 88 46 82 47 81 48 37 50 69 51 49 52 68 53 50 54
REMARK SMILES IDX 53 55 67 56 86 57 51 58 52 59 66 61 87 62 54 63 38 64 39 65
REMARK SMILES IDX 47 66 40 67 41 68 45 69 48 70 42 71 43 72 46 73 44 74 70 75
REMARK SMILES IDX 71 76 79 77 72 78 73 79 77 80 80 81 74 82 75 83 78 84 76 85
REMARK SMILES IDX 55 86 56 87 64 88 57 89 58 90 62 91 65 92 59 93 60 94 63 95
REMARK SMILES IDX 61 96
REMARK H PARENT 3 18 85 49 53 60
REMARK Flexibility Score: inf
ROOT
ATOM      1  C   UNL     1       1.975  -4.858   6.476  1.00  0.00     0.188 C 
ENDROOT
BRANCH   1   2
ATOM      2  O   UNL     1       3.151  -4.090   6.244  1.00  0.00    -0.376 OA
BRANCH   2   3
ATOM      3  C   UNL     1       3.096  -3.069   5.250  1.00  0.00     0.202 C 
BRANCH   3   4
ATOM      4  C   UNL     1       2.427  -3.390   3.907  1.00  0.00     0.261 C 
BRANCH   4   5
ATOM      5  O   UNL     1       1.076  -3.899   4.011  1.00  0.00    -0.460 OA
BRANCH   5   6
ATOM      6  C   UNL     1       0.832  -5.081   3.399  1.00  0.00     0.339 C 
ATOM      7  O   UNL     1       1.618  -5.706   2.702  1.00  0.00    -0.246 OA
BRANCH   6   8
ATOM      8  C   UNL     1      -0.471  -5.674   3.775  1.00  0.00     0.072 A 
ATOM      9  C   UNL     1      -1.706  -5.015   3.791  1.00  0.00     0.054 A 
ATOM     10  C   UNL     1      -2.859  -5.732   4.175  1.00  0.00     0.015 A 
ATOM     11  C   UNL     1      -2.786  -7.079   4.539  1.00  0.00     0.001 A 
ATOM     12  C   UNL     1      -0.412  -7.033   4.152  1.00  0.00     0.016 A 
ATOM     13  C   UNL     1      -1.558  -7.727   4.539  1.00  0.00     0.001 A 
BRANCH   9  14
ATOM     14  C   UNL     1      -1.900  -3.563   3.597  1.00  0.00     0.255 C 
ATOM     15  N   UNL     1       0.654  -1.430   1.062  1.00  0.00    -0.332 N 
ATOM     16  C   UNL     1      -0.065  -0.901   2.247  1.00  0.00     0.284 C 
ATOM     17  C   UNL     1       0.498  -2.894   0.927  1.00  0.00     0.284 C 
ATOM     18  H   UNL     1       1.642  -1.239   1.229  1.00  0.00     0.348 HD
ATOM     19  C   UNL     1      -1.488  -1.449   2.446  1.00  0.00     0.181 C 
ATOM     20  C   UNL     1      -0.893  -3.485   1.242  1.00  0.00     0.181 C 
ATOM     21  N   UNL     1      -1.454  -2.909   2.462  1.00  0.00    -0.327 N 
ATOM     22  O   UNL     1      -2.518  -2.985   4.493  1.00  0.00    -0.269 OA
BRANCH  15  23
ATOM     23  C   UNL     1       0.307  -0.737  -0.178  1.00  0.00     0.258 C 
ATOM     24  C   UNL     1       1.016   0.610  -0.255  1.00  0.00     0.071 C 
ENDBRANCH  15  23
ENDBRANCH   9  14
ENDBRANCH   6   8
ENDBRANCH   5   6
ENDBRANCH   4   5
ENDBRANCH   3   4
ENDBRANCH   2   3
ENDBRANCH   1   2
BRANCH   1  25
ATOM     25  C   UNL     1       0.655  -4.121   6.808  1.00  0.00     0.188 C 
BRANCH  25  26
ATOM     26  O   UNL     1       0.714  -2.736   6.550  1.00  0.00    -0.376 OA
BRANCH  26  27
ATOM     27  C   UNL     1       0.792  -1.857   7.658  1.00  0.00     0.202 C 
BRANCH  27  28
ATOM     28  C   UNL     1       1.734  -2.129   8.854  1.00  0.00     0.261 C 
BRANCH  28  29
ATOM     29  O   UNL     1       2.106  -3.490   9.121  1.00  0.00    -0.460 OA
BRANCH  29  30
ATOM     30  C   UNL     1       1.315  -4.204   9.961  1.00  0.00     0.338 C 
ATOM     31  O   UNL     1       0.316  -3.821  10.531  1.00  0.00    -0.246 OA
BRANCH  30  32
ATOM     32  C   UNL     1       1.742  -5.625   9.891  1.00  0.00     0.060 A 
ATOM     33  C   UNL     1       0.830  -6.574   9.404  1.00  0.00     0.016 A 
ATOM     34  C   UNL     1       3.033  -6.014  10.252  1.00  0.00     0.016 A 
ATOM     35  C   UNL     1       1.203  -7.915   9.292  1.00  0.00     0.010 A 
ATOM     36  C   UNL     1       3.395  -7.365  10.171  1.00  0.00     0.010 A 
ATOM     37  C   UNL     1       2.474  -8.326   9.716  1.00  0.00    -0.014 A 
BRANCH  37  38
ATOM     38  C   UNL     1       2.758  -9.776   9.871  1.00  0.00     0.031 A 
ATOM     39  C   UNL     1       2.578 -10.394  11.231  1.00  0.00     0.074 A 
ATOM     40  C   UNL     1       3.132 -10.542   8.831  1.00  0.00     0.049 A 
ATOM     41  N   UNL     1       2.765 -11.630  11.620  1.00  0.00    -0.248 NA
ATOM     42  C   UNL     1       2.123  -9.489  12.299  1.00  0.00     0.031 C 
ATOM     43  C   UNL     1       3.308 -10.077   7.458  1.00  0.00     0.029 A 
ATOM     44  N   UNL     1       3.436 -11.881   8.776  1.00  0.00    -0.354 N 
ATOM     45  C   UNL     1       2.454 -11.649  12.974  1.00  0.00     0.074 A 
ATOM     46  C   UNL     1       2.101 -10.297  13.348  1.00  0.00     0.031 C 
ATOM     47  C   UNL     1       3.699 -11.114   6.695  1.00  0.00     0.029 A 
ATOM     48  C   UNL     1       3.828 -12.307   7.531  1.00  0.00     0.049 A 
ATOM     49  H   UNL     1       3.379 -12.479   9.556  1.00  0.00     0.167 HD
ATOM     50  C   UNL     1       2.451 -12.701  13.827  1.00  0.00     0.037 A 
ATOM     51  C   UNL     1       4.260 -13.517   7.121  1.00  0.00     0.037 A 
ATOM     52  C   UNL     1       2.815 -14.044  13.459  1.00  0.00     0.049 A 
ATOM     53  C   UNL     1       4.327 -14.657   8.110  1.00  0.00     0.074 A 
ATOM     54  C   UNL     1       2.829 -15.181  14.247  1.00  0.00     0.029 A 
ATOM     55  N   UNL     1       3.245 -14.428  12.197  1.00  0.00    -0.354 N 
ATOM     56  N   UNL     1       3.994 -14.678   9.378  1.00  0.00    -0.248 NA
ATOM     57  C   UNL     1       4.824 -15.945   7.604  1.00  0.00     0.031 C 
ATOM     58  C   UNL     1       3.329 -16.239  13.481  1.00  0.00     0.029 A 
ATOM     59  C   UNL     1       3.558 -15.779  12.194  1.00  0.00     0.049 A 
ATOM     60  H   UNL     1       3.318 -13.830  11.418  1.00  0.00     0.167 HD
ATOM     61  C   UNL     1       4.210 -15.981   9.812  1.00  0.00     0.074 A 
ATOM     62  C   UNL     1       4.686 -16.726   8.665  1.00  0.00     0.031 C 
ATOM     63  C   UNL     1       4.028 -16.513  11.046  1.00  0.00     0.037 A 
BRANCH  50  64
ATOM     64  C   UNL     1       2.075 -12.430  15.256  1.00  0.00     0.064 A 
ATOM     65  C   UNL     1       0.765 -12.085  15.625  1.00  0.00     0.173 A 
ATOM     66  C   UNL     1       3.035 -12.537  16.274  1.00  0.00     0.173 A 
ATOM     67  F   UNL     1      -0.188 -11.954  14.689  1.00  0.00    -0.203 F 
ATOM     68  C   UNL     1       0.439 -11.828  16.954  1.00  0.00     0.198 A 
ATOM     69  C   UNL     1       2.697 -12.313  17.606  1.00  0.00     0.198 A 
ATOM     70  F   UNL     1       4.301 -12.867  15.978  1.00  0.00    -0.203 F 
ATOM     71  F   UNL     1      -0.805 -11.446  17.275  1.00  0.00    -0.200 F 
ATOM     72  C   UNL     1       1.403 -11.949  17.944  1.00  0.00     0.200 A 
ATOM     73  F   UNL     1       3.626 -12.446  18.562  1.00  0.00    -0.200 F 
ATOM     74  F   UNL     1       1.085 -11.708  19.223  1.00  0.00    -0.200 F 
ENDBRANCH  50  64
BRANCH  51  75
ATOM     75  C   UNL     1       4.673 -13.722   5.706  1.00  0.00     0.064 A 
ATOM     76  C   UNL     1       3.943 -14.561   4.851  1.00  0.00     0.173 A 
ATOM     77  C   UNL     1       5.822 -13.107   5.187  1.00  0.00     0.173 A 
ATOM     78  F   UNL     1       2.854 -15.197   5.307  1.00  0.00    -0.203 F 
ATOM     79  C   UNL     1       4.356 -14.790   3.540  1.00  0.00     0.198 A 
ATOM     80  C   UNL     1       6.216 -13.311   3.866  1.00  0.00     0.198 A 
ATOM     81  F   UNL     1       6.561 -12.302   5.964  1.00  0.00    -0.203 F 
ATOM     82  F   UNL     1       3.668 -15.637   2.762  1.00  0.00    -0.200 F 
ATOM     83  C   UNL     1       5.487 -14.159   3.046  1.00  0.00     0.200 A 
ATOM     84  F   UNL     1       7.305 -12.692   3.390  1.00  0.00    -0.200 F 
ATOM     85  F   UNL     1       5.882 -14.377   1.784  1.00  0.00    -0.200 F 
ENDBRANCH  51  75
BRANCH  63  86
ATOM     86  C   UNL     1       4.302 -17.983  11.217  1.00  0.00     0.064 A 
ATOM     87  C   UNL     1       5.601 -18.509  11.155  1.00  0.00     0.173 A 
ATOM     88  C   UNL     1       3.249 -18.874  11.481  1.00  0.00     0.173 A 
ATOM     89  F   UNL     1       6.644 -17.705  10.895  1.00  0.00    -0.203 F 
ATOM     90  C   UNL     1       5.832 -19.874  11.313  1.00  0.00     0.198 A 
ATOM     91  C   UNL     1       3.487 -20.232  11.676  1.00  0.00     0.198 A 
ATOM     92  F   UNL     1       1.988 -18.425  11.563  1.00  0.00    -0.203 F 
ATOM     93  F   UNL     1       7.074 -20.360  11.189  1.00  0.00    -0.200 F 
ATOM     94  C   UNL     1       4.776 -20.732  11.581  1.00  0.00     0.200 A 
ATOM     95  F   UNL     1       2.468 -21.056  11.954  1.00  0.00    -0.200 F 
ATOM     96  F   UNL     1       5.000 -22.044  11.739  1.00  0.00    -0.200 F 
ENDBRANCH  63  86
ENDBRANCH  37  38
ENDBRANCH  30  32
ENDBRANCH  29  30
ENDBRANCH  28  29
ENDBRANCH  27  28
ENDBRANCH  26  27
ENDBRANCH  25  26
ENDBRANCH   1  25
TORSDOF 19
