REMARK SMILES CC(C)(C)OC(=O)N1CCC[C@]1(Cc1ccccc1)C(=O)OCCOCCOCCOC(=O)c1ccc(-c2c3nc(c(-c4c(F)c(F)c(F)c(F)c4F)c4ccc([nH]4)c(-c4c(F)c(F)c(F)c(F)c4F)c4nc(c(-c5c(F)c(F)c(F)c(F)c5F)c5ccc2[nH]5)C=C4)C=C3)cc1
REMARK SMILES IDX 26 1 25 2 24 3 23 4 22 5 20 6 21 7 12 8 8 9 9 10 10 11 11 12
REMARK SMILES IDX 6 13 7 14 5 15 2 16 1 17 3 18 4 19 13 20 14 21 15 22 19 23
REMARK SMILES IDX 16 24 18 25 17 26 27 27 28 28 29 29 30 30 31 31 32 32 33 33
REMARK SMILES IDX 34 34 35 35 96 36 36 37 95 38 37 39 38 40 39 41 89 42 40 43
REMARK SMILES IDX 94 44 88 45 90 46 41 47 93 48 87 49 86 50 42 52 74 53 54 54
REMARK SMILES IDX 73 55 55 56 58 57 72 58 91 59 56 60 57 61 71 63 92 64 59 65
REMARK SMILES IDX 43 66 44 67 52 68 45 69 46 70 50 71 53 72 47 73 48 74 51 75
REMARK SMILES IDX 49 76 75 77 76 78 84 79 77 80 78 81 82 82 85 83 79 84 80 85
REMARK SMILES IDX 83 86 81 87 60 88 61 89 69 90 62 91 63 92 67 93 70 94 64 95
REMARK SMILES IDX 65 96 68 97 66 98
REMARK H PARENT 90 51 58 62
REMARK Flexibility Score: inf
ROOT
ATOM      1  C   UNL     1      -2.671  -3.079   3.088  1.00  0.00     0.188 C 
ENDROOT
BRANCH   1   2
ATOM      2  O   UNL     1      -3.761  -3.843   2.624  1.00  0.00    -0.376 OA
BRANCH   2   3
ATOM      3  C   UNL     1      -3.877  -5.180   3.080  1.00  0.00     0.202 C 
BRANCH   3   4
ATOM      4  C   UNL     1      -2.653  -6.106   3.210  1.00  0.00     0.261 C 
BRANCH   4   5
ATOM      5  O   UNL     1      -1.528  -5.619   3.983  1.00  0.00    -0.461 OA
BRANCH   5   6
ATOM      6  C   UNL     1      -0.341  -5.569   3.312  1.00  0.00     0.332 C 
ATOM      7  O   UNL     1      -0.245  -5.858   2.118  1.00  0.00    -0.249 OA
BRANCH   6   8
ATOM      8  C   UNL     1       0.911  -5.149   4.160  1.00  0.00     0.147 C 
ATOM      9  N   UNL     1       1.647  -4.189   3.302  1.00  0.00    -0.291 N 
ATOM     10  C   UNL     1       2.886  -4.731   2.797  1.00  0.00     0.124 C 
ATOM     11  C   UNL     1       2.727  -6.228   2.929  1.00  0.00     0.025 C 
ATOM     12  C   UNL     1       1.851  -6.386   4.171  1.00  0.00     0.043 C 
BRANCH   9  13
ATOM     13  C   UNL     1       1.186  -2.941   2.994  1.00  0.00     0.411 C 
ATOM     14  O   UNL     1       0.369  -2.349   3.674  1.00  0.00    -0.224 OA
BRANCH  13  15
ATOM     15  O   UNL     1       1.724  -2.469   1.839  1.00  0.00    -0.444 OA
BRANCH  15  16
ATOM     16  C   UNL     1       1.301  -1.183   1.336  1.00  0.00     0.106 C 
ATOM     17  C   UNL     1       1.828  -1.093  -0.105  1.00  0.00     0.056 C 
ATOM     18  C   UNL     1       1.964  -0.081   2.166  1.00  0.00     0.056 C 
ATOM     19  C   UNL     1      -0.222  -1.056   1.288  1.00  0.00     0.056 C 
ENDBRANCH  15  16
ENDBRANCH  13  15
ENDBRANCH   9  13
BRANCH   8  20
ATOM     20  C   UNL     1       0.634  -4.693   5.620  1.00  0.00     0.076 C 
BRANCH  20  21
ATOM     21  C   UNL     1       1.813  -4.191   6.445  1.00  0.00    -0.045 A 
ATOM     22  C   UNL     1       2.190  -4.856   7.619  1.00  0.00     0.004 A 
ATOM     23  C   UNL     1       2.511  -3.022   6.103  1.00  0.00     0.004 A 
ATOM     24  C   UNL     1       3.269  -4.398   8.383  1.00  0.00     0.000 A 
ATOM     25  C   UNL     1       3.602  -2.577   6.849  1.00  0.00     0.000 A 
ATOM     26  C   UNL     1       3.986  -3.271   7.988  1.00  0.00     0.000 A 
ENDBRANCH  20  21
ENDBRANCH   8  20
ENDBRANCH   6   8
ENDBRANCH   5   6
ENDBRANCH   4   5
ENDBRANCH   3   4
ENDBRANCH   2   3
ENDBRANCH   1   2
BRANCH   1  27
ATOM     27  C   UNL     1      -2.493  -2.852   4.591  1.00  0.00     0.188 C 
BRANCH  27  28
ATOM     28  O   UNL     1      -3.174  -3.627   5.543  1.00  0.00    -0.376 OA
BRANCH  28  29
ATOM     29  C   UNL     1      -4.495  -3.298   5.926  1.00  0.00     0.202 C 
BRANCH  29  30
ATOM     30  C   UNL     1      -5.135  -1.896   5.833  1.00  0.00     0.261 C 
BRANCH  30  31
ATOM     31  O   UNL     1      -4.559  -0.935   4.940  1.00  0.00    -0.460 OA
BRANCH  31  32
ATOM     32  C   UNL     1      -3.756  -0.006   5.528  1.00  0.00     0.338 C 
ATOM     33  O   UNL     1      -3.509   0.098   6.718  1.00  0.00    -0.246 OA
BRANCH  32  34
ATOM     34  C   UNL     1      -3.025   0.749   4.478  1.00  0.00     0.060 A 
ATOM     35  C   UNL     1      -1.628   0.784   4.538  1.00  0.00     0.016 A 
ATOM     36  C   UNL     1      -3.690   1.430   3.455  1.00  0.00     0.016 A 
ATOM     37  C   UNL     1      -0.905   1.512   3.586  1.00  0.00     0.010 A 
ATOM     38  C   UNL     1      -2.960   2.179   2.514  1.00  0.00     0.010 A 
ATOM     39  C   UNL     1      -1.559   2.240   2.574  1.00  0.00    -0.014 A 
BRANCH  39  40
ATOM     40  C   UNL     1      -0.771   3.205   1.741  1.00  0.00     0.031 A 
ATOM     41  C   UNL     1      -0.317   4.480   2.394  1.00  0.00     0.074 A 
ATOM     42  C   UNL     1      -0.428   2.986   0.454  1.00  0.00     0.049 A 
ATOM     43  N   UNL     1       0.340   5.486   1.875  1.00  0.00    -0.248 NA
ATOM     44  C   UNL     1      -0.708   4.673   3.799  1.00  0.00     0.031 C 
ATOM     45  C   UNL     1      -0.860   1.855  -0.348  1.00  0.00     0.029 A 
ATOM     46  N   UNL     1       0.417   3.671  -0.395  1.00  0.00    -0.354 N 
ATOM     47  C   UNL     1       0.364   6.461   2.860  1.00  0.00     0.074 A 
ATOM     48  C   UNL     1      -0.279   5.903   4.029  1.00  0.00     0.031 C 
ATOM     49  C   UNL     1      -0.129   1.799  -1.474  1.00  0.00     0.029 A 
ATOM     50  C   UNL     1       0.695   3.000  -1.569  1.00  0.00     0.049 A 
ATOM     51  H   UNL     1       0.789   4.558  -0.182  1.00  0.00     0.167 HD
ATOM     52  C   UNL     1       0.813   7.734   2.770  1.00  0.00     0.037 A 
ATOM     53  C   UNL     1       1.483   3.333  -2.617  1.00  0.00     0.037 A 
ATOM     54  C   UNL     1       1.415   8.302   1.593  1.00  0.00     0.049 A 
ATOM     55  C   UNL     1       2.034   4.740  -2.668  1.00  0.00     0.074 A 
ATOM     56  C   UNL     1       1.844   9.600   1.387  1.00  0.00     0.029 A 
ATOM     57  N   UNL     1       1.665   7.607   0.418  1.00  0.00    -0.354 N 
ATOM     58  N   UNL     1       1.994   5.679  -1.755  1.00  0.00    -0.248 NA
ATOM     59  C   UNL     1       2.658   5.166  -3.932  1.00  0.00     0.031 C 
ATOM     60  C   UNL     1       2.304   9.706   0.071  1.00  0.00     0.029 A 
ATOM     61  C   UNL     1       2.237   8.454  -0.517  1.00  0.00     0.049 A 
ATOM     62  H   UNL     1       1.465   6.654   0.271  1.00  0.00     0.167 HD
ATOM     63  C   UNL     1       2.558   6.806  -2.339  1.00  0.00     0.074 A 
ATOM     64  C   UNL     1       2.989   6.421  -3.665  1.00  0.00     0.031 C 
ATOM     65  C   UNL     1       2.673   8.058  -1.832  1.00  0.00     0.037 A 
BRANCH  52  66
ATOM     66  C   UNL     1       0.546   8.628   3.944  1.00  0.00     0.064 A 
ATOM     67  C   UNL     1       1.208   8.472   5.170  1.00  0.00     0.173 A 
ATOM     68  C   UNL     1      -0.418   9.644   3.841  1.00  0.00     0.173 A 
ATOM     69  F   UNL     1       2.115   7.496   5.328  1.00  0.00    -0.203 F 
ATOM     70  C   UNL     1       0.890   9.278   6.259  1.00  0.00     0.198 A 
ATOM     71  C   UNL     1      -0.706  10.472   4.920  1.00  0.00     0.198 A 
ATOM     72  F   UNL     1      -1.085   9.830   2.692  1.00  0.00    -0.203 F 
ATOM     73  F   UNL     1       1.484   9.067   7.442  1.00  0.00    -0.200 F 
ATOM     74  C   UNL     1      -0.061  10.281   6.132  1.00  0.00     0.200 A 
ATOM     75  F   UNL     1      -1.617  11.446   4.790  1.00  0.00    -0.200 F 
ATOM     76  F   UNL     1      -0.366  11.055   7.182  1.00  0.00    -0.200 F 
ENDBRANCH  52  66
BRANCH  53  77
ATOM     77  C   UNL     1       1.740   2.393  -3.755  1.00  0.00     0.064 A 
ATOM     78  C   UNL     1       3.054   2.033  -4.109  1.00  0.00     0.173 A 
ATOM     79  C   UNL     1       0.709   1.879  -4.556  1.00  0.00     0.173 A 
ATOM     80  F   UNL     1       4.093   2.529  -3.420  1.00  0.00    -0.203 F 
ATOM     81  C   UNL     1       3.319   1.215  -5.210  1.00  0.00     0.198 A 
ATOM     82  C   UNL     1       0.970   1.016  -5.620  1.00  0.00     0.198 A 
ATOM     83  F   UNL     1      -0.565   2.217  -4.312  1.00  0.00    -0.203 F 
ATOM     84  F   UNL     1       4.586   0.957  -5.564  1.00  0.00    -0.200 F 
ATOM     85  C   UNL     1       2.275   0.694  -5.955  1.00  0.00     0.200 A 
ATOM     86  F   UNL     1      -0.047   0.507  -6.329  1.00  0.00    -0.200 F 
ATOM     87  F   UNL     1       2.525  -0.100  -7.006  1.00  0.00    -0.200 F 
ENDBRANCH  53  77
BRANCH  65  88
ATOM     88  C   UNL     1       3.324   9.103  -2.693  1.00  0.00     0.064 A 
ATOM     89  C   UNL     1       2.690   9.632  -3.828  1.00  0.00     0.173 A 
ATOM     90  C   UNL     1       4.575   9.628  -2.337  1.00  0.00     0.173 A 
ATOM     91  F   UNL     1       1.498   9.157  -4.219  1.00  0.00    -0.203 F 
ATOM     92  C   UNL     1       3.296  10.632  -4.585  1.00  0.00     0.198 A 
ATOM     93  C   UNL     1       5.162  10.650  -3.076  1.00  0.00     0.198 A 
ATOM     94  F   UNL     1       5.221   9.163  -1.256  1.00  0.00    -0.203 F 
ATOM     95  F   UNL     1       2.692  11.093  -5.689  1.00  0.00    -0.200 F 
ATOM     96  C   UNL     1       4.526  11.147  -4.203  1.00  0.00     0.200 A 
ATOM     97  F   UNL     1       6.343  11.158  -2.695  1.00  0.00    -0.200 F 
ATOM     98  F   UNL     1       5.100  12.120  -4.924  1.00  0.00    -0.200 F 
ENDBRANCH  65  88
ENDBRANCH  39  40
ENDBRANCH  32  34
ENDBRANCH  31  32
ENDBRANCH  30  31
ENDBRANCH  29  30
ENDBRANCH  28  29
ENDBRANCH  27  28
ENDBRANCH   1  27
TORSDOF 22
