REMARK SMILES C[C@@H]1[C@H](C(=O)OCCOCCOCCOC(=O)c2ccc(-c3c4nc(c(-c5c(F)c(F)c(F)c(F)c5F)c5ccc([nH]5)c(-c5c(F)c(F)c(F)c(F)c5F)c5nc(c(-c6c(F)c(F)c(F)c(F)c6F)c6ccc3[nH]6)C=C5)C=C4)cc2)CCN1C(=O)COCc1ccccc1
REMARK SMILES IDX 9 1 8 2 7 3 6 4 4 5 5 6 3 7 1 8 2 9 83 10 81 11 82 12 84 13
REMARK SMILES IDX 85 14 86 15 87 16 88 17 89 18 90 19 94 20 91 21 93 22 92 23
REMARK SMILES IDX 10 24 11 25 12 26 13 27 14 28 15 29 16 30 17 31 18 32 19 33
REMARK SMILES IDX 80 34 20 35 79 36 21 37 22 38 23 39 73 40 24 41 78 42 72 43
REMARK SMILES IDX 74 44 25 45 77 46 71 47 70 48 26 50 58 51 38 52 57 53 39 54
REMARK SMILES IDX 42 55 56 56 75 57 40 58 41 59 55 61 76 62 43 63 27 64 28 65
REMARK SMILES IDX 36 66 29 67 30 68 34 69 37 70 31 71 32 72 35 73 33 74 59 75
REMARK SMILES IDX 60 76 68 77 61 78 62 79 66 80 69 81 63 82 64 83 67 84 65 85
REMARK SMILES IDX 44 86 45 87 53 88 46 89 47 90 51 91 54 92 48 93 49 94 52 95
REMARK SMILES IDX 50 96
REMARK H PARENT 74 49 42 60
REMARK Flexibility Score: inf
ROOT
ATOM      1  O   UNL     1       2.600   4.788  -0.850  1.00  0.00    -0.376 OA
ENDROOT
BRANCH   1   2
ATOM      2  C   UNL     1       2.583   4.753   0.575  1.00  0.00     0.202 C 
BRANCH   2   3
ATOM      3  C   UNL     1       1.374   4.156   1.316  1.00  0.00     0.261 C 
BRANCH   3   4
ATOM      4  O   UNL     1       1.086   2.782   0.970  1.00  0.00    -0.463 OA
BRANCH   4   5
ATOM      5  C   UNL     1      -0.207   2.492   0.706  1.00  0.00     0.311 C 
ATOM      6  O   UNL     1      -1.118   3.311   0.792  1.00  0.00    -0.252 OA
BRANCH   5   7
ATOM      7  C   UNL     1      -0.467   1.095   0.170  1.00  0.00     0.123 C 
ATOM      8  C   UNL     1       1.330  -0.199   1.541  1.00  0.00     0.032 C 
ATOM      9  C   UNL     1       0.510  -0.095   0.259  1.00  0.00     0.096 C 
ATOM     10  N   UNL     1      -0.394  -1.256   0.128  1.00  0.00    -0.337 N 
ATOM     11  C   UNL     1      -1.720   0.547   0.863  1.00  0.00     0.039 C 
ATOM     12  C   UNL     1      -1.768  -0.900   0.427  1.00  0.00     0.121 C 
BRANCH  10  13
ATOM     13  C   UNL     1      -0.125  -2.522  -0.352  1.00  0.00     0.248 C 
ATOM     14  O   UNL     1      -1.009  -3.382  -0.403  1.00  0.00    -0.272 OA
BRANCH  13  15
ATOM     15  C   UNL     1       1.279  -2.821  -0.894  1.00  0.00     0.260 C 
BRANCH  15  16
ATOM     16  O   UNL     1       1.563  -2.333  -2.203  1.00  0.00    -0.367 OA
BRANCH  16  17
ATOM     17  C   UNL     1       0.689  -2.843  -3.218  1.00  0.00     0.196 C 
BRANCH  17  18
ATOM     18  C   UNL     1       0.720  -4.346  -3.360  1.00  0.00    -0.022 A 
ATOM     19  C   UNL     1      -0.475  -5.079  -3.344  1.00  0.00     0.006 A 
ATOM     20  C   UNL     1       1.936  -5.032  -3.487  1.00  0.00     0.006 A 
ATOM     21  C   UNL     1      -0.453  -6.472  -3.420  1.00  0.00     0.000 A 
ATOM     22  C   UNL     1       1.956  -6.426  -3.554  1.00  0.00     0.000 A 
ATOM     23  C   UNL     1       0.763  -7.146  -3.516  1.00  0.00     0.000 A 
ENDBRANCH  17  18
ENDBRANCH  16  17
ENDBRANCH  15  16
ENDBRANCH  13  15
ENDBRANCH  10  13
ENDBRANCH   5   7
ENDBRANCH   4   5
ENDBRANCH   3   4
ENDBRANCH   2   3
ENDBRANCH   1   2
BRANCH   1  24
ATOM     24  C   UNL     1       2.129   3.657  -1.556  1.00  0.00     0.188 C 
BRANCH  24  25
ATOM     25  C   UNL     1       2.760   2.289  -1.273  1.00  0.00     0.188 C 
BRANCH  25  26
ATOM     26  O   UNL     1       3.535   2.123  -0.116  1.00  0.00    -0.376 OA
BRANCH  26  27
ATOM     27  C   UNL     1       4.947   2.262  -0.128  1.00  0.00     0.202 C 
BRANCH  27  28
ATOM     28  C   UNL     1       5.826   2.656  -1.333  1.00  0.00     0.261 C 
BRANCH  28  29
ATOM     29  O   UNL     1       5.214   2.768  -2.617  1.00  0.00    -0.460 OA
BRANCH  29  30
ATOM     30  C   UNL     1       5.166   1.629  -3.355  1.00  0.00     0.338 C 
ATOM     31  O   UNL     1       5.594   0.535  -3.054  1.00  0.00    -0.246 OA
BRANCH  30  32
ATOM     32  C   UNL     1       4.262   1.897  -4.497  1.00  0.00     0.060 A 
ATOM     33  C   UNL     1       3.082   1.146  -4.615  1.00  0.00     0.016 A 
ATOM     34  C   UNL     1       4.549   2.915  -5.407  1.00  0.00     0.016 A 
ATOM     35  C   UNL     1       2.189   1.405  -5.654  1.00  0.00     0.010 A 
ATOM     36  C   UNL     1       3.671   3.151  -6.466  1.00  0.00     0.010 A 
ATOM     37  C   UNL     1       2.501   2.380  -6.609  1.00  0.00    -0.014 A 
BRANCH  37  38
ATOM     38  C   UNL     1       1.732   2.456  -7.874  1.00  0.00     0.031 A 
ATOM     39  C   UNL     1       2.297   1.761  -9.082  1.00  0.00     0.074 A 
ATOM     40  C   UNL     1       0.567   3.121  -7.960  1.00  0.00     0.049 A 
ATOM     41  N   UNL     1       1.879   1.769 -10.322  1.00  0.00    -0.248 NA
ATOM     42  C   UNL     1       3.505   0.951  -8.857  1.00  0.00     0.031 C 
ATOM     43  C   UNL     1      -0.114   3.787  -6.853  1.00  0.00     0.029 A 
ATOM     44  N   UNL     1      -0.243   3.355  -9.044  1.00  0.00    -0.354 N 
ATOM     45  C   UNL     1       2.777   0.975 -11.023  1.00  0.00     0.074 A 
ATOM     46  C   UNL     1       3.780   0.529 -10.082  1.00  0.00     0.031 C 
ATOM     47  C   UNL     1      -1.232   4.372  -7.319  1.00  0.00     0.029 A 
ATOM     48  C   UNL     1      -1.323   4.155  -8.763  1.00  0.00     0.049 A 
ATOM     49  H   UNL     1      -0.065   2.985  -9.939  1.00  0.00     0.167 HD
ATOM     50  C   UNL     1       2.760   0.638 -12.334  1.00  0.00     0.037 A 
ATOM     51  C   UNL     1      -2.255   4.676  -9.586  1.00  0.00     0.037 A 
ATOM     52  C   UNL     1       1.766   1.089 -13.271  1.00  0.00     0.049 A 
ATOM     53  C   UNL     1      -2.191   4.370 -11.064  1.00  0.00     0.074 A 
ATOM     54  C   UNL     1       1.661   0.804 -14.621  1.00  0.00     0.029 A 
ATOM     55  N   UNL     1       0.707   1.927 -12.955  1.00  0.00    -0.354 N 
ATOM     56  N   UNL     1      -1.350   3.609 -11.722  1.00  0.00    -0.248 NA
ATOM     57  C   UNL     1      -3.212   5.001 -11.916  1.00  0.00     0.031 C 
ATOM     58  C   UNL     1       0.574   1.517 -15.134  1.00  0.00     0.029 A 
ATOM     59  C   UNL     1      -0.041   2.190 -14.091  1.00  0.00     0.049 A 
ATOM     60  H   UNL     1       0.515   2.281 -12.057  1.00  0.00     0.167 HD
ATOM     61  C   UNL     1      -1.764   3.636 -13.049  1.00  0.00     0.074 A 
ATOM     62  C   UNL     1      -2.938   4.480 -13.103  1.00  0.00     0.031 C 
ATOM     63  C   UNL     1      -1.221   3.016 -14.127  1.00  0.00     0.037 A 
BRANCH  50  64
ATOM     64  C   UNL     1       3.868  -0.240 -12.838  1.00  0.00     0.064 A 
ATOM     65  C   UNL     1       3.966  -1.590 -12.467  1.00  0.00     0.173 A 
ATOM     66  C   UNL     1       4.826   0.266 -13.729  1.00  0.00     0.173 A 
ATOM     67  F   UNL     1       3.085  -2.119 -11.604  1.00  0.00    -0.203 F 
ATOM     68  C   UNL     1       4.996  -2.393 -12.950  1.00  0.00     0.198 A 
ATOM     69  C   UNL     1       5.834  -0.548 -14.236  1.00  0.00     0.198 A 
ATOM     70  F   UNL     1       4.778   1.550 -14.116  1.00  0.00    -0.203 F 
ATOM     71  F   UNL     1       5.099  -3.665 -12.542  1.00  0.00    -0.200 F 
ATOM     72  C   UNL     1       5.923  -1.874 -13.840  1.00  0.00     0.200 A 
ATOM     73  F   UNL     1       6.721  -0.048 -15.108  1.00  0.00    -0.200 F 
ATOM     74  F   UNL     1       6.908  -2.650 -14.313  1.00  0.00    -0.200 F 
ENDBRANCH  50  64
BRANCH  51  75
ATOM     75  C   UNL     1      -3.326   5.560  -9.049  1.00  0.00     0.064 A 
ATOM     76  C   UNL     1      -4.673   5.172  -9.096  1.00  0.00     0.173 A 
ATOM     77  C   UNL     1      -3.034   6.830  -8.530  1.00  0.00     0.173 A 
ATOM     78  F   UNL     1      -5.009   3.980  -9.611  1.00  0.00    -0.203 F 
ATOM     79  C   UNL     1      -5.686   6.030  -8.673  1.00  0.00     0.198 A 
ATOM     80  C   UNL     1      -4.045   7.673  -8.075  1.00  0.00     0.198 A 
ATOM     81  F   UNL     1      -1.763   7.255  -8.468  1.00  0.00    -0.203 F 
ATOM     82  F   UNL     1      -6.968   5.659  -8.791  1.00  0.00    -0.200 F 
ATOM     83  C   UNL     1      -5.371   7.278  -8.158  1.00  0.00     0.200 A 
ATOM     84  F   UNL     1      -3.735   8.875  -7.568  1.00  0.00    -0.200 F 
ATOM     85  F   UNL     1      -6.346   8.105  -7.755  1.00  0.00    -0.200 F 
ENDBRANCH  51  75
BRANCH  63  86
ATOM     86  C   UNL     1      -1.921   3.175 -15.449  1.00  0.00     0.064 A 
ATOM     87  C   UNL     1      -1.930   4.393 -16.144  1.00  0.00     0.173 A 
ATOM     88  C   UNL     1      -2.551   2.073 -16.051  1.00  0.00     0.173 A 
ATOM     89  F   UNL     1      -1.353   5.480 -15.610  1.00  0.00    -0.203 F 
ATOM     90  C   UNL     1      -2.570   4.510 -17.377  1.00  0.00     0.198 A 
ATOM     91  C   UNL     1      -3.157   2.184 -17.299  1.00  0.00     0.198 A 
ATOM     92  F   UNL     1      -2.564   0.881 -15.435  1.00  0.00    -0.203 F 
ATOM     93  F   UNL     1      -2.611   5.697 -17.997  1.00  0.00    -0.200 F 
ATOM     94  C   UNL     1      -3.174   3.404 -17.957  1.00  0.00     0.200 A 
ATOM     95  F   UNL     1      -3.724   1.110 -17.866  1.00  0.00    -0.200 F 
ATOM     96  F   UNL     1      -3.779   3.517 -19.147  1.00  0.00    -0.200 F 
ENDBRANCH  63  86
ENDBRANCH  37  38
ENDBRANCH  30  32
ENDBRANCH  29  30
ENDBRANCH  28  29
ENDBRANCH  27  28
ENDBRANCH  26  27
ENDBRANCH  25  26
ENDBRANCH  24  25
ENDBRANCH   1  24
TORSDOF 22
