REMARK SMILES COc1cc(Cl)c(C)cc1N1C(=O)C[C@H](Nc2cc(C(=O)OCCOCCOCCOC(=O)c3ccc(-c4c5nc(c(-c6c(F)c(F)c(F)c(F)c6F)c6ccc([nH]6)c(-c6c(F)c(F)c(F)c(F)c6F)c6nc(c(-c7c(F)c(F)c(F)c(F)c7F)c7ccc4[nH]7)C=C6)C=C5)cc3)ccc2C)C1=O
REMARK SMILES IDX 26 1 25 2 24 3 23 4 22 5 20 6 21 7 19 8 17 9 18 10 99 11
REMARK SMILES IDX 98 12 100 13 97 14 16 15 15 17 11 18 12 19 101 20 13 21
REMARK SMILES IDX 14 22 102 23 10 24 3 25 4 26 5 27 9 28 6 29 7 30 8 31 2 32
REMARK SMILES IDX 1 33 27 34 28 35 29 36 30 37 31 38 32 39 33 40 34 41 35 42
REMARK SMILES IDX 96 43 36 44 95 45 37 46 38 47 39 48 89 49 40 50 94 51 88 52
REMARK SMILES IDX 90 53 41 54 93 55 87 56 86 57 42 59 74 60 54 61 73 62 55 63
REMARK SMILES IDX 58 64 72 65 91 66 56 67 57 68 71 70 92 71 59 72 43 73 44 74
REMARK SMILES IDX 52 75 45 76 46 77 50 78 53 79 47 80 48 81 51 82 49 83 75 84
REMARK SMILES IDX 76 85 84 86 77 87 78 88 82 89 85 90 79 91 80 92 83 93 81 94
REMARK SMILES IDX 60 95 61 96 69 97 62 98 63 99 67 100 70 101 64 102 65 103
REMARK SMILES IDX 68 104 66 105
REMARK H PARENT 16 16 90 58 58 69
REMARK Flexibility Score: inf
ROOT
ATOM      1  C   UNL     1       3.180  -6.366   7.450  1.00  0.00     0.188 C 
ENDROOT
BRANCH   1   2
ATOM      2  O   UNL     1       2.285  -6.424   6.310  1.00  0.00    -0.376 OA
BRANCH   2   3
ATOM      3  C   UNL     1       2.046  -5.238   5.503  1.00  0.00     0.202 C 
BRANCH   3   4
ATOM      4  C   UNL     1       2.571  -5.275   3.911  1.00  0.00     0.261 C 
BRANCH   4   5
ATOM      5  O   UNL     1       3.990  -4.701   3.260  1.00  0.00    -0.460 OA
BRANCH   5   6
ATOM      6  C   UNL     1       4.774  -3.550   3.221  1.00  0.00     0.338 C 
ATOM      7  O   UNL     1       4.533  -2.415   3.619  1.00  0.00    -0.246 OA
BRANCH   6   8
ATOM      8  C   UNL     1       6.146  -3.500   2.674  1.00  0.00     0.062 A 
ATOM      9  C   UNL     1       7.001  -2.475   0.677  1.00  0.00     0.038 A 
ATOM     10  C   UNL     1       6.165  -3.420   1.298  1.00  0.00     0.041 A 
ATOM     11  C   UNL     1       8.020  -1.810   1.394  1.00  0.00    -0.028 A 
ATOM     12  C   UNL     1       8.095  -1.991   2.774  1.00  0.00     0.006 A 
ATOM     13  C   UNL     1       9.021  -0.900   0.737  1.00  0.00     0.046 C 
ATOM     14  C   UNL     1       7.125  -2.769   3.408  1.00  0.00     0.016 A 
BRANCH   9  15
ATOM     15  N   UNL     1       6.541  -1.962  -0.562  1.00  0.00    -0.373 N 
ATOM     16  H   UNL     1       6.889  -2.235  -1.442  1.00  0.00     0.161 HD
BRANCH  15  17
ATOM     17  C   UNL     1       5.460  -0.953  -0.355  1.00  0.00     0.179 C 
ATOM     18  N   UNL     1       3.649  -1.119  -1.834  1.00  0.00    -0.245 N 
ATOM     19  C   UNL     1       4.515  -0.225  -2.405  1.00  0.00     0.236 C 
ATOM     20  C   UNL     1       4.077  -1.554  -0.603  1.00  0.00     0.256 C 
ATOM     21  O   UNL     1       4.424   0.305  -3.504  1.00  0.00    -0.274 OA
ATOM     22  C   UNL     1       5.564   0.140  -1.399  1.00  0.00     0.136 C 
ATOM     23  O   UNL     1       3.541  -2.391   0.113  1.00  0.00    -0.272 OA
BRANCH  18  24
ATOM     24  C   UNL     1       2.495  -1.628  -2.466  1.00  0.00     0.094 A 
ATOM     25  C   UNL     1       1.248  -1.652  -1.823  1.00  0.00     0.144 A 
ATOM     26  C   UNL     1       0.160  -2.297  -2.414  1.00  0.00     0.069 A 
ATOM     27  C   UNL     1       0.302  -2.905  -3.663  1.00  0.00     0.047 A 
ATOM     28  C   UNL     1       2.615  -2.206  -3.739  1.00  0.00     0.035 A 
ATOM     29  Cl  UNL     1      -1.080  -3.685  -4.345  1.00  0.00    -0.084 Cl
ATOM     30  C   UNL     1       1.533  -2.875  -4.338  1.00  0.00    -0.030 A 
ATOM     31  C   UNL     1       1.731  -3.560  -5.662  1.00  0.00     0.046 C 
BRANCH  25  32
ATOM     32  O   UNL     1       1.010  -1.055  -0.609  1.00  0.00    -0.495 OA
ATOM     33  C   UNL     1       1.109   0.367  -0.688  1.00  0.00     0.278 C 
ENDBRANCH  25  32
ENDBRANCH  18  24
ENDBRANCH  15  17
ENDBRANCH   9  15
ENDBRANCH   6   8
ENDBRANCH   5   6
ENDBRANCH   4   5
ENDBRANCH   3   4
ENDBRANCH   2   3
ENDBRANCH   1   2
BRANCH   1  34
ATOM     34  C   UNL     1       4.092  -7.611   7.432  1.00  0.00     0.188 C 
BRANCH  34  35
ATOM     35  O   UNL     1       4.355  -7.874   6.061  1.00  0.00    -0.376 OA
BRANCH  35  36
ATOM     36  C   UNL     1       4.745  -9.182   5.700  1.00  0.00     0.202 C 
BRANCH  36  37
ATOM     37  C   UNL     1       6.258  -9.401   5.845  1.00  0.00     0.261 C 
BRANCH  37  38
ATOM     38  O   UNL     1       6.991  -8.320   5.212  1.00  0.00    -0.460 OA
BRANCH  38  39
ATOM     39  C   UNL     1       7.660  -7.453   6.036  1.00  0.00     0.338 C 
ATOM     40  O   UNL     1       8.408  -7.794   6.942  1.00  0.00    -0.246 OA
BRANCH  39  41
ATOM     41  C   UNL     1       7.155  -6.046   5.852  1.00  0.00     0.060 A 
ATOM     42  C   UNL     1       7.436  -4.947   6.675  1.00  0.00     0.016 A 
ATOM     43  C   UNL     1       6.058  -5.907   5.071  1.00  0.00     0.016 A 
ATOM     44  C   UNL     1       6.529  -3.802   6.771  1.00  0.00     0.010 A 
ATOM     45  C   UNL     1       5.122  -4.949   5.473  1.00  0.00     0.010 A 
ATOM     46  C   UNL     1       5.257  -3.777   6.186  1.00  0.00    -0.014 A 
BRANCH  46  47
ATOM     47  C   UNL     1       4.027  -2.834   6.486  1.00  0.00     0.031 A 
ATOM     48  C   UNL     1       2.987  -1.981   5.576  1.00  0.00     0.074 A 
ATOM     49  C   UNL     1       3.688  -2.773   7.795  1.00  0.00     0.049 A 
ATOM     50  N   UNL     1       2.552  -0.767   5.878  1.00  0.00    -0.248 NA
ATOM     51  C   UNL     1       2.330  -2.361   4.296  1.00  0.00     0.031 C 
ATOM     52  C   UNL     1       2.528  -2.120   8.395  1.00  0.00     0.029 A 
ATOM     53  N   UNL     1       4.480  -3.137   8.892  1.00  0.00    -0.354 N 
ATOM     54  C   UNL     1       1.613  -0.389   4.908  1.00  0.00     0.074 A 
ATOM     55  C   UNL     1       1.822  -1.237   3.816  1.00  0.00     0.031 C 
ATOM     56  C   UNL     1       2.851  -1.778   9.652  1.00  0.00     0.029 A 
ATOM     57  C   UNL     1       4.241  -2.143   9.855  1.00  0.00     0.049 A 
ATOM     58  H   UNL     1       5.074  -3.919   8.970  1.00  0.00     0.167 HD
ATOM     59  C   UNL     1       0.575   0.478   5.054  1.00  0.00     0.037 A 
ATOM     60  C   UNL     1       5.250  -1.323  10.257  1.00  0.00     0.037 A 
ATOM     61  C   UNL     1       0.678   1.149   6.317  1.00  0.00     0.049 A 
ATOM     62  C   UNL     1       4.949   0.139  10.018  1.00  0.00     0.074 A 
ATOM     63  C   UNL     1       0.029   0.988   7.522  1.00  0.00     0.029 A 
ATOM     64  N   UNL     1       1.829   1.884   6.562  1.00  0.00    -0.354 N 
ATOM     65  N   UNL     1       3.981   0.583   9.260  1.00  0.00    -0.248 NA
ATOM     66  C   UNL     1       5.734   1.217  10.609  1.00  0.00     0.031 C 
ATOM     67  C   UNL     1       0.903   1.485   8.529  1.00  0.00     0.029 A 
ATOM     68  C   UNL     1       2.024   2.026   7.917  1.00  0.00     0.049 A 
ATOM     69  H   UNL     1       2.420   2.252   5.866  1.00  0.00     0.167 HD
ATOM     70  C   UNL     1       4.041   1.952   9.201  1.00  0.00     0.074 A 
ATOM     71  C   UNL     1       5.131   2.299  10.092  1.00  0.00     0.031 C 
ATOM     72  C   UNL     1       3.216   2.698   8.409  1.00  0.00     0.037 A 
BRANCH  59  73
ATOM     73  C   UNL     1      -0.578   0.608   4.048  1.00  0.00     0.064 A 
ATOM     74  C   UNL     1      -1.343   1.786   3.965  1.00  0.00     0.173 A 
ATOM     75  C   UNL     1      -0.997  -0.414   3.152  1.00  0.00     0.173 A 
ATOM     76  F   UNL     1      -1.108   2.809   4.798  1.00  0.00    -0.203 F 
ATOM     77  C   UNL     1      -2.373   1.951   3.018  1.00  0.00     0.198 A 
ATOM     78  C   UNL     1      -1.955  -0.217   2.150  1.00  0.00     0.198 A 
ATOM     79  F   UNL     1      -0.536  -1.669   3.245  1.00  0.00    -0.203 F 
ATOM     80  F   UNL     1      -3.098   3.078   3.007  1.00  0.00    -0.200 F 
ATOM     81  C   UNL     1      -2.650   0.967   2.086  1.00  0.00     0.200 A 
ATOM     82  F   UNL     1      -2.205  -1.192   1.262  1.00  0.00    -0.200 F 
ATOM     83  F   UNL     1      -3.597   1.145   1.153  1.00  0.00    -0.200 F 
ENDBRANCH  59  73
BRANCH  60  84
ATOM     84  C   UNL     1       6.595  -1.981  10.274  1.00  0.00     0.064 A 
ATOM     85  C   UNL     1       6.715  -3.218  10.953  1.00  0.00     0.173 A 
ATOM     86  C   UNL     1       7.651  -1.627   9.426  1.00  0.00     0.173 A 
ATOM     87  F   UNL     1       5.739  -3.623  11.783  1.00  0.00    -0.203 F 
ATOM     88  C   UNL     1       7.760  -4.105  10.700  1.00  0.00     0.198 A 
ATOM     89  C   UNL     1       8.720  -2.509   9.198  1.00  0.00     0.198 A 
ATOM     90  F   UNL     1       7.593  -0.501   8.701  1.00  0.00    -0.203 F 
ATOM     91  F   UNL     1       7.748  -5.326  11.254  1.00  0.00    -0.200 F 
ATOM     92  C   UNL     1       8.756  -3.755   9.810  1.00  0.00     0.200 A 
ATOM     93  F   UNL     1       9.648  -2.208   8.277  1.00  0.00    -0.200 F 
ATOM     94  F   UNL     1       9.705  -4.644   9.482  1.00  0.00    -0.200 F 
ENDBRANCH  60  84
BRANCH  72  95
ATOM     95  C   UNL     1       3.429   4.155   8.064  1.00  0.00     0.064 A 
ATOM     96  C   UNL     1       4.692   4.771   8.024  1.00  0.00     0.173 A 
ATOM     97  C   UNL     1       2.351   4.954   7.612  1.00  0.00     0.173 A 
ATOM     98  F   UNL     1       5.814   4.084   8.280  1.00  0.00    -0.203 F 
ATOM     99  C   UNL     1       4.852   6.110   7.658  1.00  0.00     0.198 A 
ATOM    100  C   UNL     1       2.525   6.268   7.179  1.00  0.00     0.198 A 
ATOM    101  F   UNL     1       1.101   4.473   7.549  1.00  0.00    -0.203 F 
ATOM    102  F   UNL     1       6.071   6.666   7.700  1.00  0.00    -0.200 F 
ATOM    103  C   UNL     1       3.772   6.855   7.228  1.00  0.00     0.200 A 
ATOM    104  F   UNL     1       1.479   6.956   6.700  1.00  0.00    -0.200 F 
ATOM    105  F   UNL     1       3.937   8.126   6.839  1.00  0.00    -0.200 F 
ENDBRANCH  72  95
ENDBRANCH  46  47
ENDBRANCH  39  41
ENDBRANCH  38  39
ENDBRANCH  37  38
ENDBRANCH  36  37
ENDBRANCH  35  36
ENDBRANCH  34  35
ENDBRANCH   1  34
TORSDOF 21
