REMARK SMILES O=C(CCN1C(=O)/C(=C\c2ccc(-c3cccc(Cl)c3)o2)SC1=S)OCCOCCOCCOC(=O)c1ccc(-c2c3nc(c(-c4c(F)c(F)c(F)c(F)c4F)c4ccc([nH]4)c(-c4c(F)c(F)c(F)c(F)c4F)c4nc(c(-c5c(F)c(F)c(F)c(F)c5F)c5ccc2[nH]5)C=C4)C=C3)cc1
REMARK SMILES IDX 29 1 28 2 27 3 26 4 25 5 2 6 1 7 3 8 4 9 5 10 6 11 23 12
REMARK SMILES IDX 7 13 8 14 22 15 24 16 9 17 10 18 11 19 21 20 12 21 13 22
REMARK SMILES IDX 14 23 15 24 20 25 16 26 18 27 17 28 19 29 30 30 31 31 32 32
REMARK SMILES IDX 33 33 34 34 35 35 36 36 37 37 38 38 99 39 39 40 98 41 40 42
REMARK SMILES IDX 41 43 42 44 92 45 43 46 97 47 91 48 93 49 44 50 96 51 90 52
REMARK SMILES IDX 89 53 45 55 77 56 57 57 76 58 58 59 61 60 75 61 94 62 59 63
REMARK SMILES IDX 60 64 74 66 95 67 62 68 46 69 47 70 55 71 48 72 49 73 53 74
REMARK SMILES IDX 56 75 50 76 51 77 54 78 52 79 78 80 79 81 87 82 80 83 81 84
REMARK SMILES IDX 85 85 88 86 82 87 83 88 86 89 84 90 63 91 64 92 72 93 65 94
REMARK SMILES IDX 66 95 70 96 73 97 67 98 68 99 71 100 69 101
REMARK H PARENT 93 54 61 65
REMARK Flexibility Score: inf
ROOT
ATOM      1  C   UNL     1       2.246   1.093  -1.660  1.00  0.00     0.188 C 
ENDROOT
BRANCH   1   2
ATOM      2  O   UNL     1       3.559   1.368  -1.200  1.00  0.00    -0.376 OA
BRANCH   2   3
ATOM      3  C   UNL     1       4.478   0.290  -1.095  1.00  0.00     0.202 C 
BRANCH   3   4
ATOM      4  C   UNL     1       3.949  -1.077  -0.658  1.00  0.00     0.261 C 
BRANCH   4   5
ATOM      5  O   UNL     1       2.853  -1.166   0.285  1.00  0.00    -0.463 OA
BRANCH   5   6
ATOM      6  C   UNL     1       2.518  -0.464   1.378  1.00  0.00     0.307 C 
ATOM      7  O   UNL     1       1.443  -0.688   1.934  1.00  0.00    -0.252 OA
BRANCH   6   8
ATOM      8  C   UNL     1       3.453   0.552   1.953  1.00  0.00     0.144 C 
BRANCH   8   9
ATOM      9  C   UNL     1       4.360  -0.048   3.020  1.00  0.00     0.139 C 
BRANCH   9  10
ATOM     10  N   UNL     1       5.441  -0.858   2.444  1.00  0.00    -0.292 N 
ATOM     11  C   UNL     1       6.493  -0.197   1.826  1.00  0.00     0.266 C 
ATOM     12  C   UNL     1       5.488  -2.236   2.441  1.00  0.00     0.148 C 
ATOM     13  O   UNL     1       6.653   1.014   1.847  1.00  0.00    -0.268 OA
ATOM     14  C   UNL     1       7.337  -1.164   1.064  1.00  0.00     0.084 C 
ATOM     15  S   UNL     1       6.877  -2.774   1.504  1.00  0.00    -0.054 SA
ATOM     16  S   UNL     1       4.431  -3.309   3.151  1.00  0.00    -0.052 S 
ATOM     17  C   UNL     1       8.234  -0.919   0.096  1.00  0.00     0.068 C 
BRANCH  17  18
ATOM     18  C   UNL     1       8.696   0.371  -0.287  1.00  0.00     0.128 A 
ATOM     19  C   UNL     1       9.200   1.390   0.512  1.00  0.00     0.051 A 
ATOM     20  O   UNL     1       8.821   0.779  -1.605  1.00  0.00    -0.457 OA
ATOM     21  C   UNL     1       9.641   2.431  -0.326  1.00  0.00     0.051 A 
ATOM     22  C   UNL     1       9.395   2.017  -1.613  1.00  0.00     0.134 A 
BRANCH  22  23
ATOM     23  C   UNL     1       9.675   2.638  -2.897  1.00  0.00     0.019 A 
ATOM     24  C   UNL     1      10.972   3.109  -3.163  1.00  0.00     0.012 A 
ATOM     25  C   UNL     1       8.660   2.884  -3.827  1.00  0.00     0.032 A 
ATOM     26  C   UNL     1      11.248   3.832  -4.324  1.00  0.00     0.002 A 
ATOM     27  C   UNL     1       8.940   3.619  -4.982  1.00  0.00     0.041 A 
ATOM     28  C   UNL     1      10.226   4.098  -5.232  1.00  0.00     0.020 A 
ATOM     29  Cl  UNL     1       7.673   3.974  -6.094  1.00  0.00    -0.084 Cl
ENDBRANCH  22  23
ENDBRANCH  17  18
ENDBRANCH   9  10
ENDBRANCH   8   9
ENDBRANCH   6   8
ENDBRANCH   5   6
ENDBRANCH   4   5
ENDBRANCH   3   4
ENDBRANCH   2   3
ENDBRANCH   1   2
BRANCH   1  30
ATOM     30  C   UNL     1       2.073   0.463  -3.045  1.00  0.00     0.188 C 
BRANCH  30  31
ATOM     31  O   UNL     1       3.255  -0.136  -3.562  1.00  0.00    -0.376 OA
BRANCH  31  32
ATOM     32  C   UNL     1       3.700   0.437  -4.792  1.00  0.00     0.202 C 
BRANCH  32  33
ATOM     33  C   UNL     1       4.555   1.703  -4.624  1.00  0.00     0.261 C 
BRANCH  33  34
ATOM     34  O   UNL     1       3.966   2.764  -3.852  1.00  0.00    -0.460 OA
BRANCH  34  35
ATOM     35  C   UNL     1       2.917   3.412  -4.402  1.00  0.00     0.338 C 
ATOM     36  O   UNL     1       2.378   3.164  -5.465  1.00  0.00    -0.246 OA
BRANCH  35  37
ATOM     37  C   UNL     1       2.412   4.410  -3.433  1.00  0.00     0.060 A 
ATOM     38  C   UNL     1       1.081   4.323  -3.012  1.00  0.00     0.016 A 
ATOM     39  C   UNL     1       3.227   5.450  -2.978  1.00  0.00     0.016 A 
ATOM     40  C   UNL     1       0.559   5.279  -2.136  1.00  0.00     0.010 A 
ATOM     41  C   UNL     1       2.694   6.425  -2.123  1.00  0.00     0.010 A 
ATOM     42  C   UNL     1       1.351   6.357  -1.715  1.00  0.00    -0.014 A 
BRANCH  42  43
ATOM     43  C   UNL     1       0.711   7.492  -0.999  1.00  0.00     0.031 A 
ATOM     44  C   UNL     1       0.190   8.651  -1.806  1.00  0.00     0.074 A 
ATOM     45  C   UNL     1       0.545   7.480   0.336  1.00  0.00     0.049 A 
ATOM     46  N   UNL     1      -0.439   9.729  -1.408  1.00  0.00    -0.248 NA
ATOM     47  C   UNL     1       0.404   8.582  -3.260  1.00  0.00     0.031 C 
ATOM     48  C   UNL     1       0.977   6.412   1.233  1.00  0.00     0.029 A 
ATOM     49  N   UNL     1      -0.037   8.406   1.169  1.00  0.00    -0.354 N 
ATOM     50  C   UNL     1      -0.715  10.452  -2.561  1.00  0.00     0.074 A 
ATOM     51  C   UNL     1      -0.148   9.714  -3.670  1.00  0.00     0.031 C 
ATOM     52  C   UNL     1       0.656   6.747   2.496  1.00  0.00     0.029 A 
ATOM     53  C   UNL     1       0.011   8.060   2.498  1.00  0.00     0.049 A 
ATOM     54  H   UNL     1      -0.449   9.238   0.844  1.00  0.00     0.167 HD
ATOM     55  C   UNL     1      -1.393  11.617  -2.689  1.00  0.00     0.037 A 
ATOM     56  C   UNL     1      -0.409   8.733   3.588  1.00  0.00     0.037 A 
ATOM     57  C   UNL     1      -1.938  12.370  -1.591  1.00  0.00     0.049 A 
ATOM     58  C   UNL     1      -1.093  10.069   3.423  1.00  0.00     0.074 A 
ATOM     59  C   UNL     1      -2.634  13.566  -1.625  1.00  0.00     0.029 A 
ATOM     60  N   UNL     1      -1.840  12.004  -0.257  1.00  0.00    -0.354 N 
ATOM     61  N   UNL     1      -1.383  10.725   2.325  1.00  0.00    -0.248 NA
ATOM     62  C   UNL     1      -1.518  10.753   4.654  1.00  0.00     0.031 C 
ATOM     63  C   UNL     1      -2.918  13.947  -0.309  1.00  0.00     0.029 A 
ATOM     64  C   UNL     1      -2.444  12.962   0.541  1.00  0.00     0.049 A 
ATOM     65  H   UNL     1      -1.405  11.185   0.073  1.00  0.00     0.167 HD
ATOM     66  C   UNL     1      -2.045  11.878   2.731  1.00  0.00     0.074 A 
ATOM     67  C   UNL     1      -2.135  11.823   4.174  1.00  0.00     0.031 C 
ATOM     68  C   UNL     1      -2.532  12.895   1.977  1.00  0.00     0.037 A 
BRANCH  55  69
ATOM     69  C   UNL     1      -1.577  12.159  -4.075  1.00  0.00     0.064 A 
ATOM     70  C   UNL     1      -2.473  11.566  -4.977  1.00  0.00     0.173 A 
ATOM     71  C   UNL     1      -0.891  13.310  -4.489  1.00  0.00     0.173 A 
ATOM     72  F   UNL     1      -3.142  10.455  -4.633  1.00  0.00    -0.203 F 
ATOM     73  C   UNL     1      -2.664  12.098  -6.249  1.00  0.00     0.198 A 
ATOM     74  C   UNL     1      -1.104  13.854  -5.753  1.00  0.00     0.198 A 
ATOM     75  F   UNL     1      -0.025  13.915  -3.663  1.00  0.00    -0.203 F 
ATOM     76  F   UNL     1      -3.499  11.495  -7.107  1.00  0.00    -0.200 F 
ATOM     77  C   UNL     1      -1.986  13.245  -6.633  1.00  0.00     0.200 A 
ATOM     78  F   UNL     1      -0.456  14.969  -6.118  1.00  0.00    -0.200 F 
ATOM     79  F   UNL     1      -2.180  13.763  -7.854  1.00  0.00    -0.200 F 
ENDBRANCH  55  69
BRANCH  56  80
ATOM     80  C   UNL     1      -0.185   8.174   4.949  1.00  0.00     0.064 A 
ATOM     81  C   UNL     1      -1.258   7.779   5.761  1.00  0.00     0.173 A 
ATOM     82  C   UNL     1       1.106   8.085   5.489  1.00  0.00     0.173 A 
ATOM     83  F   UNL     1      -2.515   7.876   5.303  1.00  0.00    -0.203 F 
ATOM     84  C   UNL     1      -1.051   7.346   7.070  1.00  0.00     0.198 A 
ATOM     85  C   UNL     1       1.315   7.623   6.787  1.00  0.00     0.198 A 
ATOM     86  F   UNL     1       2.167   8.459   4.759  1.00  0.00    -0.203 F 
ATOM     87  F   UNL     1      -2.099   7.039   7.845  1.00  0.00    -0.200 F 
ATOM     88  C   UNL     1       0.236   7.265   7.580  1.00  0.00     0.200 A 
ATOM     89  F   UNL     1       2.561   7.540   7.274  1.00  0.00    -0.200 F 
ATOM     90  F   UNL     1       0.434   6.858   8.841  1.00  0.00    -0.200 F 
ENDBRANCH  56  80
BRANCH  68  91
ATOM     91  C   UNL     1      -3.231  14.015   2.695  1.00  0.00     0.064 A 
ATOM     92  C   UNL     1      -2.529  14.928   3.496  1.00  0.00     0.173 A 
ATOM     93  C   UNL     1      -4.617  14.189   2.564  1.00  0.00     0.173 A 
ATOM     94  F   UNL     1      -1.204  14.800   3.665  1.00  0.00    -0.203 F 
ATOM     95  C   UNL     1      -3.194  15.952   4.167  1.00  0.00     0.198 A 
ATOM     96  C   UNL     1      -5.274  15.233   3.211  1.00  0.00     0.198 A 
ATOM     97  F   UNL     1      -5.336  13.351   1.802  1.00  0.00    -0.203 F 
ATOM     98  F   UNL     1      -2.511  16.777   4.973  1.00  0.00    -0.200 F 
ATOM     99  C   UNL     1      -4.564  16.106   4.020  1.00  0.00     0.200 A 
ATOM    100  F   UNL     1      -6.596  15.389   3.056  1.00  0.00    -0.200 F 
ATOM    101  F   UNL     1      -5.202  17.092   4.667  1.00  0.00    -0.200 F 
ENDBRANCH  68  91
ENDBRANCH  42  43
ENDBRANCH  35  37
ENDBRANCH  34  35
ENDBRANCH  33  34
ENDBRANCH  32  33
ENDBRANCH  31  32
ENDBRANCH  30  31
ENDBRANCH   1  30
TORSDOF 21
