REMARK SMILES Cn1ccc(-c2n[nH]c(=O)n2-c2ccc(C(=O)OCCOCCOCCOC(=O)c3ccc(-c4c5nc(c(-c6c(F)c(F)c(F)c(F)c6F)c6ccc([nH]6)c(-c6c(F)c(F)c(F)c(F)c6F)c6nc(c(-c7c(F)c(F)c(F)c(F)c7F)c7ccc4[nH]7)C=C6)C=C5)cc3)cc2)n1
REMARK SMILES IDX 22 1 21 2 20 3 19 4 18 5 16 6 17 7 15 8 12 9 13 10 94 11
REMARK SMILES IDX 14 12 93 13 11 14 6 15 7 16 8 17 9 18 10 20 5 21 1 22 2 23
REMARK SMILES IDX 3 24 95 25 4 26 23 27 24 28 25 29 26 30 27 31 28 32 29 33
REMARK SMILES IDX 30 34 31 35 92 36 32 37 91 38 33 39 34 40 35 41 85 42 36 43
REMARK SMILES IDX 90 44 84 45 86 46 37 47 89 48 83 49 82 50 38 52 70 53 50 54
REMARK SMILES IDX 69 55 51 56 54 57 68 58 87 59 52 60 53 61 67 63 88 64 55 65
REMARK SMILES IDX 39 66 40 67 48 68 41 69 42 70 46 71 49 72 43 73 44 74 47 75
REMARK SMILES IDX 45 76 71 77 72 78 80 79 73 80 74 81 78 82 81 83 75 84 76 85
REMARK SMILES IDX 79 86 77 87 56 88 57 89 65 90 58 91 59 92 63 93 66 94 60 95
REMARK SMILES IDX 61 96 64 97 62 98
REMARK H PARENT 8 19 86 51 54 62
REMARK Flexibility Score: inf
ROOT
ATOM      1  C   UNL     1       0.808   4.729   7.138  1.00  0.00     0.188 C 
ENDROOT
BRANCH   1   2
ATOM      2  O   UNL     1       0.143   4.485   8.359  1.00  0.00    -0.376 OA
BRANCH   2   3
ATOM      3  C   UNL     1      -1.170   3.946   8.307  1.00  0.00     0.202 C 
BRANCH   3   4
ATOM      4  C   UNL     1      -1.535   2.760   7.386  1.00  0.00     0.261 C 
BRANCH   4   5
ATOM      5  O   UNL     1      -0.720   2.547   6.229  1.00  0.00    -0.460 OA
BRANCH   5   6
ATOM      6  C   UNL     1      -1.130   3.113   5.070  1.00  0.00     0.338 C 
ATOM      7  O   UNL     1      -2.126   3.795   4.906  1.00  0.00    -0.246 OA
BRANCH   6   8
ATOM      8  C   UNL     1      -0.071   2.931   4.048  1.00  0.00     0.060 A 
ATOM      9  C   UNL     1       1.862   2.657   2.037  1.00  0.00     0.052 A 
ATOM     10  C   UNL     1       1.312   3.912   2.307  1.00  0.00     0.028 A 
ATOM     11  C   UNL     1       1.519   1.567   2.856  1.00  0.00     0.028 A 
ATOM     12  C   UNL     1       0.319   4.040   3.284  1.00  0.00     0.018 A 
ATOM     13  C   UNL     1       0.565   1.702   3.868  1.00  0.00     0.018 A 
BRANCH   9  14
ATOM     14  N   UNL     1       2.681   2.466   0.911  1.00  0.00    -0.242 N 
ATOM     15  C   UNL     1       2.610   1.464  -0.015  1.00  0.00     0.189 A 
ATOM     16  N   UNL     1       3.553   1.476  -0.918  1.00  0.00    -0.150 NA
ATOM     17  N   UNL     1       4.266   2.608  -0.615  1.00  0.00    -0.226 N 
ATOM     18  C   UNL     1       3.716   3.263   0.491  1.00  0.00     0.348 A 
ATOM     19  H   UNL     1       5.058   2.918  -1.109  1.00  0.00     0.195 HD
ATOM     20  O   UNL     1       4.133   4.313   0.962  1.00  0.00    -0.246 OA
BRANCH  15  21
ATOM     21  C   UNL     1       1.501   0.527  -0.074  1.00  0.00     0.130 A 
ATOM     22  C   UNL     1      -1.952  -0.036  -0.006  1.00  0.00     0.173 C 
ATOM     23  N   UNL     1      -0.514  -0.151  -0.054  1.00  0.00    -0.275 N 
ATOM     24  C   UNL     1       0.225  -1.286  -0.195  1.00  0.00     0.109 A 
ATOM     25  N   UNL     1       0.231   0.960   0.033  1.00  0.00    -0.170 NA
ATOM     26  C   UNL     1       1.539  -0.878  -0.249  1.00  0.00     0.054 A 
ENDBRANCH  15  21
ENDBRANCH   9  14
ENDBRANCH   6   8
ENDBRANCH   5   6
ENDBRANCH   4   5
ENDBRANCH   3   4
ENDBRANCH   2   3
ENDBRANCH   1   2
BRANCH   1  27
ATOM     27  C   UNL     1       1.928   3.710   6.832  1.00  0.00     0.188 C 
BRANCH  27  28
ATOM     28  O   UNL     1       2.019   2.461   7.511  1.00  0.00    -0.376 OA
BRANCH  28  29
ATOM     29  C   UNL     1       1.828   2.341   8.916  1.00  0.00     0.202 C 
BRANCH  29  30
ATOM     30  C   UNL     1       2.584   3.223   9.907  1.00  0.00     0.261 C 
BRANCH  30  31
ATOM     31  O   UNL     1       2.678   4.578   9.518  1.00  0.00    -0.460 OA
BRANCH  31  32
ATOM     32  C   UNL     1       3.821   4.883   8.877  1.00  0.00     0.338 C 
ATOM     33  O   UNL     1       4.705   4.125   8.520  1.00  0.00    -0.246 OA
BRANCH  32  34
ATOM     34  C   UNL     1       3.899   6.339   8.749  1.00  0.00     0.060 A 
ATOM     35  C   UNL     1       4.952   6.836   7.978  1.00  0.00     0.016 A 
ATOM     36  C   UNL     1       3.199   7.123   9.674  1.00  0.00     0.016 A 
ATOM     37  C   UNL     1       5.498   8.043   8.340  1.00  0.00     0.010 A 
ATOM     38  C   UNL     1       3.769   8.303  10.064  1.00  0.00     0.010 A 
ATOM     39  C   UNL     1       4.963   8.689   9.456  1.00  0.00    -0.014 A 
BRANCH  39  40
ATOM     40  C   UNL     1       5.709   9.781  10.033  1.00  0.00     0.031 A 
ATOM     41  C   UNL     1       5.429  11.089   9.409  1.00  0.00     0.074 A 
ATOM     42  C   UNL     1       6.439   9.576  11.147  1.00  0.00     0.049 A 
ATOM     43  N   UNL     1       6.262  11.914   8.869  1.00  0.00    -0.248 NA
ATOM     44  C   UNL     1       4.014  11.469   9.250  1.00  0.00     0.031 C 
ATOM     45  C   UNL     1       6.482   8.361  11.972  1.00  0.00     0.029 A 
ATOM     46  N   UNL     1       7.188  10.455  11.861  1.00  0.00    -0.354 N 
ATOM     47  C   UNL     1       5.491  13.002   8.473  1.00  0.00     0.074 A 
ATOM     48  C   UNL     1       4.118  12.591   8.544  1.00  0.00     0.031 C 
ATOM     49  C   UNL     1       7.018   8.663  13.175  1.00  0.00     0.029 A 
ATOM     50  C   UNL     1       7.440  10.053  13.164  1.00  0.00     0.049 A 
ATOM     51  H   UNL     1       7.522  11.302  11.487  1.00  0.00     0.167 HD
ATOM     52  C   UNL     1       6.029  14.248   8.414  1.00  0.00     0.037 A 
ATOM     53  C   UNL     1       7.857  10.850  14.179  1.00  0.00     0.037 A 
ATOM     54  C   UNL     1       7.462  14.189   8.271  1.00  0.00     0.049 A 
ATOM     55  C   UNL     1       8.375  12.107  13.578  1.00  0.00     0.074 A 
ATOM     56  C   UNL     1       8.318  13.629   7.343  1.00  0.00     0.029 A 
ATOM     57  N   UNL     1       8.235  14.468   9.370  1.00  0.00    -0.354 N 
ATOM     58  N   UNL     1       9.471  12.192  12.877  1.00  0.00    -0.248 NA
ATOM     59  C   UNL     1       7.436  13.207  13.398  1.00  0.00     0.031 C 
ATOM     60  C   UNL     1       9.449  13.189   8.090  1.00  0.00     0.029 A 
ATOM     61  C   UNL     1       9.237  13.536   9.424  1.00  0.00     0.049 A 
ATOM     62  H   UNL     1       8.095  15.206  10.006  1.00  0.00     0.167 HD
ATOM     63  C   UNL     1       9.180  13.107  11.874  1.00  0.00     0.074 A 
ATOM     64  C   UNL     1       7.959  13.776  12.309  1.00  0.00     0.031 C 
ATOM     65  C   UNL     1       9.792  13.027  10.656  1.00  0.00     0.037 A 
BRANCH  52  66
ATOM     66  C   UNL     1       5.304  15.480   8.910  1.00  0.00     0.064 A 
ATOM     67  C   UNL     1       5.926  16.732   8.747  1.00  0.00     0.173 A 
ATOM     68  C   UNL     1       4.204  15.462   9.799  1.00  0.00     0.173 A 
ATOM     69  F   UNL     1       6.982  16.869   7.931  1.00  0.00    -0.203 F 
ATOM     70  C   UNL     1       5.547  17.847   9.499  1.00  0.00     0.198 A 
ATOM     71  C   UNL     1       3.793  16.591  10.503  1.00  0.00     0.198 A 
ATOM     72  F   UNL     1       3.545  14.343  10.118  1.00  0.00    -0.203 F 
ATOM     73  F   UNL     1       6.265  18.974   9.417  1.00  0.00    -0.200 F 
ATOM     74  C   UNL     1       4.489  17.772  10.385  1.00  0.00     0.200 A 
ATOM     75  F   UNL     1       2.770  16.492  11.365  1.00  0.00    -0.200 F 
ATOM     76  F   UNL     1       4.172  18.817  11.160  1.00  0.00    -0.200 F 
ENDBRANCH  52  66
BRANCH  53  77
ATOM     77  C   UNL     1       7.540  10.732  15.624  1.00  0.00     0.064 A 
ATOM     78  C   UNL     1       8.288  11.432  16.584  1.00  0.00     0.173 A 
ATOM     79  C   UNL     1       6.348  10.133  16.078  1.00  0.00     0.173 A 
ATOM     80  F   UNL     1       9.410  12.075  16.228  1.00  0.00    -0.203 F 
ATOM     81  C   UNL     1       7.861  11.540  17.913  1.00  0.00     0.198 A 
ATOM     82  C   UNL     1       5.931  10.227  17.406  1.00  0.00     0.198 A 
ATOM     83  F   UNL     1       5.511   9.524  15.226  1.00  0.00    -0.203 F 
ATOM     84  F   UNL     1       8.569  12.269  18.786  1.00  0.00    -0.200 F 
ATOM     85  C   UNL     1       6.680  10.942  18.321  1.00  0.00     0.200 A 
ATOM     86  F   UNL     1       4.768   9.673  17.778  1.00  0.00    -0.200 F 
ATOM     87  F   UNL     1       6.243  11.089  19.579  1.00  0.00    -0.200 F 
ENDBRANCH  53  77
BRANCH  65  88
ATOM     88  C   UNL     1      10.992  12.133  10.539  1.00  0.00     0.064 A 
ATOM     89  C   UNL     1      10.950  10.739  10.712  1.00  0.00     0.173 A 
ATOM     90  C   UNL     1      12.199  12.694  10.099  1.00  0.00     0.173 A 
ATOM     91  F   UNL     1       9.807  10.119  11.028  1.00  0.00    -0.203 F 
ATOM     92  C   UNL     1      12.080   9.952  10.504  1.00  0.00     0.198 A 
ATOM     93  C   UNL     1      13.315  11.900   9.854  1.00  0.00     0.198 A 
ATOM     94  F   UNL     1      12.280  14.013   9.860  1.00  0.00    -0.203 F 
ATOM     95  F   UNL     1      12.020   8.626  10.693  1.00  0.00    -0.200 F 
ATOM     96  C   UNL     1      13.260  10.532  10.068  1.00  0.00     0.200 A 
ATOM     97  F   UNL     1      14.439  12.459   9.383  1.00  0.00    -0.200 F 
ATOM     98  F   UNL     1      14.336   9.771   9.827  1.00  0.00    -0.200 F 
ENDBRANCH  65  88
ENDBRANCH  39  40
ENDBRANCH  32  34
ENDBRANCH  31  32
ENDBRANCH  30  31
ENDBRANCH  29  30
ENDBRANCH  28  29
ENDBRANCH  27  28
ENDBRANCH   1  27
TORSDOF 19
