REMARK SMILES O=C(OCCOCCOCCOC(=O)c1ccc2nc(-c3c[nH]nc3-c3ccc(F)cc3F)[nH]c2c1)c1ccc(-c2c3nc(c(-c4c(F)c(F)c(F)c(F)c4F)c4ccc([nH]4)c(-c4c(F)c(F)c(F)c(F)c4F)c4nc(c(-c5c(F)c(F)c(F)c(F)c5F)c5ccc2[nH]5)C=C4)C=C3)cc1
REMARK SMILES IDX 7 1 6 2 5 3 4 4 3 5 2 6 1 7 37 8 38 9 99 10 39 11 98 12
REMARK SMILES IDX 40 13 41 14 42 15 92 16 43 17 97 18 91 19 93 20 44 21 96 22
REMARK SMILES IDX 90 23 89 24 45 26 77 27 57 28 76 29 58 30 61 31 75 32 94 33
REMARK SMILES IDX 59 34 60 35 74 37 95 38 62 39 46 40 47 41 55 42 48 43 49 44
REMARK SMILES IDX 53 45 56 46 50 47 51 48 54 49 52 50 78 51 79 52 87 53 80 54
REMARK SMILES IDX 81 55 85 56 88 57 82 58 83 59 86 60 84 61 63 62 64 63 72 64
REMARK SMILES IDX 65 65 66 66 70 67 73 68 67 69 68 70 71 71 69 72 8 73 9 74
REMARK SMILES IDX 10 75 11 76 12 77 13 78 14 79 15 80 16 81 36 82 17 83 35 84
REMARK SMILES IDX 18 85 34 86 19 87 20 88 21 90 22 91 25 92 23 93 24 94 26 96
REMARK SMILES IDX 27 97 32 98 28 99 31 100 33 101 29 102 30 103
REMARK H PARENT 93 25 61 36 34 89 23 95
REMARK Flexibility Score: inf
ROOT
ATOM      1  C   UNL     1       2.344   2.180  -0.236  1.00  0.00     0.188 C 
ENDROOT
BRANCH   1   2
ATOM      2  O   UNL     1       3.634   1.638   0.078  1.00  0.00    -0.376 OA
BRANCH   2   3
ATOM      3  C   UNL     1       4.443   1.394  -1.079  1.00  0.00     0.202 C 
BRANCH   3   4
ATOM      4  C   UNL     1       4.218   0.018  -1.724  1.00  0.00     0.261 C 
BRANCH   4   5
ATOM      5  O   UNL     1       2.856  -0.429  -1.599  1.00  0.00    -0.460 OA
BRANCH   5   6
ATOM      6  C   UNL     1       2.311  -1.198  -0.623  1.00  0.00     0.338 C 
ATOM      7  O   UNL     1       1.111  -1.465  -0.677  1.00  0.00    -0.246 OA
BRANCH   6   8
ATOM      8  C   UNL     1       3.091  -1.787   0.508  1.00  0.00     0.060 A 
ATOM      9  C   UNL     1       4.266  -1.253   1.030  1.00  0.00     0.016 A 
ATOM     10  C   UNL     1       2.565  -2.941   1.122  1.00  0.00     0.016 A 
ATOM     11  C   UNL     1       4.978  -1.913   2.021  1.00  0.00     0.010 A 
ATOM     12  C   UNL     1       3.235  -3.569   2.179  1.00  0.00     0.010 A 
ATOM     13  C   UNL     1       4.475  -3.078   2.598  1.00  0.00    -0.014 A 
BRANCH  13  14
ATOM     14  C   UNL     1       5.341  -3.786   3.562  1.00  0.00     0.031 A 
ATOM     15  C   UNL     1       6.039  -5.037   3.127  1.00  0.00     0.074 A 
ATOM     16  C   UNL     1       5.641  -3.194   4.732  1.00  0.00     0.049 A 
ATOM     17  N   UNL     1       6.938  -5.743   3.758  1.00  0.00    -0.248 NA
ATOM     18  C   UNL     1       5.702  -5.550   1.788  1.00  0.00     0.031 C 
ATOM     19  C   UNL     1       5.090  -1.915   5.179  1.00  0.00     0.029 A 
ATOM     20  N   UNL     1       6.516  -3.545   5.725  1.00  0.00    -0.354 N 
ATOM     21  C   UNL     1       7.270  -6.781   2.900  1.00  0.00     0.074 A 
ATOM     22  C   UNL     1       6.462  -6.631   1.711  1.00  0.00     0.031 C 
ATOM     23  C   UNL     1       5.673  -1.563   6.333  1.00  0.00     0.029 A 
ATOM     24  C   UNL     1       6.596  -2.617   6.736  1.00  0.00     0.049 A 
ATOM     25  H   UNL     1       7.037  -4.380   5.716  1.00  0.00     0.167 HD
ATOM     26  C   UNL     1       8.178  -7.764   3.091  1.00  0.00     0.037 A 
ATOM     27  C   UNL     1       7.330  -2.622   7.864  1.00  0.00     0.037 A 
ATOM     28  C   UNL     1       8.972  -7.891   4.282  1.00  0.00     0.049 A 
ATOM     29  C   UNL     1       8.257  -3.780   8.100  1.00  0.00     0.074 A 
ATOM     30  C   UNL     1       9.882  -8.877   4.612  1.00  0.00     0.029 A 
ATOM     31  N   UNL     1       8.944  -6.993   5.342  1.00  0.00    -0.354 N 
ATOM     32  N   UNL     1       8.534  -4.784   7.302  1.00  0.00    -0.248 NA
ATOM     33  C   UNL     1       8.961  -3.820   9.386  1.00  0.00     0.031 C 
ATOM     34  C   UNL     1      10.371  -8.600   5.893  1.00  0.00     0.029 A 
ATOM     35  C   UNL     1       9.802  -7.417   6.341  1.00  0.00     0.049 A 
ATOM     36  H   UNL     1       8.395  -6.176   5.377  1.00  0.00     0.167 HD
ATOM     37  C   UNL     1       9.447  -5.573   7.982  1.00  0.00     0.074 A 
ATOM     38  C   UNL     1       9.693  -4.920   9.254  1.00  0.00     0.031 C 
ATOM     39  C   UNL     1      10.026  -6.735   7.593  1.00  0.00     0.037 A 
BRANCH  26  40
ATOM     40  C   UNL     1       8.302  -8.798   2.014  1.00  0.00     0.064 A 
ATOM     41  C   UNL     1       7.776 -10.084   2.207  1.00  0.00     0.173 A 
ATOM     42  C   UNL     1       8.915  -8.517   0.783  1.00  0.00     0.173 A 
ATOM     43  F   UNL     1       7.173 -10.399   3.363  1.00  0.00    -0.203 F 
ATOM     44  C   UNL     1       7.854 -11.049   1.207  1.00  0.00     0.198 A 
ATOM     45  C   UNL     1       8.970  -9.477  -0.224  1.00  0.00     0.198 A 
ATOM     46  F   UNL     1       9.407  -7.293   0.538  1.00  0.00    -0.203 F 
ATOM     47  F   UNL     1       7.345 -12.270   1.416  1.00  0.00    -0.200 F 
ATOM     48  C   UNL     1       8.443 -10.742  -0.011  1.00  0.00     0.200 A 
ATOM     49  F   UNL     1       9.507  -9.169  -1.413  1.00  0.00    -0.200 F 
ATOM     50  F   UNL     1       8.487 -11.662  -0.985  1.00  0.00    -0.200 F 
ENDBRANCH  26  40
BRANCH  27  51
ATOM     51  C   UNL     1       7.198  -1.500   8.830  1.00  0.00     0.064 A 
ATOM     52  C   UNL     1       5.994  -1.275   9.517  1.00  0.00     0.173 A 
ATOM     53  C   UNL     1       8.243  -0.591   9.039  1.00  0.00     0.173 A 
ATOM     54  F   UNL     1       4.962  -2.115   9.352  1.00  0.00    -0.203 F 
ATOM     55  C   UNL     1       5.828  -0.167  10.345  1.00  0.00     0.198 A 
ATOM     56  C   UNL     1       8.086   0.503   9.891  1.00  0.00     0.198 A 
ATOM     57  F   UNL     1       9.419  -0.767   8.419  1.00  0.00    -0.203 F 
ATOM     58  F   UNL     1       4.650   0.050  10.944  1.00  0.00    -0.200 F 
ATOM     59  C   UNL     1       6.876   0.720  10.533  1.00  0.00     0.200 A 
ATOM     60  F   UNL     1       9.106   1.350  10.085  1.00  0.00    -0.200 F 
ATOM     61  F   UNL     1       6.718   1.786  11.330  1.00  0.00    -0.200 F 
ENDBRANCH  27  51
BRANCH  39  62
ATOM     62  C   UNL     1      10.987  -7.378   8.544  1.00  0.00     0.064 A 
ATOM     63  C   UNL     1      12.362  -7.378   8.268  1.00  0.00     0.173 A 
ATOM     64  C   UNL     1      10.534  -8.088   9.664  1.00  0.00     0.173 A 
ATOM     65  F   UNL     1      12.837  -6.719   7.201  1.00  0.00    -0.203 F 
ATOM     66  C   UNL     1      13.248  -8.092   9.067  1.00  0.00     0.198 A 
ATOM     67  C   UNL     1      11.427  -8.781  10.475  1.00  0.00     0.198 A 
ATOM     68  F   UNL     1       9.228  -8.104   9.970  1.00  0.00    -0.203 F 
ATOM     69  F   UNL     1      14.552  -8.117   8.761  1.00  0.00    -0.200 F 
ATOM     70  C   UNL     1      12.780  -8.793  10.168  1.00  0.00     0.200 A 
ATOM     71  F   UNL     1      10.977  -9.444  11.549  1.00  0.00    -0.200 F 
ATOM     72  F   UNL     1      13.634  -9.485  10.934  1.00  0.00    -0.200 F 
ENDBRANCH  39  62
ENDBRANCH  13  14
ENDBRANCH   6   8
ENDBRANCH   5   6
ENDBRANCH   4   5
ENDBRANCH   3   4
ENDBRANCH   2   3
ENDBRANCH   1   2
BRANCH   1  73
ATOM     73  C   UNL     1       1.884   3.185   0.823  1.00  0.00     0.188 C 
BRANCH  73  74
ATOM     74  O   UNL     1       2.604   4.417   0.842  1.00  0.00    -0.376 OA
BRANCH  74  75
ATOM     75  C   UNL     1       3.991   4.352   1.161  1.00  0.00     0.202 C 
BRANCH  75  76
ATOM     76  C   UNL     1       4.342   4.062   2.623  1.00  0.00     0.261 C 
BRANCH  76  77
ATOM     77  O   UNL     1       3.838   2.809   3.126  1.00  0.00    -0.460 OA
BRANCH  77  78
ATOM     78  C   UNL     1       2.977   2.943   4.165  1.00  0.00     0.338 C 
ATOM     79  O   UNL     1       2.542   3.984   4.630  1.00  0.00    -0.246 OA
BRANCH  78  80
ATOM     80  C   UNL     1       2.692   1.650   4.816  1.00  0.00     0.062 A 
ATOM     81  C   UNL     1       2.988   1.593   6.185  1.00  0.00     0.018 A 
ATOM     82  C   UNL     1       2.011   0.608   4.157  1.00  0.00     0.044 A 
ATOM     83  C   UNL     1       2.546   0.526   6.966  1.00  0.00     0.031 A 
ATOM     84  C   UNL     1       1.576  -0.451   4.973  1.00  0.00     0.067 A 
ATOM     85  C   UNL     1       1.787  -0.474   6.349  1.00  0.00     0.089 A 
ATOM     86  N   UNL     1       0.875  -1.615   4.732  1.00  0.00    -0.338 N 
ATOM     87  N   UNL     1       1.139  -1.521   6.930  1.00  0.00    -0.228 NA
ATOM     88  C   UNL     1       0.581  -2.190   5.946  1.00  0.00     0.142 A 
ATOM     89  H   UNL     1       0.630  -1.971   3.848  1.00  0.00     0.168 HD
BRANCH  88  90
ATOM     90  C   UNL     1      -0.276  -3.374   6.188  1.00  0.00     0.063 A 
ATOM     91  C   UNL     1      -0.403  -4.492   5.402  1.00  0.00     0.117 A 
ATOM     92  C   UNL     1      -1.140  -3.583   7.302  1.00  0.00     0.106 A 
ATOM     93  N   UNL     1      -1.217  -5.333   6.109  1.00  0.00    -0.284 N 
ATOM     94  N   UNL     1      -1.730  -4.787   7.222  1.00  0.00    -0.175 NA
ATOM     95  H   UNL     1      -1.409  -6.257   5.827  1.00  0.00     0.189 HD
BRANCH  92  96
ATOM     96  C   UNL     1      -1.531  -2.607   8.310  1.00  0.00     0.039 A 
ATOM     97  C   UNL     1      -2.226  -1.452   7.905  1.00  0.00     0.016 A 
ATOM     98  C   UNL     1      -1.221  -2.772   9.662  1.00  0.00     0.135 A 
ATOM     99  C   UNL     1      -2.587  -0.481   8.839  1.00  0.00     0.040 A 
ATOM    100  C   UNL     1      -1.582  -1.804  10.598  1.00  0.00     0.079 A 
ATOM    101  F   UNL     1      -0.555  -3.854  10.089  1.00  0.00    -0.206 F 
ATOM    102  C   UNL     1      -2.258  -0.666  10.176  1.00  0.00     0.126 A 
ATOM    103  F   UNL     1      -2.601   0.270  11.071  1.00  0.00    -0.207 F 
ENDBRANCH  92  96
ENDBRANCH  88  90
ENDBRANCH  78  80
ENDBRANCH  77  78
ENDBRANCH  76  77
ENDBRANCH  75  76
ENDBRANCH  74  75
ENDBRANCH  73  74
ENDBRANCH   1  73
TORSDOF 19
