REMARK SMILES Cc1ccc(NC(=O)C[C@H]([NH2+]Cc2cccnc2)C(=O)OCCOCCOCCOC(=O)c2ccc(-c3c4nc(c(-c5c(F)c(F)c(F)c(F)c5F)c5ccc([nH]5)c(-c5c(F)c(F)c(F)c(F)c5F)c5nc(c(-c6c(F)c(F)c(F)c(F)c6F)c6ccc3[nH]6)C=C5)C=C4)cc2)cc1Cl
REMARK SMILES IDX 25 1 24 2 23 3 22 4 21 5 19 6 20 7 10 8 9 9 7 10 6 11 8 13
REMARK SMILES IDX 5 14 1 15 2 16 3 17 97 18 4 19 96 20 98 21 11 22 12 25 13 26
REMARK SMILES IDX 14 27 18 28 15 29 17 30 16 31 26 32 27 33 28 34 29 35 30 36
REMARK SMILES IDX 31 37 32 38 33 39 34 40 95 41 35 42 94 43 36 44 37 45 38 46
REMARK SMILES IDX 88 47 39 48 93 49 87 50 89 51 40 52 92 53 86 54 85 55 41 57
REMARK SMILES IDX 73 58 53 59 72 60 54 61 57 62 71 63 90 64 55 65 56 66 70 68
REMARK SMILES IDX 91 69 58 70 42 71 43 72 51 73 44 74 45 75 49 76 52 77 46 78
REMARK SMILES IDX 47 79 50 80 48 81 74 82 75 83 83 84 76 85 77 86 81 87 84 88
REMARK SMILES IDX 78 89 79 90 82 91 80 92 59 93 60 94 68 95 61 96 62 97 66 98
REMARK SMILES IDX 69 99 63 100 64 101 67 102 65 103
REMARK H PARENT 6 12 11 23 11 24 89 56 57 67
REMARK Flexibility Score: inf
ROOT
ATOM      1  C   UNL     1       3.070  -5.365  -1.825  1.00  0.00     0.188 C 
ENDROOT
BRANCH   1   2
ATOM      2  O   UNL     1       4.127  -4.439  -2.041  1.00  0.00    -0.376 OA
BRANCH   2   3
ATOM      3  C   UNL     1       4.297  -3.344  -1.155  1.00  0.00     0.202 C 
BRANCH   3   4
ATOM      4  C   UNL     1       3.247  -2.223  -1.199  1.00  0.00     0.261 C 
BRANCH   4   5
ATOM      5  O   UNL     1       1.875  -2.523  -0.847  1.00  0.00    -0.459 OA
BRANCH   5   6
ATOM      6  C   UNL     1       0.966  -2.631  -1.859  1.00  0.00     0.365 C 
ATOM      7  O   UNL     1       1.270  -2.825  -3.032  1.00  0.00    -0.245 OA
BRANCH   6   8
ATOM      8  C   UNL     1      -0.506  -2.375  -1.415  1.00  0.00     0.303 C 
BRANCH   8   9
ATOM      9  C   UNL     1      -0.576  -1.024  -0.719  1.00  0.00     0.177 C 
BRANCH   9  10
ATOM     10  C   UNL     1       0.132  -0.569   0.555  1.00  0.00     0.231 C 
ATOM     11  N   UNL     1       0.309  -1.156   1.759  1.00  0.00    -0.326 N 
ATOM     12  H   UNL     1       0.542  -0.473   2.429  1.00  0.00     0.169 HD
ATOM     13  O   UNL     1       0.474   0.632   0.555  1.00  0.00    -0.274 OA
BRANCH  11  14
ATOM     14  C   UNL     1       0.269  -2.421   2.370  1.00  0.00     0.042 A 
ATOM     15  C   UNL     1       0.181  -6.247   4.454  1.00  0.00     0.046 C 
ATOM     16  C   UNL     1       0.187  -4.921   3.751  1.00  0.00    -0.032 A 
ATOM     17  C   UNL     1       0.330  -3.718   4.447  1.00  0.00     0.007 A 
ATOM     18  C   UNL     1       0.081  -4.849   2.369  1.00  0.00     0.046 A 
ATOM     19  C   UNL     1       0.345  -2.485   3.765  1.00  0.00     0.026 A 
ATOM     20  C   UNL     1       0.218  -3.624   1.709  1.00  0.00     0.047 A 
ATOM     21  Cl  UNL     1      -0.257  -6.261   1.431  1.00  0.00    -0.084 Cl
ENDBRANCH  11  14
ENDBRANCH   9  10
ENDBRANCH   8   9
BRANCH   8  22
ATOM     22  N   UNL     1      -1.224  -3.518  -0.792  1.00  0.00    -0.330 N 
ATOM     23  H   UNL     1      -0.719  -3.780   0.054  1.00  0.00     0.347 HD
ATOM     24  H   UNL     1      -1.253  -4.248  -1.504  1.00  0.00     0.347 HD
BRANCH  22  25
ATOM     25  C   UNL     1      -2.628  -3.270  -0.420  1.00  0.00     0.299 C 
BRANCH  25  26
ATOM     26  C   UNL     1      -3.052  -3.944   0.868  1.00  0.00     0.024 A 
ATOM     27  C   UNL     1      -3.407  -5.293   0.935  1.00  0.00     0.013 A 
ATOM     28  C   UNL     1      -3.111  -3.228   2.067  1.00  0.00     0.120 A 
ATOM     29  C   UNL     1      -3.763  -5.863   2.161  1.00  0.00     0.021 A 
ATOM     30  N   UNL     1      -3.465  -3.749   3.268  1.00  0.00    -0.264 NA
ATOM     31  C   UNL     1      -3.770  -5.061   3.290  1.00  0.00     0.111 A 
ENDBRANCH  25  26
ENDBRANCH  22  25
ENDBRANCH   8  22
ENDBRANCH   6   8
ENDBRANCH   5   6
ENDBRANCH   4   5
ENDBRANCH   3   4
ENDBRANCH   2   3
ENDBRANCH   1   2
BRANCH   1  32
ATOM     32  C   UNL     1       2.408  -5.447  -0.451  1.00  0.00     0.188 C 
BRANCH  32  33
ATOM     33  O   UNL     1       3.295  -5.179   0.615  1.00  0.00    -0.376 OA
BRANCH  33  34
ATOM     34  C   UNL     1       3.398  -6.123   1.663  1.00  0.00     0.202 C 
BRANCH  34  35
ATOM     35  C   UNL     1       3.997  -7.476   1.275  1.00  0.00     0.261 C 
BRANCH  35  36
ATOM     36  O   UNL     1       3.424  -8.073   0.099  1.00  0.00    -0.460 OA
BRANCH  36  37
ATOM     37  C   UNL     1       2.235  -8.702   0.230  1.00  0.00     0.338 C 
ATOM     38  O   UNL     1       1.605  -8.900   1.258  1.00  0.00    -0.246 OA
BRANCH  37  39
ATOM     39  C   UNL     1       1.756  -8.999  -1.136  1.00  0.00     0.060 A 
ATOM     40  C   UNL     1       0.645  -8.326  -1.673  1.00  0.00     0.016 A 
ATOM     41  C   UNL     1       2.449  -9.935  -1.901  1.00  0.00     0.016 A 
ATOM     42  C   UNL     1       0.220  -8.596  -2.976  1.00  0.00     0.010 A 
ATOM     43  C   UNL     1       2.010 -10.220  -3.192  1.00  0.00     0.010 A 
ATOM     44  C   UNL     1       0.883  -9.570  -3.729  1.00  0.00    -0.014 A 
BRANCH  44  45
ATOM     45  C   UNL     1       0.331 -10.073  -5.008  1.00  0.00     0.031 A 
ATOM     46  C   UNL     1      -0.362 -11.402  -4.996  1.00  0.00     0.074 A 
ATOM     47  C   UNL     1       0.532  -9.420  -6.164  1.00  0.00     0.049 A 
ATOM     48  N   UNL     1      -0.683 -12.187  -5.990  1.00  0.00    -0.248 NA
ATOM     49  C   UNL     1      -0.717 -11.928  -3.668  1.00  0.00     0.031 C 
ATOM     50  C   UNL     1       1.146  -8.103  -6.296  1.00  0.00     0.029 A 
ATOM     51  N   UNL     1       0.282  -9.814  -7.457  1.00  0.00    -0.354 N 
ATOM     52  C   UNL     1      -1.236 -13.319  -5.407  1.00  0.00     0.074 A 
ATOM     53  C   UNL     1      -1.197 -13.122  -3.974  1.00  0.00     0.031 C 
ATOM     54  C   UNL     1       1.273  -7.815  -7.603  1.00  0.00     0.029 A 
ATOM     55  C   UNL     1       0.802  -8.953  -8.392  1.00  0.00     0.049 A 
ATOM     56  H   UNL     1      -0.218 -10.629  -7.689  1.00  0.00     0.167 HD
ATOM     57  C   UNL     1      -1.718 -14.426  -6.018  1.00  0.00     0.037 A 
ATOM     58  C   UNL     1       0.939  -9.099  -9.725  1.00  0.00     0.037 A 
ATOM     59  C   UNL     1      -1.749 -14.603  -7.445  1.00  0.00     0.049 A 
ATOM     60  C   UNL     1       0.451 -10.363 -10.387  1.00  0.00     0.074 A 
ATOM     61  C   UNL     1      -2.257 -15.665  -8.171  1.00  0.00     0.029 A 
ATOM     62  N   UNL     1      -1.232 -13.699  -8.363  1.00  0.00    -0.354 N 
ATOM     63  N   UNL     1      -0.090 -11.426  -9.843  1.00  0.00    -0.248 NA
ATOM     64  C   UNL     1       0.595 -10.449 -11.848  1.00  0.00     0.031 C 
ATOM     65  C   UNL     1      -1.982 -15.437  -9.523  1.00  0.00     0.029 A 
ATOM     66  C   UNL     1      -1.375 -14.196  -9.648  1.00  0.00     0.049 A 
ATOM     67  H   UNL     1      -0.824 -12.833  -8.135  1.00  0.00     0.167 HD
ATOM     68  C   UNL     1      -0.380 -12.291 -10.892  1.00  0.00     0.074 A 
ATOM     69  C   UNL     1       0.047 -11.629 -12.107  1.00  0.00     0.031 C 
ATOM     70  C   UNL     1      -0.956 -13.518 -10.850  1.00  0.00     0.037 A 
BRANCH  57  71
ATOM     71  C   UNL     1      -2.190 -15.550  -5.140  1.00  0.00     0.064 A 
ATOM     72  C   UNL     1      -3.325 -15.437  -4.323  1.00  0.00     0.173 A 
ATOM     73  C   UNL     1      -1.485 -16.764  -5.114  1.00  0.00     0.173 A 
ATOM     74  F   UNL     1      -4.029 -14.294  -4.298  1.00  0.00    -0.203 F 
ATOM     75  C   UNL     1      -3.708 -16.477  -3.480  1.00  0.00     0.198 A 
ATOM     76  C   UNL     1      -1.894 -17.816  -4.300  1.00  0.00     0.198 A 
ATOM     77  F   UNL     1      -0.395 -16.931  -5.878  1.00  0.00    -0.203 F 
ATOM     78  F   UNL     1      -4.753 -16.318  -2.655  1.00  0.00    -0.200 F 
ATOM     79  C   UNL     1      -2.997 -17.667  -3.473  1.00  0.00     0.200 A 
ATOM     80  F   UNL     1      -1.214 -18.971  -4.307  1.00  0.00    -0.200 F 
ATOM     81  F   UNL     1      -3.366 -18.667  -2.660  1.00  0.00    -0.200 F 
ENDBRANCH  57  71
BRANCH  58  82
ATOM     82  C   UNL     1       1.602  -8.025 -10.511  1.00  0.00     0.064 A 
ATOM     83  C   UNL     1       0.874  -7.224 -11.400  1.00  0.00     0.173 A 
ATOM     84  C   UNL     1       2.973  -7.761 -10.368  1.00  0.00     0.173 A 
ATOM     85  F   UNL     1      -0.433  -7.456 -11.592  1.00  0.00    -0.203 F 
ATOM     86  C   UNL     1       1.491  -6.202 -12.118  1.00  0.00     0.198 A 
ATOM     87  C   UNL     1       3.583  -6.720 -11.064  1.00  0.00     0.198 A 
ATOM     88  F   UNL     1       3.716  -8.501  -9.532  1.00  0.00    -0.203 F 
ATOM     89  F   UNL     1       0.778  -5.472 -12.987  1.00  0.00    -0.200 F 
ATOM     90  C   UNL     1       2.843  -5.943 -11.942  1.00  0.00     0.200 A 
ATOM     91  F   UNL     1       4.886  -6.466 -10.880  1.00  0.00    -0.200 F 
ATOM     92  F   UNL     1       3.431  -4.950 -12.621  1.00  0.00    -0.200 F 
ENDBRANCH  58  82
BRANCH  70  93
ATOM     93  C   UNL     1      -1.220 -14.217 -12.155  1.00  0.00     0.064 A 
ATOM     94  C   UNL     1      -0.188 -14.778 -12.920  1.00  0.00     0.173 A 
ATOM     95  C   UNL     1      -2.541 -14.406 -12.594  1.00  0.00     0.173 A 
ATOM     96  F   UNL     1       1.091 -14.616 -12.552  1.00  0.00    -0.203 F 
ATOM     97  C   UNL     1      -0.469 -15.496 -14.081  1.00  0.00     0.198 A 
ATOM     98  C   UNL     1      -2.818 -15.151 -13.736  1.00  0.00     0.198 A 
ATOM     99  F   UNL     1      -3.565 -13.895 -11.895  1.00  0.00    -0.203 F 
ATOM    100  F   UNL     1       0.534 -15.999 -14.814  1.00  0.00    -0.200 F 
ATOM    101  C   UNL     1      -1.782 -15.693 -14.481  1.00  0.00     0.200 A 
ATOM    102  F   UNL     1      -4.090 -15.355 -14.108  1.00  0.00    -0.200 F 
ATOM    103  F   UNL     1      -2.050 -16.405 -15.584  1.00  0.00    -0.200 F 
ENDBRANCH  70  93
ENDBRANCH  44  45
ENDBRANCH  37  39
ENDBRANCH  36  37
ENDBRANCH  35  36
ENDBRANCH  34  35
ENDBRANCH  33  34
ENDBRANCH  32  33
ENDBRANCH   1  32
TORSDOF 23
