REMARK SMILES CCC[C@H]([NH2+]Cc1c(O)ccc2c(-c3ccccc3)cc(=O)oc12)C(=O)OCCOCCOCCOC(=O)c1ccc(-c2c3nc(c(-c4c(F)c(F)c(F)c(F)c4F)c4ccc([nH]4)c(-c4c(F)c(F)c(F)c(F)c4F)c4nc(c(-c5c(F)c(F)c(F)c(F)c5F)c5ccc2[nH]5)C=C4)C=C3)cc1
REMARK SMILES IDX 31 1 30 2 29 3 28 4 27 5 25 6 26 7 4 8 3 9 2 10 1 11 5 12
REMARK SMILES IDX 6 15 7 16 8 17 24 18 10 19 12 20 23 21 11 22 13 23 21 24
REMARK SMILES IDX 20 25 22 26 9 27 14 29 15 30 19 31 16 32 18 33 17 34 32 35
REMARK SMILES IDX 33 36 34 37 35 38 36 39 37 40 38 41 39 42 40 43 101 44 41 45
REMARK SMILES IDX 100 46 42 47 43 48 44 49 94 50 45 51 99 52 93 53 95 54 46 55
REMARK SMILES IDX 98 56 92 57 91 58 47 60 79 61 59 62 78 63 60 64 63 65 77 66
REMARK SMILES IDX 96 67 61 68 62 69 76 71 97 72 64 73 48 74 49 75 57 76 50 77
REMARK SMILES IDX 51 78 55 79 58 80 52 81 53 82 56 83 54 84 80 85 81 86 89 87
REMARK SMILES IDX 82 88 83 89 87 90 90 91 84 92 85 93 88 94 86 95 65 96 66 97
REMARK SMILES IDX 74 98 67 99 68 100 72 101 75 102 69 103 70 104 73 105 71 106
REMARK H PARENT 5 13 5 14 9 28 95 59 63 70
REMARK Flexibility Score: inf
ROOT
ATOM      1  C   UNL     1       3.131   1.596   5.107  1.00  0.00     0.188 C 
ENDROOT
BRANCH   1   2
ATOM      2  O   UNL     1       2.080   2.122   5.910  1.00  0.00    -0.376 OA
BRANCH   2   3
ATOM      3  C   UNL     1       1.607   1.350   7.000  1.00  0.00     0.202 C 
BRANCH   3   4
ATOM      4  C   UNL     1       0.302   0.588   6.713  1.00  0.00     0.261 C 
BRANCH   4   5
ATOM      5  O   UNL     1       0.244  -0.120   5.458  1.00  0.00    -0.459 OA
BRANCH   5   6
ATOM      6  C   UNL     1      -0.117   0.641   4.399  1.00  0.00     0.364 C 
ATOM      7  O   UNL     1      -0.361   1.847   4.492  1.00  0.00    -0.245 OA
BRANCH   6   8
ATOM      8  C   UNL     1      -0.217  -0.047   3.028  1.00  0.00     0.293 C 
BRANCH   8   9
ATOM      9  C   UNL     1      -1.688   0.199   2.579  1.00  0.00     0.077 C 
BRANCH   9  10
ATOM     10  C   UNL     1      -1.851   0.897   1.230  1.00  0.00     0.003 C 
ATOM     11  C   UNL     1      -1.291   0.108   0.062  1.00  0.00     0.004 C 
ENDBRANCH   9  10
ENDBRANCH   8   9
BRANCH   8  12
ATOM     12  N   UNL     1       0.035  -1.484   2.778  1.00  0.00    -0.331 N 
ATOM     13  H   UNL     1       0.354  -1.532   1.811  1.00  0.00     0.347 HD
ATOM     14  H   UNL     1      -0.856  -1.867   3.094  1.00  0.00     0.347 HD
BRANCH  12  15
ATOM     15  C   UNL     1       0.943  -2.349   3.519  1.00  0.00     0.306 C 
BRANCH  15  16
ATOM     16  C   UNL     1       2.049  -3.083   2.742  1.00  0.00     0.091 A 
ATOM     17  C   UNL     1       2.080  -3.264   1.354  1.00  0.00     0.128 A 
ATOM     18  C   UNL     1       3.068  -3.763   3.469  1.00  0.00     0.151 A 
ATOM     19  C   UNL     1       3.058  -4.058   0.737  1.00  0.00     0.047 A 
ATOM     20  C   UNL     1       4.089  -4.538   2.877  1.00  0.00     0.026 A 
ATOM     21  O   UNL     1       2.988  -3.694   4.881  1.00  0.00    -0.422 OA
ATOM     22  C   UNL     1       4.053  -4.690   1.492  1.00  0.00     0.016 A 
ATOM     23  C   UNL     1       5.138  -5.167   3.717  1.00  0.00    -0.000 A 
ATOM     24  C   UNL     1       3.920  -4.300   5.696  1.00  0.00     0.336 A 
ATOM     25  C   UNL     1       5.044  -4.969   5.043  1.00  0.00     0.103 A 
ATOM     26  O   UNL     1       3.840  -4.290   6.920  1.00  0.00    -0.246 OA
BRANCH  17  27
ATOM     27  O   UNL     1       1.130  -2.674   0.564  1.00  0.00    -0.507 OA
ATOM     28  H   UNL     1       0.465  -2.139   0.951  1.00  0.00     0.293 HD
ENDBRANCH  17  27
BRANCH  23  29
ATOM     29  C   UNL     1       6.292  -6.014   3.297  1.00  0.00    -0.017 A 
ATOM     30  C   UNL     1       6.489  -7.267   3.912  1.00  0.00     0.009 A 
ATOM     31  C   UNL     1       7.213  -5.610   2.321  1.00  0.00     0.009 A 
ATOM     32  C   UNL     1       7.568  -8.085   3.573  1.00  0.00     0.001 A 
ATOM     33  C   UNL     1       8.283  -6.443   1.962  1.00  0.00     0.001 A 
ATOM     34  C   UNL     1       8.462  -7.676   2.590  1.00  0.00     0.000 A 
ENDBRANCH  23  29
ENDBRANCH  15  16
ENDBRANCH  12  15
ENDBRANCH   8  12
ENDBRANCH   6   8
ENDBRANCH   5   6
ENDBRANCH   4   5
ENDBRANCH   3   4
ENDBRANCH   2   3
ENDBRANCH   1   2
BRANCH   1  35
ATOM     35  C   UNL     1       3.141   0.108   4.754  1.00  0.00     0.188 C 
BRANCH  35  36
ATOM     36  O   UNL     1       3.136  -0.872   5.778  1.00  0.00    -0.376 OA
BRANCH  36  37
ATOM     37  C   UNL     1       4.196  -0.933   6.723  1.00  0.00     0.202 C 
BRANCH  37  38
ATOM     38  C   UNL     1       5.608  -1.219   6.217  1.00  0.00     0.261 C 
BRANCH  38  39
ATOM     39  O   UNL     1       6.058  -0.212   5.305  1.00  0.00    -0.460 OA
BRANCH  39  40
ATOM     40  C   UNL     1       6.238  -0.615   4.024  1.00  0.00     0.338 C 
ATOM     41  O   UNL     1       6.126  -1.737   3.557  1.00  0.00    -0.246 OA
BRANCH  40  42
ATOM     42  C   UNL     1       6.409   0.603   3.220  1.00  0.00     0.060 A 
ATOM     43  C   UNL     1       5.492   0.903   2.199  1.00  0.00     0.016 A 
ATOM     44  C   UNL     1       7.464   1.460   3.519  1.00  0.00     0.016 A 
ATOM     45  C   UNL     1       5.630   2.082   1.469  1.00  0.00     0.010 A 
ATOM     46  C   UNL     1       7.616   2.619   2.773  1.00  0.00     0.010 A 
ATOM     47  C   UNL     1       6.714   2.924   1.737  1.00  0.00    -0.014 A 
BRANCH  47  48
ATOM     48  C   UNL     1       7.080   4.040   0.842  1.00  0.00     0.031 A 
ATOM     49  C   UNL     1       8.201   3.801  -0.123  1.00  0.00     0.074 A 
ATOM     50  C   UNL     1       6.535   5.256   0.995  1.00  0.00     0.049 A 
ATOM     51  N   UNL     1       8.941   4.661  -0.768  1.00  0.00    -0.248 NA
ATOM     52  C   UNL     1       8.557   2.392  -0.361  1.00  0.00     0.031 C 
ATOM     53  C   UNL     1       5.411   5.581   1.869  1.00  0.00     0.029 A 
ATOM     54  N   UNL     1       6.901   6.460   0.448  1.00  0.00    -0.354 N 
ATOM     55  C   UNL     1       9.868   3.900  -1.466  1.00  0.00     0.074 A 
ATOM     56  C   UNL     1       9.617   2.513  -1.145  1.00  0.00     0.031 C 
ATOM     57  C   UNL     1       5.202   6.909   1.830  1.00  0.00     0.029 A 
ATOM     58  C   UNL     1       6.215   7.526   0.975  1.00  0.00     0.049 A 
ATOM     59  H   UNL     1       7.587   6.550  -0.253  1.00  0.00     0.167 HD
ATOM     60  C   UNL     1      10.844   4.330  -2.298  1.00  0.00     0.037 A 
ATOM     61  C   UNL     1       6.425   8.847   0.817  1.00  0.00     0.037 A 
ATOM     62  C   UNL     1      11.085   5.717  -2.590  1.00  0.00     0.049 A 
ATOM     63  C   UNL     1       7.575   9.306  -0.048  1.00  0.00     0.074 A 
ATOM     64  C   UNL     1      12.047   6.272  -3.413  1.00  0.00     0.029 A 
ATOM     65  N   UNL     1      10.351   6.769  -2.059  1.00  0.00    -0.354 N 
ATOM     66  N   UNL     1       8.454   8.592  -0.711  1.00  0.00    -0.248 NA
ATOM     67  C   UNL     1       7.766  10.757  -0.183  1.00  0.00     0.031 C 
ATOM     68  C   UNL     1      11.927   7.663  -3.342  1.00  0.00     0.029 A 
ATOM     69  C   UNL     1      10.846   7.972  -2.531  1.00  0.00     0.049 A 
ATOM     70  H   UNL     1       9.592   6.673  -1.440  1.00  0.00     0.167 HD
ATOM     71  C   UNL     1       9.261   9.502  -1.383  1.00  0.00     0.074 A 
ATOM     72  C   UNL     1       8.773  10.821  -1.042  1.00  0.00     0.031 C 
ATOM     73  C   UNL     1      10.309   9.270  -2.212  1.00  0.00     0.037 A 
BRANCH  60  74
ATOM     74  C   UNL     1      11.728   3.294  -2.927  1.00  0.00     0.064 A 
ATOM     75  C   UNL     1      11.240   2.396  -3.889  1.00  0.00     0.173 A 
ATOM     76  C   UNL     1      13.086   3.213  -2.585  1.00  0.00     0.173 A 
ATOM     77  F   UNL     1       9.944   2.418  -4.237  1.00  0.00    -0.203 F 
ATOM     78  C   UNL     1      12.072   1.440  -4.465  1.00  0.00     0.198 A 
ATOM     79  C   UNL     1      13.923   2.279  -3.189  1.00  0.00     0.198 A 
ATOM     80  F   UNL     1      13.605   4.045  -1.669  1.00  0.00    -0.203 F 
ATOM     81  F   UNL     1      11.570   0.558  -5.340  1.00  0.00    -0.200 F 
ATOM     82  C   UNL     1      13.414   1.388  -4.121  1.00  0.00     0.200 A 
ATOM     83  F   UNL     1      15.223   2.238  -2.865  1.00  0.00    -0.200 F 
ATOM     84  F   UNL     1      14.216   0.474  -4.684  1.00  0.00    -0.200 F 
ENDBRANCH  60  74
BRANCH  61  85
ATOM     85  C   UNL     1       5.547   9.838   1.495  1.00  0.00     0.064 A 
ATOM     86  C   UNL     1       4.717  10.685   0.745  1.00  0.00     0.173 A 
ATOM     87  C   UNL     1       5.545   9.994   2.889  1.00  0.00     0.173 A 
ATOM     88  F   UNL     1       4.702  10.592  -0.593  1.00  0.00    -0.203 F 
ATOM     89  C   UNL     1       3.947  11.670   1.359  1.00  0.00     0.198 A 
ATOM     90  C   UNL     1       4.747  10.958   3.505  1.00  0.00     0.198 A 
ATOM     91  F   UNL     1       6.320   9.213   3.655  1.00  0.00    -0.203 F 
ATOM     92  F   UNL     1       3.217  12.509   0.611  1.00  0.00    -0.200 F 
ATOM     93  C   UNL     1       3.959  11.804   2.739  1.00  0.00     0.200 A 
ATOM     94  F   UNL     1       4.754  11.077   4.839  1.00  0.00    -0.200 F 
ATOM     95  F   UNL     1       3.225  12.757   3.328  1.00  0.00    -0.200 F 
ENDBRANCH  61  85
BRANCH  73  96
ATOM     96  C   UNL     1      10.937  10.452  -2.893  1.00  0.00     0.064 A 
ATOM     97  C   UNL     1      11.740  11.371  -2.205  1.00  0.00     0.173 A 
ATOM     98  C   UNL     1      10.794  10.613  -4.281  1.00  0.00     0.173 A 
ATOM     99  F   UNL     1      11.899  11.268  -0.876  1.00  0.00    -0.203 F 
ATOM    100  C   UNL     1      12.362  12.420  -2.878  1.00  0.00     0.198 A 
ATOM    101  C   UNL     1      11.445  11.641  -4.955  1.00  0.00     0.198 A 
ATOM    102  F   UNL     1      10.044   9.753  -4.988  1.00  0.00    -0.203 F 
ATOM    103  F   UNL     1      13.094  13.311  -2.195  1.00  0.00    -0.200 F 
ATOM    104  C   UNL     1      12.224  12.546  -4.253  1.00  0.00     0.200 A 
ATOM    105  F   UNL     1      11.326  11.748  -6.286  1.00  0.00    -0.200 F 
ATOM    106  F   UNL     1      12.842  13.543  -4.901  1.00  0.00    -0.200 F 
ENDBRANCH  73  96
ENDBRANCH  47  48
ENDBRANCH  40  42
ENDBRANCH  39  40
ENDBRANCH  38  39
ENDBRANCH  37  38
ENDBRANCH  36  37
ENDBRANCH  35  36
ENDBRANCH   1  35
TORSDOF 24
