REMARK SMILES Cc1cccc(COc2ccccc2C(=O)OCCOCCOCCOC(=O)c2ccc(-c3c4nc(c(-c5c(F)c(F)c(F)c(F)c5F)c5ccc([nH]5)c(-c5c(F)c(F)c(F)c(F)c5F)c5nc(c(-c6c(F)c(F)c(F)c(F)c6F)c6ccc3[nH]6)C=C5)C=C4)cc2)n1
REMARK SMILES IDX 21 1 20 2 19 3 18 4 17 5 15 6 16 7 14 8 9 9 10 10 11 11
REMARK SMILES IDX 13 12 12 13 8 14 7 15 6 16 1 17 2 18 3 19 92 20 4 21 5 22
REMARK SMILES IDX 22 23 23 24 24 25 25 26 26 27 27 28 28 29 29 30 30 31 91 32
REMARK SMILES IDX 31 33 90 34 32 35 33 36 34 37 84 38 35 39 89 40 83 41 85 42
REMARK SMILES IDX 36 43 88 44 82 45 81 46 37 48 69 49 49 50 68 51 50 52 53 53
REMARK SMILES IDX 67 54 86 55 51 56 52 57 66 59 87 60 54 61 38 62 39 63 47 64
REMARK SMILES IDX 40 65 41 66 45 67 48 68 42 69 43 70 46 71 44 72 70 73 71 74
REMARK SMILES IDX 79 75 72 76 73 77 77 78 80 79 74 80 75 81 78 82 76 83 55 84
REMARK SMILES IDX 56 85 64 86 57 87 58 88 62 89 65 90 59 91 60 92 63 93 61 94
REMARK H PARENT 85 47 53 58
REMARK Flexibility Score: inf
ROOT
ATOM      1  C   UNL     1       1.601  -1.581   1.132  1.00  0.00     0.188 C 
ENDROOT
BRANCH   1   2
ATOM      2  O   UNL     1       1.236  -2.122  -0.290  1.00  0.00    -0.376 OA
BRANCH   2   3
ATOM      3  C   UNL     1      -0.089  -2.101  -1.244  1.00  0.00     0.202 C 
BRANCH   3   4
ATOM      4  C   UNL     1      -1.365  -0.666  -1.374  1.00  0.00     0.261 C 
BRANCH   4   5
ATOM      5  O   UNL     1      -1.775   0.367   0.327  1.00  0.00    -0.460 OA
BRANCH   5   6
ATOM      6  C   UNL     1      -2.245   0.442   1.681  1.00  0.00     0.342 C 
ATOM      7  O   UNL     1      -2.810  -0.456   2.320  1.00  0.00    -0.246 OA
BRANCH   6   8
ATOM      8  C   UNL     1      -1.941   1.630   2.451  1.00  0.00     0.102 A 
ATOM      9  C   UNL     1      -1.954   2.931   1.982  1.00  0.00     0.134 A 
ATOM     10  C   UNL     1      -1.796   3.930   2.968  1.00  0.00     0.047 A 
ATOM     11  C   UNL     1      -1.675   3.642   4.348  1.00  0.00     0.004 A 
ATOM     12  C   UNL     1      -1.748   1.338   3.840  1.00  0.00     0.019 A 
ATOM     13  C   UNL     1      -1.635   2.333   4.790  1.00  0.00     0.001 A 
BRANCH   9  14
ATOM     14  O   UNL     1      -2.010   3.381   0.692  1.00  0.00    -0.486 OA
BRANCH  14  15
ATOM     15  C   UNL     1      -2.885   2.836  -0.349  1.00  0.00     0.285 C 
BRANCH  15  16
ATOM     16  C   UNL     1      -2.423   1.514  -1.058  1.00  0.00     0.078 A 
ATOM     17  C   UNL     1       1.356   0.096  -1.093  1.00  0.00     0.067 C 
ATOM     18  C   UNL     1       0.031   0.158  -0.170  1.00  0.00     0.038 A 
ATOM     19  C   UNL     1      -0.979  -1.272   0.531  1.00  0.00     0.023 A 
ATOM     20  N   UNL     1      -0.743   1.492  -0.904  1.00  0.00    -0.255 NA
ATOM     21  C   UNL     1      -2.751  -1.323   0.103  1.00  0.00     0.004 A 
ATOM     22  C   UNL     1      -3.450   0.121  -0.685  1.00  0.00     0.027 A 
ENDBRANCH  15  16
ENDBRANCH  14  15
ENDBRANCH   9  14
ENDBRANCH   6   8
ENDBRANCH   5   6
ENDBRANCH   4   5
ENDBRANCH   3   4
ENDBRANCH   2   3
ENDBRANCH   1   2
BRANCH   1  23
ATOM     23  C   UNL     1       1.678   0.007   1.753  1.00  0.00     0.188 C 
BRANCH  23  24
ATOM     24  O   UNL     1       1.980   1.218   1.047  1.00  0.00    -0.376 OA
BRANCH  24  25
ATOM     25  C   UNL     1       3.214   1.760   0.588  1.00  0.00     0.202 C 
BRANCH  25  26
ATOM     26  C   UNL     1       4.446   0.876   0.397  1.00  0.00     0.261 C 
BRANCH  26  27
ATOM     27  O   UNL     1       4.595  -0.082   1.439  1.00  0.00    -0.460 OA
BRANCH  27  28
ATOM     28  C   UNL     1       4.773   0.467   2.662  1.00  0.00     0.338 C 
ATOM     29  O   UNL     1       5.023   1.629   2.922  1.00  0.00    -0.246 OA
BRANCH  28  30
ATOM     30  C   UNL     1       4.351  -0.535   3.658  1.00  0.00     0.060 A 
ATOM     31  C   UNL     1       3.503  -0.095   4.686  1.00  0.00     0.016 A 
ATOM     32  C   UNL     1       4.676  -1.888   3.525  1.00  0.00     0.016 A 
ATOM     33  C   UNL     1       3.033  -0.997   5.626  1.00  0.00     0.010 A 
ATOM     34  C   UNL     1       4.245  -2.787   4.499  1.00  0.00     0.010 A 
ATOM     35  C   UNL     1       3.476  -2.323   5.582  1.00  0.00    -0.014 A 
BRANCH  35  36
ATOM     36  C   UNL     1       3.427  -3.088   6.844  1.00  0.00     0.031 A 
ATOM     37  C   UNL     1       4.644  -3.020   7.727  1.00  0.00     0.074 A 
ATOM     38  C   UNL     1       2.313  -3.715   7.252  1.00  0.00     0.049 A 
ATOM     39  N   UNL     1       4.853  -3.552   8.902  1.00  0.00    -0.248 NA
ATOM     40  C   UNL     1       5.780  -2.233   7.214  1.00  0.00     0.031 C 
ATOM     41  C   UNL     1       1.055  -3.776   6.515  1.00  0.00     0.029 A 
ATOM     42  N   UNL     1       2.068  -4.410   8.408  1.00  0.00    -0.354 N 
ATOM     43  C   UNL     1       6.138  -3.166   9.261  1.00  0.00     0.074 A 
ATOM     44  C   UNL     1       6.678  -2.391   8.170  1.00  0.00     0.031 C 
ATOM     45  C   UNL     1       0.166  -4.482   7.237  1.00  0.00     0.029 A 
ATOM     46  C   UNL     1       0.807  -4.945   8.468  1.00  0.00     0.049 A 
ATOM     47  H   UNL     1       2.734  -4.516   9.125  1.00  0.00     0.167 HD
ATOM     48  C   UNL     1       6.804  -3.425  10.409  1.00  0.00     0.037 A 
ATOM     49  C   UNL     1       0.250  -5.734   9.407  1.00  0.00     0.037 A 
ATOM     50  C   UNL     1       6.262  -4.202  11.489  1.00  0.00     0.049 A 
ATOM     51  C   UNL     1       1.052  -6.095  10.634  1.00  0.00     0.074 A 
ATOM     52  C   UNL     1       6.853  -4.528  12.695  1.00  0.00     0.029 A 
ATOM     53  N   UNL     1       5.003  -4.784  11.487  1.00  0.00    -0.354 N 
ATOM     54  N   UNL     1       2.263  -5.723  10.977  1.00  0.00    -0.248 NA
ATOM     55  C   UNL     1       0.404  -6.982  11.610  1.00  0.00     0.031 C 
ATOM     56  C   UNL     1       5.983  -5.372  13.391  1.00  0.00     0.029 A 
ATOM     57  C   UNL     1       4.812  -5.498  12.658  1.00  0.00     0.049 A 
ATOM     58  H   UNL     1       4.343  -4.703  10.760  1.00  0.00     0.167 HD
ATOM     59  C   UNL     1       2.503  -6.293  12.222  1.00  0.00     0.074 A 
ATOM     60  C   UNL     1       1.307  -7.028  12.578  1.00  0.00     0.031 C 
ATOM     61  C   UNL     1       3.609  -6.213  13.004  1.00  0.00     0.037 A 
BRANCH  48  62
ATOM     62  C   UNL     1       8.207  -2.905  10.527  1.00  0.00     0.064 A 
ATOM     63  C   UNL     1       8.489  -1.534  10.631  1.00  0.00     0.173 A 
ATOM     64  C   UNL     1       9.287  -3.800  10.551  1.00  0.00     0.173 A 
ATOM     65  F   UNL     1       7.495  -0.634  10.591  1.00  0.00    -0.203 F 
ATOM     66  C   UNL     1       9.802  -1.078  10.726  1.00  0.00     0.198 A 
ATOM     67  C   UNL     1      10.595  -3.343  10.684  1.00  0.00     0.198 A 
ATOM     68  F   UNL     1       9.075  -5.120  10.451  1.00  0.00    -0.203 F 
ATOM     69  F   UNL     1      10.051   0.238  10.764  1.00  0.00    -0.200 F 
ATOM     70  C   UNL     1      10.852  -1.983  10.762  1.00  0.00     0.200 A 
ATOM     71  F   UNL     1      11.607  -4.220  10.734  1.00  0.00    -0.200 F 
ATOM     72  F   UNL     1      12.114  -1.544  10.864  1.00  0.00    -0.200 F 
ENDBRANCH  48  62
BRANCH  49  73
ATOM     73  C   UNL     1      -1.130  -6.257   9.219  1.00  0.00     0.064 A 
ATOM     74  C   UNL     1      -2.173  -5.891  10.082  1.00  0.00     0.173 A 
ATOM     75  C   UNL     1      -1.425  -7.167   8.193  1.00  0.00     0.173 A 
ATOM     76  F   UNL     1      -1.938  -5.044  11.095  1.00  0.00    -0.203 F 
ATOM     77  C   UNL     1      -3.448  -6.435   9.942  1.00  0.00     0.198 A 
ATOM     78  C   UNL     1      -2.709  -7.683   8.032  1.00  0.00     0.198 A 
ATOM     79  F   UNL     1      -0.464  -7.556   7.342  1.00  0.00    -0.203 F 
ATOM     80  F   UNL     1      -4.409  -6.117  10.820  1.00  0.00    -0.200 F 
ATOM     81  C   UNL     1      -3.716  -7.326   8.914  1.00  0.00     0.200 A 
ATOM     82  F   UNL     1      -2.965  -8.534   7.029  1.00  0.00    -0.200 F 
ATOM     83  F   UNL     1      -4.942  -7.851   8.782  1.00  0.00    -0.200 F 
ENDBRANCH  49  73
BRANCH  61  84
ATOM     84  C   UNL     1       3.562  -6.880  14.351  1.00  0.00     0.064 A 
ATOM     85  C   UNL     1       3.527  -8.275  14.492  1.00  0.00     0.173 A 
ATOM     86  C   UNL     1       3.598  -6.105  15.522  1.00  0.00     0.173 A 
ATOM     87  F   UNL     1       3.485  -9.064  13.408  1.00  0.00    -0.203 F 
ATOM     88  C   UNL     1       3.490  -8.867  15.753  1.00  0.00     0.198 A 
ATOM     89  C   UNL     1       3.603  -6.701  16.779  1.00  0.00     0.198 A 
ATOM     90  F   UNL     1       3.646  -4.766  15.447  1.00  0.00    -0.203 F 
ATOM     91  F   UNL     1       3.393 -10.199  15.863  1.00  0.00    -0.200 F 
ATOM     92  C   UNL     1       3.536  -8.080  16.895  1.00  0.00     0.200 A 
ATOM     93  F   UNL     1       3.671  -5.939  17.880  1.00  0.00    -0.200 F 
ATOM     94  F   UNL     1       3.509  -8.652  18.106  1.00  0.00    -0.200 F 
ENDBRANCH  61  84
ENDBRANCH  35  36
ENDBRANCH  28  30
ENDBRANCH  27  28
ENDBRANCH  26  27
ENDBRANCH  25  26
ENDBRANCH  24  25
ENDBRANCH  23  24
ENDBRANCH   1  23
TORSDOF 20
