REMARK SMILES O=C(Cc1c(C(=O)c2cc3c(cn2)CCCC3)[nH]c2cc(Cl)ccc12)OCCOCCOCCOC(=O)c1ccc(-c2c3nc(c(-c4c(F)c(F)c(F)c(F)c4F)c4ccc([nH]4)c(-c4c(F)c(F)c(F)c(F)c4F)c4nc(c(-c5c(F)c(F)c(F)c(F)c5F)c5ccc2[nH]5)C=C4)C=C3)cc1
REMARK SMILES IDX 30 1 29 2 28 3 27 4 26 5 2 6 1 7 3 8 4 9 5 10 25 11 18 12
REMARK SMILES IDX 19 13 24 14 20 16 23 17 21 18 22 19 6 20 7 21 8 22 9 23
REMARK SMILES IDX 13 24 10 25 12 26 11 27 17 28 14 29 16 30 15 31 31 32 32 33
REMARK SMILES IDX 33 34 34 35 35 36 36 37 37 38 38 39 39 40 100 41 40 42 99 43
REMARK SMILES IDX 41 44 42 45 43 46 93 47 44 48 98 49 92 50 94 51 45 52 97 53
REMARK SMILES IDX 91 54 90 55 46 57 78 58 58 59 77 60 59 61 62 62 76 63 95 64
REMARK SMILES IDX 60 65 61 66 75 68 96 69 63 70 47 71 48 72 56 73 49 74 50 75
REMARK SMILES IDX 54 76 57 77 51 78 52 79 55 80 53 81 79 82 80 83 88 84 81 85
REMARK SMILES IDX 82 86 86 87 89 88 83 89 84 90 87 91 85 92 64 93 65 94 73 95
REMARK SMILES IDX 66 96 67 97 71 98 74 99 68 100 69 101 72 102 70 103
REMARK H PARENT 18 15 94 56 62 67
REMARK Flexibility Score: inf
ROOT
ATOM      1  C   UNL     1       2.447   1.896  -0.703  1.00  0.00     0.188 C 
ENDROOT
BRANCH   1   2
ATOM      2  O   UNL     1       3.695   1.768  -0.033  1.00  0.00    -0.376 OA
BRANCH   2   3
ATOM      3  C   UNL     1       4.638   0.846  -0.573  1.00  0.00     0.202 C 
BRANCH   3   4
ATOM      4  C   UNL     1       4.159  -0.534  -1.041  1.00  0.00     0.261 C 
BRANCH   4   5
ATOM      5  O   UNL     1       2.838  -0.959  -0.660  1.00  0.00    -0.463 OA
BRANCH   5   6
ATOM      6  C   UNL     1       2.301  -0.921   0.578  1.00  0.00     0.310 C 
ATOM      7  O   UNL     1       1.077  -0.967   0.705  1.00  0.00    -0.252 OA
BRANCH   6   8
ATOM      8  C   UNL     1       3.208  -0.849   1.781  1.00  0.00     0.161 C 
BRANCH   8   9
ATOM      9  C   UNL     1       4.179  -1.986   1.838  1.00  0.00     0.000 A 
ATOM     10  C   UNL     1       5.554  -1.917   2.057  1.00  0.00     0.093 A 
ATOM     11  C   UNL     1       3.825  -3.363   1.683  1.00  0.00     0.004 A 
ATOM     12  N   UNL     1       6.025  -3.213   1.990  1.00  0.00    -0.351 N 
ATOM     13  C   UNL     1       5.003  -4.100   1.743  1.00  0.00     0.048 A 
ATOM     14  C   UNL     1       2.603  -4.042   1.488  1.00  0.00     0.012 A 
ATOM     15  H   UNL     1       6.969  -3.469   2.104  1.00  0.00     0.167 HD
ATOM     16  C   UNL     1       5.023  -5.493   1.589  1.00  0.00     0.047 A 
ATOM     17  C   UNL     1       2.601  -5.431   1.338  1.00  0.00     0.021 A 
ATOM     18  C   UNL     1       3.797  -6.138   1.382  1.00  0.00     0.043 A 
ATOM     19  Cl  UNL     1       3.770  -7.849   1.184  1.00  0.00    -0.084 Cl
BRANCH  10  20
ATOM     20  C   UNL     1       6.352  -0.731   2.368  1.00  0.00     0.227 C 
ATOM     21  O   UNL     1       5.843   0.284   2.840  1.00  0.00    -0.285 OA
BRANCH  20  22
ATOM     22  C   UNL     1       7.822  -0.714   2.087  1.00  0.00     0.113 A 
ATOM     23  C   UNL     1       8.352  -1.280   0.929  1.00  0.00     0.036 A 
ATOM     24  N   UNL     1       8.581  -0.092   3.021  1.00  0.00    -0.252 NA
ATOM     25  C   UNL     1       9.740  -1.256   0.744  1.00  0.00    -0.041 A 
ATOM     26  C   UNL     1       9.912  -0.068   2.817  1.00  0.00     0.115 A 
ATOM     27  C   UNL     1      10.543  -0.662   1.730  1.00  0.00    -0.026 A 
ATOM     28  C   UNL     1      10.346  -1.925  -0.467  1.00  0.00     0.036 C 
ATOM     29  C   UNL     1      12.042  -0.622   1.621  1.00  0.00     0.037 C 
ATOM     30  C   UNL     1      11.842  -1.655  -0.644  1.00  0.00     0.005 C 
ATOM     31  C   UNL     1      12.573  -1.711   0.692  1.00  0.00     0.005 C 
ENDBRANCH  20  22
ENDBRANCH  10  20
ENDBRANCH   8   9
ENDBRANCH   6   8
ENDBRANCH   5   6
ENDBRANCH   4   5
ENDBRANCH   3   4
ENDBRANCH   2   3
ENDBRANCH   1   2
BRANCH   1  32
ATOM     32  C   UNL     1       2.092   3.313  -1.142  1.00  0.00     0.188 C 
BRANCH  32  33
ATOM     33  O   UNL     1       2.944   3.885  -2.125  1.00  0.00    -0.376 OA
BRANCH  33  34
ATOM     34  C   UNL     1       4.273   4.215  -1.729  1.00  0.00     0.202 C 
BRANCH  34  35
ATOM     35  C   UNL     1       4.444   5.215  -0.579  1.00  0.00     0.261 C 
BRANCH  35  36
ATOM     36  O   UNL     1       4.140   4.659   0.717  1.00  0.00    -0.460 OA
BRANCH  36  37
ATOM     37  C   UNL     1       3.146   5.265   1.400  1.00  0.00     0.338 C 
ATOM     38  O   UNL     1       2.458   6.214   1.024  1.00  0.00    -0.246 OA
BRANCH  37  39
ATOM     39  C   UNL     1       2.899   4.598   2.687  1.00  0.00     0.060 A 
ATOM     40  C   UNL     1       3.820   4.740   3.725  1.00  0.00     0.016 A 
ATOM     41  C   UNL     1       1.659   3.989   2.918  1.00  0.00     0.016 A 
ATOM     42  C   UNL     1       3.482   4.300   5.009  1.00  0.00     0.010 A 
ATOM     43  C   UNL     1       1.322   3.551   4.204  1.00  0.00     0.010 A 
ATOM     44  C   UNL     1       2.222   3.728   5.266  1.00  0.00    -0.014 A 
BRANCH  44  45
ATOM     45  C   UNL     1       1.820   3.450   6.670  1.00  0.00     0.031 A 
ATOM     46  C   UNL     1       1.845   2.063   7.237  1.00  0.00     0.074 A 
ATOM     47  C   UNL     1       1.446   4.480   7.455  1.00  0.00     0.049 A 
ATOM     48  N   UNL     1       1.675   1.680   8.479  1.00  0.00    -0.248 NA
ATOM     49  C   UNL     1       2.080   0.964   6.292  1.00  0.00     0.031 C 
ATOM     50  C   UNL     1       1.329   5.869   7.012  1.00  0.00     0.029 A 
ATOM     51  N   UNL     1       1.113   4.523   8.787  1.00  0.00    -0.354 N 
ATOM     52  C   UNL     1       1.813   0.300   8.472  1.00  0.00     0.074 A 
ATOM     53  C   UNL     1       2.021  -0.094   7.092  1.00  0.00     0.031 C 
ATOM     54  C   UNL     1       0.986   6.634   8.060  1.00  0.00     0.029 A 
ATOM     55  C   UNL     1       0.847   5.790   9.246  1.00  0.00     0.049 A 
ATOM     56  H   UNL     1       1.069   3.723   9.359  1.00  0.00     0.167 HD
ATOM     57  C   UNL     1       1.794  -0.553   9.525  1.00  0.00     0.037 A 
ATOM     58  C   UNL     1       0.545   6.231  10.483  1.00  0.00     0.037 A 
ATOM     59  C   UNL     1       1.579  -0.160  10.896  1.00  0.00     0.049 A 
ATOM     60  C   UNL     1       0.500   5.259  11.631  1.00  0.00     0.074 A 
ATOM     61  C   UNL     1       1.613  -0.950  12.033  1.00  0.00     0.029 A 
ATOM     62  N   UNL     1       1.272   1.126  11.316  1.00  0.00    -0.354 N 
ATOM     63  N   UNL     1       0.746   3.973  11.633  1.00  0.00    -0.248 NA
ATOM     64  C   UNL     1       0.144   5.803  12.951  1.00  0.00     0.031 C 
ATOM     65  C   UNL     1       1.270  -0.157  13.132  1.00  0.00     0.029 A 
ATOM     66  C   UNL     1       1.075   1.141  12.690  1.00  0.00     0.049 A 
ATOM     67  H   UNL     1       1.204   1.912  10.727  1.00  0.00     0.167 HD
ATOM     68  C   UNL     1       0.593   3.556  12.948  1.00  0.00     0.074 A 
ATOM     69  C   UNL     1       0.251   4.729  13.723  1.00  0.00     0.031 C 
ATOM     70  C   UNL     1       0.726   2.308  13.460  1.00  0.00     0.037 A 
BRANCH  57  71
ATOM     71  C   UNL     1       2.034  -2.009   9.253  1.00  0.00     0.064 A 
ATOM     72  C   UNL     1       3.308  -2.483   8.905  1.00  0.00     0.173 A 
ATOM     73  C   UNL     1       1.012  -2.951   9.441  1.00  0.00     0.173 A 
ATOM     74  F   UNL     1       4.321  -1.623   8.719  1.00  0.00    -0.203 F 
ATOM     75  C   UNL     1       3.547  -3.845   8.742  1.00  0.00     0.198 A 
ATOM     76  C   UNL     1       1.260  -4.315   9.303  1.00  0.00     0.198 A 
ATOM     77  F   UNL     1      -0.220  -2.553   9.792  1.00  0.00    -0.203 F 
ATOM     78  F   UNL     1       4.767  -4.272   8.389  1.00  0.00    -0.200 F 
ATOM     79  C   UNL     1       2.526  -4.760   8.951  1.00  0.00     0.200 A 
ATOM     80  F   UNL     1       0.279  -5.200   9.527  1.00  0.00    -0.200 F 
ATOM     81  F   UNL     1       2.763  -6.072   8.818  1.00  0.00    -0.200 F 
ENDBRANCH  57  71
BRANCH  58  82
ATOM     82  C   UNL     1       0.312   7.681  10.703  1.00  0.00     0.064 A 
ATOM     83  C   UNL     1       1.245   8.463  11.397  1.00  0.00     0.173 A 
ATOM     84  C   UNL     1      -0.830   8.320  10.197  1.00  0.00     0.173 A 
ATOM     85  F   UNL     1       2.341   7.893  11.919  1.00  0.00    -0.203 F 
ATOM     86  C   UNL     1       1.044   9.829  11.580  1.00  0.00     0.198 A 
ATOM     87  C   UNL     1      -1.018   9.691  10.359  1.00  0.00     0.198 A 
ATOM     88  F   UNL     1      -1.752   7.615   9.526  1.00  0.00    -0.203 F 
ATOM     89  F   UNL     1       1.936  10.549  12.274  1.00  0.00    -0.200 F 
ATOM     90  C   UNL     1      -0.083  10.444  11.053  1.00  0.00     0.200 A 
ATOM     91  F   UNL     1      -2.101  10.283   9.838  1.00  0.00    -0.200 F 
ATOM     92  F   UNL     1      -0.269  11.760  11.218  1.00  0.00    -0.200 F 
ENDBRANCH  58  82
BRANCH  70  93
ATOM     93  C   UNL     1       0.498   2.127  14.934  1.00  0.00     0.064 A 
ATOM     94  C   UNL     1      -0.790   2.185  15.486  1.00  0.00     0.173 A 
ATOM     95  C   UNL     1       1.564   1.810  15.790  1.00  0.00     0.173 A 
ATOM     96  F   UNL     1      -1.842   2.498  14.715  1.00  0.00    -0.203 F 
ATOM     97  C   UNL     1      -1.002   1.938  16.841  1.00  0.00     0.198 A 
ATOM     98  C   UNL     1       1.346   1.537  17.138  1.00  0.00     0.198 A 
ATOM     99  F   UNL     1       2.816   1.736  15.313  1.00  0.00    -0.203 F 
ATOM    100  F   UNL     1      -2.238   2.026  17.352  1.00  0.00    -0.200 F 
ATOM    101  C   UNL     1       0.064   1.603  17.663  1.00  0.00     0.200 A 
ATOM    102  F   UNL     1       2.375   1.199  17.928  1.00  0.00    -0.200 F 
ATOM    103  F   UNL     1      -0.144   1.346  18.962  1.00  0.00    -0.200 F 
ENDBRANCH  70  93
ENDBRANCH  44  45
ENDBRANCH  37  39
ENDBRANCH  36  37
ENDBRANCH  35  36
ENDBRANCH  34  35
ENDBRANCH  33  34
ENDBRANCH  32  33
ENDBRANCH   1  32
TORSDOF 20
