REMARK SMILES CCCc1cc2c(cc1Cl)C=C(C(=O)OCCOCCOCCOC(=O)c1ccc(-c3c4nc(c(-c5c(F)c(F)c(F)c(F)c5F)c5ccc([nH]5)c(-c5c(F)c(F)c(F)c(F)c5F)c5nc(c(-c6c(F)c(F)c(F)c(F)c6F)c6ccc3[nH]6)C=C5)C=C4)cc1)[C@@H](C(F)(F)F)O2
REMARK SMILES IDX 19 1 18 2 17 3 16 4 15 5 13 6 14 7 12 8 4 9 5 10 9 11 6 12
REMARK SMILES IDX 8 13 10 14 7 15 95 16 11 17 90 18 3 19 2 20 1 21 91 22 92 23
REMARK SMILES IDX 93 24 94 25 20 26 21 27 22 28 23 29 24 30 25 31 26 32 27 33
REMARK SMILES IDX 28 34 89 35 29 36 88 37 30 38 31 39 32 40 82 41 33 42 87 43
REMARK SMILES IDX 81 44 83 45 34 46 86 47 80 48 79 49 35 51 67 52 47 53 66 54
REMARK SMILES IDX 48 55 51 56 65 57 84 58 49 59 50 60 64 62 85 63 52 64 36 65
REMARK SMILES IDX 37 66 45 67 38 68 39 69 43 70 46 71 40 72 41 73 44 74 42 75
REMARK SMILES IDX 68 76 69 77 77 78 70 79 71 80 75 81 78 82 72 83 73 84 76 85
REMARK SMILES IDX 74 86 53 87 54 88 62 89 55 90 56 91 60 92 63 93 57 94 58 95
REMARK SMILES IDX 61 96 59 97
REMARK H PARENT 83 50 51 61
REMARK Flexibility Score: inf
ROOT
ATOM      1  C   UNL     1       0.240  -8.404   3.630  1.00  0.00     0.188 C 
ENDROOT
BRANCH   1   2
ATOM      2  O   UNL     1      -0.203  -9.654   4.109  1.00  0.00    -0.376 OA
BRANCH   2   3
ATOM      3  C   UNL     1      -0.455 -10.736   3.228  1.00  0.00     0.202 C 
BRANCH   3   4
ATOM      4  C   UNL     1      -1.020 -10.557   1.813  1.00  0.00     0.261 C 
BRANCH   4   5
ATOM      5  O   UNL     1      -0.496  -9.445   1.079  1.00  0.00    -0.460 OA
BRANCH   5   6
ATOM      6  C   UNL     1      -1.409  -8.497   0.764  1.00  0.00     0.338 C 
ATOM      7  O   UNL     1      -2.608  -8.529   0.999  1.00  0.00    -0.246 OA
BRANCH   6   8
ATOM      8  C   UNL     1      -0.729  -7.301   0.237  1.00  0.00     0.087 C 
ATOM      9  C   UNL     1       0.345  -2.542  -1.036  1.00  0.00    -0.026 A 
ATOM     10  C   UNL     1       0.869  -3.817  -1.377  1.00  0.00     0.052 A 
ATOM     11  C   UNL     1      -0.652  -2.505  -0.048  1.00  0.00     0.045 A 
ATOM     12  C   UNL     1       0.405  -4.995  -0.785  1.00  0.00     0.128 A 
ATOM     13  C   UNL     1      -1.076  -3.683   0.582  1.00  0.00     0.032 A 
ATOM     14  Cl  UNL     1      -1.505  -1.088   0.445  1.00  0.00    -0.084 Cl
ATOM     15  C   UNL     1      -0.573  -4.925   0.197  1.00  0.00     0.019 A 
ATOM     16  O   UNL     1       0.945  -6.169  -1.231  1.00  0.00    -0.475 OA
ATOM     17  C   UNL     1      -1.126  -6.137   0.763  1.00  0.00     0.027 C 
ATOM     18  C   UNL     1       0.313  -7.425  -0.840  1.00  0.00     0.316 C 
BRANCH   9  19
ATOM     19  C   UNL     1       0.858  -1.387  -1.881  1.00  0.00     0.037 C 
BRANCH  19  20
ATOM     20  C   UNL     1       0.740   0.076  -1.444  1.00  0.00     0.001 C 
ATOM     21  C   UNL     1       1.516   0.409  -0.179  1.00  0.00     0.004 C 
ENDBRANCH  19  20
ENDBRANCH   9  19
BRANCH  18  22
ATOM     22  C   UNL     1      -0.241  -8.127  -2.088  1.00  0.00     0.430 C 
ATOM     23  F   UNL     1       0.691  -8.207  -3.067  1.00  0.00    -0.167 F 
ATOM     24  F   UNL     1      -0.626  -9.396  -1.811  1.00  0.00    -0.167 F 
ATOM     25  F   UNL     1      -1.314  -7.481  -2.598  1.00  0.00    -0.167 F 
ENDBRANCH  18  22
ENDBRANCH   6   8
ENDBRANCH   5   6
ENDBRANCH   4   5
ENDBRANCH   3   4
ENDBRANCH   2   3
ENDBRANCH   1   2
BRANCH   1  26
ATOM     26  C   UNL     1       1.574  -8.273   2.865  1.00  0.00     0.188 C 
BRANCH  26  27
ATOM     27  O   UNL     1       2.363  -9.407   2.583  1.00  0.00    -0.376 OA
BRANCH  27  28
ATOM     28  C   UNL     1       2.900 -10.186   3.640  1.00  0.00     0.202 C 
BRANCH  28  29
ATOM     29  C   UNL     1       3.403  -9.589   4.962  1.00  0.00     0.261 C 
BRANCH  29  30
ATOM     30  O   UNL     1       2.607  -8.536   5.517  1.00  0.00    -0.460 OA
BRANCH  30  31
ATOM     31  C   UNL     1       3.198  -7.315   5.534  1.00  0.00     0.338 C 
ATOM     32  O   UNL     1       4.314  -7.025   5.143  1.00  0.00    -0.246 OA
BRANCH  31  33
ATOM     33  C   UNL     1       2.192  -6.305   5.917  1.00  0.00     0.060 A 
ATOM     34  C   UNL     1       1.528  -6.383   7.140  1.00  0.00     0.016 A 
ATOM     35  C   UNL     1       1.925  -5.258   5.023  1.00  0.00     0.016 A 
ATOM     36  C   UNL     1       0.617  -5.382   7.486  1.00  0.00     0.010 A 
ATOM     37  C   UNL     1       1.002  -4.268   5.363  1.00  0.00     0.010 A 
ATOM     38  C   UNL     1       0.365  -4.308   6.611  1.00  0.00    -0.014 A 
BRANCH  38  39
ATOM     39  C   UNL     1      -0.397  -3.131   7.093  1.00  0.00     0.031 A 
ATOM     40  C   UNL     1      -1.827  -2.895   6.726  1.00  0.00     0.074 A 
ATOM     41  C   UNL     1       0.252  -2.253   7.882  1.00  0.00     0.049 A 
ATOM     42  N   UNL     1      -2.644  -1.972   7.171  1.00  0.00    -0.248 NA
ATOM     43  C   UNL     1      -2.420  -3.797   5.730  1.00  0.00     0.031 C 
ATOM     44  C   UNL     1       1.662  -2.358   8.261  1.00  0.00     0.029 A 
ATOM     45  N   UNL     1      -0.182  -1.116   8.514  1.00  0.00    -0.354 N 
ATOM     46  C   UNL     1      -3.856  -2.198   6.535  1.00  0.00     0.074 A 
ATOM     47  C   UNL     1      -3.652  -3.312   5.630  1.00  0.00     0.031 C 
ATOM     48  C   UNL     1       1.968  -1.349   9.089  1.00  0.00     0.029 A 
ATOM     49  C   UNL     1       0.783  -0.517   9.284  1.00  0.00     0.049 A 
ATOM     50  H   UNL     1      -1.097  -0.764   8.424  1.00  0.00     0.167 HD
ATOM     51  C   UNL     1      -5.030  -1.546   6.715  1.00  0.00     0.037 A 
ATOM     52  C   UNL     1       0.721   0.571  10.074  1.00  0.00     0.037 A 
ATOM     53  C   UNL     1      -5.214  -0.425   7.605  1.00  0.00     0.049 A 
ATOM     54  C   UNL     1      -0.585   1.296  10.226  1.00  0.00     0.074 A 
ATOM     55  C   UNL     1      -6.379   0.270   7.885  1.00  0.00     0.029 A 
ATOM     56  N   UNL     1      -4.206   0.177   8.345  1.00  0.00    -0.354 N 
ATOM     57  N   UNL     1      -1.751   1.014   9.699  1.00  0.00    -0.248 NA
ATOM     58  C   UNL     1      -0.589   2.485  11.090  1.00  0.00     0.031 C 
ATOM     59  C   UNL     1      -6.067   1.324   8.748  1.00  0.00     0.029 A 
ATOM     60  C   UNL     1      -4.718   1.253   9.056  1.00  0.00     0.049 A 
ATOM     61  H   UNL     1      -3.266  -0.115   8.363  1.00  0.00     0.167 HD
ATOM     62  C   UNL     1      -2.632   1.969  10.187  1.00  0.00     0.074 A 
ATOM     63  C   UNL     1      -1.868   2.835  11.060  1.00  0.00     0.031 C 
ATOM     64  C   UNL     1      -3.955   2.108   9.931  1.00  0.00     0.037 A 
BRANCH  51  65
ATOM     65  C   UNL     1      -6.232  -2.032   5.957  1.00  0.00     0.064 A 
ATOM     66  C   UNL     1      -6.856  -3.244   6.288  1.00  0.00     0.173 A 
ATOM     67  C   UNL     1      -6.832  -1.234   4.971  1.00  0.00     0.173 A 
ATOM     68  F   UNL     1      -6.324  -4.044   7.225  1.00  0.00    -0.203 F 
ATOM     69  C   UNL     1      -8.029  -3.645   5.652  1.00  0.00     0.198 A 
ATOM     70  C   UNL     1      -8.020  -1.625   4.356  1.00  0.00     0.198 A 
ATOM     71  F   UNL     1      -6.287  -0.058   4.628  1.00  0.00    -0.203 F 
ATOM     72  F   UNL     1      -8.595  -4.817   5.971  1.00  0.00    -0.200 F 
ATOM     73  C   UNL     1      -8.615  -2.831   4.696  1.00  0.00     0.200 A 
ATOM     74  F   UNL     1      -8.597  -0.827   3.447  1.00  0.00    -0.200 F 
ATOM     75  F   UNL     1      -9.757  -3.206   4.103  1.00  0.00    -0.200 F 
ENDBRANCH  51  65
BRANCH  52  76
ATOM     76  C   UNL     1       1.928   0.987  10.830  1.00  0.00     0.064 A 
ATOM     77  C   UNL     1       1.997   0.816  12.219  1.00  0.00     0.173 A 
ATOM     78  C   UNL     1       3.053   1.511  10.178  1.00  0.00     0.173 A 
ATOM     79  F   UNL     1       0.941   0.330  12.887  1.00  0.00    -0.203 F 
ATOM     80  C   UNL     1       3.145   1.160  12.929  1.00  0.00     0.198 A 
ATOM     81  C   UNL     1       4.210   1.829  10.885  1.00  0.00     0.198 A 
ATOM     82  F   UNL     1       3.039   1.683   8.848  1.00  0.00    -0.203 F 
ATOM     83  F   UNL     1       3.176   1.011  14.260  1.00  0.00    -0.200 F 
ATOM     84  C   UNL     1       4.254   1.657  12.260  1.00  0.00     0.200 A 
ATOM     85  F   UNL     1       5.286   2.291  10.233  1.00  0.00    -0.200 F 
ATOM     86  F   UNL     1       5.364   1.971  12.941  1.00  0.00    -0.200 F 
ENDBRANCH  52  76
BRANCH  64  87
ATOM     87  C   UNL     1      -4.687   3.226  10.616  1.00  0.00     0.064 A 
ATOM     88  C   UNL     1      -4.513   4.562  10.229  1.00  0.00     0.173 A 
ATOM     89  C   UNL     1      -5.641   2.947  11.607  1.00  0.00     0.173 A 
ATOM     90  F   UNL     1      -3.603   4.883   9.297  1.00  0.00    -0.203 F 
ATOM     91  C   UNL     1      -5.265   5.580  10.812  1.00  0.00     0.198 A 
ATOM     92  C   UNL     1      -6.410   3.963  12.168  1.00  0.00     0.198 A 
ATOM     93  F   UNL     1      -5.848   1.685  12.010  1.00  0.00    -0.203 F 
ATOM     94  F   UNL     1      -5.066   6.853  10.445  1.00  0.00    -0.200 F 
ATOM     95  C   UNL     1      -6.221   5.278  11.771  1.00  0.00     0.200 A 
ATOM     96  F   UNL     1      -7.344   3.667  13.083  1.00  0.00    -0.200 F 
ATOM     97  F   UNL     1      -6.960   6.255  12.313  1.00  0.00    -0.200 F 
ENDBRANCH  64  87
ENDBRANCH  38  39
ENDBRANCH  31  33
ENDBRANCH  30  31
ENDBRANCH  29  30
ENDBRANCH  28  29
ENDBRANCH  27  28
ENDBRANCH  26  27
ENDBRANCH   1  26
TORSDOF 20
