REMARK SMILES C=CCOc1ccccc1/C=C1\SC(=S)N(CC(=O)OCCOCCOCCOC(=O)c2ccc(-c3c4nc(c(-c5c(F)c(F)c(F)c(F)c5F)c5ccc([nH]5)c(-c5c(F)c(F)c(F)c(F)c5F)c5nc(c(-c6c(F)c(F)c(F)c(F)c6F)c6ccc3[nH]6)C=C5)C=C4)cc2)C1=O
REMARK SMILES IDX 23 1 22 2 21 3 20 4 18 5 19 6 17 7 16 8 11 9 12 10 13 11
REMARK SMILES IDX 95 12 14 13 96 14 15 15 10 16 5 17 6 18 7 19 9 20 8 21 4 22
REMARK SMILES IDX 3 23 2 24 1 25 24 26 25 27 26 28 27 29 28 30 29 31 30 32
REMARK SMILES IDX 31 33 32 34 33 35 94 36 34 37 93 38 35 39 36 40 37 41 87 42
REMARK SMILES IDX 38 43 92 44 86 45 88 46 39 47 91 48 85 49 84 50 40 52 72 53
REMARK SMILES IDX 52 54 71 55 53 56 56 57 70 58 89 59 54 60 55 61 69 63 90 64
REMARK SMILES IDX 57 65 41 66 42 67 50 68 43 69 44 70 48 71 51 72 45 73 46 74
REMARK SMILES IDX 49 75 47 76 73 77 74 78 82 79 75 80 76 81 80 82 83 83 77 84
REMARK SMILES IDX 78 85 81 86 79 87 58 88 59 89 67 90 60 91 61 92 65 93 68 94
REMARK SMILES IDX 62 95 63 96 66 97 64 98
REMARK H PARENT 88 51 56 62
REMARK Flexibility Score: inf
ROOT
ATOM      1  O   UNL     1       7.082  -1.883  -1.495  1.00  0.00    -0.376 OA
ENDROOT
BRANCH   1   2
ATOM      2  C   UNL     1       7.439  -1.565  -2.831  1.00  0.00     0.202 C 
BRANCH   2   3
ATOM      3  C   UNL     1       6.740  -2.401  -3.905  1.00  0.00     0.261 C 
BRANCH   3   4
ATOM      4  O   UNL     1       5.297  -2.322  -3.860  1.00  0.00    -0.462 OA
BRANCH   4   5
ATOM      5  C   UNL     1       4.649  -3.486  -3.602  1.00  0.00     0.326 C 
ATOM      6  O   UNL     1       5.205  -4.566  -3.423  1.00  0.00    -0.250 OA
BRANCH   5   7
ATOM      7  C   UNL     1       3.127  -3.368  -3.537  1.00  0.00     0.250 C 
BRANCH   7   8
ATOM      8  N   UNL     1       2.470  -2.073  -3.749  1.00  0.00    -0.282 N 
ATOM      9  C   UNL     1       1.052   0.848  -2.150  1.00  0.00     0.033 C 
ATOM     10  C   UNL     1       1.402  -0.083  -3.047  1.00  0.00     0.081 C 
ATOM     11  S   UNL     1       1.044  -0.150  -4.722  1.00  0.00    -0.054 SA
ATOM     12  C   UNL     1       2.165  -1.297  -2.649  1.00  0.00     0.266 C 
ATOM     13  C   UNL     1       1.988  -1.621  -4.959  1.00  0.00     0.148 C 
ATOM     14  O   UNL     1       2.436  -1.583  -1.490  1.00  0.00    -0.268 OA
ATOM     15  S   UNL     1       2.200  -2.314  -6.460  1.00  0.00    -0.052 S 
BRANCH   9  16
ATOM     16  C   UNL     1       0.062   1.920  -2.329  1.00  0.00     0.018 A 
ATOM     17  C   UNL     1      -1.313   1.625  -2.315  1.00  0.00     0.127 A 
ATOM     18  C   UNL     1      -2.269   2.638  -2.438  1.00  0.00     0.047 A 
ATOM     19  C   UNL     1      -1.859   3.967  -2.508  1.00  0.00     0.004 A 
ATOM     20  C   UNL     1       0.460   3.259  -2.389  1.00  0.00     0.012 A 
ATOM     21  C   UNL     1      -0.498   4.277  -2.475  1.00  0.00     0.001 A 
BRANCH  17  22
ATOM     22  O   UNL     1      -1.738   0.323  -2.195  1.00  0.00    -0.489 OA
BRANCH  22  23
ATOM     23  C   UNL     1      -2.150   0.033  -0.851  1.00  0.00     0.257 C 
BRANCH  23  24
ATOM     24  C   UNL     1      -1.038  -0.657  -0.116  1.00  0.00     0.006 C 
ATOM     25  C   UNL     1      -0.433  -0.163   0.972  1.00  0.00     0.007 C 
ENDBRANCH  23  24
ENDBRANCH  22  23
ENDBRANCH  17  22
ENDBRANCH   9  16
ENDBRANCH   7   8
ENDBRANCH   5   7
ENDBRANCH   4   5
ENDBRANCH   3   4
ENDBRANCH   2   3
ENDBRANCH   1   2
BRANCH   1  26
ATOM     26  C   UNL     1       5.842  -1.403  -0.980  1.00  0.00     0.188 C 
BRANCH  26  27
ATOM     27  C   UNL     1       5.141  -0.223  -1.663  1.00  0.00     0.188 C 
BRANCH  27  28
ATOM     28  O   UNL     1       6.024   0.868  -1.893  1.00  0.00    -0.376 OA
BRANCH  28  29
ATOM     29  C   UNL     1       5.438   2.136  -1.631  1.00  0.00     0.202 C 
BRANCH  29  30
ATOM     30  C   UNL     1       5.834   2.578  -0.223  1.00  0.00     0.261 C 
BRANCH  30  31
ATOM     31  O   UNL     1       5.476   1.638   0.808  1.00  0.00    -0.460 OA
BRANCH  31  32
ATOM     32  C   UNL     1       4.157   1.498   1.065  1.00  0.00     0.338 C 
ATOM     33  O   UNL     1       3.233   2.066   0.515  1.00  0.00    -0.246 OA
BRANCH  32  34
ATOM     34  C   UNL     1       3.999   0.429   2.070  1.00  0.00     0.060 A 
ATOM     35  C   UNL     1       3.229  -0.697   1.762  1.00  0.00     0.016 A 
ATOM     36  C   UNL     1       4.577   0.565   3.332  1.00  0.00     0.016 A 
ATOM     37  C   UNL     1       2.997  -1.676   2.731  1.00  0.00     0.010 A 
ATOM     38  C   UNL     1       4.346  -0.414   4.300  1.00  0.00     0.010 A 
ATOM     39  C   UNL     1       3.531  -1.525   4.016  1.00  0.00    -0.014 A 
BRANCH  39  40
ATOM     40  C   UNL     1       3.163  -2.444   5.121  1.00  0.00     0.031 A 
ATOM     41  C   UNL     1       2.246  -1.947   6.200  1.00  0.00     0.074 A 
ATOM     42  C   UNL     1       3.686  -3.680   5.201  1.00  0.00     0.049 A 
ATOM     43  N   UNL     1       1.975  -2.463   7.372  1.00  0.00    -0.248 NA
ATOM     44  C   UNL     1       1.550  -0.682   5.921  1.00  0.00     0.031 C 
ATOM     45  C   UNL     1       4.543  -4.300   4.196  1.00  0.00     0.029 A 
ATOM     46  N   UNL     1       3.597  -4.618   6.200  1.00  0.00    -0.354 N 
ATOM     47  C   UNL     1       1.111  -1.567   7.986  1.00  0.00     0.074 A 
ATOM     48  C   UNL     1       0.910  -0.471   7.061  1.00  0.00     0.031 C 
ATOM     49  C   UNL     1       4.934  -5.505   4.643  1.00  0.00     0.029 A 
ATOM     50  C   UNL     1       4.400  -5.711   5.989  1.00  0.00     0.049 A 
ATOM     51  H   UNL     1       3.016  -4.517   6.989  1.00  0.00     0.167 HD
ATOM     52  C   UNL     1       0.544  -1.649   9.214  1.00  0.00     0.037 A 
ATOM     53  C   UNL     1       4.714  -6.732   6.809  1.00  0.00     0.037 A 
ATOM     54  C   UNL     1       0.741  -2.750  10.122  1.00  0.00     0.049 A 
ATOM     55  C   UNL     1       4.122  -6.782   8.193  1.00  0.00     0.074 A 
ATOM     56  C   UNL     1       0.194  -2.944  11.378  1.00  0.00     0.029 A 
ATOM     57  N   UNL     1       1.559  -3.843   9.869  1.00  0.00    -0.354 N 
ATOM     58  N   UNL     1       3.315  -5.931   8.779  1.00  0.00    -0.248 NA
ATOM     59  C   UNL     1       4.487  -7.934   9.030  1.00  0.00     0.031 C 
ATOM     60  C   UNL     1       0.721  -4.129  11.906  1.00  0.00     0.029 A 
ATOM     61  C   UNL     1       1.551  -4.703  10.956  1.00  0.00     0.049 A 
ATOM     62  H   UNL     1       2.070  -3.986   9.039  1.00  0.00     0.167 HD
ATOM     63  C   UNL     1       3.059  -6.451  10.042  1.00  0.00     0.074 A 
ATOM     64  C   UNL     1       3.791  -7.698  10.134  1.00  0.00     0.031 C 
ATOM     65  C   UNL     1       2.285  -5.942  11.033  1.00  0.00     0.037 A 
BRANCH  52  66
ATOM     66  C   UNL     1      -0.299  -0.489   9.661  1.00  0.00     0.064 A 
ATOM     67  C   UNL     1      -1.541  -0.201   9.076  1.00  0.00     0.173 A 
ATOM     68  C   UNL     1       0.153   0.356  10.687  1.00  0.00     0.173 A 
ATOM     69  F   UNL     1      -2.013  -0.967   8.081  1.00  0.00    -0.203 F 
ATOM     70  C   UNL     1      -2.277   0.914   9.470  1.00  0.00     0.198 A 
ATOM     71  C   UNL     1      -0.601   1.450  11.101  1.00  0.00     0.198 A 
ATOM     72  F   UNL     1       1.332   0.125  11.285  1.00  0.00    -0.203 F 
ATOM     73  F   UNL     1      -3.428   1.209   8.849  1.00  0.00    -0.200 F 
ATOM     74  C   UNL     1      -1.809   1.736  10.484  1.00  0.00     0.200 A 
ATOM     75  F   UNL     1      -0.152   2.236  12.089  1.00  0.00    -0.200 F 
ATOM     76  F   UNL     1      -2.515   2.812  10.857  1.00  0.00    -0.200 F 
ENDBRANCH  52  66
BRANCH  53  77
ATOM     77  C   UNL     1       5.671  -7.769   6.345  1.00  0.00     0.064 A 
ATOM     78  C   UNL     1       5.241  -9.066   6.039  1.00  0.00     0.173 A 
ATOM     79  C   UNL     1       7.031  -7.471   6.166  1.00  0.00     0.173 A 
ATOM     80  F   UNL     1       3.957  -9.405   6.222  1.00  0.00    -0.203 F 
ATOM     81  C   UNL     1       6.135 -10.027   5.571  1.00  0.00     0.198 A 
ATOM     82  C   UNL     1       7.918  -8.425   5.672  1.00  0.00     0.198 A 
ATOM     83  F   UNL     1       7.493  -6.244   6.449  1.00  0.00    -0.203 F 
ATOM     84  F   UNL     1       5.703 -11.270   5.313  1.00  0.00    -0.200 F 
ATOM     85  C   UNL     1       7.469  -9.703   5.377  1.00  0.00     0.200 A 
ATOM     86  F   UNL     1       9.204  -8.104   5.476  1.00  0.00    -0.200 F 
ATOM     87  F   UNL     1       8.324 -10.624   4.911  1.00  0.00    -0.200 F 
ENDBRANCH  53  77
BRANCH  65  88
ATOM     88  C   UNL     1       2.154  -6.750  12.292  1.00  0.00     0.064 A 
ATOM     89  C   UNL     1       3.205  -6.857  13.214  1.00  0.00     0.173 A 
ATOM     90  C   UNL     1       0.941  -7.385  12.603  1.00  0.00     0.173 A 
ATOM     91  F   UNL     1       4.390  -6.282  12.958  1.00  0.00    -0.203 F 
ATOM     92  C   UNL     1       3.053  -7.587  14.391  1.00  0.00     0.198 A 
ATOM     93  C   UNL     1       0.783  -8.088  13.793  1.00  0.00     0.198 A 
ATOM     94  F   UNL     1      -0.098  -7.308  11.758  1.00  0.00    -0.203 F 
ATOM     95  F   UNL     1       4.084  -7.710  15.239  1.00  0.00    -0.200 F 
ATOM     96  C   UNL     1       1.841  -8.194  14.684  1.00  0.00     0.200 A 
ATOM     97  F   UNL     1      -0.394  -8.662  14.080  1.00  0.00    -0.200 F 
ATOM     98  F   UNL     1       1.693  -8.886  15.822  1.00  0.00    -0.200 F 
ENDBRANCH  65  88
ENDBRANCH  39  40
ENDBRANCH  32  34
ENDBRANCH  31  32
ENDBRANCH  30  31
ENDBRANCH  29  30
ENDBRANCH  28  29
ENDBRANCH  27  28
ENDBRANCH  26  27
ENDBRANCH   1  26
TORSDOF 22
