REMARK SMILES N#C/C(=C\c1ccc(-c2ccc(C(=O)OCCOCCOCCOC(=O)c3ccc(-c4c5nc(c(-c6c(F)c(F)c(F)c(F)c6F)c6ccc([nH]6)c(-c6c(F)c(F)c(F)c(F)c6F)c6nc(c(-c7c(F)c(F)c(F)c(F)c7F)c7ccc4[nH]7)C=C6)C=C5)cc3)cc2)o1)[C@@H]1N=c2cc(Br)cnc2=N1
REMARK SMILES IDX 19 1 18 2 17 3 16 4 15 5 13 6 14 7 12 8 9 9 10 10 91 11
REMARK SMILES IDX 11 12 90 13 8 14 5 15 6 16 92 17 7 18 4 19 3 20 2 21 1 22
REMARK SMILES IDX 93 23 94 24 102 25 95 26 101 27 96 28 100 29 97 30 99 31
REMARK SMILES IDX 98 32 20 33 21 34 22 35 23 36 24 37 25 38 26 39 27 40 28 41
REMARK SMILES IDX 89 42 29 43 88 44 30 45 31 46 32 47 82 48 33 49 87 50 81 51
REMARK SMILES IDX 83 52 34 53 86 54 80 55 79 56 35 58 67 59 47 60 66 61 48 62
REMARK SMILES IDX 51 63 65 64 84 65 49 66 50 67 64 69 85 70 52 71 36 72 37 73
REMARK SMILES IDX 45 74 38 75 39 76 43 77 46 78 40 79 41 80 44 81 42 82 68 83
REMARK SMILES IDX 69 84 77 85 70 86 71 87 75 88 78 89 72 90 73 91 76 92 74 93
REMARK SMILES IDX 53 94 54 95 62 96 55 97 56 98 60 99 63 100 57 101 58 102
REMARK SMILES IDX 61 103 59 104
REMARK H PARENT 83 57 51 68
REMARK Flexibility Score: inf
ROOT
ATOM      1  C   UNL     1      -1.741   8.401  -6.883  1.00  0.00     0.188 C 
ENDROOT
BRANCH   1   2
ATOM      2  O   UNL     1      -2.205   9.258  -7.914  1.00  0.00    -0.376 OA
BRANCH   2   3
ATOM      3  C   UNL     1      -2.861   8.714  -9.049  1.00  0.00     0.202 C 
BRANCH   3   4
ATOM      4  C   UNL     1      -2.227   7.561  -9.838  1.00  0.00     0.261 C 
BRANCH   4   5
ATOM      5  O   UNL     1      -1.816   6.441  -9.038  1.00  0.00    -0.460 OA
BRANCH   5   6
ATOM      6  C   UNL     1      -0.477   6.229  -8.980  1.00  0.00     0.338 C 
ATOM      7  O   UNL     1       0.388   6.859  -9.566  1.00  0.00    -0.246 OA
BRANCH   6   8
ATOM      8  C   UNL     1      -0.155   5.198  -7.962  1.00  0.00     0.060 A 
ATOM      9  C   UNL     1       0.686   3.191  -6.178  1.00  0.00     0.017 A 
ATOM     10  C   UNL     1       1.403   4.388  -6.274  1.00  0.00     0.013 A 
ATOM     11  C   UNL     1      -0.506   3.053  -6.915  1.00  0.00     0.013 A 
ATOM     12  C   UNL     1       0.991   5.380  -7.173  1.00  0.00     0.016 A 
ATOM     13  C   UNL     1      -0.933   4.051  -7.798  1.00  0.00     0.016 A 
BRANCH   9  14
ATOM     14  C   UNL     1       1.261   2.015  -5.535  1.00  0.00     0.134 A 
ATOM     15  C   UNL     1       2.264   0.858  -3.909  1.00  0.00     0.128 A 
ATOM     16  C   UNL     1       2.102   0.023  -5.014  1.00  0.00     0.051 A 
ATOM     17  O   UNL     1       1.716   2.092  -4.246  1.00  0.00    -0.457 OA
ATOM     18  C   UNL     1       1.489   0.758  -6.042  1.00  0.00     0.051 A 
BRANCH  15  19
ATOM     19  C   UNL     1       2.850   0.532  -2.639  1.00  0.00     0.066 C 
ATOM     20  C   UNL     1       4.031  -0.126  -2.521  1.00  0.00     0.080 C 
BRANCH  20  21
ATOM     21  C   UNL     1       4.864  -0.309  -3.779  1.00  0.00     0.099 C 
ATOM     22  N   UNL     1       5.554  -0.462  -4.823  1.00  0.00    -0.193 NA
ENDBRANCH  20  21
BRANCH  20  23
ATOM     23  C   UNL     1       4.604  -0.592  -1.213  1.00  0.00     0.265 C 
ATOM     24  N   UNL     1       6.003  -0.109  -1.042  1.00  0.00    -0.249 NA
ATOM     25  N   UNL     1       4.549  -2.075  -1.153  1.00  0.00    -0.232 NA
ATOM     26  C   UNL     1       6.655  -1.208  -0.899  1.00  0.00     0.106 A 
ATOM     27  C   UNL     1       5.781  -2.401  -0.959  1.00  0.00     0.175 A 
ATOM     28  C   UNL     1       8.087  -1.430  -0.707  1.00  0.00     0.049 A 
ATOM     29  N   UNL     1       6.209  -3.688  -0.838  1.00  0.00    -0.234 NA
ATOM     30  C   UNL     1       8.497  -2.701  -0.601  1.00  0.00     0.038 A 
ATOM     31  C   UNL     1       7.490  -3.809  -0.675  1.00  0.00     0.129 A 
ATOM     32  Br  UNL     1      10.280  -3.169  -0.360  1.00  0.00    -0.049 Br
ENDBRANCH  20  23
ENDBRANCH  15  19
ENDBRANCH   9  14
ENDBRANCH   6   8
ENDBRANCH   5   6
ENDBRANCH   4   5
ENDBRANCH   3   4
ENDBRANCH   2   3
ENDBRANCH   1   2
BRANCH   1  33
ATOM     33  C   UNL     1      -2.656   7.308  -6.292  1.00  0.00     0.188 C 
BRANCH  33  34
ATOM     34  O   UNL     1      -3.953   7.189  -6.818  1.00  0.00    -0.376 OA
BRANCH  34  35
ATOM     35  C   UNL     1      -5.010   8.023  -6.380  1.00  0.00     0.202 C 
BRANCH  35  36
ATOM     36  C   UNL     1      -4.917   9.146  -5.329  1.00  0.00     0.261 C 
BRANCH  36  37
ATOM     37  O   UNL     1      -3.627   9.528  -4.855  1.00  0.00    -0.460 OA
BRANCH  37  38
ATOM     38  C   UNL     1      -3.305   9.095  -3.616  1.00  0.00     0.338 C 
ATOM     39  O   UNL     1      -3.968   8.373  -2.879  1.00  0.00    -0.246 OA
BRANCH  38  40
ATOM     40  C   UNL     1      -1.921   9.497  -3.323  1.00  0.00     0.060 A 
ATOM     41  C   UNL     1      -0.944   8.503  -3.185  1.00  0.00     0.016 A 
ATOM     42  C   UNL     1      -1.598  10.845  -3.158  1.00  0.00     0.016 A 
ATOM     43  C   UNL     1       0.364   8.857  -2.858  1.00  0.00     0.010 A 
ATOM     44  C   UNL     1      -0.291  11.195  -2.812  1.00  0.00     0.010 A 
ATOM     45  C   UNL     1       0.688  10.202  -2.633  1.00  0.00    -0.014 A 
BRANCH  45  46
ATOM     46  C   UNL     1       2.001  10.558  -2.046  1.00  0.00     0.031 A 
ATOM     47  C   UNL     1       2.089  10.773  -0.561  1.00  0.00     0.074 A 
ATOM     48  C   UNL     1       3.097  10.680  -2.813  1.00  0.00     0.049 A 
ATOM     49  N   UNL     1       3.111  11.140   0.169  1.00  0.00    -0.248 NA
ATOM     50  C   UNL     1       0.852  10.546   0.202  1.00  0.00     0.031 C 
ATOM     51  C   UNL     1       3.149  10.455  -4.255  1.00  0.00     0.029 A 
ATOM     52  N   UNL     1       4.380  11.036  -2.477  1.00  0.00    -0.354 N 
ATOM     53  C   UNL     1       2.641  11.188   1.475  1.00  0.00     0.074 A 
ATOM     54  C   UNL     1       1.235  10.849   1.432  1.00  0.00     0.031 C 
ATOM     55  C   UNL     1       4.402  10.685  -4.684  1.00  0.00     0.029 A 
ATOM     56  C   UNL     1       5.228  11.107  -3.554  1.00  0.00     0.049 A 
ATOM     57  H   UNL     1       4.664  11.221  -1.553  1.00  0.00     0.167 HD
ATOM     58  C   UNL     1       3.322  11.480   2.608  1.00  0.00     0.037 A 
ATOM     59  C   UNL     1       6.518  11.491  -3.617  1.00  0.00     0.037 A 
ATOM     60  C   UNL     1       4.717  11.833   2.646  1.00  0.00     0.049 A 
ATOM     61  C   UNL     1       7.231  11.906  -2.354  1.00  0.00     0.074 A 
ATOM     62  C   UNL     1       5.502  12.138   3.744  1.00  0.00     0.029 A 
ATOM     63  N   UNL     1       5.534  11.941   1.529  1.00  0.00    -0.354 N 
ATOM     64  N   UNL     1       6.790  11.927  -1.119  1.00  0.00    -0.248 NA
ATOM     65  C   UNL     1       8.624  12.354  -2.498  1.00  0.00     0.031 C 
ATOM     66  C   UNL     1       6.778  12.484   3.287  1.00  0.00     0.029 A 
ATOM     67  C   UNL     1       6.806  12.337   1.909  1.00  0.00     0.049 A 
ATOM     68  H   UNL     1       5.250  11.762   0.604  1.00  0.00     0.167 HD
ATOM     69  C   UNL     1       7.856  12.356  -0.338  1.00  0.00     0.074 A 
ATOM     70  C   UNL     1       8.969  12.576  -1.237  1.00  0.00     0.031 C 
ATOM     71  C   UNL     1       7.909  12.546   1.004  1.00  0.00     0.037 A 
BRANCH  58  72
ATOM     72  C   UNL     1       2.550  11.461   3.896  1.00  0.00     0.064 A 
ATOM     73  C   UNL     1       2.077  10.264   4.455  1.00  0.00     0.173 A 
ATOM     74  C   UNL     1       2.283  12.656   4.581  1.00  0.00     0.173 A 
ATOM     75  F   UNL     1       2.292   9.096   3.831  1.00  0.00    -0.203 F 
ATOM     76  C   UNL     1       1.335  10.268   5.633  1.00  0.00     0.198 A 
ATOM     77  C   UNL     1       1.568  12.652   5.776  1.00  0.00     0.198 A 
ATOM     78  F   UNL     1       2.716  13.828   4.093  1.00  0.00    -0.203 F 
ATOM     79  F   UNL     1       0.842   9.119   6.116  1.00  0.00    -0.200 F 
ATOM     80  C   UNL     1       1.085  11.460   6.295  1.00  0.00     0.200 A 
ATOM     81  F   UNL     1       1.339  13.804   6.421  1.00  0.00    -0.200 F 
ATOM     82  F   UNL     1       0.371  11.463   7.428  1.00  0.00    -0.200 F 
ENDBRANCH  58  72
BRANCH  59  83
ATOM     83  C   UNL     1       7.225  11.505  -4.924  1.00  0.00     0.064 A 
ATOM     84  C   UNL     1       8.260  10.598  -5.192  1.00  0.00     0.173 A 
ATOM     85  C   UNL     1       6.894  12.431  -5.923  1.00  0.00     0.173 A 
ATOM     86  F   UNL     1       8.633   9.713  -4.256  1.00  0.00    -0.203 F 
ATOM     87  C   UNL     1       8.945  10.626  -6.405  1.00  0.00     0.198 A 
ATOM     88  C   UNL     1       7.561  12.440  -7.146  1.00  0.00     0.198 A 
ATOM     89  F   UNL     1       5.917  13.326  -5.713  1.00  0.00    -0.203 F 
ATOM     90  F   UNL     1       9.961   9.778  -6.617  1.00  0.00    -0.200 F 
ATOM     91  C   UNL     1       8.591  11.542  -7.384  1.00  0.00     0.200 A 
ATOM     92  F   UNL     1       7.212  13.323  -8.092  1.00  0.00    -0.200 F 
ATOM     93  F   UNL     1       9.249  11.568  -8.550  1.00  0.00    -0.200 F 
ENDBRANCH  59  83
BRANCH  71  94
ATOM     94  C   UNL     1       9.223  12.977   1.592  1.00  0.00     0.064 A 
ATOM     95  C   UNL     1       9.732  14.269   1.397  1.00  0.00     0.173 A 
ATOM     96  C   UNL     1       9.961  12.096   2.399  1.00  0.00     0.173 A 
ATOM     97  F   UNL     1       9.074  15.145   0.624  1.00  0.00    -0.203 F 
ATOM     98  C   UNL     1      10.944  14.655   1.967  1.00  0.00     0.198 A 
ATOM     99  C   UNL     1      11.155  12.495   2.992  1.00  0.00     0.198 A 
ATOM    100  F   UNL     1       9.515  10.851   2.625  1.00  0.00    -0.203 F 
ATOM    101  F   UNL     1      11.435  15.879   1.728  1.00  0.00    -0.200 F 
ATOM    102  C   UNL     1      11.650  13.771   2.770  1.00  0.00     0.200 A 
ATOM    103  F   UNL     1      11.827  11.645   3.781  1.00  0.00    -0.200 F 
ATOM    104  F   UNL     1      12.810  14.147   3.324  1.00  0.00    -0.200 F 
ENDBRANCH  71  94
ENDBRANCH  45  46
ENDBRANCH  38  40
ENDBRANCH  37  38
ENDBRANCH  36  37
ENDBRANCH  35  36
ENDBRANCH  34  35
ENDBRANCH  33  34
ENDBRANCH   1  33
TORSDOF 21
