REMARK SMILES COc1ccc(-n2ccnc2C[N@@H+]2CCn3nc(C(=O)OCCOCCOCCOC(=O)c4ccc(-c5c6nc(c(-c7c(F)c(F)c(F)c(F)c7F)c7ccc([nH]7)c(-c7c(F)c(F)c(F)c(F)c7F)c7nc(c(-c8c(F)c(F)c(F)c(F)c8F)c8ccc5[nH]8)C=C7)C=C6)cc4)cc3C2)cc1
REMARK SMILES IDX 25 1 24 2 23 3 22 4 21 5 19 6 20 7 18 8 13 9 14 10 98 11
REMARK SMILES IDX 15 13 97 14 16 15 96 16 17 17 12 18 11 19 7 20 8 21 9 22
REMARK SMILES IDX 10 23 6 24 3 25 4 26 100 27 5 28 99 29 2 30 1 31 26 32 27 33
REMARK SMILES IDX 28 34 29 35 30 36 31 37 32 38 33 39 34 40 95 41 35 42 94 43
REMARK SMILES IDX 36 44 37 45 38 46 88 47 39 48 93 49 87 50 89 51 40 52 92 53
REMARK SMILES IDX 86 54 85 55 41 57 73 58 53 59 72 60 54 61 57 62 71 63 90 64
REMARK SMILES IDX 55 65 56 66 70 68 91 69 58 70 42 71 43 72 51 73 44 74 45 75
REMARK SMILES IDX 49 76 52 77 46 78 47 79 50 80 48 81 74 82 75 83 83 84 76 85
REMARK SMILES IDX 77 86 81 87 84 88 78 89 79 90 82 91 80 92 59 93 60 94 68 95
REMARK SMILES IDX 61 96 62 97 66 98 69 99 63 100 64 101 67 102 65 103
REMARK H PARENT 13 12 89 56 57 67
REMARK Flexibility Score: inf
ROOT
ATOM      1  C   UNL     1       1.824   2.018  -0.621  1.00  0.00     0.188 C 
ENDROOT
BRANCH   1   2
ATOM      2  O   UNL     1       0.566   2.670  -0.384  1.00  0.00    -0.376 OA
BRANCH   2   3
ATOM      3  C   UNL     1      -0.568   1.830  -0.653  1.00  0.00     0.202 C 
BRANCH   3   4
ATOM      4  C   UNL     1      -1.852   2.333   0.059  1.00  0.00     0.261 C 
BRANCH   4   5
ATOM      5  O   UNL     1      -1.884   2.244   1.514  1.00  0.00    -0.458 OA
BRANCH   5   6
ATOM      6  C   UNL     1      -2.128   1.028   2.118  1.00  0.00     0.358 C 
ATOM      7  O   UNL     1      -2.472   0.040   1.499  1.00  0.00    -0.244 OA
BRANCH   6   8
ATOM      8  C   UNL     1      -1.796   1.045   3.583  1.00  0.00     0.170 A 
ATOM      9  N   UNL     1       0.299   2.501   7.270  1.00  0.00    -0.322 N 
ATOM     10  C   UNL     1       1.174   1.381   6.865  1.00  0.00     0.286 C 
ATOM     11  C   UNL     1      -1.131   2.166   7.087  1.00  0.00     0.319 C 
ATOM     12  H   UNL     1       0.562   2.597   8.251  1.00  0.00     0.348 HD
ATOM     13  C   UNL     1       0.589   0.223   6.000  1.00  0.00     0.206 C 
ATOM     14  C   UNL     1      -1.379   1.663   5.707  1.00  0.00     0.094 A 
ATOM     15  N   UNL     1      -0.608   0.628   5.291  1.00  0.00    -0.257 N 
ATOM     16  C   UNL     1      -2.107   2.025   4.589  1.00  0.00     0.067 A 
ATOM     17  N   UNL     1      -1.006   0.086   4.131  1.00  0.00    -0.165 NA
BRANCH   9  18
ATOM     18  C   UNL     1       0.541   3.845   6.694  1.00  0.00     0.339 C 
BRANCH  18  19
ATOM     19  C   UNL     1       1.937   4.417   6.581  1.00  0.00     0.168 A 
ATOM     20  N   UNL     1       2.701   4.350   5.423  1.00  0.00    -0.299 N 
ATOM     21  C   UNL     1       3.750   5.217   5.550  1.00  0.00     0.113 A 
ATOM     22  C   UNL     1       3.624   5.743   6.811  1.00  0.00     0.132 A 
ATOM     23  N   UNL     1       2.520   5.232   7.449  1.00  0.00    -0.236 NA
BRANCH  20  24
ATOM     24  C   UNL     1       2.422   3.585   4.289  1.00  0.00     0.047 A 
ATOM     25  C   UNL     1       1.364   1.705   2.583  1.00  0.00     0.119 A 
ATOM     26  C   UNL     1       0.839   3.008   2.640  1.00  0.00     0.048 A 
ATOM     27  C   UNL     1       2.520   1.399   3.280  1.00  0.00     0.048 A 
ATOM     28  C   UNL     1       1.346   3.956   3.504  1.00  0.00     0.030 A 
ATOM     29  C   UNL     1       3.069   2.354   4.132  1.00  0.00     0.030 A 
BRANCH  25  30
ATOM     30  O   UNL     1       0.661   0.835   1.810  1.00  0.00    -0.497 OA
ATOM     31  C   UNL     1       0.964  -0.553   1.795  1.00  0.00     0.278 C 
ENDBRANCH  25  30
ENDBRANCH  20  24
ENDBRANCH  18  19
ENDBRANCH   9  18
ENDBRANCH   6   8
ENDBRANCH   5   6
ENDBRANCH   4   5
ENDBRANCH   3   4
ENDBRANCH   2   3
ENDBRANCH   1   2
BRANCH   1  32
ATOM     32  C   UNL     1       2.993   2.901  -0.143  1.00  0.00     0.188 C 
BRANCH  32  33
ATOM     33  O   UNL     1       3.463   3.905  -1.043  1.00  0.00    -0.376 OA
BRANCH  33  34
ATOM     34  C   UNL     1       3.513   3.586  -2.427  1.00  0.00     0.202 C 
BRANCH  34  35
ATOM     35  C   UNL     1       4.571   2.566  -2.832  1.00  0.00     0.261 C 
BRANCH  35  36
ATOM     36  O   UNL     1       4.255   1.263  -2.335  1.00  0.00    -0.460 OA
BRANCH  36  37
ATOM     37  C   UNL     1       5.033   0.827  -1.321  1.00  0.00     0.338 C 
ATOM     38  O   UNL     1       5.904   1.453  -0.738  1.00  0.00    -0.246 OA
BRANCH  37  39
ATOM     39  C   UNL     1       4.782  -0.605  -1.082  1.00  0.00     0.060 A 
ATOM     40  C   UNL     1       5.576  -1.188  -0.090  1.00  0.00     0.016 A 
ATOM     41  C   UNL     1       4.174  -1.367  -2.089  1.00  0.00     0.016 A 
ATOM     42  C   UNL     1       6.056  -2.454  -0.321  1.00  0.00     0.010 A 
ATOM     43  C   UNL     1       4.661  -2.632  -2.324  1.00  0.00     0.010 A 
ATOM     44  C   UNL     1       5.698  -3.088  -1.515  1.00  0.00    -0.014 A 
BRANCH  44  45
ATOM     45  C   UNL     1       6.567  -4.152  -1.969  1.00  0.00     0.031 A 
ATOM     46  C   UNL     1       6.356  -5.453  -1.318  1.00  0.00     0.074 A 
ATOM     47  C   UNL     1       7.491  -3.948  -2.929  1.00  0.00     0.049 A 
ATOM     48  N   UNL     1       7.165  -6.083  -0.535  1.00  0.00    -0.248 NA
ATOM     49  C   UNL     1       5.038  -6.078  -1.473  1.00  0.00     0.031 C 
ATOM     50  C   UNL     1       7.633  -2.804  -3.834  1.00  0.00     0.029 A 
ATOM     51  N   UNL     1       8.462  -4.799  -3.355  1.00  0.00    -0.354 N 
ATOM     52  C   UNL     1       6.525  -7.273  -0.217  1.00  0.00     0.074 A 
ATOM     53  C   UNL     1       5.171  -7.152  -0.695  1.00  0.00     0.031 C 
ATOM     54  C   UNL     1       8.476  -3.139  -4.839  1.00  0.00     0.029 A 
ATOM     55  C   UNL     1       9.019  -4.462  -4.578  1.00  0.00     0.049 A 
ATOM     56  H   UNL     1       8.745  -5.587  -2.838  1.00  0.00     0.167 HD
ATOM     57  C   UNL     1       7.224  -8.354   0.221  1.00  0.00     0.037 A 
ATOM     58  C   UNL     1       9.789  -5.271  -5.348  1.00  0.00     0.037 A 
ATOM     59  C   UNL     1       8.525  -7.984   0.713  1.00  0.00     0.049 A 
ATOM     60  C   UNL     1      10.334  -6.341  -4.469  1.00  0.00     0.074 A 
ATOM     61  C   UNL     1       8.975  -7.145   1.716  1.00  0.00     0.029 A 
ATOM     62  N   UNL     1       9.624  -8.236  -0.072  1.00  0.00    -0.354 N 
ATOM     63  N   UNL     1      11.234  -6.140  -3.546  1.00  0.00    -0.248 NA
ATOM     64  C   UNL     1       9.550  -7.560  -4.319  1.00  0.00     0.031 C 
ATOM     65  C   UNL     1      10.168  -6.556   1.204  1.00  0.00     0.029 A 
ATOM     66  C   UNL     1      10.393  -7.100  -0.060  1.00  0.00     0.049 A 
ATOM     67  H   UNL     1       9.822  -9.073  -0.551  1.00  0.00     0.167 HD
ATOM     68  C   UNL     1      10.848  -6.957  -2.493  1.00  0.00     0.074 A 
ATOM     69  C   UNL     1       9.864  -7.875  -3.059  1.00  0.00     0.031 C 
ATOM     70  C   UNL     1      11.141  -6.631  -1.200  1.00  0.00     0.037 A 
BRANCH  57  71
ATOM     71  C   UNL     1       6.857  -9.773  -0.117  1.00  0.00     0.064 A 
ATOM     72  C   UNL     1       7.532 -10.828   0.526  1.00  0.00     0.173 A 
ATOM     73  C   UNL     1       6.090 -10.136  -1.246  1.00  0.00     0.173 A 
ATOM     74  F   UNL     1       8.308 -10.591   1.594  1.00  0.00    -0.203 F 
ATOM     75  C   UNL     1       7.501 -12.132   0.028  1.00  0.00     0.198 A 
ATOM     76  C   UNL     1       6.013 -11.448  -1.704  1.00  0.00     0.198 A 
ATOM     77  F   UNL     1       5.481  -9.227  -2.018  1.00  0.00    -0.203 F 
ATOM     78  F   UNL     1       8.263 -13.077   0.595  1.00  0.00    -0.200 F 
ATOM     79  C   UNL     1       6.745 -12.440  -1.089  1.00  0.00     0.200 A 
ATOM     80  F   UNL     1       5.289 -11.722  -2.798  1.00  0.00    -0.200 F 
ATOM     81  F   UNL     1       6.763 -13.676  -1.604  1.00  0.00    -0.200 F 
ENDBRANCH  57  71
BRANCH  58  82
ATOM     82  C   UNL     1       9.805  -5.369  -6.828  1.00  0.00     0.064 A 
ATOM     83  C   UNL     1      10.818  -6.079  -7.494  1.00  0.00     0.173 A 
ATOM     84  C   UNL     1       8.688  -5.003  -7.606  1.00  0.00     0.173 A 
ATOM     85  F   UNL     1      11.895  -6.508  -6.820  1.00  0.00    -0.203 F 
ATOM     86  C   UNL     1      10.707  -6.425  -8.845  1.00  0.00     0.198 A 
ATOM     87  C   UNL     1       8.584  -5.336  -8.957  1.00  0.00     0.198 A 
ATOM     88  F   UNL     1       7.627  -4.399  -7.054  1.00  0.00    -0.203 F 
ATOM     89  F   UNL     1      11.663  -7.162  -9.428  1.00  0.00    -0.200 F 
ATOM     90  C   UNL     1       9.586  -6.060  -9.573  1.00  0.00     0.200 A 
ATOM     91  F   UNL     1       7.478  -5.006  -9.638  1.00  0.00    -0.200 F 
ATOM     92  F   UNL     1       9.451  -6.441 -10.850  1.00  0.00    -0.200 F 
ENDBRANCH  58  82
BRANCH  70  93
ATOM     93  C   UNL     1      12.115  -5.513  -0.960  1.00  0.00     0.064 A 
ATOM     94  C   UNL     1      11.894  -4.186  -1.367  1.00  0.00     0.173 A 
ATOM     95  C   UNL     1      13.239  -5.764  -0.162  1.00  0.00     0.173 A 
ATOM     96  F   UNL     1      10.785  -3.846  -2.036  1.00  0.00    -0.203 F 
ATOM     97  C   UNL     1      12.787  -3.170  -1.032  1.00  0.00     0.198 A 
ATOM     98  C   UNL     1      14.109  -4.741   0.203  1.00  0.00     0.198 A 
ATOM     99  F   UNL     1      13.468  -7.001   0.308  1.00  0.00    -0.203 F 
ATOM    100  F   UNL     1      12.561  -1.914  -1.446  1.00  0.00    -0.200 F 
ATOM    101  C   UNL     1      13.890  -3.447  -0.242  1.00  0.00     0.200 A 
ATOM    102  F   UNL     1      15.145  -5.003   1.012  1.00  0.00    -0.200 F 
ATOM    103  F   UNL     1      14.726  -2.462   0.116  1.00  0.00    -0.200 F 
ENDBRANCH  70  93
ENDBRANCH  44  45
ENDBRANCH  37  39
ENDBRANCH  36  37
ENDBRANCH  35  36
ENDBRANCH  34  35
ENDBRANCH  33  34
ENDBRANCH  32  33
ENDBRANCH   1  32
TORSDOF 21
