REMARK SMILES COc1ccc(Cl)c2sc(N3CC(C(=O)OCCOCCOCCOC(=O)c4ccc(-c5c6nc(c(-c7c(F)c(F)c(F)c(F)c7F)c7ccc([nH]7)c(-c7c(F)c(F)c(F)c(F)c7F)c7nc(c(-c8c(F)c(F)c(F)c(F)c8F)c8ccc5[nH]8)C=C7)C=C6)cc4)C3)nc12
REMARK SMILES IDX 20 1 19 2 18 3 17 4 16 5 14 6 15 7 13 8 11 9 12 10 91 11
REMARK SMILES IDX 10 12 3 13 4 14 93 15 5 16 8 17 92 18 6 19 9 20 7 21 2 22
REMARK SMILES IDX 1 23 21 24 22 25 23 26 24 27 25 28 26 29 27 30 28 31 29 32
REMARK SMILES IDX 90 33 30 34 89 35 31 36 32 37 33 38 83 39 34 40 88 41 82 42
REMARK SMILES IDX 84 43 35 44 87 45 81 46 80 47 36 49 68 50 48 51 67 52 49 53
REMARK SMILES IDX 52 54 66 55 85 56 50 57 51 58 65 60 86 61 53 62 37 63 38 64
REMARK SMILES IDX 46 65 39 66 40 67 44 68 47 69 41 70 42 71 45 72 43 73 69 74
REMARK SMILES IDX 70 75 78 76 71 77 72 78 76 79 79 80 73 81 74 82 77 83 75 84
REMARK SMILES IDX 54 85 55 86 63 87 56 88 57 89 61 90 64 91 58 92 59 93 62 94
REMARK SMILES IDX 60 95
REMARK H PARENT 84 48 52 59
REMARK Flexibility Score: inf
ROOT
ATOM      1  C   UNL     1      -7.280   5.829   4.754  1.00  0.00     0.188 C 
ENDROOT
BRANCH   1   2
ATOM      2  O   UNL     1      -8.567   5.832   5.330  1.00  0.00    -0.376 OA
BRANCH   2   3
ATOM      3  C   UNL     1      -8.942   4.792   6.221  1.00  0.00     0.202 C 
BRANCH   3   4
ATOM      4  C   UNL     1      -8.350   3.366   6.161  1.00  0.00     0.261 C 
BRANCH   4   5
ATOM      5  O   UNL     1      -6.950   3.289   5.844  1.00  0.00    -0.463 OA
BRANCH   5   6
ATOM      6  C   UNL     1      -6.583   2.474   4.812  1.00  0.00     0.312 C 
ATOM      7  O   UNL     1      -7.365   1.687   4.277  1.00  0.00    -0.252 OA
BRANCH   6   8
ATOM      8  C   UNL     1      -5.154   2.725   4.309  1.00  0.00     0.138 C 
ATOM      9  N   UNL     1      -3.228   2.107   4.698  1.00  0.00    -0.346 N 
ATOM     10  C   UNL     1      -4.306   1.484   4.017  1.00  0.00     0.136 C 
ATOM     11  C   UNL     1      -4.008   3.167   5.236  1.00  0.00     0.136 C 
BRANCH   9  12
ATOM     12  C   UNL     1      -1.910   2.077   4.415  1.00  0.00     0.186 A 
ATOM     13  C   UNL     1       0.870   1.266   2.275  1.00  0.00     0.146 A 
ATOM     14  C   UNL     1       2.242   1.137   2.541  1.00  0.00     0.050 A 
ATOM     15  C   UNL     1      -0.008   1.638   3.330  1.00  0.00     0.127 A 
ATOM     16  C   UNL     1       2.743   1.371   3.818  1.00  0.00     0.026 A 
ATOM     17  C   UNL     1       0.528   1.936   4.587  1.00  0.00     0.079 A 
ATOM     18  N   UNL     1      -1.398   1.706   3.264  1.00  0.00    -0.216 NA
ATOM     19  C   UNL     1       1.900   1.791   4.849  1.00  0.00     0.060 A 
ATOM     20  S   UNL     1      -0.745   2.480   5.614  1.00  0.00    -0.095 S 
ATOM     21  Cl  UNL     1       2.573   2.100   6.404  1.00  0.00    -0.083 Cl
BRANCH  13  22
ATOM     22  O   UNL     1       0.346   1.123   1.013  1.00  0.00    -0.494 OA
ATOM     23  C   UNL     1       0.890   0.061   0.238  1.00  0.00     0.278 C 
ENDBRANCH  13  22
ENDBRANCH   9  12
ENDBRANCH   6   8
ENDBRANCH   5   6
ENDBRANCH   4   5
ENDBRANCH   3   4
ENDBRANCH   2   3
ENDBRANCH   1   2
BRANCH   1  24
ATOM     24  C   UNL     1      -6.037   5.966   5.651  1.00  0.00     0.188 C 
BRANCH  24  25
ATOM     25  O   UNL     1      -6.056   5.505   6.983  1.00  0.00    -0.376 OA
BRANCH  25  26
ATOM     26  C   UNL     1      -6.595   6.211   8.090  1.00  0.00     0.202 C 
BRANCH  26  27
ATOM     27  C   UNL     1      -7.221   7.606   8.059  1.00  0.00     0.261 C 
BRANCH  27  28
ATOM     28  O   UNL     1      -7.276   8.218   6.794  1.00  0.00    -0.460 OA
BRANCH  28  29
ATOM     29  C   UNL     1      -6.124   8.818   6.472  1.00  0.00     0.338 C 
ATOM     30  O   UNL     1      -5.064   8.797   7.104  1.00  0.00    -0.246 OA
BRANCH  29  31
ATOM     31  C   UNL     1      -6.296   9.527   5.213  1.00  0.00     0.060 A 
ATOM     32  C   UNL     1      -5.113   9.897   4.576  1.00  0.00     0.016 A 
ATOM     33  C   UNL     1      -7.514  10.192   5.028  1.00  0.00     0.016 A 
ATOM     34  C   UNL     1      -5.069  11.157   4.050  1.00  0.00     0.010 A 
ATOM     35  C   UNL     1      -7.462  11.461   4.521  1.00  0.00     0.010 A 
ATOM     36  C   UNL     1      -6.215  11.956   4.159  1.00  0.00    -0.014 A 
BRANCH  36  37
ATOM     37  C   UNL     1      -6.055  13.349   3.840  1.00  0.00     0.031 A 
ATOM     38  C   UNL     1      -5.981  13.574   2.391  1.00  0.00     0.074 A 
ATOM     39  C   UNL     1      -5.971  14.303   4.782  1.00  0.00     0.049 A 
ATOM     40  N   UNL     1      -4.936  13.882   1.701  1.00  0.00    -0.248 NA
ATOM     41  C   UNL     1      -7.161  13.211   1.595  1.00  0.00     0.031 C 
ATOM     42  C   UNL     1      -6.282  14.220   6.211  1.00  0.00     0.029 A 
ATOM     43  N   UNL     1      -5.636  15.608   4.613  1.00  0.00    -0.354 N 
ATOM     44  C   UNL     1      -5.377  13.945   0.387  1.00  0.00     0.074 A 
ATOM     45  C   UNL     1      -6.680  13.337   0.360  1.00  0.00     0.031 C 
ATOM     46  C   UNL     1      -6.330  15.472   6.726  1.00  0.00     0.029 A 
ATOM     47  C   UNL     1      -5.911  16.416   5.704  1.00  0.00     0.049 A 
ATOM     48  H   UNL     1      -5.231  15.951   3.784  1.00  0.00     0.167 HD
ATOM     49  C   UNL     1      -4.753  14.760  -0.501  1.00  0.00     0.037 A 
ATOM     50  C   UNL     1      -5.861  17.770   5.704  1.00  0.00     0.037 A 
ATOM     51  C   UNL     1      -3.406  15.052  -0.073  1.00  0.00     0.049 A 
ATOM     52  C   UNL     1      -4.989  18.174   4.569  1.00  0.00     0.074 A 
ATOM     53  C   UNL     1      -2.270  14.301   0.155  1.00  0.00     0.029 A 
ATOM     54  N   UNL     1      -3.185  16.259   0.543  1.00  0.00    -0.354 N 
ATOM     55  N   UNL     1      -3.705  17.948   4.516  1.00  0.00    -0.248 NA
ATOM     56  C   UNL     1      -5.623  18.465   3.292  1.00  0.00     0.031 C 
ATOM     57  C   UNL     1      -1.611  14.931   1.253  1.00  0.00     0.029 A 
ATOM     58  C   UNL     1      -2.357  16.055   1.614  1.00  0.00     0.049 A 
ATOM     59  H   UNL     1      -3.560  17.125   0.262  1.00  0.00     0.167 HD
ATOM     60  C   UNL     1      -3.452  17.654   3.185  1.00  0.00     0.074 A 
ATOM     61  C   UNL     1      -4.641  18.097   2.465  1.00  0.00     0.031 C 
ATOM     62  C   UNL     1      -2.424  16.825   2.837  1.00  0.00     0.037 A 
BRANCH  49  63
ATOM     63  C   UNL     1      -5.510  15.626  -1.481  1.00  0.00     0.064 A 
ATOM     64  C   UNL     1      -4.776  16.424  -2.378  1.00  0.00     0.173 A 
ATOM     65  C   UNL     1      -6.886  15.941  -1.379  1.00  0.00     0.173 A 
ATOM     66  F   UNL     1      -3.459  16.229  -2.546  1.00  0.00    -0.203 F 
ATOM     67  C   UNL     1      -5.352  17.508  -3.044  1.00  0.00     0.198 A 
ATOM     68  C   UNL     1      -7.469  16.988  -2.087  1.00  0.00     0.198 A 
ATOM     69  F   UNL     1      -7.708  15.336  -0.517  1.00  0.00    -0.203 F 
ATOM     70  F   UNL     1      -4.581  18.321  -3.778  1.00  0.00    -0.200 F 
ATOM     71  C   UNL     1      -6.696  17.794  -2.891  1.00  0.00     0.200 A 
ATOM     72  F   UNL     1      -8.770  17.258  -1.908  1.00  0.00    -0.200 F 
ATOM     73  F   UNL     1      -7.236  18.872  -3.475  1.00  0.00    -0.200 F 
ENDBRANCH  49  63
BRANCH  50  74
ATOM     74  C   UNL     1      -6.821  18.713   6.328  1.00  0.00     0.064 A 
ATOM     75  C   UNL     1      -6.523  20.085   6.405  1.00  0.00     0.173 A 
ATOM     76  C   UNL     1      -8.160  18.350   6.571  1.00  0.00     0.173 A 
ATOM     77  F   UNL     1      -5.281  20.519   6.145  1.00  0.00    -0.203 F 
ATOM     78  C   UNL     1      -7.514  21.038   6.662  1.00  0.00     0.198 A 
ATOM     79  C   UNL     1      -9.146  19.302   6.836  1.00  0.00     0.198 A 
ATOM     80  F   UNL     1      -8.562  17.076   6.454  1.00  0.00    -0.203 F 
ATOM     81  F   UNL     1      -7.205  22.342   6.649  1.00  0.00    -0.200 F 
ATOM     82  C   UNL     1      -8.826  20.646   6.864  1.00  0.00     0.200 A 
ATOM     83  F   UNL     1     -10.419  18.913   6.992  1.00  0.00    -0.200 F 
ATOM     84  F   UNL     1      -9.789  21.563   7.038  1.00  0.00    -0.200 F 
ENDBRANCH  50  74
BRANCH  62  85
ATOM     85  C   UNL     1      -1.397  16.513   3.890  1.00  0.00     0.064 A 
ATOM     86  C   UNL     1      -1.667  15.793   5.068  1.00  0.00     0.173 A 
ATOM     87  C   UNL     1      -0.060  16.839   3.626  1.00  0.00     0.173 A 
ATOM     88  F   UNL     1      -2.905  15.368   5.348  1.00  0.00    -0.203 F 
ATOM     89  C   UNL     1      -0.645  15.448   5.952  1.00  0.00     0.198 A 
ATOM     90  C   UNL     1       0.962  16.460   4.491  1.00  0.00     0.198 A 
ATOM     91  F   UNL     1       0.262  17.484   2.493  1.00  0.00    -0.203 F 
ATOM     92  F   UNL     1      -0.926  14.769   7.075  1.00  0.00    -0.200 F 
ATOM     93  C   UNL     1       0.669  15.773   5.658  1.00  0.00     0.200 A 
ATOM     94  F   UNL     1       2.236  16.736   4.178  1.00  0.00    -0.200 F 
ATOM     95  F   UNL     1       1.657  15.401   6.484  1.00  0.00    -0.200 F 
ENDBRANCH  62  85
ENDBRANCH  36  37
ENDBRANCH  29  31
ENDBRANCH  28  29
ENDBRANCH  27  28
ENDBRANCH  26  27
ENDBRANCH  25  26
ENDBRANCH  24  25
ENDBRANCH   1  24
TORSDOF 19
