REMARK SMILES Cc1n[nH]c2c1[C@@]1(C(=O)N([C@@H](C)C(=O)OCCOCCOCCOC(=O)c3ccc(-c4c5nc(c(-c6c(F)c(F)c(F)c(F)c6F)c6ccc([nH]6)c(-c6c(F)c(F)c(F)c(F)c6F)c6nc(c(-c7c(F)c(F)c(F)c(F)c7F)c7ccc4[nH]7)C=C6)C=C5)cc3)c3ccccc31)C(C#N)=C(N)O2
REMARK SMILES IDX 19 1 18 2 17 3 16 4 15 5 13 6 14 7 11 8 12 9 10 10 1 11 2 12
REMARK SMILES IDX 3 13 6 14 4 15 5 16 7 17 101 19 8 20 95 21 96 22 99 23 9 24
REMARK SMILES IDX 90 25 94 26 91 27 93 28 92 29 97 30 98 31 100 32 20 35 21 36
REMARK SMILES IDX 22 37 23 38 24 39 25 40 26 41 27 42 28 43 89 44 29 45 88 46
REMARK SMILES IDX 30 47 31 48 32 49 82 50 33 51 87 52 81 53 83 54 34 55 86 56
REMARK SMILES IDX 80 57 79 58 35 60 67 61 47 62 66 63 48 64 51 65 65 66 84 67
REMARK SMILES IDX 49 68 50 69 64 71 85 72 52 73 36 74 37 75 45 76 38 77 39 78
REMARK SMILES IDX 43 79 46 80 40 81 41 82 44 83 42 84 68 85 69 86 77 87 70 88
REMARK SMILES IDX 71 89 75 90 78 91 72 92 73 93 76 94 74 95 53 96 54 97 62 98
REMARK SMILES IDX 55 99 56 100 60 101 63 102 57 103 58 104 61 105 59 106
REMARK H PARENT 4 18 100 33 100 34 83 59 51 70
REMARK Flexibility Score: inf
ROOT
ATOM      1  C   UNL     1      -5.960   1.530  -3.325  1.00  0.00     0.188 C 
ENDROOT
BRANCH   1   2
ATOM      2  O   UNL     1      -5.809   1.281  -4.712  1.00  0.00    -0.376 OA
BRANCH   2   3
ATOM      3  C   UNL     1      -5.771  -0.064  -5.136  1.00  0.00     0.202 C 
BRANCH   3   4
ATOM      4  C   UNL     1      -4.345  -0.635  -5.171  1.00  0.00     0.261 C 
BRANCH   4   5
ATOM      5  O   UNL     1      -3.582  -0.545  -3.936  1.00  0.00    -0.462 OA
BRANCH   5   6
ATOM      6  C   UNL     1      -2.782   0.544  -3.840  1.00  0.00     0.329 C 
ATOM      7  O   UNL     1      -2.683   1.365  -4.755  1.00  0.00    -0.250 OA
BRANCH   6   8
ATOM      8  C   UNL     1      -1.856   0.682  -2.577  1.00  0.00     0.197 C 
ATOM      9  C   UNL     1      -0.470   0.322  -3.101  1.00  0.00     0.044 C 
BRANCH   8  10
ATOM     10  N   UNL     1      -1.949   0.270  -1.202  1.00  0.00    -0.297 N 
ATOM     11  C   UNL     1       1.372  -0.462   0.236  1.00  0.00     0.069 C 
ATOM     12  C   UNL     1       0.654  -1.579   0.905  1.00  0.00     0.068 A 
ATOM     13  N   UNL     1       1.360  -2.540   1.523  1.00  0.00    -0.177 NA
ATOM     14  C   UNL     1      -0.741  -1.822   1.019  1.00  0.00     0.063 A 
ATOM     15  N   UNL     1       0.425  -3.376   2.022  1.00  0.00    -0.246 N 
ATOM     16  C   UNL     1      -0.839  -2.961   1.760  1.00  0.00     0.222 A 
ATOM     17  C   UNL     1      -1.997  -1.160   0.574  1.00  0.00     0.149 C 
ATOM     18  H   UNL     1       0.638  -4.197   2.522  1.00  0.00     0.193 HD
ATOM     19  O   UNL     1      -1.955  -3.558   2.148  1.00  0.00    -0.422 OA
ATOM     20  C   UNL     1      -2.067  -1.072  -0.918  1.00  0.00     0.248 C 
ATOM     21  C   UNL     1      -1.899   0.215   1.098  1.00  0.00     0.002 A 
ATOM     22  C   UNL     1      -3.231  -1.794   1.007  1.00  0.00     0.114 C 
ATOM     23  C   UNL     1      -3.169  -2.967   1.730  1.00  0.00     0.208 C 
ATOM     24  O   UNL     1      -2.186  -1.994  -1.720  1.00  0.00    -0.273 OA
ATOM     25  C   UNL     1      -1.670   1.025   0.003  1.00  0.00     0.050 A 
ATOM     26  C   UNL     1      -1.924   0.629   2.438  1.00  0.00     0.008 A 
ATOM     27  C   UNL     1      -1.163   2.270   0.307  1.00  0.00     0.027 A 
ATOM     28  C   UNL     1      -1.569   1.931   2.715  1.00  0.00     0.001 A 
ATOM     29  C   UNL     1      -1.121   2.727   1.659  1.00  0.00     0.002 A 
BRANCH  22  30
ATOM     30  C   UNL     1      -4.630  -1.423   0.541  1.00  0.00     0.102 C 
ATOM     31  N   UNL     1      -5.790  -1.115   0.155  1.00  0.00    -0.193 NA
ENDBRANCH  22  30
BRANCH  23  32
ATOM     32  N   UNL     1      -4.238  -3.733   2.099  1.00  0.00    -0.369 N 
ATOM     33  H   UNL     1      -5.152  -3.444   1.874  1.00  0.00     0.159 HD
ATOM     34  H   UNL     1      -4.095  -4.574   2.591  1.00  0.00     0.159 HD
ENDBRANCH  23  32
ENDBRANCH   8  10
ENDBRANCH   6   8
ENDBRANCH   5   6
ENDBRANCH   4   5
ENDBRANCH   3   4
ENDBRANCH   2   3
ENDBRANCH   1   2
BRANCH   1  35
ATOM     35  C   UNL     1      -5.641   0.470  -2.272  1.00  0.00     0.188 C 
BRANCH  35  36
ATOM     36  O   UNL     1      -6.268  -0.785  -2.406  1.00  0.00    -0.376 OA
BRANCH  36  37
ATOM     37  C   UNL     1      -7.648  -0.918  -2.084  1.00  0.00     0.202 C 
BRANCH  37  38
ATOM     38  C   UNL     1      -8.359  -0.047  -1.012  1.00  0.00     0.261 C 
BRANCH  38  39
ATOM     39  O   UNL     1      -7.977   1.344  -1.012  1.00  0.00    -0.460 OA
BRANCH  39  40
ATOM     40  C   UNL     1      -7.568   1.865   0.182  1.00  0.00     0.338 C 
ATOM     41  O   UNL     1      -7.819   1.434   1.295  1.00  0.00    -0.246 OA
BRANCH  40  42
ATOM     42  C   UNL     1      -6.480   2.857  -0.094  1.00  0.00     0.060 A 
ATOM     43  C   UNL     1      -6.506   3.769  -1.155  1.00  0.00     0.016 A 
ATOM     44  C   UNL     1      -5.292   2.702   0.607  1.00  0.00     0.016 A 
ATOM     45  C   UNL     1      -5.309   4.382  -1.616  1.00  0.00     0.010 A 
ATOM     46  C   UNL     1      -4.136   3.353   0.156  1.00  0.00     0.010 A 
ATOM     47  C   UNL     1      -4.068   4.101  -1.028  1.00  0.00    -0.014 A 
BRANCH  47  48
ATOM     48  C   UNL     1      -2.815   4.873  -1.328  1.00  0.00     0.031 A 
ATOM     49  C   UNL     1      -2.953   6.240  -0.860  1.00  0.00     0.074 A 
ATOM     50  C   UNL     1      -1.636   4.675  -1.992  1.00  0.00     0.049 A 
ATOM     51  N   UNL     1      -3.261   7.179  -1.685  1.00  0.00    -0.248 NA
ATOM     52  C   UNL     1      -2.935   6.608   0.546  1.00  0.00     0.031 C 
ATOM     53  C   UNL     1      -1.301   3.604  -2.882  1.00  0.00     0.029 A 
ATOM     54  N   UNL     1      -0.411   5.356  -1.957  1.00  0.00    -0.354 N 
ATOM     55  C   UNL     1      -3.209   8.327  -0.946  1.00  0.00     0.074 A 
ATOM     56  C   UNL     1      -3.205   7.914   0.441  1.00  0.00     0.031 C 
ATOM     57  C   UNL     1       0.032   3.437  -3.006  1.00  0.00     0.029 A 
ATOM     58  C   UNL     1       0.694   4.570  -2.377  1.00  0.00     0.049 A 
ATOM     59  H   UNL     1      -0.325   6.292  -1.667  1.00  0.00     0.167 HD
ATOM     60  C   UNL     1      -2.847   9.471  -1.575  1.00  0.00     0.037 A 
ATOM     61  C   UNL     1       1.910   4.893  -2.902  1.00  0.00     0.037 A 
ATOM     62  C   UNL     1      -2.857   9.327  -3.018  1.00  0.00     0.049 A 
ATOM     63  C   UNL     1       1.736   6.097  -3.726  1.00  0.00     0.074 A 
ATOM     64  C   UNL     1      -3.821   9.154  -3.990  1.00  0.00     0.029 A 
ATOM     65  N   UNL     1      -1.662   8.942  -3.573  1.00  0.00    -0.354 N 
ATOM     66  N   UNL     1       1.089   6.118  -4.856  1.00  0.00    -0.248 NA
ATOM     67  C   UNL     1       1.967   7.387  -3.097  1.00  0.00     0.031 C 
ATOM     68  C   UNL     1      -3.185   8.502  -5.089  1.00  0.00     0.029 A 
ATOM     69  C   UNL     1      -1.840   8.315  -4.783  1.00  0.00     0.049 A 
ATOM     70  H   UNL     1      -0.784   9.097  -3.155  1.00  0.00     0.167 HD
ATOM     71  C   UNL     1       0.430   7.331  -4.827  1.00  0.00     0.074 A 
ATOM     72  C   UNL     1       1.127   8.126  -3.823  1.00  0.00     0.031 C 
ATOM     73  C   UNL     1      -0.816   7.464  -5.362  1.00  0.00     0.037 A 
BRANCH  60  74
ATOM     74  C   UNL     1      -2.058  10.539  -0.892  1.00  0.00     0.064 A 
ATOM     75  C   UNL     1      -1.997  11.816  -1.469  1.00  0.00     0.173 A 
ATOM     76  C   UNL     1      -1.148  10.280   0.155  1.00  0.00     0.173 A 
ATOM     77  F   UNL     1      -2.776  12.127  -2.515  1.00  0.00    -0.203 F 
ATOM     78  C   UNL     1      -1.077  12.767  -1.029  1.00  0.00     0.198 A 
ATOM     79  C   UNL     1      -0.276  11.249   0.632  1.00  0.00     0.198 A 
ATOM     80  F   UNL     1      -0.989   9.052   0.669  1.00  0.00    -0.203 F 
ATOM     81  F   UNL     1      -0.978  13.940  -1.668  1.00  0.00    -0.200 F 
ATOM     82  C   UNL     1      -0.226  12.487   0.027  1.00  0.00     0.200 A 
ATOM     83  F   UNL     1       0.566  10.945   1.629  1.00  0.00    -0.200 F 
ATOM     84  F   UNL     1       0.681  13.388   0.426  1.00  0.00    -0.200 F 
ENDBRANCH  60  74
BRANCH  61  85
ATOM     85  C   UNL     1       3.230   4.268  -2.598  1.00  0.00     0.064 A 
ATOM     86  C   UNL     1       4.396   4.590  -3.321  1.00  0.00     0.173 A 
ATOM     87  C   UNL     1       3.419   3.482  -1.446  1.00  0.00     0.173 A 
ATOM     88  F   UNL     1       4.315   5.308  -4.451  1.00  0.00    -0.203 F 
ATOM     89  C   UNL     1       5.673   4.226  -2.872  1.00  0.00     0.198 A 
ATOM     90  C   UNL     1       4.695   3.127  -0.992  1.00  0.00     0.198 A 
ATOM     91  F   UNL     1       2.368   3.099  -0.705  1.00  0.00    -0.203 F 
ATOM     92  F   UNL     1       6.761   4.607  -3.557  1.00  0.00    -0.200 F 
ATOM     93  C   UNL     1       5.823   3.519  -1.692  1.00  0.00     0.200 A 
ATOM     94  F   UNL     1       4.828   2.448   0.156  1.00  0.00    -0.200 F 
ATOM     95  F   UNL     1       7.046   3.241  -1.216  1.00  0.00    -0.200 F 
ENDBRANCH  61  85
BRANCH  73  96
ATOM     96  C   UNL     1      -1.190   6.565  -6.510  1.00  0.00     0.064 A 
ATOM     97  C   UNL     1      -1.360   5.177  -6.426  1.00  0.00     0.173 A 
ATOM     98  C   UNL     1      -1.464   7.155  -7.750  1.00  0.00     0.173 A 
ATOM     99  F   UNL     1      -1.138   4.538  -5.282  1.00  0.00    -0.203 F 
ATOM    100  C   UNL     1      -1.782   4.414  -7.515  1.00  0.00     0.198 A 
ATOM    101  C   UNL     1      -1.906   6.400  -8.836  1.00  0.00     0.198 A 
ATOM    102  F   UNL     1      -1.328   8.482  -7.904  1.00  0.00    -0.203 F 
ATOM    103  F   UNL     1      -1.924   3.086  -7.394  1.00  0.00    -0.200 F 
ATOM    104  C   UNL     1      -2.066   5.029  -8.719  1.00  0.00     0.200 A 
ATOM    105  F   UNL     1      -2.192   7.007  -9.996  1.00  0.00    -0.200 F 
ATOM    106  F   UNL     1      -2.497   4.307  -9.761  1.00  0.00    -0.200 F 
ENDBRANCH  73  96
ENDBRANCH  47  48
ENDBRANCH  40  42
ENDBRANCH  39  40
ENDBRANCH  38  39
ENDBRANCH  37  38
ENDBRANCH  36  37
ENDBRANCH  35  36
ENDBRANCH   1  35
TORSDOF 20
