REMARK SMILES Cc1ccccc1OC1(C(=O)OCCOCCOCCOC(=O)c2ccc(-c3c4nc(c(-c5c(F)c(F)c(F)c(F)c5F)c5ccc([nH]5)c(-c5c(F)c(F)c(F)c(F)c5F)c5nc(c(-c6c(F)c(F)c(F)c(F)c6F)c6ccc3[nH]6)C=C5)C=C4)cc2)CCN(C(=O)[C@H]2CCCCO2)CC1
REMARK SMILES IDX 16 1 15 2 14 3 13 4 12 5 10 6 11 7 9 8 87 9 99 10 88 11
REMARK SMILES IDX 98 12 89 13 90 14 91 15 8 16 7 17 1 18 2 19 3 20 4 21 6 22
REMARK SMILES IDX 5 23 92 24 93 25 97 26 94 27 96 28 95 29 17 30 18 31 19 32
REMARK SMILES IDX 20 33 21 34 22 35 23 36 24 37 25 38 86 39 26 40 85 41 27 42
REMARK SMILES IDX 28 43 29 44 79 45 30 46 84 47 78 48 80 49 31 50 83 51 77 52
REMARK SMILES IDX 76 53 32 55 64 56 44 57 63 58 45 59 48 60 62 61 81 62 46 63
REMARK SMILES IDX 47 64 61 66 82 67 49 68 33 69 34 70 42 71 35 72 36 73 40 74
REMARK SMILES IDX 43 75 37 76 38 77 41 78 39 79 65 80 66 81 74 82 67 83 68 84
REMARK SMILES IDX 72 85 75 86 69 87 70 88 73 89 71 90 50 91 51 92 59 93 52 94
REMARK SMILES IDX 53 95 57 96 60 97 54 98 55 99 58 100 56 101
REMARK H PARENT 80 54 48 65
REMARK Flexibility Score: inf
ROOT
ATOM      1  C   UNL     1       9.492  -8.224  -5.469  1.00  0.00     0.188 C 
ENDROOT
BRANCH   1   2
ATOM      2  O   UNL     1       9.253  -6.806  -5.607  1.00  0.00    -0.376 OA
BRANCH   2   3
ATOM      3  C   UNL     1       9.781  -5.782  -4.751  1.00  0.00     0.202 C 
BRANCH   3   4
ATOM      4  C   UNL     1       8.972  -4.751  -3.635  1.00  0.00     0.261 C 
BRANCH   4   5
ATOM      5  O   UNL     1       7.850  -5.005  -2.287  1.00  0.00    -0.460 OA
BRANCH   5   6
ATOM      6  C   UNL     1       6.449  -5.353  -1.973  1.00  0.00     0.350 C 
ATOM      7  O   UNL     1       5.556  -5.652  -2.778  1.00  0.00    -0.247 OA
BRANCH   6   8
ATOM      8  C   UNL     1       5.869  -5.230  -0.555  1.00  0.00     0.209 C 
ATOM      9  C   UNL     1       7.009  -5.069   0.406  1.00  0.00     0.082 C 
ATOM     10  C   UNL     1       4.788  -4.131  -0.704  1.00  0.00     0.082 C 
ATOM     11  C   UNL     1       6.907  -3.908   1.351  1.00  0.00     0.124 C 
ATOM     12  C   UNL     1       5.197  -2.792  -0.156  1.00  0.00     0.124 C 
ATOM     13  N   UNL     1       5.945  -2.852   1.088  1.00  0.00    -0.340 N 
ATOM     14  C   UNL     1       5.923  -1.848   2.058  1.00  0.00     0.251 C 
ATOM     15  O   UNL     1       6.782  -1.822   2.945  1.00  0.00    -0.272 OA
BRANCH   8  16
ATOM     16  O   UNL     1       5.253  -6.552  -0.369  1.00  0.00    -0.475 OA
BRANCH  16  17
ATOM     17  C   UNL     1       4.098  -6.923   0.270  1.00  0.00     0.123 A 
ATOM     18  C   UNL     1       3.989  -5.328   2.311  1.00  0.00     0.048 C 
ATOM     19  C   UNL     1       3.530  -6.474   1.474  1.00  0.00    -0.009 A 
ATOM     20  C   UNL     1       2.439  -7.188   2.040  1.00  0.00     0.007 A 
ATOM     21  C   UNL     1       1.878  -8.297   1.421  1.00  0.00     0.001 A 
ATOM     22  C   UNL     1       3.480  -8.025  -0.358  1.00  0.00     0.047 A 
ATOM     23  C   UNL     1       2.385  -8.703   0.201  1.00  0.00     0.004 A 
ENDBRANCH  16  17
ENDBRANCH   8  16
BRANCH  14  24
ATOM     24  C   UNL     1       4.745  -0.863   2.059  1.00  0.00     0.207 C 
ATOM     25  C   UNL     1       3.556  -1.590   2.709  1.00  0.00     0.042 C 
ATOM     26  O   UNL     1       5.130   0.292   2.805  1.00  0.00    -0.368 OA
ATOM     27  C   UNL     1       2.420  -0.643   3.065  1.00  0.00     0.006 C 
ATOM     28  C   UNL     1       4.071   1.218   2.993  1.00  0.00     0.161 C 
ATOM     29  C   UNL     1       2.959   0.574   3.803  1.00  0.00     0.029 C 
ENDBRANCH  14  24
ENDBRANCH   6   8
ENDBRANCH   5   6
ENDBRANCH   4   5
ENDBRANCH   3   4
ENDBRANCH   2   3
ENDBRANCH   1   2
BRANCH   1  30
ATOM     30  C   UNL     1      10.736  -8.803  -4.791  1.00  0.00     0.188 C 
BRANCH  30  31
ATOM     31  O   UNL     1      11.022  -8.094  -3.602  1.00  0.00    -0.376 OA
BRANCH  31  32
ATOM     32  C   UNL     1      12.147  -8.543  -2.865  1.00  0.00     0.202 C 
BRANCH  32  33
ATOM     33  C   UNL     1      11.856  -9.795  -2.013  1.00  0.00     0.261 C 
BRANCH  33  34
ATOM     34  O   UNL     1      10.708  -9.590  -1.153  1.00  0.00    -0.460 OA
BRANCH  34  35
ATOM     35  C   UNL     1       9.550 -10.269  -1.451  1.00  0.00     0.338 C 
ATOM     36  O   UNL     1       9.485 -11.468  -1.676  1.00  0.00    -0.246 OA
BRANCH  35  37
ATOM     37  C   UNL     1       8.445  -9.288  -1.732  1.00  0.00     0.060 A 
ATOM     38  C   UNL     1       7.275  -9.536  -2.469  1.00  0.00     0.016 A 
ATOM     39  C   UNL     1       8.812  -7.996  -1.638  1.00  0.00     0.016 A 
ATOM     40  C   UNL     1       6.650  -8.506  -3.293  1.00  0.00     0.010 A 
ATOM     41  C   UNL     1       8.409  -7.207  -2.703  1.00  0.00     0.010 A 
ATOM     42  C   UNL     1       7.274  -7.281  -3.563  1.00  0.00    -0.014 A 
BRANCH  42  43
ATOM     43  C   UNL     1       6.769  -6.115  -4.746  1.00  0.00     0.031 A 
ATOM     44  C   UNL     1       6.346  -4.397  -4.657  1.00  0.00     0.074 A 
ATOM     45  C   UNL     1       6.438  -6.640  -5.947  1.00  0.00     0.049 A 
ATOM     46  N   UNL     1       5.487  -3.778  -5.454  1.00  0.00    -0.248 NA
ATOM     47  C   UNL     1       6.716  -3.335  -3.628  1.00  0.00     0.031 C 
ATOM     48  C   UNL     1       6.082  -5.937  -7.175  1.00  0.00     0.029 A 
ATOM     49  N   UNL     1       6.197  -7.989  -6.248  1.00  0.00    -0.354 N 
ATOM     50  C   UNL     1       5.389  -2.418  -5.088  1.00  0.00     0.074 A 
ATOM     51  C   UNL     1       5.944  -2.294  -3.822  1.00  0.00     0.031 C 
ATOM     52  C   UNL     1       5.370  -6.770  -7.949  1.00  0.00     0.029 A 
ATOM     53  C   UNL     1       5.148  -7.980  -7.179  1.00  0.00     0.049 A 
ATOM     54  H   UNL     1       6.666  -8.775  -5.884  1.00  0.00     0.167 HD
ATOM     55  C   UNL     1       4.953  -1.401  -5.874  1.00  0.00     0.037 A 
ATOM     56  C   UNL     1       3.943  -8.546  -6.897  1.00  0.00     0.037 A 
ATOM     57  C   UNL     1       4.171  -1.987  -6.924  1.00  0.00     0.049 A 
ATOM     58  C   UNL     1       2.789  -7.591  -7.091  1.00  0.00     0.074 A 
ATOM     59  C   UNL     1       4.475  -2.393  -8.205  1.00  0.00     0.029 A 
ATOM     60  N   UNL     1       3.005  -2.635  -6.546  1.00  0.00    -0.354 N 
ATOM     61  N   UNL     1       2.903  -6.290  -7.121  1.00  0.00    -0.248 NA
ATOM     62  C   UNL     1       1.411  -8.036  -7.273  1.00  0.00     0.031 C 
ATOM     63  C   UNL     1       3.544  -3.413  -8.543  1.00  0.00     0.029 A 
ATOM     64  C   UNL     1       2.640  -3.556  -7.502  1.00  0.00     0.049 A 
ATOM     65  H   UNL     1       2.508  -2.461  -5.714  1.00  0.00     0.167 HD
ATOM     66  C   UNL     1       1.664  -5.728  -7.283  1.00  0.00     0.074 A 
ATOM     67  C   UNL     1       0.769  -6.863  -7.400  1.00  0.00     0.031 C 
ATOM     68  C   UNL     1       1.461  -4.378  -7.289  1.00  0.00     0.037 A 
BRANCH  55  69
ATOM     69  C   UNL     1       5.374   0.089  -5.761  1.00  0.00     0.064 A 
ATOM     70  C   UNL     1       5.055   0.965  -6.823  1.00  0.00     0.173 A 
ATOM     71  C   UNL     1       6.186   0.709  -4.766  1.00  0.00     0.173 A 
ATOM     72  F   UNL     1       4.288   0.556  -7.842  1.00  0.00    -0.203 F 
ATOM     73  C   UNL     1       5.534   2.287  -6.904  1.00  0.00     0.198 A 
ATOM     74  C   UNL     1       6.639   2.036  -4.835  1.00  0.00     0.198 A 
ATOM     75  F   UNL     1       6.638   0.089  -3.676  1.00  0.00    -0.203 F 
ATOM     76  F   UNL     1       5.233   3.039  -7.972  1.00  0.00    -0.200 F 
ATOM     77  C   UNL     1       6.332   2.821  -5.914  1.00  0.00     0.200 A 
ATOM     78  F   UNL     1       7.407   2.524  -3.846  1.00  0.00    -0.200 F 
ATOM     79  F   UNL     1       6.809   4.070  -6.001  1.00  0.00    -0.200 F 
ENDBRANCH  55  69
BRANCH  56  80
ATOM     80  C   UNL     1       3.997  -9.706  -5.954  1.00  0.00     0.064 A 
ATOM     81  C   UNL     1       4.912 -10.750  -6.229  1.00  0.00     0.173 A 
ATOM     82  C   UNL     1       3.407  -9.707  -4.683  1.00  0.00     0.173 A 
ATOM     83  F   UNL     1       5.502 -10.826  -7.433  1.00  0.00    -0.203 F 
ATOM     84  C   UNL     1       5.310 -11.662  -5.252  1.00  0.00     0.198 A 
ATOM     85  C   UNL     1       3.783 -10.649  -3.713  1.00  0.00     0.198 A 
ATOM     86  F   UNL     1       2.546  -8.742  -4.331  1.00  0.00    -0.203 F 
ATOM     87  F   UNL     1       6.283 -12.546  -5.519  1.00  0.00    -0.200 F 
ATOM     88  C   UNL     1       4.755 -11.602  -3.989  1.00  0.00     0.200 A 
ATOM     89  F   UNL     1       3.277 -10.576  -2.474  1.00  0.00    -0.200 F 
ATOM     90  F   UNL     1       5.202 -12.415  -3.020  1.00  0.00    -0.200 F 
ENDBRANCH  56  80
BRANCH  68  91
ATOM     91  C   UNL     1       0.121  -3.693  -7.124  1.00  0.00     0.064 A 
ATOM     92  C   UNL     1      -0.968  -4.262  -6.444  1.00  0.00     0.173 A 
ATOM     93  C   UNL     1      -0.045  -2.340  -7.511  1.00  0.00     0.173 A 
ATOM     94  F   UNL     1      -0.894  -5.484  -5.900  1.00  0.00    -0.203 F 
ATOM     95  C   UNL     1      -2.159  -3.562  -6.238  1.00  0.00     0.198 A 
ATOM     96  C   UNL     1      -1.206  -1.620  -7.234  1.00  0.00     0.198 A 
ATOM     97  F   UNL     1       0.929  -1.661  -8.133  1.00  0.00    -0.203 F 
ATOM     98  F   UNL     1      -3.188  -4.171  -5.632  1.00  0.00    -0.200 F 
ATOM     99  C   UNL     1      -2.273  -2.239  -6.619  1.00  0.00     0.200 A 
ATOM    100  F   UNL     1      -1.273  -0.318  -7.544  1.00  0.00    -0.200 F 
ATOM    101  F   UNL     1      -3.398  -1.556  -6.369  1.00  0.00    -0.200 F 
ENDBRANCH  68  91
ENDBRANCH  42  43
ENDBRANCH  35  37
ENDBRANCH  34  35
ENDBRANCH  33  34
ENDBRANCH  32  33
ENDBRANCH  31  32
ENDBRANCH  30  31
ENDBRANCH   1  30
TORSDOF 20
