REMARK SMILES O=C(OCCOCCOCCOC(=O)c1ccc(-c2c3nc(c(-c4c(F)c(F)c(F)c(F)c4F)c4ccc([nH]4)c(-c4c(F)c(F)c(F)c(F)c4F)c4nc(c(-c5c(F)c(F)c(F)c(F)c5F)c5ccc2[nH]5)C=C4)C=C3)cc1)C1=Cc2c(Cl)cc(Cl)cc2O[C@@H]1C(F)(F)F
REMARK SMILES IDX 8 1 7 2 6 3 5 4 4 5 3 6 2 7 1 8 78 9 79 10 89 11 80 12 88 13
REMARK SMILES IDX 81 14 87 15 82 16 83 17 86 18 84 19 85 20 90 21 91 22 92 23
REMARK SMILES IDX 93 24 9 25 10 26 11 27 12 28 13 29 14 30 15 31 16 32 77 33
REMARK SMILES IDX 17 34 76 35 18 36 19 37 20 38 70 39 21 40 75 41 69 42 71 43
REMARK SMILES IDX 22 44 74 45 68 46 67 47 23 49 55 50 35 51 54 52 36 53 39 54
REMARK SMILES IDX 53 55 72 56 37 57 38 58 52 60 73 61 40 62 24 63 25 64 33 65
REMARK SMILES IDX 26 66 27 67 31 68 34 69 28 70 29 71 32 72 30 73 56 74 57 75
REMARK SMILES IDX 65 76 58 77 59 78 63 79 66 80 60 81 61 82 64 83 62 84 41 85
REMARK SMILES IDX 42 86 50 87 43 88 44 89 48 90 51 91 45 92 46 93 49 94 47 95
REMARK H PARENT 71 48 39 59
REMARK Flexibility Score: inf
ROOT
ATOM      1  C   UNL     1       2.182   2.962  -1.564  1.00  0.00     0.188 C 
ENDROOT
BRANCH   1   2
ATOM      2  C   UNL     1       2.430   2.209  -0.248  1.00  0.00     0.188 C 
BRANCH   2   3
ATOM      3  O   UNL     1       3.776   1.969   0.367  1.00  0.00    -0.376 OA
BRANCH   3   4
ATOM      4  C   UNL     1       4.544   0.453   0.709  1.00  0.00     0.202 C 
BRANCH   4   5
ATOM      5  C   UNL     1       3.804  -1.480   0.051  1.00  0.00     0.261 C 
BRANCH   5   6
ATOM      6  O   UNL     1       2.802  -2.356   0.772  1.00  0.00    -0.460 OA
BRANCH   6   7
ATOM      7  C   UNL     1       2.958  -2.296   2.101  1.00  0.00     0.338 C 
ATOM      8  O   UNL     1       2.220  -2.725   2.953  1.00  0.00    -0.246 OA
BRANCH   7   9
ATOM      9  C   UNL     1       3.884  -1.169   2.131  1.00  0.00     0.087 C 
ATOM     10  C   UNL     1       5.266  -1.469   1.768  1.00  0.00     0.029 C 
ATOM     11  C   UNL     1       2.705  -0.078   1.091  1.00  0.00     0.316 C 
ATOM     12  C   UNL     1       6.011  -1.118   0.162  1.00  0.00     0.036 A 
ATOM     13  O   UNL     1       3.406   0.185  -0.715  1.00  0.00    -0.475 OA
ATOM     14  C   UNL     1       7.271  -1.561  -0.155  1.00  0.00     0.053 A 
ATOM     15  C   UNL     1       5.109  -0.365  -1.109  1.00  0.00     0.130 A 
ATOM     16  Cl  UNL     1       8.264  -2.435   0.935  1.00  0.00    -0.083 Cl
ATOM     17  C   UNL     1       7.702  -1.310  -1.471  1.00  0.00     0.042 A 
ATOM     18  C   UNL     1       5.601  -0.131  -2.363  1.00  0.00     0.067 A 
ATOM     19  C   UNL     1       6.920  -0.628  -2.498  1.00  0.00     0.046 A 
ATOM     20  Cl  UNL     1       7.707  -0.434  -4.033  1.00  0.00    -0.084 Cl
BRANCH  11  21
ATOM     21  C   UNL     1       2.465   0.971   2.387  1.00  0.00     0.430 C 
ATOM     22  F   UNL     1       2.159   2.252   2.203  1.00  0.00    -0.167 F 
ATOM     23  F   UNL     1       1.426   0.469   3.118  1.00  0.00    -0.167 F 
ATOM     24  F   UNL     1       3.511   0.983   3.268  1.00  0.00    -0.167 F 
ENDBRANCH  11  21
ENDBRANCH   7   9
ENDBRANCH   6   7
ENDBRANCH   5   6
ENDBRANCH   4   5
ENDBRANCH   3   4
ENDBRANCH   2   3
ENDBRANCH   1   2
BRANCH   1  25
ATOM     25  O   UNL     1       3.144   2.884  -2.581  1.00  0.00    -0.376 OA
BRANCH  25  26
ATOM     26  C   UNL     1       4.441   3.326  -2.211  1.00  0.00     0.202 C 
BRANCH  26  27
ATOM     27  C   UNL     1       4.574   4.705  -1.536  1.00  0.00     0.261 C 
BRANCH  27  28
ATOM     28  O   UNL     1       4.076   4.753  -0.176  1.00  0.00    -0.460 OA
BRANCH  28  29
ATOM     29  C   UNL     1       3.049   5.602   0.085  1.00  0.00     0.338 C 
ATOM     30  O   UNL     1       2.487   6.343  -0.703  1.00  0.00    -0.246 OA
BRANCH  29  31
ATOM     31  C   UNL     1       2.569   5.412   1.472  1.00  0.00     0.060 A 
ATOM     32  C   UNL     1       1.252   4.978   1.696  1.00  0.00     0.016 A 
ATOM     33  C   UNL     1       3.392   5.733   2.551  1.00  0.00     0.016 A 
ATOM     34  C   UNL     1       0.767   4.836   2.999  1.00  0.00     0.010 A 
ATOM     35  C   UNL     1       2.889   5.641   3.854  1.00  0.00     0.010 A 
ATOM     36  C   UNL     1       1.569   5.210   4.085  1.00  0.00    -0.014 A 
BRANCH  36  37
ATOM     37  C   UNL     1       0.946   5.396   5.420  1.00  0.00     0.031 A 
ATOM     38  C   UNL     1       0.431   6.767   5.765  1.00  0.00     0.074 A 
ATOM     39  C   UNL     1       0.811   4.384   6.296  1.00  0.00     0.049 A 
ATOM     40  N   UNL     1      -0.135   7.198   6.863  1.00  0.00    -0.248 NA
ATOM     41  C   UNL     1       0.581   7.795   4.722  1.00  0.00     0.031 C 
ATOM     42  C   UNL     1       1.234   3.006   6.069  1.00  0.00     0.029 A 
ATOM     43  N   UNL     1       0.280   4.369   7.565  1.00  0.00    -0.354 N 
ATOM     44  C   UNL     1      -0.420   8.538   6.636  1.00  0.00     0.074 A 
ATOM     45  C   UNL     1       0.083   8.865   5.321  1.00  0.00     0.031 C 
ATOM     46  C   UNL     1       0.959   2.279   7.168  1.00  0.00     0.029 A 
ATOM     47  C   UNL     1       0.367   3.147   8.186  1.00  0.00     0.049 A 
ATOM     48  H   UNL     1      -0.125   5.160   7.988  1.00  0.00     0.167 HD
ATOM     49  C   UNL     1      -1.062   9.415   7.444  1.00  0.00     0.037 A 
ATOM     50  C   UNL     1       0.027   2.783   9.440  1.00  0.00     0.037 A 
ATOM     51  C   UNL     1      -1.531   9.097   8.766  1.00  0.00     0.049 A 
ATOM     52  C   UNL     1      -0.591   3.811  10.363  1.00  0.00     0.074 A 
ATOM     53  C   UNL     1      -2.178   9.917   9.672  1.00  0.00     0.029 A 
ATOM     54  N   UNL     1      -1.387   7.860   9.377  1.00  0.00    -0.354 N 
ATOM     55  N   UNL     1      -0.888   5.068  10.131  1.00  0.00    -0.248 NA
ATOM     56  C   UNL     1      -0.928   3.364  11.722  1.00  0.00     0.031 C 
ATOM     57  C   UNL     1      -2.364   9.197  10.856  1.00  0.00     0.029 A 
ATOM     58  C   UNL     1      -1.911   7.903  10.659  1.00  0.00     0.049 A 
ATOM     59  H   UNL     1      -0.975   7.068   8.961  1.00  0.00     0.167 HD
ATOM     60  C   UNL     1      -1.483   5.545  11.294  1.00  0.00     0.074 A 
ATOM     61  C   UNL     1      -1.523   4.437  12.223  1.00  0.00     0.031 C 
ATOM     62  C   UNL     1      -1.954   6.787  11.570  1.00  0.00     0.037 A 
BRANCH  49  63
ATOM     63  C   UNL     1      -1.269  10.809   6.923  1.00  0.00     0.064 A 
ATOM     64  C   UNL     1      -2.132  11.072   5.847  1.00  0.00     0.173 A 
ATOM     65  C   UNL     1      -0.615  11.898   7.518  1.00  0.00     0.173 A 
ATOM     66  F   UNL     1      -2.771  10.066   5.231  1.00  0.00    -0.203 F 
ATOM     67  C   UNL     1      -2.306  12.367   5.367  1.00  0.00     0.198 A 
ATOM     68  C   UNL     1      -0.822  13.197   7.060  1.00  0.00     0.198 A 
ATOM     69  F   UNL     1       0.219  11.706   8.551  1.00  0.00    -0.203 F 
ATOM     70  F   UNL     1      -3.088  12.585   4.300  1.00  0.00    -0.200 F 
ATOM     71  C   UNL     1      -1.658  13.429   5.979  1.00  0.00     0.200 A 
ATOM     72  F   UNL     1      -0.208  14.223   7.665  1.00  0.00    -0.200 F 
ATOM     73  F   UNL     1      -1.834  14.677   5.522  1.00  0.00    -0.200 F 
ENDBRANCH  49  63
BRANCH  50  74
ATOM     74  C   UNL     1       0.277   1.394   9.922  1.00  0.00     0.064 A 
ATOM     75  C   UNL     1      -0.777   0.554  10.314  1.00  0.00     0.173 A 
ATOM     76  C   UNL     1       1.583   0.901  10.069  1.00  0.00     0.173 A 
ATOM     77  F   UNL     1      -2.045   0.984  10.225  1.00  0.00    -0.203 F 
ATOM     78  C   UNL     1      -0.534  -0.702  10.870  1.00  0.00     0.198 A 
ATOM     79  C   UNL     1       1.823  -0.371  10.585  1.00  0.00     0.198 A 
ATOM     80  F   UNL     1       2.631   1.660   9.719  1.00  0.00    -0.203 F 
ATOM     81  F   UNL     1      -1.557  -1.446  11.312  1.00  0.00    -0.200 F 
ATOM     82  C   UNL     1       0.766  -1.165  11.000  1.00  0.00     0.200 A 
ATOM     83  F   UNL     1       3.081  -0.819  10.698  1.00  0.00    -0.200 F 
ATOM     84  F   UNL     1       1.000  -2.368  11.543  1.00  0.00    -0.200 F 
ENDBRANCH  50  74
BRANCH  62  85
ATOM     85  C   UNL     1      -2.608   7.001  12.910  1.00  0.00     0.064 A 
ATOM     86  C   UNL     1      -1.886   6.947  14.112  1.00  0.00     0.173 A 
ATOM     87  C   UNL     1      -3.980   7.293  12.987  1.00  0.00     0.173 A 
ATOM     88  F   UNL     1      -0.574   6.668  14.100  1.00  0.00    -0.203 F 
ATOM     89  C   UNL     1      -2.520   7.127  15.339  1.00  0.00     0.198 A 
ATOM     90  C   UNL     1      -4.601   7.518  14.212  1.00  0.00     0.198 A 
ATOM     91  F   UNL     1      -4.720   7.373  11.870  1.00  0.00    -0.203 F 
ATOM     92  F   UNL     1      -1.823   6.997  16.476  1.00  0.00    -0.200 F 
ATOM     93  C   UNL     1      -3.875   7.420  15.388  1.00  0.00     0.200 A 
ATOM     94  F   UNL     1      -5.905   7.826  14.254  1.00  0.00    -0.200 F 
ATOM     95  F   UNL     1      -4.482   7.598  16.569  1.00  0.00    -0.200 F 
ENDBRANCH  62  85
ENDBRANCH  36  37
ENDBRANCH  29  31
ENDBRANCH  28  29
ENDBRANCH  27  28
ENDBRANCH  26  27
ENDBRANCH  25  26
ENDBRANCH   1  25
TORSDOF 18
