REMARK SMILES O=C(OCCOCCOCCOC(=O)c1ccc(-c2c3nc(c(-c4c(F)c(F)c(F)c(F)c4F)c4ccc([nH]4)c(-c4c(F)c(F)c(F)c(F)c4F)c4nc(c(-c5c(F)c(F)c(F)c(F)c5F)c5ccc2[nH]5)C=C4)C=C3)cc1)C1=Cc2cc(OC(F)(F)F)ccc2O[C@@H]1C(F)(F)F
REMARK SMILES IDX 7 1 6 2 5 3 4 4 3 5 2 6 1 7 78 8 79 9 92 10 80 11 91 12
REMARK SMILES IDX 81 13 90 14 82 15 89 16 88 17 93 18 94 19 95 20 96 21 83 22
REMARK SMILES IDX 84 23 85 24 86 25 87 26 8 27 9 28 10 29 11 30 12 31 13 32
REMARK SMILES IDX 14 33 15 34 16 35 77 36 17 37 76 38 18 39 19 40 20 41 70 42
REMARK SMILES IDX 21 43 75 44 69 45 71 46 22 47 74 48 68 49 67 50 23 52 55 53
REMARK SMILES IDX 35 54 54 55 36 56 39 57 53 58 72 59 37 60 38 61 52 63 73 64
REMARK SMILES IDX 40 65 24 66 25 67 33 68 26 69 27 70 31 71 34 72 28 73 29 74
REMARK SMILES IDX 32 75 30 76 56 77 57 78 65 79 58 80 59 81 63 82 66 83 60 84
REMARK SMILES IDX 61 85 64 86 62 87 41 88 42 89 50 90 43 91 44 92 48 93 51 94
REMARK SMILES IDX 45 95 46 96 49 97 47 98
REMARK H PARENT 71 51 39 62
REMARK Flexibility Score: inf
ROOT
ATOM      1  C   UNL     1       1.383   1.203  -1.843  1.00  0.00     0.188 C 
ENDROOT
BRANCH   1   2
ATOM      2  O   UNL     1       2.693   1.434  -1.338  1.00  0.00    -0.376 OA
BRANCH   2   3
ATOM      3  C   UNL     1       3.589   0.327  -1.469  1.00  0.00     0.202 C 
BRANCH   3   4
ATOM      4  C   UNL     1       3.217  -0.879  -0.596  1.00  0.00     0.261 C 
BRANCH   4   5
ATOM      5  O   UNL     1       2.401  -0.482   0.529  1.00  0.00    -0.460 OA
BRANCH   5   6
ATOM      6  C   UNL     1       2.810  -0.793   1.778  1.00  0.00     0.338 C 
ATOM      7  O   UNL     1       2.230  -1.618   2.470  1.00  0.00    -0.246 OA
BRANCH   6   8
ATOM      8  C   UNL     1       3.867   0.093   2.329  1.00  0.00     0.087 C 
ATOM      9  C   UNL     1       4.891  -0.577   2.896  1.00  0.00     0.027 C 
ATOM     10  C   UNL     1       4.126   1.407   1.631  1.00  0.00     0.316 C 
ATOM     11  C   UNL     1       6.000  -0.696   1.924  1.00  0.00     0.021 A 
ATOM     12  O   UNL     1       5.414   1.449   0.949  1.00  0.00    -0.475 OA
ATOM     13  C   UNL     1       6.843  -1.809   1.925  1.00  0.00     0.058 A 
ATOM     14  C   UNL     1       6.145   0.287   0.943  1.00  0.00     0.128 A 
ATOM     15  C   UNL     1       7.766  -1.996   0.889  1.00  0.00     0.130 A 
ATOM     16  C   UNL     1       7.025   0.082  -0.115  1.00  0.00     0.051 A 
ATOM     17  C   UNL     1       7.797  -1.083  -0.168  1.00  0.00     0.050 A 
BRANCH  10  18
ATOM     18  C   UNL     1       3.941   2.616   2.549  1.00  0.00     0.430 C 
ATOM     19  F   UNL     1       3.911   3.770   1.840  1.00  0.00    -0.167 F 
ATOM     20  F   UNL     1       2.766   2.546   3.222  1.00  0.00    -0.167 F 
ATOM     21  F   UNL     1       4.928   2.722   3.465  1.00  0.00    -0.167 F 
ENDBRANCH  10  18
BRANCH  15  22
ATOM     22  O   UNL     1       8.568  -3.091   1.035  1.00  0.00    -0.406 OA
BRANCH  22  23
ATOM     23  C   UNL     1       9.578  -3.325   0.065  1.00  0.00     0.573 C 
ATOM     24  F   UNL     1       9.030  -3.821  -1.065  1.00  0.00    -0.132 F 
ATOM     25  F   UNL     1      10.278  -2.208  -0.228  1.00  0.00    -0.132 F 
ATOM     26  F   UNL     1      10.447  -4.237   0.554  1.00  0.00    -0.132 F 
ENDBRANCH  22  23
ENDBRANCH  15  22
ENDBRANCH   6   8
ENDBRANCH   5   6
ENDBRANCH   4   5
ENDBRANCH   3   4
ENDBRANCH   2   3
ENDBRANCH   1   2
BRANCH   1  27
ATOM     27  C   UNL     1       1.274   1.477  -3.342  1.00  0.00     0.188 C 
BRANCH  27  28
ATOM     28  O   UNL     1       2.372   0.912  -4.054  1.00  0.00    -0.376 OA
BRANCH  28  29
ATOM     29  C   UNL     1       3.088   1.854  -4.856  1.00  0.00     0.202 C 
BRANCH  29  30
ATOM     30  C   UNL     1       4.068   2.786  -4.111  1.00  0.00     0.261 C 
BRANCH  30  31
ATOM     31  O   UNL     1       3.544   3.527  -2.993  1.00  0.00    -0.460 OA
BRANCH  31  32
ATOM     32  C   UNL     1       2.747   4.579  -3.271  1.00  0.00     0.338 C 
ATOM     33  O   UNL     1       2.374   4.944  -4.371  1.00  0.00    -0.246 OA
BRANCH  32  34
ATOM     34  C   UNL     1       2.294   5.197  -2.006  1.00  0.00     0.060 A 
ATOM     35  C   UNL     1       0.971   5.007  -1.597  1.00  0.00     0.016 A 
ATOM     36  C   UNL     1       3.131   6.063  -1.295  1.00  0.00     0.016 A 
ATOM     37  C   UNL     1       0.468   5.714  -0.501  1.00  0.00     0.010 A 
ATOM     38  C   UNL     1       2.621   6.781  -0.201  1.00  0.00     0.010 A 
ATOM     39  C   UNL     1       1.274   6.640   0.177  1.00  0.00    -0.014 A 
BRANCH  39  40
ATOM     40  C   UNL     1       0.635   7.570   1.147  1.00  0.00     0.031 A 
ATOM     41  C   UNL     1       0.158   8.915   0.661  1.00  0.00     0.074 A 
ATOM     42  C   UNL     1       0.398   7.203   2.419  1.00  0.00     0.049 A 
ATOM     43  N   UNL     1      -0.526   9.837   1.293  1.00  0.00    -0.248 NA
ATOM     44  C   UNL     1       0.490   9.261  -0.730  1.00  0.00     0.031 C 
ATOM     45  C   UNL     1       0.789   5.931   3.018  1.00  0.00     0.029 A 
ATOM     46  N   UNL     1      -0.241   7.873   3.436  1.00  0.00    -0.354 N 
ATOM     47  C   UNL     1      -0.732  10.854   0.369  1.00  0.00     0.074 A 
ATOM     48  C   UNL     1      -0.055  10.463  -0.849  1.00  0.00     0.031 C 
ATOM     49  C   UNL     1       0.387   5.912   4.302  1.00  0.00     0.029 A 
ATOM     50  C   UNL     1      -0.281   7.175   4.617  1.00  0.00     0.049 A 
ATOM     51  H   UNL     1      -0.632   8.770   3.327  1.00  0.00     0.167 HD
ATOM     52  C   UNL     1      -1.440  12.002   0.512  1.00  0.00     0.037 A 
ATOM     53  C   UNL     1      -0.794   7.518   5.816  1.00  0.00     0.037 A 
ATOM     54  C   UNL     1      -2.087  12.416   1.730  1.00  0.00     0.049 A 
ATOM     55  C   UNL     1      -1.512   8.837   5.971  1.00  0.00     0.074 A 
ATOM     56  C   UNL     1      -2.817  13.568   1.972  1.00  0.00     0.029 A 
ATOM     57  N   UNL     1      -2.071  11.699   2.916  1.00  0.00    -0.354 N 
ATOM     58  N   UNL     1      -1.747   9.768   5.078  1.00  0.00    -0.248 NA
ATOM     59  C   UNL     1      -2.055   9.143   7.304  1.00  0.00     0.031 C 
ATOM     60  C   UNL     1      -3.200  13.571   3.317  1.00  0.00     0.029 A 
ATOM     61  C   UNL     1      -2.759  12.394   3.900  1.00  0.00     0.049 A 
ATOM     62  H   UNL     1      -1.635  10.826   3.042  1.00  0.00     0.167 HD
ATOM     63  C   UNL     1      -2.481  10.751   5.731  1.00  0.00     0.074 A 
ATOM     64  C   UNL     1      -2.679  10.291   7.088  1.00  0.00     0.031 C 
ATOM     65  C   UNL     1      -2.949  11.931   5.250  1.00  0.00     0.037 A 
BRANCH  52  66
ATOM     66  C   UNL     1      -1.544  12.900  -0.686  1.00  0.00     0.064 A 
ATOM     67  C   UNL     1      -2.329  12.549  -1.796  1.00  0.00     0.173 A 
ATOM     68  C   UNL     1      -0.890  14.141  -0.711  1.00  0.00     0.173 A 
ATOM     69  F   UNL     1      -2.964  11.368  -1.827  1.00  0.00    -0.203 F 
ATOM     70  C   UNL     1      -2.436  13.398  -2.895  1.00  0.00     0.198 A 
ATOM     71  C   UNL     1      -1.023  14.999  -1.800  1.00  0.00     0.198 A 
ATOM     72  F   UNL     1      -0.132  14.527   0.326  1.00  0.00    -0.203 F 
ATOM     73  F   UNL     1      -3.157  13.023  -3.961  1.00  0.00    -0.200 F 
ATOM     74  C   UNL     1      -1.790  14.625  -2.893  1.00  0.00     0.200 A 
ATOM     75  F   UNL     1      -0.408  16.190  -1.791  1.00  0.00    -0.200 F 
ATOM     76  F   UNL     1      -1.902  15.444  -3.947  1.00  0.00    -0.200 F 
ENDBRANCH  52  66
BRANCH  53  77
ATOM     77  C   UNL     1      -0.644   6.605   6.982  1.00  0.00     0.064 A 
ATOM     78  C   UNL     1      -1.754   5.986   7.575  1.00  0.00     0.173 A 
ATOM     79  C   UNL     1       0.614   6.377   7.560  1.00  0.00     0.173 A 
ATOM     80  F   UNL     1      -2.982   6.197   7.080  1.00  0.00    -0.203 F 
ATOM     81  C   UNL     1      -1.615   5.199   8.718  1.00  0.00     0.198 A 
ATOM     82  C   UNL     1       0.756   5.565   8.683  1.00  0.00     0.198 A 
ATOM     83  F   UNL     1       1.707   6.952   7.038  1.00  0.00    -0.203 F 
ATOM     84  F   UNL     1      -2.700   4.675   9.303  1.00  0.00    -0.200 F 
ATOM     85  C   UNL     1      -0.360   4.986   9.268  1.00  0.00     0.200 A 
ATOM     86  F   UNL     1       1.971   5.356   9.207  1.00  0.00    -0.200 F 
ATOM     87  F   UNL     1      -0.228   4.237  10.371  1.00  0.00    -0.200 F 
ENDBRANCH  53  77
BRANCH  65  88
ATOM     88  C   UNL     1      -3.740  12.795   6.193  1.00  0.00     0.064 A 
ATOM     89  C   UNL     1      -3.141  13.436   7.288  1.00  0.00     0.173 A 
ATOM     90  C   UNL     1      -5.116  12.995   5.993  1.00  0.00     0.173 A 
ATOM     91  F   UNL     1      -1.832  13.271   7.533  1.00  0.00    -0.203 F 
ATOM     92  C   UNL     1      -3.894  14.207   8.170  1.00  0.00     0.198 A 
ATOM     93  C   UNL     1      -5.859  13.795   6.857  1.00  0.00     0.198 A 
ATOM     94  F   UNL     1      -5.740  12.416   4.956  1.00  0.00    -0.203 F 
ATOM     95  F   UNL     1      -3.311  14.756   9.245  1.00  0.00    -0.200 F 
ATOM     96  C   UNL     1      -5.251  14.390   7.951  1.00  0.00     0.200 A 
ATOM     97  F   UNL     1      -7.168  13.984   6.634  1.00  0.00    -0.200 F 
ATOM     98  F   UNL     1      -5.975  15.131   8.802  1.00  0.00    -0.200 F 
ENDBRANCH  65  88
ENDBRANCH  39  40
ENDBRANCH  32  34
ENDBRANCH  31  32
ENDBRANCH  30  31
ENDBRANCH  29  30
ENDBRANCH  28  29
ENDBRANCH  27  28
ENDBRANCH   1  27
TORSDOF 20
