REMARK SMILES Nc1cc(C(=O)OCCOCCOCCOC(=O)c2ccc(-c3c4nc(c(-c5c(F)c(F)c(F)c(F)c5F)c5ccc([nH]5)c(-c5c(F)c(F)c(F)c(F)c5F)c5nc(c(-c6c(F)c(F)c(F)c(F)c6F)c6ccc3[nH]6)C=C5)C=C4)cc2)c(-c2ccc(F)cc2O)cn1
REMARK SMILES IDX 11 1 10 2 9 3 8 4 7 5 5 6 6 7 4 8 2 9 3 10 92 11 91 12 82 13
REMARK SMILES IDX 1 14 83 17 84 18 89 19 85 20 88 21 86 22 87 23 90 24 12 26
REMARK SMILES IDX 13 27 14 28 15 29 16 30 17 31 18 32 19 33 20 34 81 35 21 36
REMARK SMILES IDX 80 37 22 38 23 39 24 40 74 41 25 42 79 43 73 44 75 45 26 46
REMARK SMILES IDX 78 47 72 48 71 49 27 51 59 52 39 53 58 54 40 55 43 56 57 57
REMARK SMILES IDX 76 58 41 59 42 60 56 62 77 63 44 64 28 65 29 66 37 67 30 68
REMARK SMILES IDX 31 69 35 70 38 71 32 72 33 73 36 74 34 75 60 76 61 77 69 78
REMARK SMILES IDX 62 79 63 80 67 81 70 82 64 83 65 84 68 85 66 86 45 87 46 88
REMARK SMILES IDX 54 89 47 90 48 91 52 92 55 93 49 94 50 95 53 96 51 97
REMARK H PARENT 1 15 1 16 90 25 75 50 43 61
REMARK Flexibility Score: inf
ROOT
ATOM      1  C   UNL     1      -3.465  -3.405   1.423  1.00  0.00     0.188 C 
ENDROOT
BRANCH   1   2
ATOM      2  O   UNL     1      -3.614  -4.771   1.128  1.00  0.00    -0.376 OA
BRANCH   2   3
ATOM      3  C   UNL     1      -3.083  -5.332  -0.052  1.00  0.00     0.202 C 
BRANCH   3   4
ATOM      4  C   UNL     1      -2.092  -4.659  -1.020  1.00  0.00     0.261 C 
BRANCH   4   5
ATOM      5  O   UNL     1      -1.486  -3.421  -0.636  1.00  0.00    -0.460 OA
BRANCH   5   6
ATOM      6  C   UNL     1      -1.772  -2.343  -1.412  1.00  0.00     0.339 C 
ATOM      7  O   UNL     1      -2.553  -2.315  -2.348  1.00  0.00    -0.246 OA
BRANCH   6   8
ATOM      8  C   UNL     1      -1.002  -1.154  -0.954  1.00  0.00     0.073 A 
ATOM      9  C   UNL     1       1.068  -0.196  -0.241  1.00  0.00     0.124 A 
ATOM     10  C   UNL     1       0.347  -1.311  -0.625  1.00  0.00     0.062 A 
ATOM     11  N   UNL     1       0.522   1.029  -0.172  1.00  0.00    -0.239 NA
ATOM     12  C   UNL     1      -0.785   1.165  -0.492  1.00  0.00     0.123 A 
ATOM     13  C   UNL     1      -1.610   0.114  -0.866  1.00  0.00     0.018 A 
BRANCH   9  14
ATOM     14  N   UNL     1       2.375  -0.308   0.176  1.00  0.00    -0.384 N 
ATOM     15  H   UNL     1       2.827  -1.182   0.148  1.00  0.00     0.158 HD
ATOM     16  H   UNL     1       2.857   0.486   0.502  1.00  0.00     0.158 HD
ENDBRANCH   9  14
BRANCH  13  17
ATOM     17  C   UNL     1      -3.060   0.294  -0.969  1.00  0.00     0.026 A 
ATOM     18  C   UNL     1      -3.670   0.770  -2.136  1.00  0.00     0.015 A 
ATOM     19  C   UNL     1      -3.885  -0.152   0.073  1.00  0.00     0.126 A 
ATOM     20  C   UNL     1      -5.059   0.691  -2.285  1.00  0.00     0.040 A 
ATOM     21  C   UNL     1      -5.243  -0.348  -0.114  1.00  0.00     0.086 A 
ATOM     22  C   UNL     1      -5.823   0.085  -1.295  1.00  0.00     0.126 A 
ATOM     23  F   UNL     1      -7.145  -0.042  -1.464  1.00  0.00    -0.207 F 
BRANCH  19  24
ATOM     24  O   UNL     1      -3.388  -0.441   1.312  1.00  0.00    -0.507 OA
ATOM     25  H   UNL     1      -2.475  -0.324   1.489  1.00  0.00     0.293 HD
ENDBRANCH  19  24
ENDBRANCH  13  17
ENDBRANCH   6   8
ENDBRANCH   5   6
ENDBRANCH   4   5
ENDBRANCH   3   4
ENDBRANCH   2   3
ENDBRANCH   1   2
BRANCH   1  26
ATOM     26  C   UNL     1      -2.198  -3.031   2.221  1.00  0.00     0.188 C 
BRANCH  26  27
ATOM     27  O   UNL     1      -1.511  -4.011   2.989  1.00  0.00    -0.376 OA
BRANCH  27  28
ATOM     28  C   UNL     1      -2.260  -5.002   3.671  1.00  0.00     0.202 C 
BRANCH  28  29
ATOM     29  C   UNL     1      -3.200  -4.566   4.801  1.00  0.00     0.261 C 
BRANCH  29  30
ATOM     30  O   UNL     1      -4.061  -3.456   4.500  1.00  0.00    -0.460 OA
BRANCH  30  31
ATOM     31  C   UNL     1      -3.702  -2.278   5.067  1.00  0.00     0.338 C 
ATOM     32  O   UNL     1      -2.725  -2.070   5.772  1.00  0.00    -0.246 OA
BRANCH  31  33
ATOM     33  C   UNL     1      -4.606  -1.188   4.634  1.00  0.00     0.060 A 
ATOM     34  C   UNL     1      -4.035   0.048   4.303  1.00  0.00     0.016 A 
ATOM     35  C   UNL     1      -5.996  -1.339   4.617  1.00  0.00     0.016 A 
ATOM     36  C   UNL     1      -4.846   1.134   3.962  1.00  0.00     0.010 A 
ATOM     37  C   UNL     1      -6.810  -0.240   4.305  1.00  0.00     0.010 A 
ATOM     38  C   UNL     1      -6.241   1.008   3.994  1.00  0.00    -0.014 A 
BRANCH  38  39
ATOM     39  C   UNL     1      -7.094   2.219   3.851  1.00  0.00     0.031 A 
ATOM     40  C   UNL     1      -7.403   3.033   5.066  1.00  0.00     0.074 A 
ATOM     41  C   UNL     1      -7.580   2.612   2.661  1.00  0.00     0.049 A 
ATOM     42  N   UNL     1      -8.113   4.127   5.168  1.00  0.00    -0.248 NA
ATOM     43  C   UNL     1      -6.842   2.549   6.335  1.00  0.00     0.031 C 
ATOM     44  C   UNL     1      -7.335   1.913   1.416  1.00  0.00     0.029 A 
ATOM     45  N   UNL     1      -8.373   3.671   2.294  1.00  0.00    -0.354 N 
ATOM     46  C   UNL     1      -8.075   4.471   6.509  1.00  0.00     0.074 A 
ATOM     47  C   UNL     1      -7.299   3.453   7.188  1.00  0.00     0.031 C 
ATOM     48  C   UNL     1      -7.952   2.549   0.409  1.00  0.00     0.029 A 
ATOM     49  C   UNL     1      -8.679   3.689   0.953  1.00  0.00     0.049 A 
ATOM     50  H   UNL     1      -8.692   4.352   2.929  1.00  0.00     0.167 HD
ATOM     51  C   UNL     1      -8.639   5.541   7.116  1.00  0.00     0.037 A 
ATOM     52  C   UNL     1      -9.475   4.512   0.243  1.00  0.00     0.037 A 
ATOM     53  C   UNL     1      -9.453   6.520   6.445  1.00  0.00     0.049 A 
ATOM     54  C   UNL     1     -10.165   5.641   0.957  1.00  0.00     0.074 A 
ATOM     55  C   UNL     1     -10.075   7.634   6.979  1.00  0.00     0.029 A 
ATOM     56  N   UNL     1      -9.781   6.489   5.096  1.00  0.00    -0.354 N 
ATOM     57  N   UNL     1     -10.092   5.983   2.220  1.00  0.00    -0.248 NA
ATOM     58  C   UNL     1     -11.048   6.497   0.153  1.00  0.00     0.031 C 
ATOM     59  C   UNL     1     -10.828   8.242   5.968  1.00  0.00     0.029 A 
ATOM     60  C   UNL     1     -10.623   7.547   4.787  1.00  0.00     0.049 A 
ATOM     61  H   UNL     1      -9.463   5.814   4.453  1.00  0.00     0.167 HD
ATOM     62  C   UNL     1     -10.896   7.104   2.360  1.00  0.00     0.074 A 
ATOM     63  C   UNL     1     -11.437   7.395   1.048  1.00  0.00     0.031 C 
ATOM     64  C   UNL     1     -11.157   7.827   3.477  1.00  0.00     0.037 A 
BRANCH  51  65
ATOM     65  C   UNL     1      -8.424   5.663   8.594  1.00  0.00     0.064 A 
ATOM     66  C   UNL     1      -7.165   5.975   9.131  1.00  0.00     0.173 A 
ATOM     67  C   UNL     1      -9.484   5.443   9.485  1.00  0.00     0.173 A 
ATOM     68  F   UNL     1      -6.114   6.173   8.320  1.00  0.00    -0.203 F 
ATOM     69  C   UNL     1      -6.968   6.024  10.508  1.00  0.00     0.198 A 
ATOM     70  C   UNL     1      -9.290   5.524  10.860  1.00  0.00     0.198 A 
ATOM     71  F   UNL     1     -10.705   5.139   9.021  1.00  0.00    -0.203 F 
ATOM     72  F   UNL     1      -5.744   6.260  11.001  1.00  0.00    -0.200 F 
ATOM     73  C   UNL     1      -8.031   5.803  11.371  1.00  0.00     0.200 A 
ATOM     74  F   UNL     1     -10.320   5.318  11.693  1.00  0.00    -0.200 F 
ATOM     75  F   UNL     1      -7.840   5.845  12.697  1.00  0.00    -0.200 F 
ENDBRANCH  51  65
BRANCH  52  76
ATOM     76  C   UNL     1      -9.675   4.291  -1.216  1.00  0.00     0.064 A 
ATOM     77  C   UNL     1      -9.194   5.207  -2.161  1.00  0.00     0.173 A 
ATOM     78  C   UNL     1     -10.364   3.166  -1.694  1.00  0.00     0.173 A 
ATOM     79  F   UNL     1      -8.553   6.314  -1.756  1.00  0.00    -0.203 F 
ATOM     80  C   UNL     1      -9.405   5.014  -3.526  1.00  0.00     0.198 A 
ATOM     81  C   UNL     1     -10.548   2.958  -3.060  1.00  0.00     0.198 A 
ATOM     82  F   UNL     1     -10.854   2.262  -0.834  1.00  0.00    -0.203 F 
ATOM     83  F   UNL     1      -8.975   5.930  -4.405  1.00  0.00    -0.200 F 
ATOM     84  C   UNL     1     -10.075   3.886  -3.975  1.00  0.00     0.200 A 
ATOM     85  F   UNL     1     -11.190   1.863  -3.490  1.00  0.00    -0.200 F 
ATOM     86  F   UNL     1     -10.275   3.700  -5.287  1.00  0.00    -0.200 F 
ENDBRANCH  52  76
BRANCH  64  87
ATOM     87  C   UNL     1     -12.042   9.030   3.322  1.00  0.00     0.064 A 
ATOM     88  C   UNL     1     -13.418   8.912   3.076  1.00  0.00     0.173 A 
ATOM     89  C   UNL     1     -11.508  10.321   3.459  1.00  0.00     0.173 A 
ATOM     90  F   UNL     1     -13.974   7.702   2.918  1.00  0.00    -0.203 F 
ATOM     91  C   UNL     1     -14.221  10.042   2.947  1.00  0.00     0.198 A 
ATOM     92  C   UNL     1     -12.319  11.447   3.363  1.00  0.00     0.198 A 
ATOM     93  F   UNL     1     -10.198  10.489   3.699  1.00  0.00    -0.203 F 
ATOM     94  F   UNL     1     -15.523   9.908   2.662  1.00  0.00    -0.200 F 
ATOM     95  C   UNL     1     -13.673  11.308   3.100  1.00  0.00     0.200 A 
ATOM     96  F   UNL     1     -11.790  12.668   3.524  1.00  0.00    -0.200 F 
ATOM     97  F   UNL     1     -14.450  12.394   2.985  1.00  0.00    -0.200 F 
ENDBRANCH  64  87
ENDBRANCH  38  39
ENDBRANCH  31  33
ENDBRANCH  30  31
ENDBRANCH  29  30
ENDBRANCH  28  29
ENDBRANCH  27  28
ENDBRANCH  26  27
ENDBRANCH   1  26
TORSDOF 20
