REMARK SMILES O=C(OCCOCCOCCOC(=O)[C@@H]1Cc2[nH]cnc2CN1C(=O)NCC(F)(F)F)c1ccc(-c2c3nc(c(-c4c(F)c(F)c(F)c(F)c4F)c4ccc([nH]4)c(-c4c(F)c(F)c(F)c(F)c4F)c4nc(c(-c5c(F)c(F)c(F)c(F)c5F)c5ccc2[nH]5)C=C4)C=C3)cc1
REMARK SMILES IDX 8 1 7 2 6 3 5 4 4 5 3 6 2 7 1 8 32 9 33 10 94 11 34 12 93 13
REMARK SMILES IDX 35 14 36 15 37 16 87 17 38 18 92 19 86 20 88 21 39 22 91 23
REMARK SMILES IDX 85 24 84 25 40 27 72 28 52 29 71 30 53 31 56 32 70 33 89 34
REMARK SMILES IDX 54 35 55 36 69 38 90 39 57 40 41 41 42 42 50 43 43 44 44 45
REMARK SMILES IDX 48 46 51 47 45 48 46 49 49 50 47 51 73 52 74 53 82 54 75 55
REMARK SMILES IDX 76 56 80 57 83 58 77 59 78 60 81 61 79 62 58 63 59 64 67 65
REMARK SMILES IDX 60 66 61 67 65 68 68 69 62 70 63 71 66 72 64 73 9 74 10 75
REMARK SMILES IDX 11 76 12 77 13 78 14 79 15 80 16 81 23 82 17 83 22 84 18 85
REMARK SMILES IDX 21 86 19 87 20 89 24 90 25 91 26 92 27 94 28 95 29 96 30 97
REMARK SMILES IDX 31 98
REMARK H PARENT 88 26 56 37 18 88 26 93
REMARK Flexibility Score: inf
ROOT
ATOM      1  C   UNL     1      -0.326  -0.492  -2.700  1.00  0.00     0.188 C 
ENDROOT
BRANCH   1   2
ATOM      2  C   UNL     1       0.266  -1.904  -2.494  1.00  0.00     0.188 C 
BRANCH   2   3
ATOM      3  O   UNL     1      -0.358  -2.950  -3.190  1.00  0.00    -0.376 OA
BRANCH   3   4
ATOM      4  C   UNL     1      -1.123  -3.933  -2.518  1.00  0.00     0.202 C 
BRANCH   4   5
ATOM      5  C   UNL     1      -2.033  -3.602  -1.326  1.00  0.00     0.261 C 
BRANCH   5   6
ATOM      6  O   UNL     1      -1.847  -2.336  -0.688  1.00  0.00    -0.460 OA
BRANCH   6   7
ATOM      7  C   UNL     1      -1.090  -1.976   0.365  1.00  0.00     0.338 C 
ATOM      8  O   UNL     1      -1.278  -0.872   0.874  1.00  0.00    -0.246 OA
BRANCH   7   9
ATOM      9  C   UNL     1       0.086  -2.752   0.851  1.00  0.00     0.060 A 
ATOM     10  C   UNL     1       0.269  -4.133   0.763  1.00  0.00     0.016 A 
ATOM     11  C   UNL     1       1.069  -1.974   1.501  1.00  0.00     0.016 A 
ATOM     12  C   UNL     1       1.291  -4.739   1.480  1.00  0.00     0.010 A 
ATOM     13  C   UNL     1       2.095  -2.570   2.207  1.00  0.00     0.010 A 
ATOM     14  C   UNL     1       2.132  -3.954   2.268  1.00  0.00    -0.014 A 
BRANCH  14  15
ATOM     15  C   UNL     1       3.019  -4.623   3.200  1.00  0.00     0.031 A 
ATOM     16  C   UNL     1       4.184  -5.302   2.587  1.00  0.00     0.074 A 
ATOM     17  C   UNL     1       2.800  -4.546   4.528  1.00  0.00     0.049 A 
ATOM     18  N   UNL     1       4.444  -6.567   2.567  1.00  0.00    -0.248 NA
ATOM     19  C   UNL     1       5.114  -4.485   1.794  1.00  0.00     0.031 C 
ATOM     20  C   UNL     1       1.840  -3.699   5.243  1.00  0.00     0.029 A 
ATOM     21  N   UNL     1       3.469  -5.161   5.539  1.00  0.00    -0.354 N 
ATOM     22  C   UNL     1       5.668  -6.696   1.914  1.00  0.00     0.074 A 
ATOM     23  C   UNL     1       5.951  -5.413   1.326  1.00  0.00     0.031 C 
ATOM     24  C   UNL     1       2.150  -3.682   6.560  1.00  0.00     0.029 A 
ATOM     25  C   UNL     1       3.233  -4.618   6.796  1.00  0.00     0.049 A 
ATOM     26  H   UNL     1       4.069  -5.928   5.393  1.00  0.00     0.167 HD
ATOM     27  C   UNL     1       6.460  -7.786   2.110  1.00  0.00     0.037 A 
ATOM     28  C   UNL     1       3.950  -4.875   7.919  1.00  0.00     0.037 A 
ATOM     29  C   UNL     1       5.711  -8.881   2.669  1.00  0.00     0.049 A 
ATOM     30  C   UNL     1       4.678  -6.153   7.697  1.00  0.00     0.074 A 
ATOM     31  C   UNL     1       4.638  -9.639   2.242  1.00  0.00     0.029 A 
ATOM     32  N   UNL     1       5.815  -9.111   4.018  1.00  0.00    -0.354 N 
ATOM     33  N   UNL     1       4.085  -7.311   7.601  1.00  0.00    -0.248 NA
ATOM     34  C   UNL     1       6.001  -6.077   7.093  1.00  0.00     0.031 C 
ATOM     35  C   UNL     1       3.865  -9.875   3.417  1.00  0.00     0.029 A 
ATOM     36  C   UNL     1       4.545  -9.309   4.495  1.00  0.00     0.049 A 
ATOM     37  H   UNL     1       6.646  -9.130   4.545  1.00  0.00     0.167 HD
ATOM     38  C   UNL     1       4.752  -7.967   6.577  1.00  0.00     0.074 A 
ATOM     39  C   UNL     1       5.966  -7.186   6.348  1.00  0.00     0.031 C 
ATOM     40  C   UNL     1       4.120  -8.904   5.812  1.00  0.00     0.037 A 
BRANCH  27  41
ATOM     41  C   UNL     1       7.968  -7.748   2.154  1.00  0.00     0.064 A 
ATOM     42  C   UNL     1       8.681  -8.961   2.248  1.00  0.00     0.173 A 
ATOM     43  C   UNL     1       8.714  -6.582   2.429  1.00  0.00     0.173 A 
ATOM     44  F   UNL     1       8.069 -10.133   2.018  1.00  0.00    -0.203 F 
ATOM     45  C   UNL     1      10.009  -9.005   2.679  1.00  0.00     0.198 A 
ATOM     46  C   UNL     1      10.054  -6.626   2.807  1.00  0.00     0.198 A 
ATOM     47  F   UNL     1       8.155  -5.366   2.459  1.00  0.00    -0.203 F 
ATOM     48  F   UNL     1      10.603 -10.188   2.885  1.00  0.00    -0.200 F 
ATOM     49  C   UNL     1      10.692  -7.838   2.968  1.00  0.00     0.200 A 
ATOM     50  F   UNL     1      10.693  -5.484   3.098  1.00  0.00    -0.200 F 
ATOM     51  F   UNL     1      11.941  -7.879   3.447  1.00  0.00    -0.200 F 
ENDBRANCH  27  41
BRANCH  28  52
ATOM     52  C   UNL     1       4.327  -3.917   8.988  1.00  0.00     0.064 A 
ATOM     53  C   UNL     1       4.813  -4.363  10.228  1.00  0.00     0.173 A 
ATOM     54  C   UNL     1       4.477  -2.542   8.717  1.00  0.00     0.173 A 
ATOM     55  F   UNL     1       4.756  -5.665  10.545  1.00  0.00    -0.203 F 
ATOM     56  C   UNL     1       5.429  -3.489  11.132  1.00  0.00     0.198 A 
ATOM     57  C   UNL     1       5.085  -1.671   9.621  1.00  0.00     0.198 A 
ATOM     58  F   UNL     1       4.126  -2.033   7.528  1.00  0.00    -0.203 F 
ATOM     59  F   UNL     1       5.935  -3.961  12.280  1.00  0.00    -0.200 F 
ATOM     60  C   UNL     1       5.573  -2.146  10.823  1.00  0.00     0.200 A 
ATOM     61  F   UNL     1       5.253  -0.383   9.291  1.00  0.00    -0.200 F 
ATOM     62  F   UNL     1       6.216  -1.321  11.661  1.00  0.00    -0.200 F 
ENDBRANCH  28  52
BRANCH  40  63
ATOM     63  C   UNL     1       2.766  -9.377   6.258  1.00  0.00     0.064 A 
ATOM     64  C   UNL     1       1.632  -8.549   6.330  1.00  0.00     0.173 A 
ATOM     65  C   UNL     1       2.577 -10.749   6.466  1.00  0.00     0.173 A 
ATOM     66  F   UNL     1       1.710  -7.245   6.038  1.00  0.00    -0.203 F 
ATOM     67  C   UNL     1       0.376  -9.069   6.641  1.00  0.00     0.198 A 
ATOM     68  C   UNL     1       1.317 -11.271   6.740  1.00  0.00     0.198 A 
ATOM     69  F   UNL     1       3.613 -11.594   6.348  1.00  0.00    -0.203 F 
ATOM     70  F   UNL     1      -0.690  -8.258   6.709  1.00  0.00    -0.200 F 
ATOM     71  C   UNL     1       0.219 -10.431   6.838  1.00  0.00     0.200 A 
ATOM     72  F   UNL     1       1.160 -12.595   6.875  1.00  0.00    -0.200 F 
ATOM     73  F   UNL     1      -0.996 -10.939   7.090  1.00  0.00    -0.200 F 
ENDBRANCH  40  63
ENDBRANCH  14  15
ENDBRANCH   7   9
ENDBRANCH   6   7
ENDBRANCH   5   6
ENDBRANCH   4   5
ENDBRANCH   3   4
ENDBRANCH   2   3
ENDBRANCH   1   2
BRANCH   1  74
ATOM     74  O   UNL     1      -1.490  -0.224  -3.466  1.00  0.00    -0.376 OA
BRANCH  74  75
ATOM     75  C   UNL     1      -1.981  -1.146  -4.422  1.00  0.00     0.202 C 
BRANCH  75  76
ATOM     76  C   UNL     1      -1.139  -1.425  -5.679  1.00  0.00     0.261 C 
BRANCH  76  77
ATOM     77  O   UNL     1       0.254  -1.679  -5.434  1.00  0.00    -0.462 OA
BRANCH  77  78
ATOM     78  C   UNL     1       1.075  -0.606  -5.604  1.00  0.00     0.329 C 
ATOM     79  O   UNL     1       0.698   0.469  -6.036  1.00  0.00    -0.250 OA
BRANCH  78  80
ATOM     80  C   UNL     1       2.527  -0.937  -5.140  1.00  0.00     0.203 C 
ATOM     81  C   UNL     1       3.121   0.335  -4.452  1.00  0.00     0.093 C 
ATOM     82  N   UNL     1       3.454  -1.358  -6.215  1.00  0.00    -0.305 N 
ATOM     83  C   UNL     1       3.416   1.309  -5.537  1.00  0.00     0.042 A 
ATOM     84  C   UNL     1       3.501  -0.442  -7.385  1.00  0.00     0.180 C 
ATOM     85  N   UNL     1       3.324   2.667  -5.506  1.00  0.00    -0.348 N 
ATOM     86  C   UNL     1       3.580   0.967  -6.867  1.00  0.00     0.081 A 
ATOM     87  C   UNL     1       3.411   3.091  -6.807  1.00  0.00     0.197 A 
ATOM     88  H   UNL     1       3.215   3.232  -4.708  1.00  0.00     0.167 HD
ATOM     89  N   UNL     1       3.600   2.092  -7.645  1.00  0.00    -0.240 NA
BRANCH  82  90
ATOM     90  C   UNL     1       4.292  -2.426  -6.222  1.00  0.00     0.318 C 
ATOM     91  O   UNL     1       4.822  -2.827  -7.261  1.00  0.00    -0.249 OA
ATOM     92  N   UNL     1       4.649  -3.108  -5.117  1.00  0.00    -0.329 N 
ATOM     93  H   UNL     1       5.113  -3.944  -5.353  1.00  0.00     0.165 HD
BRANCH  92  94
ATOM     94  C   UNL     1       4.542  -2.956  -3.660  1.00  0.00     0.233 C 
BRANCH  94  95
ATOM     95  C   UNL     1       3.827  -4.106  -2.943  1.00  0.00     0.405 C 
ATOM     96  F   UNL     1       4.577  -5.230  -2.959  1.00  0.00    -0.169 F 
ATOM     97  F   UNL     1       3.604  -3.783  -1.646  1.00  0.00    -0.169 F 
ATOM     98  F   UNL     1       2.632  -4.386  -3.499  1.00  0.00    -0.169 F 
ENDBRANCH  94  95
ENDBRANCH  92  94
ENDBRANCH  82  90
ENDBRANCH  78  80
ENDBRANCH  77  78
ENDBRANCH  76  77
ENDBRANCH  75  76
ENDBRANCH  74  75
ENDBRANCH   1  74
TORSDOF 20
