REMARK SMILES Cc1c(C(=O)OCCOCCOCCOC(=O)c2ccc(-c3c4nc(c(-c5c(F)c(F)c(F)c(F)c5F)c5ccc([nH]5)c(-c5c(F)c(F)c(F)c(F)c5F)c5nc(c(-c6c(F)c(F)c(F)c(F)c6F)c6ccc3[nH]6)C=C5)C=C4)cc2)oc2c1/C(=N/NC(=O)C(c1ccccc1)c1ccccc1)CCC2
REMARK SMILES IDX 10 1 9 2 8 3 7 4 6 5 4 6 5 7 3 8 1 9 2 10 83 11 81 12 82 13
REMARK SMILES IDX 84 14 104 15 85 16 102 17 103 18 86 19 87 20 88 22 89 23
REMARK SMILES IDX 90 24 91 25 95 26 92 27 94 28 93 29 96 30 97 31 101 32 98 33
REMARK SMILES IDX 100 34 99 35 11 36 12 37 13 38 14 39 15 40 16 41 17 42 18 43
REMARK SMILES IDX 19 44 80 45 20 46 79 47 21 48 22 49 23 50 73 51 24 52 78 53
REMARK SMILES IDX 72 54 74 55 25 56 77 57 71 58 70 59 26 61 58 62 38 63 57 64
REMARK SMILES IDX 39 65 42 66 56 67 75 68 40 69 41 70 55 72 76 73 43 74 27 75
REMARK SMILES IDX 28 76 36 77 29 78 30 79 34 80 37 81 31 82 32 83 35 84 33 85
REMARK SMILES IDX 59 86 60 87 68 88 61 89 62 90 66 91 69 92 63 93 64 94 67 95
REMARK SMILES IDX 65 96 44 97 45 98 53 99 46 100 47 101 51 102 54 103 48 104
REMARK SMILES IDX 49 105 52 106 50 107
REMARK H PARENT 86 21 74 60 42 71
REMARK Flexibility Score: inf
ROOT
ATOM      1  C   UNL     1       4.182  -2.655   0.625  1.00  0.00     0.188 C 
ENDROOT
BRANCH   1   2
ATOM      2  O   UNL     1       4.999  -2.780   1.786  1.00  0.00    -0.376 OA
BRANCH   2   3
ATOM      3  C   UNL     1       4.807  -3.854   2.698  1.00  0.00     0.202 C 
BRANCH   3   4
ATOM      4  C   UNL     1       3.445  -4.064   3.379  1.00  0.00     0.261 C 
BRANCH   4   5
ATOM      5  O   UNL     1       2.314  -3.899   2.531  1.00  0.00    -0.457 OA
BRANCH   5   6
ATOM      6  C   UNL     1       1.694  -2.684   2.525  1.00  0.00     0.374 C 
ATOM      7  O   UNL     1       1.951  -1.749   3.275  1.00  0.00    -0.242 OA
BRANCH   6   8
ATOM      8  C   UNL     1       0.813  -2.648   1.381  1.00  0.00     0.215 A 
ATOM      9  C   UNL     1       0.718  -0.184   0.647  1.00  0.00     0.049 C 
ATOM     10  C   UNL     1       0.366  -1.623   0.540  1.00  0.00     0.012 A 
ATOM     11  C   UNL     1      -0.443  -2.268  -0.446  1.00  0.00     0.043 A 
ATOM     12  O   UNL     1       0.407  -3.860   0.901  1.00  0.00    -0.453 OA
ATOM     13  C   UNL     1      -0.279  -3.622  -0.218  1.00  0.00     0.114 A 
ATOM     14  C   UNL     1      -1.331  -1.852  -1.535  1.00  0.00     0.072 C 
ATOM     15  C   UNL     1      -0.769  -4.792  -0.979  1.00  0.00     0.076 C 
ATOM     16  N   UNL     1      -1.353  -0.601  -1.871  1.00  0.00    -0.177 NA
ATOM     17  C   UNL     1      -2.146  -3.013  -2.023  1.00  0.00     0.059 C 
ATOM     18  C   UNL     1      -1.355  -4.287  -2.289  1.00  0.00     0.014 C 
BRANCH  16  19
ATOM     19  N   UNL     1      -2.099   0.141  -2.752  1.00  0.00    -0.246 N 
ATOM     20  C   UNL     1      -3.231   0.102  -3.536  1.00  0.00     0.252 C 
ATOM     21  H   UNL     1      -1.669   1.019  -2.865  1.00  0.00     0.193 HD
ATOM     22  O   UNL     1      -3.519   1.178  -4.094  1.00  0.00    -0.272 OA
BRANCH  20  23
ATOM     23  C   UNL     1      -4.151  -1.123  -3.807  1.00  0.00     0.140 C 
BRANCH  23  24
ATOM     24  C   UNL     1      -3.399  -2.078  -4.805  1.00  0.00    -0.031 A 
ATOM     25  C   UNL     1      -3.779  -3.403  -5.071  1.00  0.00     0.005 A 
ATOM     26  C   UNL     1      -2.187  -1.651  -5.410  1.00  0.00     0.005 A 
ATOM     27  C   UNL     1      -2.889  -4.301  -5.687  1.00  0.00     0.000 A 
ATOM     28  C   UNL     1      -1.307  -2.539  -6.032  1.00  0.00     0.000 A 
ATOM     29  C   UNL     1      -1.640  -3.879  -6.131  1.00  0.00     0.000 A 
ENDBRANCH  23  24
BRANCH  23  30
ATOM     30  C   UNL     1      -4.772  -1.575  -2.443  1.00  0.00    -0.031 A 
ATOM     31  C   UNL     1      -4.801  -0.650  -1.367  1.00  0.00     0.005 A 
ATOM     32  C   UNL     1      -5.270  -2.854  -2.154  1.00  0.00     0.005 A 
ATOM     33  C   UNL     1      -5.057  -1.040  -0.050  1.00  0.00     0.000 A 
ATOM     34  C   UNL     1      -5.543  -3.248  -0.830  1.00  0.00     0.000 A 
ATOM     35  C   UNL     1      -5.386  -2.356   0.225  1.00  0.00     0.000 A 
ENDBRANCH  23  30
ENDBRANCH  20  23
ENDBRANCH  16  19
ENDBRANCH   6   8
ENDBRANCH   5   6
ENDBRANCH   4   5
ENDBRANCH   3   4
ENDBRANCH   2   3
ENDBRANCH   1   2
BRANCH   1  36
ATOM     36  C   UNL     1       3.704  -3.891  -0.176  1.00  0.00     0.188 C 
BRANCH  36  37
ATOM     37  O   UNL     1       4.046  -5.123   0.423  1.00  0.00    -0.376 OA
BRANCH  37  38
ATOM     38  C   UNL     1       4.944  -5.990  -0.249  1.00  0.00     0.202 C 
BRANCH  38  39
ATOM     39  C   UNL     1       6.323  -5.492  -0.689  1.00  0.00     0.261 C 
BRANCH  39  40
ATOM     40  O   UNL     1       6.460  -4.085  -0.783  1.00  0.00    -0.460 OA
BRANCH  40  41
ATOM     41  C   UNL     1       6.172  -3.546  -1.984  1.00  0.00     0.338 C 
ATOM     42  O   UNL     1       5.689  -4.115  -2.948  1.00  0.00    -0.246 OA
BRANCH  41  43
ATOM     43  C   UNL     1       6.587  -2.135  -1.970  1.00  0.00     0.060 A 
ATOM     44  C   UNL     1       6.288  -1.379  -3.104  1.00  0.00     0.016 A 
ATOM     45  C   UNL     1       7.467  -1.674  -0.977  1.00  0.00     0.016 A 
ATOM     46  C   UNL     1       7.093  -0.301  -3.389  1.00  0.00     0.010 A 
ATOM     47  C   UNL     1       8.277  -0.603  -1.264  1.00  0.00     0.010 A 
ATOM     48  C   UNL     1       8.157  -0.027  -2.525  1.00  0.00    -0.014 A 
BRANCH  48  49
ATOM     49  C   UNL     1       9.272   0.703  -3.085  1.00  0.00     0.031 A 
ATOM     50  C   UNL     1       9.162   2.171  -3.073  1.00  0.00     0.074 A 
ATOM     51  C   UNL     1      10.357   0.033  -3.521  1.00  0.00     0.049 A 
ATOM     52  N   UNL     1       9.182   2.983  -4.078  1.00  0.00    -0.248 NA
ATOM     53  C   UNL     1       8.927   2.810  -1.771  1.00  0.00     0.031 C 
ATOM     54  C   UNL     1      10.701  -1.377  -3.298  1.00  0.00     0.029 A 
ATOM     55  N   UNL     1      11.446   0.517  -4.171  1.00  0.00    -0.354 N 
ATOM     56  C   UNL     1       9.119   4.255  -3.525  1.00  0.00     0.074 A 
ATOM     57  C   UNL     1       8.835   4.091  -2.122  1.00  0.00     0.031 C 
ATOM     58  C   UNL     1      12.003  -1.568  -3.605  1.00  0.00     0.029 A 
ATOM     59  C   UNL     1      12.537  -0.335  -4.157  1.00  0.00     0.049 A 
ATOM     60  H   UNL     1      11.459   1.396  -4.614  1.00  0.00     0.167 HD
ATOM     61  C   UNL     1       9.518   5.357  -4.212  1.00  0.00     0.037 A 
ATOM     62  C   UNL     1      13.809   0.004  -4.474  1.00  0.00     0.037 A 
ATOM     63  C   UNL     1       9.547   5.137  -5.630  1.00  0.00     0.049 A 
ATOM     64  C   UNL     1      13.758   1.266  -5.256  1.00  0.00     0.074 A 
ATOM     65  C   UNL     1       8.594   4.806  -6.574  1.00  0.00     0.029 A 
ATOM     66  N   UNL     1      10.758   4.927  -6.239  1.00  0.00    -0.354 N 
ATOM     67  N   UNL     1      13.272   1.368  -6.463  1.00  0.00    -0.248 NA
ATOM     68  C   UNL     1      13.870   2.520  -4.523  1.00  0.00     0.031 C 
ATOM     69  C   UNL     1       9.270   3.977  -7.515  1.00  0.00     0.029 A 
ATOM     70  C   UNL     1      10.596   3.868  -7.096  1.00  0.00     0.049 A 
ATOM     71  H   UNL     1      11.586   5.439  -6.090  1.00  0.00     0.167 HD
ATOM     72  C   UNL     1      12.656   2.611  -6.497  1.00  0.00     0.074 A 
ATOM     73  C   UNL     1      13.140   3.311  -5.313  1.00  0.00     0.031 C 
ATOM     74  C   UNL     1      11.600   2.856  -7.326  1.00  0.00     0.037 A 
BRANCH  61  75
ATOM     75  C   UNL     1      10.177   6.530  -3.549  1.00  0.00     0.064 A 
ATOM     76  C   UNL     1      10.287   7.752  -4.233  1.00  0.00     0.173 A 
ATOM     77  C   UNL     1      10.940   6.413  -2.365  1.00  0.00     0.173 A 
ATOM     78  F   UNL     1       9.641   7.944  -5.393  1.00  0.00    -0.203 F 
ATOM     79  C   UNL     1      11.126   8.772  -3.778  1.00  0.00     0.198 A 
ATOM     80  C   UNL     1      11.727   7.453  -1.883  1.00  0.00     0.198 A 
ATOM     81  F   UNL     1      11.033   5.256  -1.697  1.00  0.00    -0.203 F 
ATOM     82  F   UNL     1      11.285   9.879  -4.515  1.00  0.00    -0.200 F 
ATOM     83  C   UNL     1      11.841   8.624  -2.603  1.00  0.00     0.200 A 
ATOM     84  F   UNL     1      12.431   7.280  -0.755  1.00  0.00    -0.200 F 
ATOM     85  F   UNL     1      12.679   9.583  -2.190  1.00  0.00    -0.200 F 
ENDBRANCH  61  75
BRANCH  62  86
ATOM     86  C   UNL     1      15.045  -0.494  -3.828  1.00  0.00     0.064 A 
ATOM     87  C   UNL     1      16.294  -0.350  -4.448  1.00  0.00     0.173 A 
ATOM     88  C   UNL     1      15.058  -0.896  -2.476  1.00  0.00     0.173 A 
ATOM     89  F   UNL     1      16.370   0.079  -5.716  1.00  0.00    -0.203 F 
ATOM     90  C   UNL     1      17.486  -0.583  -3.754  1.00  0.00     0.198 A 
ATOM     91  C   UNL     1      16.245  -1.141  -1.789  1.00  0.00     0.198 A 
ATOM     92  F   UNL     1      13.922  -0.969  -1.766  1.00  0.00    -0.203 F 
ATOM     93  F   UNL     1      18.663  -0.380  -4.361  1.00  0.00    -0.200 F 
ATOM     94  C   UNL     1      17.460  -0.973  -2.424  1.00  0.00     0.200 A 
ATOM     95  F   UNL     1      16.205  -1.483  -0.493  1.00  0.00    -0.200 F 
ATOM     96  F   UNL     1      18.602  -1.146  -1.745  1.00  0.00    -0.200 F 
ENDBRANCH  62  86
BRANCH  74  97
ATOM     97  C   UNL     1      11.292   1.833  -8.382  1.00  0.00     0.064 A 
ATOM     98  C   UNL     1      10.839   0.536  -8.087  1.00  0.00     0.173 A 
ATOM     99  C   UNL     1      11.295   2.228  -9.725  1.00  0.00     0.173 A 
ATOM    100  F   UNL     1      10.708   0.126  -6.819  1.00  0.00    -0.203 F 
ATOM    101  C   UNL     1      10.446  -0.339  -9.098  1.00  0.00     0.198 A 
ATOM    102  C   UNL     1      10.869   1.364 -10.731  1.00  0.00     0.198 A 
ATOM    103  F   UNL     1      11.658   3.477 -10.058  1.00  0.00    -0.203 F 
ATOM    104  F   UNL     1      10.020  -1.573  -8.792  1.00  0.00    -0.200 F 
ATOM    105  C   UNL     1      10.454   0.079 -10.418  1.00  0.00     0.200 A 
ATOM    106  F   UNL     1      10.829   1.789 -12.002  1.00  0.00    -0.200 F 
ATOM    107  F   UNL     1      10.031  -0.745 -11.387  1.00  0.00    -0.200 F 
ENDBRANCH  74  97
ENDBRANCH  48  49
ENDBRANCH  41  43
ENDBRANCH  40  41
ENDBRANCH  39  40
ENDBRANCH  38  39
ENDBRANCH  37  38
ENDBRANCH  36  37
ENDBRANCH   1  36
TORSDOF 21
