REMARK SMILES Cc1cccc(-c2cc(C(=O)OCCOCCOCCOC(=O)c3ccc(-c4c5nc(c(-c6c(F)c(F)c(F)c(F)c6F)c6ccc([nH]6)c(-c6c(F)c(F)c(F)c(F)c6F)c6nc(c(-c7c(F)c(F)c(F)c(F)c7F)c7ccc4[nH]7)C=C6)C=C5)cc3)ccn2)c1
REMARK SMILES IDX 17 1 16 2 15 3 14 4 13 5 12 6 10 7 11 8 9 9 7 10 8 11 89 12
REMARK SMILES IDX 88 13 87 14 6 15 1 16 2 17 3 18 90 19 4 20 5 21 18 22 19 23
REMARK SMILES IDX 20 24 21 25 22 26 23 27 24 28 25 29 86 30 26 31 85 32 27 33
REMARK SMILES IDX 28 34 29 35 79 36 30 37 84 38 78 39 80 40 31 41 83 42 77 43
REMARK SMILES IDX 76 44 32 46 64 47 44 48 63 49 45 50 48 51 62 52 81 53 46 54
REMARK SMILES IDX 47 55 61 57 82 58 49 59 33 60 34 61 42 62 35 63 36 64 40 65
REMARK SMILES IDX 43 66 37 67 38 68 41 69 39 70 65 71 66 72 74 73 67 74 68 75
REMARK SMILES IDX 72 76 75 77 69 78 70 79 73 80 71 81 50 82 51 83 59 84 52 85
REMARK SMILES IDX 53 86 57 87 60 88 54 89 55 90 58 91 56 92
REMARK H PARENT 80 45 48 56
REMARK Flexibility Score: inf
ROOT
ATOM      1  C   UNL     1      -4.378   6.551  -6.269  1.00  0.00     0.188 C 
ENDROOT
BRANCH   1   2
ATOM      2  C   UNL     1      -3.425   7.341  -5.363  1.00  0.00     0.188 C 
BRANCH   2   3
ATOM      3  O   UNL     1      -2.049   6.955  -5.234  1.00  0.00    -0.376 OA
BRANCH   3   4
ATOM      4  C   UNL     1      -1.428   6.159  -6.242  1.00  0.00     0.202 C 
BRANCH   4   5
ATOM      5  C   UNL     1      -0.551   4.985  -5.668  1.00  0.00     0.261 C 
BRANCH   5   6
ATOM      6  O   UNL     1      -1.242   3.914  -4.899  1.00  0.00    -0.460 OA
BRANCH   6   7
ATOM      7  C   UNL     1      -0.664   3.525  -3.704  1.00  0.00     0.338 C 
ATOM      8  O   UNL     1       0.463   3.876  -3.381  1.00  0.00    -0.246 OA
BRANCH   7   9
ATOM      9  C   UNL     1      -1.511   2.633  -2.747  1.00  0.00     0.063 A 
ATOM     10  C   UNL     1      -1.541   0.630  -1.470  1.00  0.00     0.071 A 
ATOM     11  C   UNL     1      -1.171   1.313  -2.647  1.00  0.00     0.044 A 
ATOM     12  N   UNL     1      -2.359   1.075  -0.477  1.00  0.00    -0.256 NA
ATOM     13  C   UNL     1      -2.649   2.346  -0.517  1.00  0.00     0.112 A 
ATOM     14  C   UNL     1      -2.195   3.094  -1.585  1.00  0.00     0.036 A 
BRANCH  10  15
ATOM     15  C   UNL     1      -0.720  -0.438  -0.961  1.00  0.00     0.000 A 
ATOM     16  C   UNL     1       2.845  -0.833   0.257  1.00  0.00     0.044 C 
ATOM     17  C   UNL     1       1.409  -1.131  -0.037  1.00  0.00    -0.050 A 
ATOM     18  C   UNL     1       0.839  -2.381   0.233  1.00  0.00     0.003 A 
ATOM     19  C   UNL     1       0.619  -0.162  -0.637  1.00  0.00     0.013 A 
ATOM     20  C   UNL     1      -0.513  -2.630  -0.026  1.00  0.00     0.001 A 
ATOM     21  C   UNL     1      -1.299  -1.651  -0.608  1.00  0.00     0.010 A 
ENDBRANCH  10  15
ENDBRANCH   7   9
ENDBRANCH   6   7
ENDBRANCH   5   6
ENDBRANCH   4   5
ENDBRANCH   3   4
ENDBRANCH   2   3
ENDBRANCH   1   2
BRANCH   1  22
ATOM     22  O   UNL     1      -4.085   5.168  -6.180  1.00  0.00    -0.376 OA
BRANCH  22  23
ATOM     23  C   UNL     1      -4.871   4.295  -6.977  1.00  0.00     0.202 C 
BRANCH  23  24
ATOM     24  C   UNL     1      -6.278   4.066  -6.399  1.00  0.00     0.261 C 
BRANCH  24  25
ATOM     25  O   UNL     1      -6.168   3.498  -5.068  1.00  0.00    -0.460 OA
BRANCH  25  26
ATOM     26  C   UNL     1      -6.575   4.281  -4.029  1.00  0.00     0.338 C 
ATOM     27  O   UNL     1      -7.677   4.828  -3.956  1.00  0.00    -0.246 OA
BRANCH  26  28
ATOM     28  C   UNL     1      -5.434   4.584  -3.103  1.00  0.00     0.060 A 
ATOM     29  C   UNL     1      -5.505   5.349  -1.929  1.00  0.00     0.016 A 
ATOM     30  C   UNL     1      -4.176   4.354  -3.590  1.00  0.00     0.016 A 
ATOM     31  C   UNL     1      -4.314   5.880  -1.306  1.00  0.00     0.010 A 
ATOM     32  C   UNL     1      -3.127   5.159  -3.142  1.00  0.00     0.010 A 
ATOM     33  C   UNL     1      -3.068   5.829  -1.933  1.00  0.00    -0.014 A 
BRANCH  33  34
ATOM     34  C   UNL     1      -1.707   6.448  -1.573  1.00  0.00     0.031 A 
ATOM     35  C   UNL     1      -0.332   5.866  -0.981  1.00  0.00     0.074 A 
ATOM     36  C   UNL     1      -1.688   7.729  -2.001  1.00  0.00     0.049 A 
ATOM     37  N   UNL     1       0.633   6.649  -0.547  1.00  0.00    -0.248 NA
ATOM     38  C   UNL     1       0.127   4.479  -0.713  1.00  0.00     0.031 C 
ATOM     39  C   UNL     1      -0.571   8.646  -2.123  1.00  0.00     0.029 A 
ATOM     40  N   UNL     1      -2.823   8.553  -2.147  1.00  0.00    -0.354 N 
ATOM     41  C   UNL     1       1.785   5.888  -0.330  1.00  0.00     0.074 A 
ATOM     42  C   UNL     1       1.359   4.559  -0.223  1.00  0.00     0.031 C 
ATOM     43  C   UNL     1      -1.039   9.887  -1.915  1.00  0.00     0.029 A 
ATOM     44  C   UNL     1      -2.444   9.768  -1.557  1.00  0.00     0.049 A 
ATOM     45  H   UNL     1      -3.684   8.327  -2.568  1.00  0.00     0.167 HD
ATOM     46  C   UNL     1       3.036   6.410  -0.437  1.00  0.00     0.037 A 
ATOM     47  C   UNL     1      -3.041  10.184  -0.403  1.00  0.00     0.037 A 
ATOM     48  C   UNL     1       2.943   7.827  -0.206  1.00  0.00     0.049 A 
ATOM     49  C   UNL     1      -2.057  10.407   0.723  1.00  0.00     0.074 A 
ATOM     50  C   UNL     1       2.954   8.946  -1.008  1.00  0.00     0.029 A 
ATOM     51  N   UNL     1       2.426   8.206   1.018  1.00  0.00    -0.354 N 
ATOM     52  N   UNL     1      -0.800  10.064   0.659  1.00  0.00    -0.248 NA
ATOM     53  C   UNL     1      -2.390  11.010   2.010  1.00  0.00     0.031 C 
ATOM     54  C   UNL     1       2.237   9.960  -0.303  1.00  0.00     0.029 A 
ATOM     55  C   UNL     1       1.868   9.461   0.937  1.00  0.00     0.049 A 
ATOM     56  H   UNL     1       2.453   7.656   1.833  1.00  0.00     0.167 HD
ATOM     57  C   UNL     1      -0.182  10.316   1.849  1.00  0.00     0.074 A 
ATOM     58  C   UNL     1      -1.210  10.942   2.655  1.00  0.00     0.031 C 
ATOM     59  C   UNL     1       1.107   9.936   2.085  1.00  0.00     0.037 A 
BRANCH  46  60
ATOM     60  C   UNL     1       4.300   5.679  -0.894  1.00  0.00     0.064 A 
ATOM     61  C   UNL     1       5.501   6.411  -1.041  1.00  0.00     0.173 A 
ATOM     62  C   UNL     1       4.385   4.343  -1.363  1.00  0.00     0.173 A 
ATOM     63  F   UNL     1       5.589   7.682  -0.625  1.00  0.00    -0.203 F 
ATOM     64  C   UNL     1       6.650   5.880  -1.647  1.00  0.00     0.198 A 
ATOM     65  C   UNL     1       5.551   3.799  -1.923  1.00  0.00     0.198 A 
ATOM     66  F   UNL     1       3.348   3.501  -1.351  1.00  0.00    -0.203 F 
ATOM     67  F   UNL     1       7.729   6.655  -1.821  1.00  0.00    -0.200 F 
ATOM     68  C   UNL     1       6.676   4.574  -2.088  1.00  0.00     0.200 A 
ATOM     69  F   UNL     1       5.559   2.520  -2.332  1.00  0.00    -0.200 F 
ATOM     70  F   UNL     1       7.769   4.069  -2.677  1.00  0.00    -0.200 F 
ENDBRANCH  46  60
BRANCH  47  71
ATOM     71  C   UNL     1      -4.487   9.801  -0.311  1.00  0.00     0.064 A 
ATOM     72  C   UNL     1      -5.332  10.198  -1.374  1.00  0.00     0.173 A 
ATOM     73  C   UNL     1      -4.990   8.820   0.551  1.00  0.00     0.173 A 
ATOM     74  F   UNL     1      -4.919  11.142  -2.236  1.00  0.00    -0.203 F 
ATOM     75  C   UNL     1      -6.545   9.563  -1.639  1.00  0.00     0.198 A 
ATOM     76  C   UNL     1      -6.231   8.206   0.302  1.00  0.00     0.198 A 
ATOM     77  F   UNL     1      -4.240   8.346   1.555  1.00  0.00    -0.203 F 
ATOM     78  F   UNL     1      -7.242   9.884  -2.739  1.00  0.00    -0.200 F 
ATOM     79  C   UNL     1      -6.985   8.549  -0.811  1.00  0.00     0.200 A 
ATOM     80  F   UNL     1      -6.634   7.181   1.070  1.00  0.00    -0.200 F 
ATOM     81  F   UNL     1      -8.096   7.863  -1.117  1.00  0.00    -0.200 F 
ENDBRANCH  47  71
BRANCH  59  82
ATOM     82  C   UNL     1       1.768   9.857   3.440  1.00  0.00     0.064 A 
ATOM     83  C   UNL     1       1.086   9.505   4.615  1.00  0.00     0.173 A 
ATOM     84  C   UNL     1       3.183   9.867   3.525  1.00  0.00     0.173 A 
ATOM     85  F   UNL     1      -0.247   9.376   4.634  1.00  0.00    -0.203 F 
ATOM     86  C   UNL     1       1.770   9.193   5.793  1.00  0.00     0.198 A 
ATOM     87  C   UNL     1       3.861   9.481   4.679  1.00  0.00     0.198 A 
ATOM     88  F   UNL     1       3.939  10.182   2.462  1.00  0.00    -0.203 F 
ATOM     89  F   UNL     1       1.078   8.876   6.896  1.00  0.00    -0.200 F 
ATOM     90  C   UNL     1       3.153   9.153   5.816  1.00  0.00     0.200 A 
ATOM     91  F   UNL     1       5.197   9.382   4.665  1.00  0.00    -0.200 F 
ATOM     92  F   UNL     1       3.801   8.771   6.925  1.00  0.00    -0.200 F 
ENDBRANCH  59  82
ENDBRANCH  33  34
ENDBRANCH  26  28
ENDBRANCH  25  26
ENDBRANCH  24  25
ENDBRANCH  23  24
ENDBRANCH  22  23
ENDBRANCH   1  22
TORSDOF 18
