REMARK SMILES CN(Cc1ccncc1)C(=O)c1cccn1CC(=O)OCCOCCOCCOC(=O)c1ccc(-c2c3nc(c(-c4c(F)c(F)c(F)c(F)c4F)c4ccc([nH]4)c(-c4c(F)c(F)c(F)c(F)c4F)c4nc(c(-c5c(F)c(F)c(F)c(F)c5F)c5ccc2[nH]5)C=C4)C=C3)cc1
REMARK SMILES IDX 23 1 22 2 21 3 20 4 18 5 19 6 17 7 16 8 12 9 13 10 14 11
REMARK SMILES IDX 15 12 10 13 11 14 2 15 1 16 3 17 4 18 5 19 9 20 6 21 8 22
REMARK SMILES IDX 7 23 24 24 25 25 26 26 27 27 28 28 29 29 30 30 31 31 32 32
REMARK SMILES IDX 33 33 94 34 34 35 93 36 35 37 36 38 37 39 87 40 38 41 92 42
REMARK SMILES IDX 86 43 88 44 39 45 91 46 85 47 84 48 40 50 72 51 52 52 71 53
REMARK SMILES IDX 53 54 56 55 70 56 89 57 54 58 55 59 69 61 90 62 57 63 41 64
REMARK SMILES IDX 42 65 50 66 43 67 44 68 48 69 51 70 45 71 46 72 49 73 47 74
REMARK SMILES IDX 73 75 74 76 82 77 75 78 76 79 80 80 83 81 77 82 78 83 81 84
REMARK SMILES IDX 79 85 58 86 59 87 67 88 60 89 61 90 65 91 68 92 62 93 63 94
REMARK SMILES IDX 66 95 64 96
REMARK H PARENT 88 49 56 60
REMARK Flexibility Score: inf
ROOT
ATOM      1  O   UNL     1       4.215   7.721  -0.106  1.00  0.00    -0.376 OA
ENDROOT
BRANCH   1   2
ATOM      2  C   UNL     1       4.571   6.953  -1.240  1.00  0.00     0.202 C 
BRANCH   2   3
ATOM      3  C   UNL     1       4.577   5.430  -1.021  1.00  0.00     0.261 C 
BRANCH   3   4
ATOM      4  O   UNL     1       3.587   4.927  -0.092  1.00  0.00    -0.462 OA
BRANCH   4   5
ATOM      5  C   UNL     1       4.016   4.677   1.169  1.00  0.00     0.326 C 
ATOM      6  O   UNL     1       5.194   4.774   1.512  1.00  0.00    -0.250 OA
BRANCH   5   7
ATOM      7  C   UNL     1       2.968   4.234   2.164  1.00  0.00     0.244 C 
BRANCH   7   8
ATOM      8  N   UNL     1       1.537   4.387   1.868  1.00  0.00    -0.332 N 
ATOM      9  C   UNL     1       0.651   3.386   1.478  1.00  0.00     0.107 A 
ATOM     10  C   UNL     1      -0.623   3.882   1.727  1.00  0.00     0.033 A 
ATOM     11  C   UNL     1      -0.528   5.219   2.156  1.00  0.00     0.020 A 
ATOM     12  C   UNL     1       0.811   5.493   2.276  1.00  0.00     0.087 A 
BRANCH   9  13
ATOM     13  C   UNL     1       1.010   2.026   1.103  1.00  0.00     0.270 C 
ATOM     14  O   UNL     1       1.875   1.413   1.728  1.00  0.00    -0.267 OA
BRANCH  13  15
ATOM     15  N   UNL     1       0.351   1.407   0.030  1.00  0.00    -0.336 N 
ATOM     16  C   UNL     1       0.667   0.005  -0.192  1.00  0.00     0.147 C 
BRANCH  15  17
ATOM     17  C   UNL     1      -0.339   2.117  -1.051  1.00  0.00     0.155 C 
BRANCH  17  18
ATOM     18  C   UNL     1      -1.807   2.374  -0.805  1.00  0.00    -0.026 A 
ATOM     19  C   UNL     1      -2.341   3.641  -1.080  1.00  0.00     0.025 A 
ATOM     20  C   UNL     1      -2.664   1.399  -0.286  1.00  0.00     0.025 A 
ATOM     21  C   UNL     1      -3.666   3.895  -0.761  1.00  0.00     0.111 A 
ATOM     22  C   UNL     1      -3.979   1.748  -0.009  1.00  0.00     0.111 A 
ATOM     23  N   UNL     1      -4.495   2.976  -0.226  1.00  0.00    -0.265 NA
ENDBRANCH  17  18
ENDBRANCH  15  17
ENDBRANCH  13  15
ENDBRANCH   9  13
ENDBRANCH   7   8
ENDBRANCH   5   7
ENDBRANCH   4   5
ENDBRANCH   3   4
ENDBRANCH   2   3
ENDBRANCH   1   2
BRANCH   1  24
ATOM     24  C   UNL     1       2.842   7.795   0.274  1.00  0.00     0.188 C 
BRANCH  24  25
ATOM     25  C   UNL     1       1.734   7.057  -0.510  1.00  0.00     0.188 C 
BRANCH  25  26
ATOM     26  O   UNL     1       1.901   7.098  -1.921  1.00  0.00    -0.376 OA
BRANCH  26  27
ATOM     27  C   UNL     1       0.799   7.583  -2.668  1.00  0.00     0.202 C 
BRANCH  27  28
ATOM     28  C   UNL     1       0.831   9.106  -2.739  1.00  0.00     0.261 C 
BRANCH  28  29
ATOM     29  O   UNL     1       0.823   9.729  -1.456  1.00  0.00    -0.460 OA
BRANCH  29  30
ATOM     30  C   UNL     1      -0.275   9.493  -0.735  1.00  0.00     0.338 C 
ATOM     31  O   UNL     1      -1.187   8.684  -0.970  1.00  0.00    -0.246 OA
BRANCH  30  32
ATOM     32  C   UNL     1      -0.368  10.441   0.350  1.00  0.00     0.060 A 
ATOM     33  C   UNL     1      -1.129  10.055   1.458  1.00  0.00     0.016 A 
ATOM     34  C   UNL     1      -0.134  11.774  -0.001  1.00  0.00     0.016 A 
ATOM     35  C   UNL     1      -1.851  11.025   2.107  1.00  0.00     0.010 A 
ATOM     36  C   UNL     1      -0.900  12.732   0.606  1.00  0.00     0.010 A 
ATOM     37  C   UNL     1      -1.785  12.334   1.617  1.00  0.00    -0.014 A 
BRANCH  37  38
ATOM     38  C   UNL     1      -2.588  13.359   2.272  1.00  0.00     0.031 A 
ATOM     39  C   UNL     1      -1.790  14.008   3.404  1.00  0.00     0.074 A 
ATOM     40  C   UNL     1      -3.835  13.538   1.741  1.00  0.00     0.049 A 
ATOM     41  N   UNL     1      -2.196  14.755   4.378  1.00  0.00    -0.248 NA
ATOM     42  C   UNL     1      -0.316  13.773   3.490  1.00  0.00     0.031 C 
ATOM     43  C   UNL     1      -4.391  12.775   0.597  1.00  0.00     0.029 A 
ATOM     44  N   UNL     1      -4.887  14.376   2.038  1.00  0.00    -0.354 N 
ATOM     45  C   UNL     1      -1.047  15.261   5.018  1.00  0.00     0.074 A 
ATOM     46  C   UNL     1       0.072  14.538   4.507  1.00  0.00     0.031 C 
ATOM     47  C   UNL     1      -5.676  13.119   0.363  1.00  0.00     0.029 A 
ATOM     48  C   UNL     1      -6.075  14.158   1.290  1.00  0.00     0.049 A 
ATOM     49  H   UNL     1      -4.819  15.080   2.724  1.00  0.00     0.167 HD
ATOM     50  C   UNL     1      -1.084  16.361   5.818  1.00  0.00     0.037 A 
ATOM     51  C   UNL     1      -7.298  14.756   1.440  1.00  0.00     0.037 A 
ATOM     52  C   UNL     1      -2.430  16.781   6.006  1.00  0.00     0.049 A 
ATOM     53  C   UNL     1      -7.059  15.852   2.390  1.00  0.00     0.074 A 
ATOM     54  C   UNL     1      -3.473  16.215   6.691  1.00  0.00     0.029 A 
ATOM     55  N   UNL     1      -2.923  17.710   5.123  1.00  0.00    -0.354 N 
ATOM     56  N   UNL     1      -6.420  16.948   2.104  1.00  0.00    -0.248 NA
ATOM     57  C   UNL     1      -7.472  15.677   3.787  1.00  0.00     0.031 C 
ATOM     58  C   UNL     1      -4.593  16.494   5.882  1.00  0.00     0.029 A 
ATOM     59  C   UNL     1      -4.225  17.370   4.854  1.00  0.00     0.049 A 
ATOM     60  H   UNL     1      -2.432  18.479   4.752  1.00  0.00     0.167 HD
ATOM     61  C   UNL     1      -6.075  17.414   3.349  1.00  0.00     0.074 A 
ATOM     62  C   UNL     1      -6.995  16.812   4.289  1.00  0.00     0.031 C 
ATOM     63  C   UNL     1      -4.792  17.784   3.592  1.00  0.00     0.037 A 
BRANCH  50  64
ATOM     64  C   UNL     1       0.007  17.278   6.278  1.00  0.00     0.064 A 
ATOM     65  C   UNL     1      -0.277  18.142   7.362  1.00  0.00     0.173 A 
ATOM     66  C   UNL     1       1.124  17.602   5.496  1.00  0.00     0.173 A 
ATOM     67  F   UNL     1      -1.299  17.886   8.194  1.00  0.00    -0.203 F 
ATOM     68  C   UNL     1       0.416  19.333   7.551  1.00  0.00     0.198 A 
ATOM     69  C   UNL     1       1.851  18.773   5.725  1.00  0.00     0.198 A 
ATOM     70  F   UNL     1       1.472  16.862   4.436  1.00  0.00    -0.203 F 
ATOM     71  F   UNL     1       0.010  20.197   8.493  1.00  0.00    -0.200 F 
ATOM     72  C   UNL     1       1.468  19.658   6.719  1.00  0.00     0.200 A 
ATOM     73  F   UNL     1       2.877  19.082   4.920  1.00  0.00    -0.200 F 
ATOM     74  F   UNL     1       2.088  20.839   6.847  1.00  0.00    -0.200 F 
ENDBRANCH  50  64
BRANCH  51  75
ATOM     75  C   UNL     1      -8.728  14.567   0.975  1.00  0.00     0.064 A 
ATOM     76  C   UNL     1      -9.174  13.664   0.002  1.00  0.00     0.173 A 
ATOM     77  C   UNL     1      -9.780  15.283   1.620  1.00  0.00     0.173 A 
ATOM     78  F   UNL     1      -8.312  13.004  -0.777  1.00  0.00    -0.203 F 
ATOM     79  C   UNL     1     -10.544  13.415  -0.215  1.00  0.00     0.198 A 
ATOM     80  C   UNL     1     -11.134  15.001   1.444  1.00  0.00     0.198 A 
ATOM     81  F   UNL     1      -9.533  16.293   2.464  1.00  0.00    -0.203 F 
ATOM     82  F   UNL     1     -10.918  12.532  -1.153  1.00  0.00    -0.200 F 
ATOM     83  C   UNL     1     -11.519  14.049   0.535  1.00  0.00     0.200 A 
ATOM     84  F   UNL     1     -12.048  15.646   2.183  1.00  0.00    -0.200 F 
ATOM     85  F   UNL     1     -12.817  13.757   0.374  1.00  0.00    -0.200 F 
ENDBRANCH  51  75
BRANCH  63  86
ATOM     86  C   UNL     1      -4.022  18.207   2.357  1.00  0.00     0.064 A 
ATOM     87  C   UNL     1      -4.425  19.341   1.635  1.00  0.00     0.173 A 
ATOM     88  C   UNL     1      -2.966  17.468   1.798  1.00  0.00     0.173 A 
ATOM     89  F   UNL     1      -5.412  20.116   2.108  1.00  0.00    -0.203 F 
ATOM     90  C   UNL     1      -3.818  19.698   0.427  1.00  0.00     0.198 A 
ATOM     91  C   UNL     1      -2.356  17.820   0.593  1.00  0.00     0.198 A 
ATOM     92  F   UNL     1      -2.494  16.389   2.415  1.00  0.00    -0.203 F 
ATOM     93  F   UNL     1      -4.229  20.792  -0.228  1.00  0.00    -0.200 F 
ATOM     94  C   UNL     1      -2.786  18.936  -0.096  1.00  0.00     0.200 A 
ATOM     95  F   UNL     1      -1.346  17.079   0.110  1.00  0.00    -0.200 F 
ATOM     96  F   UNL     1      -2.196  19.286  -1.248  1.00  0.00    -0.200 F 
ENDBRANCH  63  86
ENDBRANCH  37  38
ENDBRANCH  30  32
ENDBRANCH  29  30
ENDBRANCH  28  29
ENDBRANCH  27  28
ENDBRANCH  26  27
ENDBRANCH  25  26
ENDBRANCH  24  25
ENDBRANCH   1  24
TORSDOF 22
