REMARK SMILES COCCC(=O)N1Cc2ccccc2C[C@H]1C(=O)OCCOCCOCCOC(=O)c1ccc(-c2c3nc(c(-c4c(F)c(F)c(F)c(F)c4F)c4ccc([nH]4)c(-c4c(F)c(F)c(F)c(F)c4F)c4nc(c(-c5c(F)c(F)c(F)c(F)c5F)c5ccc2[nH]5)C=C4)C=C3)cc1
REMARK SMILES IDX 23 1 22 2 21 3 20 4 19 5 17 6 18 7 16 8 7 9 8 10 9 11 15 12
REMARK SMILES IDX 10 13 14 14 11 15 13 16 12 17 5 18 6 19 4 20 3 21 2 22 1 23
REMARK SMILES IDX 24 24 25 25 26 26 27 27 28 28 29 29 30 30 31 31 32 32 93 33
REMARK SMILES IDX 33 34 92 35 34 36 35 37 36 38 86 39 37 40 91 41 85 42 87 43
REMARK SMILES IDX 38 44 90 45 84 46 83 47 39 49 71 50 51 51 70 52 52 53 55 54
REMARK SMILES IDX 69 55 88 56 53 57 54 58 68 60 89 61 56 62 40 63 41 64 49 65
REMARK SMILES IDX 42 66 43 67 47 68 50 69 44 70 45 71 48 72 46 73 72 74 73 75
REMARK SMILES IDX 81 76 74 77 75 78 79 79 82 80 76 81 77 82 80 83 78 84 57 85
REMARK SMILES IDX 58 86 66 87 59 88 60 89 64 90 67 91 61 92 62 93 65 94 63 95
REMARK H PARENT 87 48 55 59
REMARK Flexibility Score: inf
ROOT
ATOM      1  C   UNL     1      -0.386  -0.461   3.737  1.00  0.00     0.188 C 
ENDROOT
BRANCH   1   2
ATOM      2  O   UNL     1      -1.703  -0.071   4.105  1.00  0.00    -0.376 OA
BRANCH   2   3
ATOM      3  C   UNL     1      -2.775  -0.409   3.231  1.00  0.00     0.202 C 
BRANCH   3   4
ATOM      4  C   UNL     1      -2.826   0.337   1.890  1.00  0.00     0.261 C 
BRANCH   4   5
ATOM      5  O   UNL     1      -1.924  -0.148   0.850  1.00  0.00    -0.462 OA
BRANCH   5   6
ATOM      6  C   UNL     1      -1.061   0.790   0.373  1.00  0.00     0.329 C 
ATOM      7  O   UNL     1      -0.920   1.892   0.908  1.00  0.00    -0.250 OA
BRANCH   6   8
ATOM      8  C   UNL     1      -0.385   0.506  -0.995  1.00  0.00     0.199 C 
ATOM      9  N   UNL     1      -0.184  -0.808  -1.723  1.00  0.00    -0.324 N 
ATOM     10  C   UNL     1      -0.590  -0.828  -3.131  1.00  0.00     0.156 C 
ATOM     11  C   UNL     1       0.010   0.364  -3.834  1.00  0.00    -0.025 A 
ATOM     12  C   UNL     1      -0.983   1.599  -1.939  1.00  0.00     0.073 C 
ATOM     13  C   UNL     1       0.824   0.271  -4.962  1.00  0.00     0.006 A 
ATOM     14  C   UNL     1      -0.210   1.613  -3.231  1.00  0.00    -0.040 A 
ATOM     15  C   UNL     1       1.393   1.427  -5.498  1.00  0.00     0.000 A 
ATOM     16  C   UNL     1       0.346   2.769  -3.775  1.00  0.00     0.004 A 
ATOM     17  C   UNL     1       1.148   2.672  -4.911  1.00  0.00     0.000 A 
BRANCH   9  18
ATOM     18  C   UNL     1       0.972  -1.574  -1.492  1.00  0.00     0.225 C 
ATOM     19  O   UNL     1       1.728  -1.958  -2.387  1.00  0.00    -0.275 OA
BRANCH  18  20
ATOM     20  C   UNL     1       1.208  -2.040  -0.094  1.00  0.00     0.128 C 
BRANCH  20  21
ATOM     21  C   UNL     1       2.326  -1.292   0.600  1.00  0.00     0.169 C 
BRANCH  21  22
ATOM     22  O   UNL     1       2.000   0.068   0.844  1.00  0.00    -0.384 OA
ATOM     23  C   UNL     1       2.959   0.938   0.244  1.00  0.00     0.194 C 
ENDBRANCH  21  22
ENDBRANCH  20  21
ENDBRANCH  18  20
ENDBRANCH   9  18
ENDBRANCH   6   8
ENDBRANCH   5   6
ENDBRANCH   4   5
ENDBRANCH   3   4
ENDBRANCH   2   3
ENDBRANCH   1   2
BRANCH   1  24
ATOM     24  C   UNL     1      -0.231  -1.812   3.047  1.00  0.00     0.188 C 
BRANCH  24  25
ATOM     25  O   UNL     1      -0.978  -2.886   3.614  1.00  0.00    -0.376 OA
BRANCH  25  26
ATOM     26  C   UNL     1      -0.995  -4.031   2.741  1.00  0.00     0.202 C 
BRANCH  26  27
ATOM     27  C   UNL     1       0.066  -5.051   3.149  1.00  0.00     0.261 C 
BRANCH  27  28
ATOM     28  O   UNL     1       1.391  -4.489   3.116  1.00  0.00    -0.460 OA
BRANCH  28  29
ATOM     29  C   UNL     1       2.228  -4.881   2.124  1.00  0.00     0.338 C 
ATOM     30  O   UNL     1       1.968  -5.604   1.193  1.00  0.00    -0.246 OA
BRANCH  29  31
ATOM     31  C   UNL     1       3.521  -4.161   2.304  1.00  0.00     0.060 A 
ATOM     32  C   UNL     1       4.240  -3.770   1.169  1.00  0.00     0.016 A 
ATOM     33  C   UNL     1       3.996  -3.816   3.577  1.00  0.00     0.016 A 
ATOM     34  C   UNL     1       5.385  -2.974   1.302  1.00  0.00     0.010 A 
ATOM     35  C   UNL     1       5.170  -3.066   3.712  1.00  0.00     0.010 A 
ATOM     36  C   UNL     1       5.870  -2.634   2.575  1.00  0.00    -0.014 A 
BRANCH  36  37
ATOM     37  C   UNL     1       7.227  -2.044   2.712  1.00  0.00     0.031 A 
ATOM     38  C   UNL     1       8.402  -2.972   2.571  1.00  0.00     0.074 A 
ATOM     39  C   UNL     1       7.431  -0.735   2.952  1.00  0.00     0.049 A 
ATOM     40  N   UNL     1       9.683  -2.713   2.619  1.00  0.00    -0.248 NA
ATOM     41  C   UNL     1       8.081  -4.389   2.331  1.00  0.00     0.031 C 
ATOM     42  C   UNL     1       6.391   0.282   3.077  1.00  0.00     0.029 A 
ATOM     43  N   UNL     1       8.604  -0.039   3.137  1.00  0.00    -0.354 N 
ATOM     44  C   UNL     1      10.317  -3.923   2.377  1.00  0.00     0.074 A 
ATOM     45  C   UNL     1       9.285  -4.924   2.218  1.00  0.00     0.031 C 
ATOM     46  C   UNL     1       6.971   1.471   3.331  1.00  0.00     0.029 A 
ATOM     47  C   UNL     1       8.422   1.296   3.410  1.00  0.00     0.049 A 
ATOM     48  H   UNL     1       9.493  -0.459   3.078  1.00  0.00     0.167 HD
ATOM     49  C   UNL     1      11.641  -4.185   2.292  1.00  0.00     0.037 A 
ATOM     50  C   UNL     1       9.326   2.255   3.705  1.00  0.00     0.037 A 
ATOM     51  C   UNL     1      12.675  -3.217   2.529  1.00  0.00     0.049 A 
ATOM     52  C   UNL     1      10.798   1.906   3.739  1.00  0.00     0.074 A 
ATOM     53  C   UNL     1      14.046  -3.397   2.510  1.00  0.00     0.029 A 
ATOM     54  N   UNL     1      12.448  -1.889   2.859  1.00  0.00    -0.354 N 
ATOM     55  N   UNL     1      11.391   0.770   3.461  1.00  0.00    -0.248 NA
ATOM     56  C   UNL     1      11.728   2.979   4.127  1.00  0.00     0.031 C 
ATOM     57  C   UNL     1      14.648  -2.193   2.887  1.00  0.00     0.029 A 
ATOM     58  C   UNL     1      13.655  -1.245   3.075  1.00  0.00     0.049 A 
ATOM     59  H   UNL     1      11.561  -1.468   2.930  1.00  0.00     0.167 HD
ATOM     60  C   UNL     1      12.756   1.003   3.600  1.00  0.00     0.074 A 
ATOM     61  C   UNL     1      12.906   2.391   3.977  1.00  0.00     0.031 C 
ATOM     62  C   UNL     1      13.792   0.144   3.429  1.00  0.00     0.037 A 
BRANCH  49  63
ATOM     63  C   UNL     1      12.032  -5.596   1.970  1.00  0.00     0.064 A 
ATOM     64  C   UNL     1      11.819  -6.140   0.694  1.00  0.00     0.173 A 
ATOM     65  C   UNL     1      12.615  -6.415   2.947  1.00  0.00     0.173 A 
ATOM     66  F   UNL     1      11.242  -5.403  -0.267  1.00  0.00    -0.203 F 
ATOM     67  C   UNL     1      12.149  -7.463   0.417  1.00  0.00     0.198 A 
ATOM     68  C   UNL     1      12.971  -7.728   2.658  1.00  0.00     0.198 A 
ATOM     69  F   UNL     1      12.833  -5.943   4.183  1.00  0.00    -0.203 F 
ATOM     70  F   UNL     1      11.884  -7.980  -0.791  1.00  0.00    -0.200 F 
ATOM     71  C   UNL     1      12.730  -8.254   1.397  1.00  0.00     0.200 A 
ATOM     72  F   UNL     1      13.539  -8.490   3.603  1.00  0.00    -0.200 F 
ATOM     73  F   UNL     1      13.046  -9.529   1.130  1.00  0.00    -0.200 F 
ENDBRANCH  49  63
BRANCH  50  74
ATOM     74  C   UNL     1       8.888   3.646   4.017  1.00  0.00     0.064 A 
ATOM     75  C   UNL     1       9.249   4.724   3.193  1.00  0.00     0.173 A 
ATOM     76  C   UNL     1       8.171   3.939   5.187  1.00  0.00     0.173 A 
ATOM     77  F   UNL     1       9.967   4.505   2.081  1.00  0.00    -0.203 F 
ATOM     78  C   UNL     1       8.939   6.038   3.543  1.00  0.00     0.198 A 
ATOM     79  C   UNL     1       7.833   5.251   5.519  1.00  0.00     0.198 A 
ATOM     80  F   UNL     1       7.811   2.951   6.019  1.00  0.00    -0.203 F 
ATOM     81  F   UNL     1       9.359   7.051   2.773  1.00  0.00    -0.200 F 
ATOM     82  C   UNL     1       8.228   6.300   4.704  1.00  0.00     0.200 A 
ATOM     83  F   UNL     1       7.143   5.499   6.641  1.00  0.00    -0.200 F 
ATOM     84  F   UNL     1       7.940   7.563   5.045  1.00  0.00    -0.200 F 
ENDBRANCH  50  74
BRANCH  62  85
ATOM     85  C   UNL     1      15.187   0.683   3.591  1.00  0.00     0.064 A 
ATOM     86  C   UNL     1      15.703   1.044   4.844  1.00  0.00     0.173 A 
ATOM     87  C   UNL     1      16.041   0.776   2.480  1.00  0.00     0.173 A 
ATOM     88  F   UNL     1      14.928   0.984   5.937  1.00  0.00    -0.203 F 
ATOM     89  C   UNL     1      17.013   1.502   4.975  1.00  0.00     0.198 A 
ATOM     90  C   UNL     1      17.359   1.201   2.620  1.00  0.00     0.198 A 
ATOM     91  F   UNL     1      15.602   0.433   1.260  1.00  0.00    -0.203 F 
ATOM     92  F   UNL     1      17.470   1.884   6.175  1.00  0.00    -0.200 F 
ATOM     93  C   UNL     1      17.842   1.570   3.865  1.00  0.00     0.200 A 
ATOM     94  F   UNL     1      18.163   1.247   1.549  1.00  0.00    -0.200 F 
ATOM     95  F   UNL     1      19.106   1.996   3.996  1.00  0.00    -0.200 F 
ENDBRANCH  62  85
ENDBRANCH  36  37
ENDBRANCH  29  31
ENDBRANCH  28  29
ENDBRANCH  27  28
ENDBRANCH  26  27
ENDBRANCH  25  26
ENDBRANCH  24  25
ENDBRANCH   1  24
TORSDOF 21
