REMARK SMILES C=CC[NH+](CC(=O)OCCOCCOCCOC(=O)c1ccc(-c2c3nc(c(-c4c(F)c(F)c(F)c(F)c4F)c4ccc([nH]4)c(-c4c(F)c(F)c(F)c(F)c4F)c4nc(c(-c5c(F)c(F)c(F)c(F)c5F)c5ccc2[nH]5)C=C4)C=C3)cc1)Cc1cccc2ccccc12
REMARK SMILES IDX 12 1 11 2 10 3 9 4 8 5 6 6 7 7 5 8 4 9 3 11 2 12 1 13 83 14
REMARK SMILES IDX 84 15 85 16 93 17 86 18 88 19 92 20 87 21 89 22 91 23 90 24
REMARK SMILES IDX 13 25 14 26 15 27 16 28 17 29 18 30 19 31 20 32 21 33 82 34
REMARK SMILES IDX 22 35 81 36 23 37 24 38 25 39 75 40 26 41 80 42 74 43 76 44
REMARK SMILES IDX 27 45 79 46 73 47 72 48 28 50 60 51 40 52 59 53 41 54 44 55
REMARK SMILES IDX 58 56 77 57 42 58 43 59 57 61 78 62 45 63 29 64 30 65 38 66
REMARK SMILES IDX 31 67 32 68 36 69 39 70 33 71 34 72 37 73 35 74 61 75 62 76
REMARK SMILES IDX 70 77 63 78 64 79 68 80 71 81 65 82 66 83 69 84 67 85 46 86
REMARK SMILES IDX 47 87 55 88 48 89 49 90 53 91 56 92 50 93 51 94 54 95 52 96
REMARK H PARENT 4 10 76 49 44 60
REMARK Flexibility Score: inf
ROOT
ATOM      1  C   UNL     1      -3.941  -0.507   2.449  1.00  0.00     0.188 C 
ENDROOT
BRANCH   1   2
ATOM      2  O   UNL     1      -5.208  -0.887   1.887  1.00  0.00    -0.376 OA
BRANCH   2   3
ATOM      3  C   UNL     1      -5.586  -1.013   0.512  1.00  0.00     0.202 C 
BRANCH   3   4
ATOM      4  C   UNL     1      -5.330   0.029  -0.592  1.00  0.00     0.261 C 
BRANCH   4   5
ATOM      5  O   UNL     1      -4.106   0.740  -0.492  1.00  0.00    -0.459 OA
BRANCH   5   6
ATOM      6  C   UNL     1      -4.142   1.819   0.322  1.00  0.00     0.361 C 
ATOM      7  O   UNL     1      -5.162   2.261   0.841  1.00  0.00    -0.245 OA
BRANCH   6   8
ATOM      8  C   UNL     1      -2.758   2.401   0.576  1.00  0.00     0.387 C 
BRANCH   8   9
ATOM      9  N   UNL     1      -1.639   1.563   0.139  1.00  0.00    -0.319 N 
ATOM     10  H   UNL     1      -2.639   1.766   0.146  1.00  0.00     0.349 HD
BRANCH   9  11
ATOM     11  C   UNL     1      -1.127   1.628  -1.199  1.00  0.00     0.291 C 
BRANCH  11  12
ATOM     12  C   UNL     1       0.380   1.704  -1.179  1.00  0.00     0.025 C 
ATOM     13  C   UNL     1       1.180   0.639  -1.339  1.00  0.00     0.010 C 
ENDBRANCH  11  12
ENDBRANCH   9  11
BRANCH   9  14
ATOM     14  C   UNL     1      -0.990   0.662   1.051  1.00  0.00     0.300 C 
BRANCH  14  15
ATOM     15  C   UNL     1      -1.116  -0.934   0.851  1.00  0.00     0.014 A 
ATOM     16  C   UNL     1      -2.697  -1.626   0.476  1.00  0.00     0.010 A 
ATOM     17  C   UNL     1      -0.112  -1.629   2.110  1.00  0.00    -0.010 A 
ATOM     18  C   UNL     1      -3.480  -2.824   1.564  1.00  0.00     0.001 A 
ATOM     19  C   UNL     1      -0.800  -2.737   3.298  1.00  0.00    -0.018 A 
ATOM     20  C   UNL     1       1.258  -1.593   1.886  1.00  0.00     0.009 A 
ATOM     21  C   UNL     1      -2.616  -3.266   3.079  1.00  0.00     0.009 A 
ATOM     22  C   UNL     1       0.314  -3.216   4.044  1.00  0.00     0.009 A 
ATOM     23  C   UNL     1       2.047  -2.598   2.418  1.00  0.00     0.001 A 
ATOM     24  C   UNL     1       1.600  -3.357   3.487  1.00  0.00     0.001 A 
ENDBRANCH  14  15
ENDBRANCH   9  14
ENDBRANCH   8   9
ENDBRANCH   6   8
ENDBRANCH   5   6
ENDBRANCH   4   5
ENDBRANCH   3   4
ENDBRANCH   2   3
ENDBRANCH   1   2
BRANCH   1  25
ATOM     25  C   UNL     1      -2.409  -1.325   2.655  1.00  0.00     0.188 C 
BRANCH  25  26
ATOM     26  O   UNL     1      -1.571  -2.793   1.551  1.00  0.00    -0.376 OA
BRANCH  26  27
ATOM     27  C   UNL     1      -1.371  -4.484   1.690  1.00  0.00     0.202 C 
BRANCH  27  28
ATOM     28  C   UNL     1      -1.324  -5.484   3.141  1.00  0.00     0.261 C 
BRANCH  28  29
ATOM     29  O   UNL     1      -1.990  -5.060   4.457  1.00  0.00    -0.460 OA
BRANCH  29  30
ATOM     30  C   UNL     1      -1.464  -4.832   5.698  1.00  0.00     0.338 C 
ATOM     31  O   UNL     1      -0.508  -5.443   6.156  1.00  0.00    -0.246 OA
BRANCH  30  32
ATOM     32  C   UNL     1      -2.063  -3.608   6.466  1.00  0.00     0.060 A 
ATOM     33  C   UNL     1      -1.787  -2.240   6.195  1.00  0.00     0.016 A 
ATOM     34  C   UNL     1      -2.727  -3.829   7.667  1.00  0.00     0.016 A 
ATOM     35  C   UNL     1      -2.210  -1.151   6.994  1.00  0.00     0.010 A 
ATOM     36  C   UNL     1      -3.111  -2.748   8.512  1.00  0.00     0.010 A 
ATOM     37  C   UNL     1      -2.854  -1.400   8.192  1.00  0.00    -0.014 A 
BRANCH  37  38
ATOM     38  C   UNL     1      -3.083  -0.318   9.199  1.00  0.00     0.031 A 
ATOM     39  C   UNL     1      -2.093  -0.160  10.324  1.00  0.00     0.074 A 
ATOM     40  C   UNL     1      -4.161   0.490   9.168  1.00  0.00     0.049 A 
ATOM     41  N   UNL     1      -2.224   0.433  11.484  1.00  0.00    -0.248 NA
ATOM     42  C   UNL     1      -0.771  -0.764  10.102  1.00  0.00     0.031 C 
ATOM     43  C   UNL     1      -5.125   0.580   8.076  1.00  0.00     0.029 A 
ATOM     44  N   UNL     1      -4.647   1.364  10.118  1.00  0.00    -0.354 N 
ATOM     45  C   UNL     1      -1.025   0.221  12.156  1.00  0.00     0.074 A 
ATOM     46  C   UNL     1      -0.173  -0.537  11.263  1.00  0.00     0.031 C 
ATOM     47  C   UNL     1      -6.124   1.405   8.443  1.00  0.00     0.029 A 
ATOM     48  C   UNL     1      -5.900   1.850   9.818  1.00  0.00     0.049 A 
ATOM     49  H   UNL     1      -4.149   1.614  10.929  1.00  0.00     0.167 HD
ATOM     50  C   UNL     1      -0.681   0.599  13.412  1.00  0.00     0.037 A 
ATOM     51  C   UNL     1      -6.789   2.516  10.586  1.00  0.00     0.037 A 
ATOM     52  C   UNL     1      -1.542   1.351  14.292  1.00  0.00     0.049 A 
ATOM     53  C   UNL     1      -6.439   2.833  12.021  1.00  0.00     0.074 A 
ATOM     54  C   UNL     1      -1.306   1.765  15.592  1.00  0.00     0.029 A 
ATOM     55  N   UNL     1      -2.812   1.801  13.958  1.00  0.00    -0.354 N 
ATOM     56  N   UNL     1      -5.342   2.567  12.689  1.00  0.00    -0.248 NA
ATOM     57  C   UNL     1      -7.458   3.541  12.812  1.00  0.00     0.031 C 
ATOM     58  C   UNL     1      -2.455   2.410  16.064  1.00  0.00     0.029 A 
ATOM     59  C   UNL     1      -3.379   2.469  15.033  1.00  0.00     0.049 A 
ATOM     60  H   UNL     1      -3.247   1.666  13.085  1.00  0.00     0.167 HD
ATOM     61  C   UNL     1      -5.522   3.105  13.959  1.00  0.00     0.074 A 
ATOM     62  C   UNL     1      -6.830   3.726  13.963  1.00  0.00     0.031 C 
ATOM     63  C   UNL     1      -4.680   3.090  15.024  1.00  0.00     0.037 A 
BRANCH  50  64
ATOM     64  C   UNL     1       0.653   0.141  13.938  1.00  0.00     0.064 A 
ATOM     65  C   UNL     1       1.867   0.634  13.436  1.00  0.00     0.173 A 
ATOM     66  C   UNL     1       0.715  -0.803  14.977  1.00  0.00     0.173 A 
ATOM     67  F   UNL     1       1.871   1.528  12.435  1.00  0.00    -0.203 F 
ATOM     68  C   UNL     1       3.088   0.174  13.927  1.00  0.00     0.198 A 
ATOM     69  C   UNL     1       1.936  -1.233  15.490  1.00  0.00     0.198 A 
ATOM     70  F   UNL     1      -0.412  -1.306  15.503  1.00  0.00    -0.203 F 
ATOM     71  F   UNL     1       4.234   0.616  13.390  1.00  0.00    -0.200 F 
ATOM     72  C   UNL     1       3.122  -0.753  14.957  1.00  0.00     0.200 A 
ATOM     73  F   UNL     1       1.964  -2.117  16.498  1.00  0.00    -0.200 F 
ATOM     74  F   UNL     1       4.297  -1.191  15.431  1.00  0.00    -0.200 F 
ENDBRANCH  50  64
BRANCH  51  75
ATOM     75  C   UNL     1      -8.127   2.887  10.039  1.00  0.00     0.064 A 
ATOM     76  C   UNL     1      -8.493   4.231   9.872  1.00  0.00     0.173 A 
ATOM     77  C   UNL     1      -9.080   1.913   9.703  1.00  0.00     0.173 A 
ATOM     78  F   UNL     1      -7.638   5.205  10.218  1.00  0.00    -0.203 F 
ATOM     79  C   UNL     1      -9.758   4.585   9.402  1.00  0.00     0.198 A 
ATOM     80  C   UNL     1     -10.332   2.266   9.200  1.00  0.00     0.198 A 
ATOM     81  F   UNL     1      -8.795   0.611   9.861  1.00  0.00    -0.203 F 
ATOM     82  F   UNL     1     -10.097   5.878   9.305  1.00  0.00    -0.200 F 
ATOM     83  C   UNL     1     -10.673   3.602   9.056  1.00  0.00     0.200 A 
ATOM     84  F   UNL     1     -11.210   1.312   8.861  1.00  0.00    -0.200 F 
ATOM     85  F   UNL     1     -11.885   3.942   8.597  1.00  0.00    -0.200 F 
ENDBRANCH  51  75
BRANCH  63  86
ATOM     86  C   UNL     1      -5.122   3.827  16.261  1.00  0.00     0.064 A 
ATOM     87  C   UNL     1      -6.197   3.389  17.050  1.00  0.00     0.173 A 
ATOM     88  C   UNL     1      -4.455   4.997  16.661  1.00  0.00     0.173 A 
ATOM     89  F   UNL     1      -6.878   2.284  16.710  1.00  0.00    -0.203 F 
ATOM     90  C   UNL     1      -6.619   4.121  18.158  1.00  0.00     0.198 A 
ATOM     91  C   UNL     1      -4.854   5.703  17.793  1.00  0.00     0.198 A 
ATOM     92  F   UNL     1      -3.412   5.457  15.954  1.00  0.00    -0.203 F 
ATOM     93  F   UNL     1      -7.697   3.724  18.849  1.00  0.00    -0.200 F 
ATOM     94  C   UNL     1      -5.945   5.274  18.531  1.00  0.00     0.200 A 
ATOM     95  F   UNL     1      -4.188   6.806  18.162  1.00  0.00    -0.200 F 
ATOM     96  F   UNL     1      -6.356   5.979  19.594  1.00  0.00    -0.200 F 
ENDBRANCH  63  86
ENDBRANCH  37  38
ENDBRANCH  30  32
ENDBRANCH  29  30
ENDBRANCH  28  29
ENDBRANCH  27  28
ENDBRANCH  26  27
ENDBRANCH  25  26
ENDBRANCH   1  25
TORSDOF 22
