REMARK SMILES Cc1cc(O[C@@H](C)C(=O)NCCC(=O)OCCOCCOCCOC(=O)c2ccc(-c3c4nc(c(-c5c(F)c(F)c(F)c(F)c5F)c5ccc([nH]5)c(-c5c(F)c(F)c(F)c(F)c5F)c5nc(c(-c6c(F)c(F)c(F)c(F)c6F)c6ccc3[nH]6)C=C5)C=C4)cc2)c2c3c(c(=O)oc2c1)CCCC3
REMARK SMILES IDX 18 1 17 2 16 3 15 4 13 5 14 6 12 7 11 8 10 9 8 10 9 11 6 13
REMARK SMILES IDX 7 14 5 15 4 16 1 17 2 18 3 19 97 20 96 21 90 22 95 23 91 24
REMARK SMILES IDX 93 25 92 26 101 27 94 28 98 29 100 30 99 31 19 32 20 33
REMARK SMILES IDX 21 34 22 35 23 36 24 37 25 38 26 39 27 40 28 41 89 42 29 43
REMARK SMILES IDX 88 44 30 45 31 46 32 47 82 48 33 49 87 50 81 51 83 52 34 53
REMARK SMILES IDX 86 54 80 55 79 56 35 58 67 59 47 60 66 61 48 62 51 63 65 64
REMARK SMILES IDX 84 65 49 66 50 67 64 69 85 70 52 71 36 72 37 73 45 74 38 75
REMARK SMILES IDX 39 76 43 77 46 78 40 79 41 80 44 81 42 82 68 83 69 84 77 85
REMARK SMILES IDX 70 86 71 87 75 88 78 89 72 90 73 91 76 92 74 93 53 94 54 95
REMARK SMILES IDX 62 96 55 97 56 98 60 99 63 100 57 101 58 102 61 103 59 104
REMARK H PARENT 10 12 83 57 51 68
REMARK Flexibility Score: inf
ROOT
ATOM      1  O   UNL     1      -1.889  -1.162  -2.713  1.00  0.00    -0.376 OA
ENDROOT
BRANCH   1   2
ATOM      2  C   UNL     1      -3.114  -0.452  -2.898  1.00  0.00     0.202 C 
BRANCH   2   3
ATOM      3  C   UNL     1      -4.033  -0.355  -1.671  1.00  0.00     0.261 C 
BRANCH   3   4
ATOM      4  O   UNL     1      -3.384   0.206  -0.517  1.00  0.00    -0.463 OA
BRANCH   4   5
ATOM      5  C   UNL     1      -3.138  -0.647   0.511  1.00  0.00     0.307 C 
ATOM      6  O   UNL     1      -3.540  -1.803   0.575  1.00  0.00    -0.252 OA
BRANCH   5   7
ATOM      7  C   UNL     1      -2.203  -0.072   1.553  1.00  0.00     0.144 C 
BRANCH   7   8
ATOM      8  C   UNL     1      -1.665   1.331   1.291  1.00  0.00     0.127 C 
BRANCH   8   9
ATOM      9  N   UNL     1      -2.369   2.345   2.038  1.00  0.00    -0.352 N 
ATOM     10  C   UNL     1      -2.091   2.952   3.220  1.00  0.00     0.260 C 
ATOM     11  O   UNL     1      -2.880   3.846   3.557  1.00  0.00    -0.271 OA
ATOM     12  H   UNL     1      -3.202   2.653   1.613  1.00  0.00     0.163 HD
BRANCH  10  13
ATOM     13  C   UNL     1      -0.832   2.667   4.096  1.00  0.00     0.258 C 
ATOM     14  C   UNL     1       0.348   3.539   3.667  1.00  0.00     0.064 C 
BRANCH  13  15
ATOM     15  O   UNL     1      -0.528   1.394   4.651  1.00  0.00    -0.480 OA
BRANCH  15  16
ATOM     16  C   UNL     1       0.135   0.355   4.080  1.00  0.00     0.132 A 
ATOM     17  C   UNL     1       2.262  -0.357   1.021  1.00  0.00     0.044 C 
ATOM     18  C   UNL     1       1.478  -0.580   2.270  1.00  0.00    -0.044 A 
ATOM     19  C   UNL     1       1.023   0.514   3.014  1.00  0.00     0.050 A 
ATOM     20  C   UNL     1       1.165  -1.860   2.693  1.00  0.00     0.051 A 
ATOM     21  C   UNL     1       0.418  -2.022   3.857  1.00  0.00     0.142 A 
ATOM     22  C   UNL     1      -0.093  -0.945   4.594  1.00  0.00     0.063 A 
ATOM     23  O   UNL     1       0.205  -3.359   4.223  1.00  0.00    -0.422 OA
ATOM     24  C   UNL     1      -0.779  -1.278   5.871  1.00  0.00    -0.023 A 
ATOM     25  C   UNL     1      -0.414  -3.693   5.407  1.00  0.00     0.339 A 
ATOM     26  C   UNL     1      -0.893  -2.570   6.247  1.00  0.00     0.042 A 
ATOM     27  C   UNL     1      -1.246  -0.168   6.788  1.00  0.00     0.037 C 
ATOM     28  O   UNL     1      -0.544  -4.865   5.745  1.00  0.00    -0.246 OA
ATOM     29  C   UNL     1      -1.485  -3.009   7.564  1.00  0.00     0.043 C 
ATOM     30  C   UNL     1      -1.498  -0.600   8.234  1.00  0.00     0.005 C 
ATOM     31  C   UNL     1      -2.256  -1.913   8.290  1.00  0.00     0.005 C 
ENDBRANCH  15  16
ENDBRANCH  13  15
ENDBRANCH  10  13
ENDBRANCH   8   9
ENDBRANCH   7   8
ENDBRANCH   5   7
ENDBRANCH   4   5
ENDBRANCH   3   4
ENDBRANCH   2   3
ENDBRANCH   1   2
BRANCH   1  32
ATOM     32  C   UNL     1      -0.870  -0.516  -1.954  1.00  0.00     0.188 C 
BRANCH  32  33
ATOM     33  C   UNL     1      -0.466   0.879  -2.428  1.00  0.00     0.188 C 
BRANCH  33  34
ATOM     34  O   UNL     1      -1.514   1.834  -2.392  1.00  0.00    -0.376 OA
BRANCH  34  35
ATOM     35  C   UNL     1      -1.203   3.165  -2.805  1.00  0.00     0.202 C 
BRANCH  35  36
ATOM     36  C   UNL     1      -0.334   3.414  -4.062  1.00  0.00     0.261 C 
BRANCH  36  37
ATOM     37  O   UNL     1       0.849   2.606  -4.222  1.00  0.00    -0.460 OA
BRANCH  37  38
ATOM     38  C   UNL     1       1.832   2.729  -3.303  1.00  0.00     0.338 C 
ATOM     39  O   UNL     1       1.882   3.566  -2.412  1.00  0.00    -0.246 OA
BRANCH  38  40
ATOM     40  C   UNL     1       2.686   1.504  -3.352  1.00  0.00     0.060 A 
ATOM     41  C   UNL     1       2.987   0.826  -4.537  1.00  0.00     0.016 A 
ATOM     42  C   UNL     1       3.126   0.971  -2.134  1.00  0.00     0.016 A 
ATOM     43  C   UNL     1       3.730  -0.367  -4.495  1.00  0.00     0.010 A 
ATOM     44  C   UNL     1       3.846  -0.229  -2.090  1.00  0.00     0.010 A 
ATOM     45  C   UNL     1       4.168  -0.907  -3.271  1.00  0.00    -0.014 A 
BRANCH  45  46
ATOM     46  C   UNL     1       5.144  -2.032  -3.229  1.00  0.00     0.031 A 
ATOM     47  C   UNL     1       4.768  -3.444  -2.880  1.00  0.00     0.074 A 
ATOM     48  C   UNL     1       6.439  -1.736  -3.452  1.00  0.00     0.049 A 
ATOM     49  N   UNL     1       5.513  -4.524  -2.919  1.00  0.00    -0.248 NA
ATOM     50  C   UNL     1       3.399  -3.678  -2.404  1.00  0.00     0.031 C 
ATOM     51  C   UNL     1       6.953  -0.389  -3.699  1.00  0.00     0.029 A 
ATOM     52  N   UNL     1       7.553  -2.535  -3.507  1.00  0.00    -0.354 N 
ATOM     53  C   UNL     1       4.697  -5.573  -2.513  1.00  0.00     0.074 A 
ATOM     54  C   UNL     1       3.417  -4.986  -2.165  1.00  0.00     0.031 C 
ATOM     55  C   UNL     1       8.274  -0.458  -3.917  1.00  0.00     0.029 A 
ATOM     56  C   UNL     1       8.702  -1.851  -3.819  1.00  0.00     0.049 A 
ATOM     57  H   UNL     1       7.531  -3.505  -3.338  1.00  0.00     0.167 HD
ATOM     58  C   UNL     1       4.985  -6.899  -2.464  1.00  0.00     0.037 A 
ATOM     59  C   UNL     1       9.956  -2.291  -4.031  1.00  0.00     0.037 A 
ATOM     60  C   UNL     1       6.271  -7.474  -2.785  1.00  0.00     0.049 A 
ATOM     61  C   UNL     1      10.251  -3.763  -3.964  1.00  0.00     0.074 A 
ATOM     62  C   UNL     1       6.631  -8.812  -2.831  1.00  0.00     0.029 A 
ATOM     63  N   UNL     1       7.414  -6.750  -3.093  1.00  0.00    -0.354 N 
ATOM     64  N   UNL     1       9.435  -4.759  -3.723  1.00  0.00    -0.248 NA
ATOM     65  C   UNL     1      11.640  -4.173  -4.216  1.00  0.00     0.031 C 
ATOM     66  C   UNL     1       7.999  -8.895  -3.110  1.00  0.00     0.029 A 
ATOM     67  C   UNL     1       8.483  -7.612  -3.299  1.00  0.00     0.049 A 
ATOM     68  H   UNL     1       7.460  -5.769  -3.157  1.00  0.00     0.167 HD
ATOM     69  C   UNL     1      10.203  -5.912  -3.819  1.00  0.00     0.074 A 
ATOM     70  C   UNL     1      11.546  -5.494  -4.161  1.00  0.00     0.031 C 
ATOM     71  C   UNL     1       9.822  -7.200  -3.637  1.00  0.00     0.037 A 
BRANCH  58  72
ATOM     72  C   UNL     1       3.881  -7.854  -2.096  1.00  0.00     0.064 A 
ATOM     73  C   UNL     1       2.815  -8.096  -2.976  1.00  0.00     0.173 A 
ATOM     74  C   UNL     1       3.954  -8.636  -0.931  1.00  0.00     0.173 A 
ATOM     75  F   UNL     1       2.702  -7.387  -4.109  1.00  0.00    -0.203 F 
ATOM     76  C   UNL     1       1.859  -9.072  -2.700  1.00  0.00     0.198 A 
ATOM     77  C   UNL     1       3.013  -9.631  -0.672  1.00  0.00     0.198 A 
ATOM     78  F   UNL     1       4.965  -8.466  -0.066  1.00  0.00    -0.203 F 
ATOM     79  F   UNL     1       0.843  -9.271  -3.551  1.00  0.00    -0.200 F 
ATOM     80  C   UNL     1       1.966  -9.846  -1.555  1.00  0.00     0.200 A 
ATOM     81  F   UNL     1       3.134 -10.398   0.420  1.00  0.00    -0.200 F 
ATOM     82  F   UNL     1       1.064 -10.806  -1.307  1.00  0.00    -0.200 F 
ENDBRANCH  58  72
BRANCH  59  83
ATOM     83  C   UNL     1      11.010  -1.319  -4.417  1.00  0.00     0.064 A 
ATOM     84  C   UNL     1      11.521  -1.304  -5.722  1.00  0.00     0.173 A 
ATOM     85  C   UNL     1      11.497  -0.366  -3.511  1.00  0.00     0.173 A 
ATOM     86  F   UNL     1      11.094  -2.204  -6.619  1.00  0.00    -0.203 F 
ATOM     87  C   UNL     1      12.490  -0.380  -6.104  1.00  0.00     0.198 A 
ATOM     88  C   UNL     1      12.445   0.577  -3.902  1.00  0.00     0.198 A 
ATOM     89  F   UNL     1      11.029  -0.332  -2.255  1.00  0.00    -0.203 F 
ATOM     90  F   UNL     1      12.987  -0.409  -7.348  1.00  0.00    -0.200 F 
ATOM     91  C   UNL     1      12.945   0.565  -5.196  1.00  0.00     0.200 A 
ATOM     92  F   UNL     1      12.866   1.502  -3.030  1.00  0.00    -0.200 F 
ATOM     93  F   UNL     1      13.866   1.464  -5.568  1.00  0.00    -0.200 F 
ENDBRANCH  59  83
BRANCH  71  94
ATOM     94  C   UNL     1      10.866  -8.269  -3.813  1.00  0.00     0.064 A 
ATOM     95  C   UNL     1      11.908  -8.437  -2.889  1.00  0.00     0.173 A 
ATOM     96  C   UNL     1      10.789  -9.173  -4.884  1.00  0.00     0.173 A 
ATOM     97  F   UNL     1      12.038  -7.591  -1.856  1.00  0.00    -0.203 F 
ATOM     98  C   UNL     1      12.843  -9.459  -3.040  1.00  0.00     0.198 A 
ATOM     99  C   UNL     1      11.707 -10.213  -5.014  1.00  0.00     0.198 A 
ATOM    100  F   UNL     1       9.811  -9.062  -5.795  1.00  0.00    -0.203 F 
ATOM    101  F   UNL     1      13.854  -9.573  -2.167  1.00  0.00    -0.200 F 
ATOM    102  C   UNL     1      12.736 -10.352  -4.095  1.00  0.00     0.200 A 
ATOM    103  F   UNL     1      11.593 -11.084  -6.027  1.00  0.00    -0.200 F 
ATOM    104  F   UNL     1      13.628 -11.343  -4.230  1.00  0.00    -0.200 F 
ENDBRANCH  71  94
ENDBRANCH  45  46
ENDBRANCH  38  40
ENDBRANCH  37  38
ENDBRANCH  36  37
ENDBRANCH  35  36
ENDBRANCH  34  35
ENDBRANCH  33  34
ENDBRANCH  32  33
ENDBRANCH   1  32
TORSDOF 22
