REMARK SMILES COc1ccc(/C=C2\SC(=O)N(CC(=O)N[C@H](C)C(=O)OCCOCCOCCOC(=O)c3ccc(-c4c5nc(c(-c6c(F)c(F)c(F)c(F)c6F)c6ccc([nH]6)c(-c6c(F)c(F)c(F)c(F)c6F)c6nc(c(-c7c(F)c(F)c(F)c(F)c7F)c7ccc4[nH]7)C=C6)C=C5)cc3)C2=O)cc1OC
REMARK SMILES IDX 24 1 23 2 22 3 21 4 19 5 20 6 17 7 18 8 16 9 14 10 15 11
REMARK SMILES IDX 13 13 12 14 7 15 8 16 9 17 96 18 10 19 97 20 11 21 6 22 3 23
REMARK SMILES IDX 4 24 99 25 5 26 98 27 2 28 1 29 100 30 101 31 25 32 26 33
REMARK SMILES IDX 27 34 28 35 29 36 30 37 31 38 32 39 33 40 34 41 95 42 35 43
REMARK SMILES IDX 94 44 36 45 37 46 38 47 88 48 39 49 93 50 87 51 89 52 40 53
REMARK SMILES IDX 92 54 86 55 85 56 41 58 73 59 53 60 72 61 54 62 57 63 71 64
REMARK SMILES IDX 90 65 55 66 56 67 70 69 91 70 58 71 42 72 43 73 51 74 44 75
REMARK SMILES IDX 45 76 49 77 52 78 46 79 47 80 50 81 48 82 74 83 75 84 83 85
REMARK SMILES IDX 76 86 77 87 81 88 84 89 78 90 79 91 82 92 80 93 59 94 60 95
REMARK SMILES IDX 68 96 61 97 62 98 66 99 69 100 63 101 64 102 67 103 65 104
REMARK H PARENT 16 12 89 57 57 68
REMARK Flexibility Score: inf
ROOT
ATOM      1  O   UNL     1       7.249   1.130  13.486  1.00  0.00    -0.376 OA
ENDROOT
BRANCH   1   2
ATOM      2  C   UNL     1       6.189   1.547  14.347  1.00  0.00     0.202 C 
BRANCH   2   3
ATOM      3  C   UNL     1       4.808   1.862  13.745  1.00  0.00     0.261 C 
BRANCH   3   4
ATOM      4  O   UNL     1       4.239   0.771  12.993  1.00  0.00    -0.462 OA
BRANCH   4   5
ATOM      5  C   UNL     1       3.731   1.067  11.772  1.00  0.00     0.328 C 
ATOM      6  O   UNL     1       3.647   2.206  11.320  1.00  0.00    -0.250 OA
BRANCH   5   7
ATOM      7  C   UNL     1       3.420  -0.180  10.913  1.00  0.00     0.189 C 
ATOM      8  C   UNL     1       3.124  -1.501  11.626  1.00  0.00     0.043 C 
BRANCH   7   9
ATOM      9  N   UNL     1       2.298   0.150  10.038  1.00  0.00    -0.341 N 
ATOM     10  C   UNL     1       1.904  -0.413   8.866  1.00  0.00     0.240 C 
ATOM     11  O   UNL     1       0.730  -0.253   8.525  1.00  0.00    -0.273 OA
ATOM     12  H   UNL     1       1.739   0.900  10.345  1.00  0.00     0.164 HD
BRANCH  10  13
ATOM     13  C   UNL     1       2.831  -1.334   8.075  1.00  0.00     0.229 C 
BRANCH  13  14
ATOM     14  N   UNL     1       4.135  -0.753   7.822  1.00  0.00    -0.259 N 
ATOM     15  C   UNL     1       5.978   1.843   6.182  1.00  0.00     0.029 C 
ATOM     16  C   UNL     1       5.654   0.743   6.867  1.00  0.00     0.083 C 
ATOM     17  S   UNL     1       6.671  -0.471   7.523  1.00  0.00    -0.022 SA
ATOM     18  C   UNL     1       4.231   0.418   7.112  1.00  0.00     0.268 C 
ATOM     19  C   UNL     1       5.302  -1.389   8.128  1.00  0.00     0.294 C 
ATOM     20  O   UNL     1       3.298   1.095   6.709  1.00  0.00    -0.268 OA
ATOM     21  O   UNL     1       5.437  -2.431   8.757  1.00  0.00    -0.261 OA
BRANCH  15  22
ATOM     22  C   UNL     1       7.310   2.216   5.726  1.00  0.00    -0.020 A 
ATOM     23  C   UNL     1       9.772   3.099   4.610  1.00  0.00     0.160 A 
ATOM     24  C   UNL     1       9.094   3.822   5.622  1.00  0.00     0.051 A 
ATOM     25  C   UNL     1       9.147   1.907   4.152  1.00  0.00     0.161 A 
ATOM     26  C   UNL     1       7.883   3.397   6.168  1.00  0.00     0.012 A 
ATOM     27  C   UNL     1       7.941   1.475   4.727  1.00  0.00     0.058 A 
BRANCH  23  28
ATOM     28  O   UNL     1      11.024   3.719   4.282  1.00  0.00    -0.493 OA
ATOM     29  C   UNL     1      12.807   4.178   3.508  1.00  0.00     0.278 C 
ENDBRANCH  23  28
BRANCH  25  30
ATOM     30  O   UNL     1       9.536   1.236   3.025  1.00  0.00    -0.493 OA
ATOM     31  C   UNL     1       9.784  -0.164   3.173  1.00  0.00     0.278 C 
ENDBRANCH  25  30
ENDBRANCH  15  22
ENDBRANCH  13  14
ENDBRANCH  10  13
ENDBRANCH   7   9
ENDBRANCH   5   7
ENDBRANCH   4   5
ENDBRANCH   3   4
ENDBRANCH   2   3
ENDBRANCH   1   2
BRANCH   1  32
ATOM     32  C   UNL     1       6.995   0.130  12.509  1.00  0.00     0.188 C 
BRANCH  32  33
ATOM     33  C   UNL     1       6.318  -1.182  12.939  1.00  0.00     0.188 C 
BRANCH  33  34
ATOM     34  O   UNL     1       5.749  -1.153  14.225  1.00  0.00    -0.376 OA
BRANCH  34  35
ATOM     35  C   UNL     1       6.345  -1.918  15.260  1.00  0.00     0.202 C 
BRANCH  35  36
ATOM     36  C   UNL     1       7.875  -2.061  15.414  1.00  0.00     0.261 C 
BRANCH  36  37
ATOM     37  O   UNL     1       8.683  -2.008  14.227  1.00  0.00    -0.460 OA
BRANCH  37  38
ATOM     38  C   UNL     1       8.808  -3.151  13.508  1.00  0.00     0.338 C 
ATOM     39  O   UNL     1       8.301  -4.230  13.754  1.00  0.00    -0.246 OA
BRANCH  38  40
ATOM     40  C   UNL     1       9.489  -2.812  12.232  1.00  0.00     0.060 A 
ATOM     41  C   UNL     1       8.796  -2.951  11.019  1.00  0.00     0.016 A 
ATOM     42  C   UNL     1      10.809  -2.364  12.232  1.00  0.00     0.016 A 
ATOM     43  C   UNL     1       9.431  -2.662   9.803  1.00  0.00     0.010 A 
ATOM     44  C   UNL     1      11.450  -2.099  11.014  1.00  0.00     0.010 A 
ATOM     45  C   UNL     1      10.777  -2.272   9.788  1.00  0.00    -0.014 A 
BRANCH  45  46
ATOM     46  C   UNL     1      11.556  -2.264   8.514  1.00  0.00     0.031 A 
ATOM     47  C   UNL     1      12.361  -3.489   8.175  1.00  0.00     0.074 A 
ATOM     48  C   UNL     1      11.602  -1.195   7.695  1.00  0.00     0.049 A 
ATOM     49  N   UNL     1      13.168  -3.704   7.166  1.00  0.00    -0.248 NA
ATOM     50  C   UNL     1      12.255  -4.620   9.112  1.00  0.00     0.031 C 
ATOM     51  C   UNL     1      10.867   0.044   7.900  1.00  0.00     0.029 A 
ATOM     52  N   UNL     1      12.318  -0.972   6.536  1.00  0.00    -0.354 N 
ATOM     53  C   UNL     1      13.684  -4.978   7.363  1.00  0.00     0.074 A 
ATOM     54  C   UNL     1      13.117  -5.481   8.595  1.00  0.00     0.031 C 
ATOM     55  C   UNL     1      11.182   0.901   6.913  1.00  0.00     0.029 A 
ATOM     56  C   UNL     1      12.146   0.289   5.998  1.00  0.00     0.049 A 
ATOM     57  H   UNL     1      12.900  -1.653   6.127  1.00  0.00     0.167 HD
ATOM     58  C   UNL     1      14.552  -5.669   6.585  1.00  0.00     0.037 A 
ATOM     59  C   UNL     1      12.694   0.857   4.895  1.00  0.00     0.037 A 
ATOM     60  C   UNL     1      15.112  -5.178   5.354  1.00  0.00     0.049 A 
ATOM     61  C   UNL     1      13.671   0.056   4.084  1.00  0.00     0.074 A 
ATOM     62  C   UNL     1      15.964  -5.826   4.476  1.00  0.00     0.029 A 
ATOM     63  N   UNL     1      14.890  -3.913   4.834  1.00  0.00    -0.354 N 
ATOM     64  N   UNL     1      14.034  -1.198   4.204  1.00  0.00    -0.248 NA
ATOM     65  C   UNL     1      14.333   0.759   2.983  1.00  0.00     0.031 C 
ATOM     66  C   UNL     1      16.311  -4.931   3.459  1.00  0.00     0.029 A 
ATOM     67  C   UNL     1      15.626  -3.747   3.671  1.00  0.00     0.049 A 
ATOM     68  H   UNL     1      14.299  -3.234   5.231  1.00  0.00     0.167 HD
ATOM     69  C   UNL     1      14.931  -1.432   3.168  1.00  0.00     0.074 A 
ATOM     70  C   UNL     1      15.015  -0.211   2.403  1.00  0.00     0.031 C 
ATOM     71  C   UNL     1      15.652  -2.544   2.888  1.00  0.00     0.037 A 
BRANCH  58  72
ATOM     72  C   UNL     1      14.981  -7.025   7.062  1.00  0.00     0.064 A 
ATOM     73  C   UNL     1      14.102  -8.117   7.079  1.00  0.00     0.173 A 
ATOM     74  C   UNL     1      16.307  -7.241   7.468  1.00  0.00     0.173 A 
ATOM     75  F   UNL     1      12.820  -7.960   6.713  1.00  0.00    -0.203 F 
ATOM     76  C   UNL     1      14.528  -9.371   7.510  1.00  0.00     0.198 A 
ATOM     77  C   UNL     1      16.738  -8.503   7.864  1.00  0.00     0.198 A 
ATOM     78  F   UNL     1      17.189  -6.230   7.466  1.00  0.00    -0.203 F 
ATOM     79  F   UNL     1      13.658 -10.389   7.565  1.00  0.00    -0.200 F 
ATOM     80  C   UNL     1      15.847  -9.565   7.892  1.00  0.00     0.200 A 
ATOM     81  F   UNL     1      18.017  -8.692   8.216  1.00  0.00    -0.200 F 
ATOM     82  F   UNL     1      16.258 -10.775   8.294  1.00  0.00    -0.200 F 
ENDBRANCH  58  72
BRANCH  59  83
ATOM     83  C   UNL     1      12.305   2.235   4.450  1.00  0.00     0.064 A 
ATOM     84  C   UNL     1      11.581   2.565   2.807  1.00  0.00     0.173 A 
ATOM     85  C   UNL     1      12.408   3.590   5.630  1.00  0.00     0.173 A 
ATOM     86  F   UNL     1      11.703   1.653   1.829  1.00  0.00    -0.203 F 
ATOM     87  C   UNL     1      10.919   4.199   2.402  1.00  0.00     0.198 A 
ATOM     88  C   UNL     1      11.803   5.232   5.202  1.00  0.00     0.198 A 
ATOM     89  F   UNL     1      13.023   3.400   6.805  1.00  0.00    -0.203 F 
ATOM     90  F   UNL     1      10.449   4.452   1.173  1.00  0.00    -0.200 F 
ATOM     91  C   UNL     1      11.021   5.531   3.614  1.00  0.00     0.200 A 
ATOM     92  F   UNL     1      11.976   6.243   6.064  1.00  0.00    -0.200 F 
ATOM     93  F   UNL     1      10.620   6.768   3.291  1.00  0.00    -0.200 F 
ENDBRANCH  59  83
BRANCH  71  94
ATOM     94  C   UNL     1      16.510  -2.501   1.655  1.00  0.00     0.064 A 
ATOM     95  C   UNL     1      17.631  -1.661   1.557  1.00  0.00     0.173 A 
ATOM     96  C   UNL     1      16.177  -3.280   0.536  1.00  0.00     0.173 A 
ATOM     97  F   UNL     1      17.980  -0.878   2.590  1.00  0.00    -0.203 F 
ATOM     98  C   UNL     1      18.346  -1.555   0.367  1.00  0.00     0.198 A 
ATOM     99  C   UNL     1      16.922  -3.206  -0.637  1.00  0.00     0.198 A 
ATOM    100  F   UNL     1      15.120  -4.104   0.577  1.00  0.00    -0.203 F 
ATOM    101  F   UNL     1      19.350  -0.673   0.268  1.00  0.00    -0.200 F 
ATOM    102  C   UNL     1      17.993  -2.330  -0.727  1.00  0.00     0.200 A 
ATOM    103  F   UNL     1      16.589  -3.967  -1.688  1.00  0.00    -0.200 F 
ATOM    104  F   UNL     1      18.676  -2.220  -1.875  1.00  0.00    -0.200 F 
ENDBRANCH  71  94
ENDBRANCH  45  46
ENDBRANCH  38  40
ENDBRANCH  37  38
ENDBRANCH  36  37
ENDBRANCH  35  36
ENDBRANCH  34  35
ENDBRANCH  33  34
ENDBRANCH  32  33
ENDBRANCH   1  32
TORSDOF 23
