REMARK SMILES CC[C@@H](C(=O)Nc1ccc(OC(C)=O)cc1C(=O)OCCOCCOCCOC(=O)c1ccc(-c2c3nc(c(-c4c(F)c(F)c(F)c(F)c4F)c4ccc([nH]4)c(-c4c(F)c(F)c(F)c(F)c4F)c4nc(c(-c5c(F)c(F)c(F)c(F)c5F)c5ccc2[nH]5)C=C4)C=C3)cc1)c1ccccc1
REMARK SMILES IDX 23 1 22 2 21 3 20 4 19 5 17 6 18 7 16 8 7 9 8 10 9 11 15 12
REMARK SMILES IDX 10 13 6 14 4 15 5 16 3 18 2 19 1 20 94 21 95 22 99 23 96 24
REMARK SMILES IDX 98 25 97 26 11 27 12 28 13 29 14 30 24 31 25 32 26 33 27 34
REMARK SMILES IDX 28 35 29 36 30 37 31 38 32 39 93 40 33 41 92 42 34 43 35 44
REMARK SMILES IDX 36 45 86 46 37 47 91 48 85 49 87 50 38 51 90 52 84 53 83 54
REMARK SMILES IDX 39 56 71 57 51 58 70 59 52 60 55 61 69 62 88 63 53 64 54 65
REMARK SMILES IDX 68 67 89 68 56 69 40 70 41 71 49 72 42 73 43 74 47 75 50 76
REMARK SMILES IDX 44 77 45 78 48 79 46 80 72 81 73 82 81 83 74 84 75 85 79 86
REMARK SMILES IDX 82 87 76 88 77 89 80 90 78 91 57 92 58 93 66 94 59 95 60 96
REMARK SMILES IDX 64 97 67 98 61 99 62 100 65 101 63 102
REMARK H PARENT 6 17 87 55 55 66
REMARK Flexibility Score: inf
ROOT
ATOM      1  C   UNL     1      -2.317   1.146   0.163  1.00  0.00     0.188 C 
ENDROOT
BRANCH   1   2
ATOM      2  O   UNL     1      -3.054   0.586  -0.903  1.00  0.00    -0.376 OA
BRANCH   2   3
ATOM      3  C   UNL     1      -2.307   0.114  -2.002  1.00  0.00     0.202 C 
BRANCH   3   4
ATOM      4  C   UNL     1      -1.321  -1.030  -1.762  1.00  0.00     0.261 C 
BRANCH   4   5
ATOM      5  O   UNL     1      -0.487  -1.013  -0.593  1.00  0.00    -0.460 OA
BRANCH   5   6
ATOM      6  C   UNL     1       0.456  -0.064  -0.490  1.00  0.00     0.340 C 
ATOM      7  O   UNL     1       0.537   0.968  -1.146  1.00  0.00    -0.246 OA
BRANCH   6   8
ATOM      8  C   UNL     1       1.381  -0.347   0.620  1.00  0.00     0.087 A 
ATOM      9  C   UNL     1       2.113  -1.535   0.768  1.00  0.00     0.056 A 
ATOM     10  C   UNL     1       3.015  -1.644   1.842  1.00  0.00     0.031 A 
ATOM     11  C   UNL     1       3.331  -0.526   2.617  1.00  0.00     0.049 A 
ATOM     12  C   UNL     1       1.624   0.739   1.474  1.00  0.00     0.065 A 
ATOM     13  C   UNL     1       2.676   0.678   2.374  1.00  0.00     0.131 A 
BRANCH   9  14
ATOM     14  N   UNL     1       2.079  -2.647  -0.089  1.00  0.00    -0.325 N 
ATOM     15  C   UNL     1       1.532  -2.770  -1.333  1.00  0.00     0.231 C 
ATOM     16  O   UNL     1       0.659  -3.642  -1.426  1.00  0.00    -0.274 OA
ATOM     17  H   UNL     1       2.513  -3.459   0.259  1.00  0.00     0.169 HD
BRANCH  15  18
ATOM     18  C   UNL     1       2.236  -2.137  -2.605  1.00  0.00     0.108 C 
BRANCH  18  19
ATOM     19  C   UNL     1       2.632  -0.644  -2.709  1.00  0.00     0.015 C 
ATOM     20  C   UNL     1       3.682  -0.031  -1.800  1.00  0.00     0.005 C 
ENDBRANCH  18  19
BRANCH  18  21
ATOM     21  C   UNL     1       1.409  -2.529  -3.869  1.00  0.00    -0.036 A 
ATOM     22  C   UNL     1       0.728  -1.594  -4.676  1.00  0.00     0.004 A 
ATOM     23  C   UNL     1       1.246  -3.889  -4.181  1.00  0.00     0.004 A 
ATOM     24  C   UNL     1      -0.128  -2.003  -5.701  1.00  0.00     0.000 A 
ATOM     25  C   UNL     1       0.382  -4.298  -5.199  1.00  0.00     0.000 A 
ATOM     26  C   UNL     1      -0.312  -3.357  -5.953  1.00  0.00     0.000 A 
ENDBRANCH  18  21
ENDBRANCH  15  18
ENDBRANCH   9  14
BRANCH  13  27
ATOM     27  O   UNL     1       3.142   1.817   3.062  1.00  0.00    -0.427 OA
BRANCH  27  28
ATOM     28  C   UNL     1       3.638   2.971   2.442  1.00  0.00     0.308 C 
ATOM     29  C   UNL     1       3.017   3.374   1.133  1.00  0.00     0.139 C 
ATOM     30  O   UNL     1       4.477   3.675   2.998  1.00  0.00    -0.252 OA
ENDBRANCH  27  28
ENDBRANCH  13  27
ENDBRANCH   6   8
ENDBRANCH   5   6
ENDBRANCH   4   5
ENDBRANCH   3   4
ENDBRANCH   2   3
ENDBRANCH   1   2
BRANCH   1  31
ATOM     31  C   UNL     1      -2.191   0.211   1.388  1.00  0.00     0.188 C 
BRANCH  31  32
ATOM     32  O   UNL     1      -3.022  -0.932   1.494  1.00  0.00    -0.376 OA
BRANCH  32  33
ATOM     33  C   UNL     1      -4.376  -0.818   1.086  1.00  0.00     0.202 C 
BRANCH  33  34
ATOM     34  C   UNL     1      -5.243   0.310   1.684  1.00  0.00     0.261 C 
BRANCH  34  35
ATOM     35  O   UNL     1      -4.665   1.635   1.693  1.00  0.00    -0.460 OA
BRANCH  35  36
ATOM     36  C   UNL     1      -4.221   2.100   2.892  1.00  0.00     0.338 C 
ATOM     37  O   UNL     1      -4.354   1.562   3.976  1.00  0.00    -0.246 OA
BRANCH  36  38
ATOM     38  C   UNL     1      -3.318   3.273   2.703  1.00  0.00     0.060 A 
ATOM     39  C   UNL     1      -2.003   3.191   3.200  1.00  0.00     0.016 A 
ATOM     40  C   UNL     1      -3.754   4.455   2.103  1.00  0.00     0.016 A 
ATOM     41  C   UNL     1      -1.145   4.292   3.151  1.00  0.00     0.010 A 
ATOM     42  C   UNL     1      -2.910   5.578   2.100  1.00  0.00     0.010 A 
ATOM     43  C   UNL     1      -1.624   5.516   2.674  1.00  0.00    -0.014 A 
BRANCH  43  44
ATOM     44  C   UNL     1      -0.938   6.767   3.099  1.00  0.00     0.031 A 
ATOM     45  C   UNL     1      -1.421   7.416   4.374  1.00  0.00     0.074 A 
ATOM     46  C   UNL     1       0.095   7.306   2.428  1.00  0.00     0.049 A 
ATOM     47  N   UNL     1      -1.071   8.550   4.925  1.00  0.00    -0.248 NA
ATOM     48  C   UNL     1      -2.450   6.677   5.125  1.00  0.00     0.031 C 
ATOM     49  C   UNL     1       0.713   6.750   1.229  1.00  0.00     0.029 A 
ATOM     50  N   UNL     1       0.804   8.459   2.670  1.00  0.00    -0.354 N 
ATOM     51  C   UNL     1      -1.851   8.667   6.070  1.00  0.00     0.074 A 
ATOM     52  C   UNL     1      -2.706   7.503   6.125  1.00  0.00     0.031 C 
ATOM     53  C   UNL     1       1.701   7.571   0.828  1.00  0.00     0.029 A 
ATOM     54  C   UNL     1       1.758   8.731   1.719  1.00  0.00     0.049 A 
ATOM     55  H   UNL     1       0.643   9.036   3.451  1.00  0.00     0.167 HD
ATOM     56  C   UNL     1      -1.858   9.654   6.996  1.00  0.00     0.037 A 
ATOM     57  C   UNL     1       2.556   9.809   1.571  1.00  0.00     0.037 A 
ATOM     58  C   UNL     1      -1.012  10.816   6.944  1.00  0.00     0.049 A 
ATOM     59  C   UNL     1       2.475  10.940   2.572  1.00  0.00     0.074 A 
ATOM     60  C   UNL     1      -0.949  11.878   7.827  1.00  0.00     0.029 A 
ATOM     61  N   UNL     1      -0.082  11.067   5.946  1.00  0.00    -0.354 N 
ATOM     62  N   UNL     1       1.727  11.052   3.644  1.00  0.00    -0.248 NA
ATOM     63  C   UNL     1       3.353  12.097   2.338  1.00  0.00     0.031 C 
ATOM     64  C   UNL     1      -0.021  12.801   7.334  1.00  0.00     0.029 A 
ATOM     65  C   UNL     1       0.546  12.280   6.182  1.00  0.00     0.049 A 
ATOM     66  H   UNL     1       0.105  10.473   5.184  1.00  0.00     0.167 HD
ATOM     67  C   UNL     1       2.074  12.264   4.231  1.00  0.00     0.074 A 
ATOM     68  C   UNL     1       3.104  12.849   3.401  1.00  0.00     0.031 C 
ATOM     69  C   UNL     1       1.586  12.841   5.358  1.00  0.00     0.037 A 
BRANCH  56  70
ATOM     70  C   UNL     1      -2.849   9.540   8.118  1.00  0.00     0.064 A 
ATOM     71  C   UNL     1      -2.724   8.569   9.124  1.00  0.00     0.173 A 
ATOM     72  C   UNL     1      -3.936  10.424   8.192  1.00  0.00     0.173 A 
ATOM     73  F   UNL     1      -1.716   7.686   9.089  1.00  0.00    -0.203 F 
ATOM     74  C   UNL     1      -3.668   8.469  10.143  1.00  0.00     0.198 A 
ATOM     75  C   UNL     1      -4.858  10.343   9.232  1.00  0.00     0.198 A 
ATOM     76  F   UNL     1      -4.104  11.370   7.256  1.00  0.00    -0.203 F 
ATOM     77  F   UNL     1      -3.562   7.497  11.060  1.00  0.00    -0.200 F 
ATOM     78  C   UNL     1      -4.729   9.360  10.201  1.00  0.00     0.200 A 
ATOM     79  F   UNL     1      -5.875  11.214   9.292  1.00  0.00    -0.200 F 
ATOM     80  F   UNL     1      -5.633   9.267  11.186  1.00  0.00    -0.200 F 
ENDBRANCH  56  70
BRANCH  57  81
ATOM     81  C   UNL     1       3.493   9.899   0.416  1.00  0.00     0.064 A 
ATOM     82  C   UNL     1       4.883   9.905   0.606  1.00  0.00     0.173 A 
ATOM     83  C   UNL     1       3.018  10.030  -0.898  1.00  0.00     0.173 A 
ATOM     84  F   UNL     1       5.390   9.821   1.845  1.00  0.00    -0.203 F 
ATOM     85  C   UNL     1       5.759  10.060  -0.468  1.00  0.00     0.198 A 
ATOM     86  C   UNL     1       3.895  10.151  -1.974  1.00  0.00     0.198 A 
ATOM     87  F   UNL     1       1.699  10.041  -1.137  1.00  0.00    -0.203 F 
ATOM     88  F   UNL     1       7.079  10.124  -0.250  1.00  0.00    -0.200 F 
ATOM     89  C   UNL     1       5.264  10.176  -1.758  1.00  0.00     0.200 A 
ATOM     90  F   UNL     1       3.412  10.253  -3.220  1.00  0.00    -0.200 F 
ATOM     91  F   UNL     1       6.105  10.325  -2.791  1.00  0.00    -0.200 F 
ENDBRANCH  57  81
BRANCH  69  92
ATOM     92  C   UNL     1       2.205  14.137   5.805  1.00  0.00     0.064 A 
ATOM     93  C   UNL     1       2.019  15.336   5.101  1.00  0.00     0.173 A 
ATOM     94  C   UNL     1       2.968  14.183   6.983  1.00  0.00     0.173 A 
ATOM     95  F   UNL     1       1.306  15.348   3.964  1.00  0.00    -0.203 F 
ATOM     96  C   UNL     1       2.603  16.522   5.539  1.00  0.00     0.198 A 
ATOM     97  C   UNL     1       3.520  15.377   7.437  1.00  0.00     0.198 A 
ATOM     98  F   UNL     1       3.168  13.069   7.704  1.00  0.00    -0.203 F 
ATOM     99  F   UNL     1       2.460  17.643   4.818  1.00  0.00    -0.200 F 
ATOM    100  C   UNL     1       3.347  16.544   6.709  1.00  0.00     0.200 A 
ATOM    101  F   UNL     1       4.221  15.399   8.579  1.00  0.00    -0.200 F 
ATOM    102  F   UNL     1       3.903  17.688   7.131  1.00  0.00    -0.200 F 
ENDBRANCH  69  92
ENDBRANCH  43  44
ENDBRANCH  36  38
ENDBRANCH  35  36
ENDBRANCH  34  35
ENDBRANCH  33  34
ENDBRANCH  32  33
ENDBRANCH  31  32
ENDBRANCH   1  31
TORSDOF 23
