REMARK SMILES CC(=O)c1ccc(N2/C(=[NH+]/C(=O)CCC(=O)OCCOCCOCCOC(=O)c3ccc(-c4c5nc(c(-c6c(F)c(F)c(F)c(F)c6F)c6ccc([nH]6)c(-c6c(F)c(F)c(F)c(F)c6F)c6nc(c(-c7c(F)c(F)c(F)c(F)c7F)c7ccc4[nH]7)C=C6)C=C5)cc3)S[C@H]3CS(=O)(=O)C[C@@H]32)cc1
REMARK SMILES IDX 21 1 20 2 19 3 18 4 17 5 15 6 16 7 14 8 13 9 11 10 8 11 9 12
REMARK SMILES IDX 99 13 10 14 92 15 93 16 98 17 94 19 95 20 12 21 96 22 97 23
REMARK SMILES IDX 7 24 4 25 5 26 101 27 6 28 100 29 2 30 1 31 3 32 22 33 23 34
REMARK SMILES IDX 24 35 25 36 26 37 27 38 28 39 29 40 30 41 91 42 31 43 90 44
REMARK SMILES IDX 32 45 33 46 34 47 84 48 35 49 89 50 83 51 85 52 36 53 88 54
REMARK SMILES IDX 82 55 81 56 37 58 69 59 49 60 68 61 50 62 53 63 67 64 86 65
REMARK SMILES IDX 51 66 52 67 66 69 87 70 54 71 38 72 39 73 47 74 40 75 41 76
REMARK SMILES IDX 45 77 48 78 42 79 43 80 46 81 44 82 70 83 71 84 79 85 72 86
REMARK SMILES IDX 73 87 77 88 80 89 74 90 75 91 78 92 76 93 55 94 56 95 64 96
REMARK SMILES IDX 57 97 58 98 62 99 65 100 59 101 60 102 63 103 61 104
REMARK H PARENT 10 18 85 57 53 68
REMARK Flexibility Score: inf
ROOT
ATOM      1  C   UNL     1       4.952  -6.704  -0.146  1.00  0.00     0.188 C 
ENDROOT
BRANCH   1   2
ATOM      2  O   UNL     1       4.795  -5.370   0.332  1.00  0.00    -0.376 OA
BRANCH   2   3
ATOM      3  C   UNL     1       4.252  -4.427  -0.597  1.00  0.00     0.202 C 
BRANCH   3   4
ATOM      4  C   UNL     1       5.159  -4.129  -1.793  1.00  0.00     0.261 C 
BRANCH   4   5
ATOM      5  O   UNL     1       5.329  -5.283  -2.628  1.00  0.00    -0.463 OA
BRANCH   5   6
ATOM      6  C   UNL     1       6.592  -5.611  -2.986  1.00  0.00     0.306 C 
ATOM      7  O   UNL     1       7.587  -4.944  -2.727  1.00  0.00    -0.252 OA
BRANCH   6   8
ATOM      8  C   UNL     1       6.683  -6.959  -3.670  1.00  0.00     0.135 C 
BRANCH   8   9
ATOM      9  C   UNL     1       5.364  -7.667  -3.963  1.00  0.00     0.139 C 
BRANCH   9  10
ATOM     10  C   UNL     1       4.617  -6.941  -5.058  1.00  0.00     0.308 C 
ATOM     11  N   UNL     1       1.655  -4.771  -5.162  1.00  0.00    -0.217 N 
ATOM     12  C   UNL     1       2.651  -5.734  -5.390  1.00  0.00     0.319 C 
ATOM     13  C   UNL     1       0.747  -4.578  -6.294  1.00  0.00     0.212 C 
ATOM     14  N   UNL     1       3.619  -6.097  -4.622  1.00  0.00    -0.204 N 
ATOM     15  S   UNL     1       2.366  -6.419  -7.038  1.00  0.00    -0.029 SA
ATOM     16  C   UNL     1       1.623  -4.862  -7.516  1.00  0.00     0.120 C 
ATOM     17  C   UNL     1       0.198  -3.193  -6.564  1.00  0.00     0.188 C 
ATOM     18  H   UNL     1       3.647  -5.761  -3.697  1.00  0.00     0.316 HD
ATOM     19  C   UNL     1       0.735  -4.748  -8.720  1.00  0.00     0.156 C 
ATOM     20  S   UNL     1      -0.219  -3.280  -8.310  1.00  0.00     0.155 S 
ATOM     21  O   UNL     1       5.040  -7.032  -6.210  1.00  0.00    -0.247 OA
ATOM     22  O   UNL     1       0.380  -2.138  -8.972  1.00  0.00    -0.229 OA
ATOM     23  O   UNL     1      -1.622  -3.603  -8.429  1.00  0.00    -0.229 OA
BRANCH  11  24
ATOM     24  C   UNL     1       1.392  -4.042  -3.995  1.00  0.00     0.128 A 
ATOM     25  C   UNL     1       0.730  -2.414  -1.757  1.00  0.00     0.018 A 
ATOM     26  C   UNL     1      -0.135  -3.425  -2.187  1.00  0.00     0.016 A 
ATOM     27  C   UNL     1       1.913  -2.195  -2.469  1.00  0.00     0.016 A 
ATOM     28  C   UNL     1       0.185  -4.213  -3.301  1.00  0.00     0.052 A 
ATOM     29  C   UNL     1       2.240  -3.012  -3.570  1.00  0.00     0.052 A 
BRANCH  25  30
ATOM     30  C   UNL     1       0.349  -1.634  -0.541  1.00  0.00     0.159 C 
ATOM     31  C   UNL     1       0.993  -0.296  -0.284  1.00  0.00     0.093 C 
ATOM     32  O   UNL     1      -0.499  -2.089   0.225  1.00  0.00    -0.295 OA
ENDBRANCH  25  30
ENDBRANCH  11  24
ENDBRANCH   9  10
ENDBRANCH   8   9
ENDBRANCH   6   8
ENDBRANCH   5   6
ENDBRANCH   4   5
ENDBRANCH   3   4
ENDBRANCH   2   3
ENDBRANCH   1   2
BRANCH   1  33
ATOM     33  C   UNL     1       3.646  -7.419  -0.479  1.00  0.00     0.188 C 
BRANCH  33  34
ATOM     34  O   UNL     1       2.774  -6.733  -1.358  1.00  0.00    -0.376 OA
BRANCH  34  35
ATOM     35  C   UNL     1       1.476  -7.295  -1.556  1.00  0.00     0.202 C 
BRANCH  35  36
ATOM     36  C   UNL     1       0.643  -7.727  -0.326  1.00  0.00     0.261 C 
BRANCH  36  37
ATOM     37  O   UNL     1       1.281  -8.612   0.616  1.00  0.00    -0.460 OA
BRANCH  37  38
ATOM     38  C   UNL     1       1.792  -9.772   0.144  1.00  0.00     0.338 C 
ATOM     39  O   UNL     1       1.561 -10.271  -0.943  1.00  0.00    -0.246 OA
BRANCH  38  40
ATOM     40  C   UNL     1       2.917 -10.187   1.036  1.00  0.00     0.060 A 
ATOM     41  C   UNL     1       4.061 -10.726   0.429  1.00  0.00     0.016 A 
ATOM     42  C   UNL     1       2.919  -9.951   2.417  1.00  0.00     0.016 A 
ATOM     43  C   UNL     1       5.180 -11.066   1.193  1.00  0.00     0.010 A 
ATOM     44  C   UNL     1       4.036 -10.310   3.187  1.00  0.00     0.010 A 
ATOM     45  C   UNL     1       5.159 -10.903   2.583  1.00  0.00    -0.014 A 
BRANCH  45  46
ATOM     46  C   UNL     1       6.213 -11.560   3.401  1.00  0.00     0.031 A 
ATOM     47  C   UNL     1       5.910 -12.914   3.989  1.00  0.00     0.074 A 
ATOM     48  C   UNL     1       7.435 -11.021   3.566  1.00  0.00     0.049 A 
ATOM     49  N   UNL     1       6.668 -13.706   4.704  1.00  0.00    -0.248 NA
ATOM     50  C   UNL     1       4.563 -13.447   3.728  1.00  0.00     0.031 C 
ATOM     51  C   UNL     1       7.877  -9.741   3.020  1.00  0.00     0.029 A 
ATOM     52  N   UNL     1       8.533 -11.496   4.244  1.00  0.00    -0.354 N 
ATOM     53  C   UNL     1       5.892 -14.826   4.974  1.00  0.00     0.074 A 
ATOM     54  C   UNL     1       4.593 -14.596   4.383  1.00  0.00     0.031 C 
ATOM     55  C   UNL     1       9.154  -9.529   3.387  1.00  0.00     0.029 A 
ATOM     56  C   UNL     1       9.612 -10.645   4.215  1.00  0.00     0.049 A 
ATOM     57  H   UNL     1       8.546 -12.364   4.707  1.00  0.00     0.167 HD
ATOM     58  C   UNL     1       6.233 -15.953   5.644  1.00  0.00     0.037 A 
ATOM     59  C   UNL     1      10.821 -10.750   4.803  1.00  0.00     0.037 A 
ATOM     60  C   UNL     1       7.522 -16.184   6.240  1.00  0.00     0.049 A 
ATOM     61  C   UNL     1      11.150 -11.982   5.614  1.00  0.00     0.074 A 
ATOM     62  C   UNL     1       7.966 -17.300   6.927  1.00  0.00     0.029 A 
ATOM     63  N   UNL     1       8.570 -15.276   6.234  1.00  0.00    -0.354 N 
ATOM     64  N   UNL     1      10.423 -13.051   5.836  1.00  0.00    -0.248 NA
ATOM     65  C   UNL     1      12.476 -12.022   6.249  1.00  0.00     0.031 C 
ATOM     66  C   UNL     1       9.260 -17.042   7.392  1.00  0.00     0.029 A 
ATOM     67  C   UNL     1       9.649 -15.794   6.934  1.00  0.00     0.049 A 
ATOM     68  H   UNL     1       8.551 -14.394   5.796  1.00  0.00     0.167 HD
ATOM     69  C   UNL     1      11.210 -13.898   6.609  1.00  0.00     0.074 A 
ATOM     70  C   UNL     1      12.480 -13.229   6.797  1.00  0.00     0.031 C 
ATOM     71  C   UNL     1      10.909 -15.119   7.118  1.00  0.00     0.037 A 
BRANCH  58  72
ATOM     72  C   UNL     1       5.178 -17.012   5.795  1.00  0.00     0.064 A 
ATOM     73  C   UNL     1       4.724 -17.768   4.702  1.00  0.00     0.173 A 
ATOM     74  C   UNL     1       4.632 -17.292   7.056  1.00  0.00     0.173 A 
ATOM     75  F   UNL     1       5.200 -17.529   3.471  1.00  0.00    -0.203 F 
ATOM     76  C   UNL     1       3.743 -18.742   4.863  1.00  0.00     0.198 A 
ATOM     77  C   UNL     1       3.676 -18.291   7.219  1.00  0.00     0.198 A 
ATOM     78  F   UNL     1       5.031 -16.601   8.135  1.00  0.00    -0.203 F 
ATOM     79  F   UNL     1       3.285 -19.413   3.797  1.00  0.00    -0.200 F 
ATOM     80  C   UNL     1       3.226 -19.009   6.122  1.00  0.00     0.200 A 
ATOM     81  F   UNL     1       3.188 -18.556   8.439  1.00  0.00    -0.200 F 
ATOM     82  F   UNL     1       2.287 -19.953   6.277  1.00  0.00    -0.200 F 
ENDBRANCH  58  72
BRANCH  59  83
ATOM     83  C   UNL     1      11.819  -9.653   4.666  1.00  0.00     0.064 A 
ATOM     84  C   UNL     1      13.028  -9.848   3.982  1.00  0.00     0.173 A 
ATOM     85  C   UNL     1      11.603  -8.399   5.255  1.00  0.00     0.173 A 
ATOM     86  F   UNL     1      13.300 -11.040   3.429  1.00  0.00    -0.203 F 
ATOM     87  C   UNL     1      13.989  -8.840   3.911  1.00  0.00     0.198 A 
ATOM     88  C   UNL     1      12.549  -7.380   5.156  1.00  0.00     0.198 A 
ATOM     89  F   UNL     1      10.470  -8.161   5.932  1.00  0.00    -0.203 F 
ATOM     90  F   UNL     1      15.159  -9.074   3.303  1.00  0.00    -0.200 F 
ATOM     91  C   UNL     1      13.746  -7.605   4.492  1.00  0.00     0.200 A 
ATOM     92  F   UNL     1      12.306  -6.186   5.712  1.00  0.00    -0.200 F 
ATOM     93  F   UNL     1      14.669  -6.636   4.425  1.00  0.00    -0.200 F 
ENDBRANCH  59  83
BRANCH  71  94
ATOM     94  C   UNL     1      11.982 -15.828   7.899  1.00  0.00     0.064 A 
ATOM     95  C   UNL     1      12.415 -15.367   9.152  1.00  0.00     0.173 A 
ATOM     96  C   UNL     1      12.572 -16.999   7.396  1.00  0.00     0.173 A 
ATOM     97  F   UNL     1      11.892 -14.248   9.677  1.00  0.00    -0.203 F 
ATOM     98  C   UNL     1      13.425 -16.026   9.851  1.00  0.00     0.198 A 
ATOM     99  C   UNL     1      13.554 -17.677   8.115  1.00  0.00     0.198 A 
ATOM    100  F   UNL     1      12.190 -17.494   6.210  1.00  0.00    -0.203 F 
ATOM    101  F   UNL     1      13.866 -15.528  11.014  1.00  0.00    -0.200 F 
ATOM    102  C   UNL     1      13.989 -17.182   9.335  1.00  0.00     0.200 A 
ATOM    103  F   UNL     1      14.084 -18.805   7.623  1.00  0.00    -0.200 F 
ATOM    104  F   UNL     1      14.959 -17.815  10.009  1.00  0.00    -0.200 F 
ENDBRANCH  71  94
ENDBRANCH  45  46
ENDBRANCH  38  40
ENDBRANCH  37  38
ENDBRANCH  36  37
ENDBRANCH  35  36
ENDBRANCH  34  35
ENDBRANCH  33  34
ENDBRANCH   1  33
TORSDOF 21
