REMARK SMILES Nc1c(Nc2ncc(C(F)(F)F)cc2Cl)ncnc1N1CCC(C(=O)OCCOCCOCCOC(=O)c2ccc(-c3c4nc(c(-c5c(F)c(F)c(F)c(F)c5F)c5ccc([nH]5)c(-c5c(F)c(F)c(F)c(F)c5F)c5nc(c(-c6c(F)c(F)c(F)c(F)c6F)c6ccc3[nH]6)C=C5)C=C4)cc2)CC1
REMARK SMILES IDX 30 1 29 2 28 3 27 4 26 5 24 6 25 7 23 8 20 9 21 10 102 11
REMARK SMILES IDX 22 12 101 13 19 14 2 15 3 16 16 17 18 18 17 19 1 20 4 23
REMARK SMILES IDX 5 25 6 26 14 27 7 28 13 29 15 30 8 31 9 32 10 33 11 34 12 35
REMARK SMILES IDX 31 36 32 37 33 38 34 39 35 40 36 41 37 42 38 43 39 44 100 45
REMARK SMILES IDX 40 46 99 47 41 48 42 49 43 50 93 51 44 52 98 53 92 54 94 55
REMARK SMILES IDX 45 56 97 57 91 58 90 59 46 61 78 62 58 63 77 64 59 65 62 66
REMARK SMILES IDX 76 67 95 68 60 69 61 70 75 72 96 73 63 74 47 75 48 76 56 77
REMARK SMILES IDX 49 78 50 79 54 80 57 81 51 82 52 83 55 84 53 85 79 86 80 87
REMARK SMILES IDX 88 88 81 89 82 90 86 91 89 92 83 93 84 94 87 95 85 96 64 97
REMARK SMILES IDX 65 98 73 99 66 100 67 101 71 102 74 103 68 104 69 105 72 106
REMARK SMILES IDX 70 107
REMARK H PARENT 1 21 1 22 4 24 94 60 62 71
REMARK Flexibility Score: inf
ROOT
ATOM      1  C   UNL     1       4.229   0.981   8.203  1.00  0.00     0.188 C 
ENDROOT
BRANCH   1   2
ATOM      2  O   UNL     1       3.648   1.470   9.401  1.00  0.00    -0.376 OA
BRANCH   2   3
ATOM      3  C   UNL     1       2.310   1.065   9.683  1.00  0.00     0.202 C 
BRANCH   3   4
ATOM      4  C   UNL     1       1.243   1.323   8.606  1.00  0.00     0.261 C 
BRANCH   4   5
ATOM      5  O   UNL     1       1.532   0.790   7.291  1.00  0.00    -0.463 OA
BRANCH   5   6
ATOM      6  C   UNL     1       1.692   1.718   6.312  1.00  0.00     0.309 C 
ATOM      7  O   UNL     1       1.637   2.932   6.493  1.00  0.00    -0.252 OA
BRANCH   6   8
ATOM      8  C   UNL     1       2.013   1.158   4.938  1.00  0.00     0.103 C 
ATOM      9  N   UNL     1       1.551  -0.134   2.416  1.00  0.00    -0.355 N 
ATOM     10  C   UNL     1       2.506  -0.734   3.333  1.00  0.00     0.119 C 
ATOM     11  C   UNL     1       1.257   1.288   2.551  1.00  0.00     0.119 C 
ATOM     12  C   UNL     1       2.221  -0.351   4.788  1.00  0.00     0.037 C 
ATOM     13  C   UNL     1       0.906   1.623   3.991  1.00  0.00     0.037 C 
BRANCH   9  14
ATOM     14  C   UNL     1       0.546  -0.951   1.896  1.00  0.00     0.157 A 
ATOM     15  C   UNL     1       0.127  -0.763   0.569  1.00  0.00     0.118 A 
ATOM     16  C   UNL     1      -0.889  -1.611   0.119  1.00  0.00     0.160 A 
ATOM     17  N   UNL     1      -1.458  -2.539   0.907  1.00  0.00    -0.217 NA
ATOM     18  N   UNL     1       0.008  -1.895   2.687  1.00  0.00    -0.217 NA
ATOM     19  C   UNL     1      -0.972  -2.635   2.151  1.00  0.00     0.226 A 
BRANCH  15  20
ATOM     20  N   UNL     1       0.806   0.100  -0.314  1.00  0.00    -0.393 N 
ATOM     21  H   UNL     1       0.486   0.209  -1.238  1.00  0.00     0.156 HD
ATOM     22  H   UNL     1       1.600   0.594  -0.006  1.00  0.00     0.156 HD
ENDBRANCH  15  20
BRANCH  16  23
ATOM     23  N   UNL     1      -1.271  -1.492  -1.238  1.00  0.00    -0.322 N 
ATOM     24  H   UNL     1      -0.737  -0.870  -1.783  1.00  0.00     0.170 HD
BRANCH  23  25
ATOM     25  C   UNL     1      -2.306  -2.143  -1.897  1.00  0.00     0.150 A 
ATOM     26  N   UNL     1      -1.929  -2.721  -3.067  1.00  0.00    -0.237 NA
ATOM     27  C   UNL     1      -3.628  -2.212  -1.440  1.00  0.00     0.084 A 
ATOM     28  C   UNL     1      -2.843  -3.451  -3.744  1.00  0.00     0.126 A 
ATOM     29  C   UNL     1      -4.552  -2.966  -2.166  1.00  0.00     0.039 A 
ATOM     30  Cl  UNL     1      -4.221  -1.318  -0.086  1.00  0.00    -0.080 Cl
ATOM     31  C   UNL     1      -4.155  -3.619  -3.335  1.00  0.00     0.075 A 
BRANCH  31  32
ATOM     32  C   UNL     1      -5.079  -4.469  -4.145  1.00  0.00     0.417 C 
ATOM     33  F   UNL     1      -5.188  -4.037  -5.431  1.00  0.00    -0.166 F 
ATOM     34  F   UNL     1      -4.662  -5.762  -4.218  1.00  0.00    -0.166 F 
ATOM     35  F   UNL     1      -6.348  -4.511  -3.655  1.00  0.00    -0.166 F 
ENDBRANCH  31  32
ENDBRANCH  23  25
ENDBRANCH  16  23
ENDBRANCH   9  14
ENDBRANCH   6   8
ENDBRANCH   5   6
ENDBRANCH   4   5
ENDBRANCH   3   4
ENDBRANCH   2   3
ENDBRANCH   1   2
BRANCH   1  36
ATOM     36  C   UNL     1       4.258  -0.536   8.010  1.00  0.00     0.188 C 
BRANCH  36  37
ATOM     37  O   UNL     1       3.276  -1.277   8.701  1.00  0.00    -0.376 OA
BRANCH  37  38
ATOM     38  C   UNL     1       3.566  -2.647   8.973  1.00  0.00     0.202 C 
BRANCH  38  39
ATOM     39  C   UNL     1       4.819  -2.962   9.830  1.00  0.00     0.261 C 
BRANCH  39  40
ATOM     40  O   UNL     1       6.087  -2.410   9.401  1.00  0.00    -0.460 OA
BRANCH  40  41
ATOM     41  C   UNL     1       6.532  -2.728   8.162  1.00  0.00     0.338 C 
ATOM     42  O   UNL     1       6.079  -3.602   7.438  1.00  0.00    -0.246 OA
BRANCH  41  43
ATOM     43  C   UNL     1       7.453  -1.649   7.685  1.00  0.00     0.060 A 
ATOM     44  C   UNL     1       7.234  -1.112   6.405  1.00  0.00     0.016 A 
ATOM     45  C   UNL     1       8.461  -1.109   8.489  1.00  0.00     0.016 A 
ATOM     46  C   UNL     1       8.045  -0.082   5.909  1.00  0.00     0.010 A 
ATOM     47  C   UNL     1       9.293  -0.096   7.981  1.00  0.00     0.010 A 
ATOM     48  C   UNL     1       9.116   0.398   6.674  1.00  0.00    -0.014 A 
BRANCH  48  49
ATOM     49  C   UNL     1      10.187   1.213   6.030  1.00  0.00     0.031 A 
ATOM     50  C   UNL     1      11.404   0.488   5.515  1.00  0.00     0.074 A 
ATOM     51  C   UNL     1      10.100   2.547   5.869  1.00  0.00     0.049 A 
ATOM     52  N   UNL     1      12.503   0.964   4.987  1.00  0.00    -0.248 NA
ATOM     53  C   UNL     1      11.373  -0.981   5.612  1.00  0.00     0.031 C 
ATOM     54  C   UNL     1       8.961   3.376   6.251  1.00  0.00     0.029 A 
ATOM     55  N   UNL     1      11.004   3.441   5.340  1.00  0.00    -0.354 N 
ATOM     56  C   UNL     1      13.291  -0.142   4.696  1.00  0.00     0.074 A 
ATOM     57  C   UNL     1      12.561  -1.312   5.132  1.00  0.00     0.031 C 
ATOM     58  C   UNL     1       9.238   4.659   5.955  1.00  0.00     0.029 A 
ATOM     59  C   UNL     1      10.589   4.750   5.396  1.00  0.00     0.049 A 
ATOM     60  H   UNL     1      11.869   3.167   4.956  1.00  0.00     0.167 HD
ATOM     61  C   UNL     1      14.510  -0.186   4.107  1.00  0.00     0.037 A 
ATOM     62  C   UNL     1      11.232   5.889   5.060  1.00  0.00     0.037 A 
ATOM     63  C   UNL     1      15.245   0.970   3.670  1.00  0.00     0.049 A 
ATOM     64  C   UNL     1      12.635   5.825   4.503  1.00  0.00     0.074 A 
ATOM     65  C   UNL     1      16.487   1.018   3.060  1.00  0.00     0.029 A 
ATOM     66  N   UNL     1      14.813   2.280   3.802  1.00  0.00    -0.354 N 
ATOM     67  N   UNL     1      13.371   4.776   4.226  1.00  0.00    -0.248 NA
ATOM     68  C   UNL     1      13.300   7.107   4.216  1.00  0.00     0.031 C 
ATOM     69  C   UNL     1      16.831   2.359   2.876  1.00  0.00     0.029 A 
ATOM     70  C   UNL     1      15.778   3.146   3.313  1.00  0.00     0.049 A 
ATOM     71  H   UNL     1      13.949   2.554   4.186  1.00  0.00     0.167 HD
ATOM     72  C   UNL     1      14.567   5.267   3.714  1.00  0.00     0.074 A 
ATOM     73  C   UNL     1      14.455   6.709   3.700  1.00  0.00     0.031 C 
ATOM     74  C   UNL     1      15.661   4.582   3.296  1.00  0.00     0.037 A 
BRANCH  61  75
ATOM     75  C   UNL     1      15.143  -1.534   3.918  1.00  0.00     0.064 A 
ATOM     76  C   UNL     1      14.659  -2.446   2.969  1.00  0.00     0.173 A 
ATOM     77  C   UNL     1      16.282  -1.893   4.654  1.00  0.00     0.173 A 
ATOM     78  F   UNL     1      13.562  -2.158   2.252  1.00  0.00    -0.203 F 
ATOM     79  C   UNL     1      15.284  -3.675   2.775  1.00  0.00     0.198 A 
ATOM     80  C   UNL     1      16.923  -3.108   4.435  1.00  0.00     0.198 A 
ATOM     81  F   UNL     1      16.785  -1.055   5.573  1.00  0.00    -0.203 F 
ATOM     82  F   UNL     1      14.782  -4.548   1.891  1.00  0.00    -0.200 F 
ATOM     83  C   UNL     1      16.421  -4.001   3.500  1.00  0.00     0.200 A 
ATOM     84  F   UNL     1      18.029  -3.414   5.126  1.00  0.00    -0.200 F 
ATOM     85  F   UNL     1      17.032  -5.176   3.299  1.00  0.00    -0.200 F 
ENDBRANCH  61  75
BRANCH  62  86
ATOM     86  C   UNL     1      10.561   7.205   5.249  1.00  0.00     0.064 A 
ATOM     87  C   UNL     1      10.199   7.997   4.149  1.00  0.00     0.173 A 
ATOM     88  C   UNL     1      10.282   7.707   6.529  1.00  0.00     0.173 A 
ATOM     89  F   UNL     1      10.478   7.582   2.905  1.00  0.00    -0.203 F 
ATOM     90  C   UNL     1       9.588   9.239   4.323  1.00  0.00     0.198 A 
ATOM     91  C   UNL     1       9.645   8.935   6.701  1.00  0.00     0.198 A 
ATOM     92  F   UNL     1      10.623   7.000   7.617  1.00  0.00    -0.203 F 
ATOM     93  F   UNL     1       9.291   9.992   3.255  1.00  0.00    -0.200 F 
ATOM     94  C   UNL     1       9.302   9.702   5.598  1.00  0.00     0.200 A 
ATOM     95  F   UNL     1       9.365   9.376   7.936  1.00  0.00    -0.200 F 
ATOM     96  F   UNL     1       8.706  10.890   5.764  1.00  0.00    -0.200 F 
ENDBRANCH  62  86
BRANCH  74  97
ATOM     97  C   UNL     1      16.829   5.367   2.766  1.00  0.00     0.064 A 
ATOM     98  C   UNL     1      17.645   6.132   3.612  1.00  0.00     0.173 A 
ATOM     99  C   UNL     1      17.188   5.284   1.411  1.00  0.00     0.173 A 
ATOM    100  F   UNL     1      17.344   6.252   4.913  1.00  0.00    -0.203 F 
ATOM    101  C   UNL     1      18.765   6.798   3.119  1.00  0.00     0.198 A 
ATOM    102  C   UNL     1      18.327   5.924   0.928  1.00  0.00     0.198 A 
ATOM    103  F   UNL     1      16.450   4.557   0.558  1.00  0.00    -0.203 F 
ATOM    104  F   UNL     1      19.509   7.552   3.939  1.00  0.00    -0.200 F 
ATOM    105  C   UNL     1      19.111   6.684   1.780  1.00  0.00     0.200 A 
ATOM    106  F   UNL     1      18.670   5.796  -0.362  1.00  0.00    -0.200 F 
ATOM    107  F   UNL     1      20.201   7.310   1.312  1.00  0.00    -0.200 F 
ENDBRANCH  74  97
ENDBRANCH  48  49
ENDBRANCH  41  43
ENDBRANCH  40  41
ENDBRANCH  39  40
ENDBRANCH  38  39
ENDBRANCH  37  38
ENDBRANCH  36  37
ENDBRANCH   1  36
TORSDOF 22
