REMARK SMILES O=C(OCCOCCOCCOC(=O)c1cccc(Nc2ccnc3ccc(F)cc23)c1)c1ccc(-c2c3nc(c(-c4c(F)c(F)c(F)c(F)c4F)c4ccc([nH]4)c(-c4c(F)c(F)c(F)c(F)c4F)c4nc(c(-c5c(F)c(F)c(F)c(F)c5F)c5ccc2[nH]5)C=C4)C=C3)cc1
REMARK SMILES IDX 7 1 6 2 5 3 4 4 3 5 2 6 1 7 33 8 34 9 95 10 35 11 94 12
REMARK SMILES IDX 36 13 37 14 38 15 88 16 39 17 93 18 87 19 89 20 40 21 92 22
REMARK SMILES IDX 86 23 85 24 41 26 73 27 53 28 72 29 54 30 57 31 71 32 90 33
REMARK SMILES IDX 55 34 56 35 70 37 91 38 58 39 42 40 43 41 51 42 44 43 45 44
REMARK SMILES IDX 49 45 52 46 46 47 47 48 50 49 48 50 74 51 75 52 83 53 76 54
REMARK SMILES IDX 77 55 81 56 84 57 78 58 79 59 82 60 80 61 59 62 60 63 68 64
REMARK SMILES IDX 61 65 62 66 66 67 69 68 63 69 64 70 67 71 65 72 8 73 9 74
REMARK SMILES IDX 10 75 11 76 12 77 13 78 14 79 15 80 16 81 32 82 17 83 19 84
REMARK SMILES IDX 18 85 20 86 21 88 22 89 31 90 23 91 25 92 30 93 24 94 26 95
REMARK SMILES IDX 28 96 27 97 29 98
REMARK H PARENT 89 25 57 36 20 87
REMARK Flexibility Score: inf
ROOT
ATOM      1  C   UNL     1       2.582   2.318   0.060  1.00  0.00     0.188 C 
ENDROOT
BRANCH   1   2
ATOM      2  O   UNL     1       3.845   1.732   0.388  1.00  0.00    -0.376 OA
BRANCH   2   3
ATOM      3  C   UNL     1       4.652   1.441  -0.759  1.00  0.00     0.202 C 
BRANCH   3   4
ATOM      4  C   UNL     1       4.294   0.132  -1.486  1.00  0.00     0.261 C 
BRANCH   4   5
ATOM      5  O   UNL     1       2.905  -0.224  -1.347  1.00  0.00    -0.460 OA
BRANCH   5   6
ATOM      6  C   UNL     1       2.355  -1.118  -0.484  1.00  0.00     0.338 C 
ATOM      7  O   UNL     1       1.160  -1.390  -0.582  1.00  0.00    -0.246 OA
BRANCH   6   8
ATOM      8  C   UNL     1       3.148  -1.823   0.565  1.00  0.00     0.060 A 
ATOM      9  C   UNL     1       4.281  -1.285   1.166  1.00  0.00     0.016 A 
ATOM     10  C   UNL     1       2.696  -3.075   1.016  1.00  0.00     0.016 A 
ATOM     11  C   UNL     1       5.044  -2.022   2.055  1.00  0.00     0.010 A 
ATOM     12  C   UNL     1       3.405  -3.784   1.997  1.00  0.00     0.010 A 
ATOM     13  C   UNL     1       4.611  -3.274   2.488  1.00  0.00    -0.014 A 
BRANCH  13  14
ATOM     14  C   UNL     1       5.509  -4.024   3.394  1.00  0.00     0.031 A 
ATOM     15  C   UNL     1       6.237  -5.223   2.870  1.00  0.00     0.074 A 
ATOM     16  C   UNL     1       5.810  -3.502   4.599  1.00  0.00     0.049 A 
ATOM     17  N   UNL     1       7.125  -5.975   3.464  1.00  0.00    -0.248 NA
ATOM     18  C   UNL     1       5.949  -5.615   1.480  1.00  0.00     0.031 C 
ATOM     19  C   UNL     1       5.236  -2.268   5.136  1.00  0.00     0.029 A 
ATOM     20  N   UNL     1       6.705  -3.892   5.560  1.00  0.00    -0.354 N 
ATOM     21  C   UNL     1       7.495  -6.928   2.527  1.00  0.00     0.074 A 
ATOM     22  C   UNL     1       6.722  -6.679   1.332  1.00  0.00     0.031 C 
ATOM     23  C   UNL     1       5.827  -1.972   6.302  1.00  0.00     0.029 A 
ATOM     24  C   UNL     1       6.760  -3.039   6.637  1.00  0.00     0.049 A 
ATOM     25  H   UNL     1       7.255  -4.705   5.487  1.00  0.00     0.167 HD
ATOM     26  C   UNL     1       8.409  -7.917   2.657  1.00  0.00     0.037 A 
ATOM     27  C   UNL     1       7.467  -3.127   7.779  1.00  0.00     0.037 A 
ATOM     28  C   UNL     1       9.162  -8.149   3.859  1.00  0.00     0.049 A 
ATOM     29  C   UNL     1       8.399  -4.298   7.935  1.00  0.00     0.074 A 
ATOM     30  C   UNL     1      10.041  -9.176   4.149  1.00  0.00     0.029 A 
ATOM     31  N   UNL     1       9.123  -7.324   4.976  1.00  0.00    -0.354 N 
ATOM     32  N   UNL     1       8.685  -5.243   7.071  1.00  0.00    -0.248 NA
ATOM     33  C   UNL     1       9.100  -4.423   9.218  1.00  0.00     0.031 C 
ATOM     34  C   UNL     1      10.509  -8.989   5.455  1.00  0.00     0.029 A 
ATOM     35  C   UNL     1       9.956  -7.823   5.963  1.00  0.00     0.049 A 
ATOM     36  H   UNL     1       8.583  -6.505   5.055  1.00  0.00     0.167 HD
ATOM     37  C   UNL     1       9.602  -6.071   7.700  1.00  0.00     0.074 A 
ATOM     38  C   UNL     1       9.852  -5.493   9.006  1.00  0.00     0.031 C 
ATOM     39  C   UNL     1      10.177  -7.213   7.250  1.00  0.00     0.037 A 
BRANCH  26  40
ATOM     40  C   UNL     1       8.588  -8.836   1.486  1.00  0.00     0.064 A 
ATOM     41  C   UNL     1       9.244  -8.422   0.317  1.00  0.00     0.173 A 
ATOM     42  C   UNL     1       8.065 -10.137   1.521  1.00  0.00     0.173 A 
ATOM     43  F   UNL     1       9.733  -7.176   0.222  1.00  0.00    -0.203 F 
ATOM     44  C   UNL     1       9.348  -9.270  -0.783  1.00  0.00     0.198 A 
ATOM     45  C   UNL     1       8.192 -10.990   0.428  1.00  0.00     0.198 A 
ATOM     46  F   UNL     1       7.420 -10.577   2.612  1.00  0.00    -0.203 F 
ATOM     47  F   UNL     1       9.929  -8.835  -1.910  1.00  0.00    -0.200 F 
ATOM     48  C   UNL     1       8.825 -10.554  -0.726  1.00  0.00     0.200 A 
ATOM     49  F   UNL     1       7.686 -12.230   0.486  1.00  0.00    -0.200 F 
ATOM     50  F   UNL     1       8.918 -11.365  -1.788  1.00  0.00    -0.200 F 
ENDBRANCH  26  40
BRANCH  27  51
ATOM     51  C   UNL     1       7.277  -2.124   8.866  1.00  0.00     0.064 A 
ATOM     52  C   UNL     1       8.330  -1.313   9.312  1.00  0.00     0.173 A 
ATOM     53  C   UNL     1       6.032  -1.971   9.500  1.00  0.00     0.173 A 
ATOM     54  F   UNL     1       9.542  -1.418   8.748  1.00  0.00    -0.203 F 
ATOM     55  C   UNL     1       8.155  -0.417  10.368  1.00  0.00     0.198 A 
ATOM     56  C   UNL     1       5.850  -1.053  10.532  1.00  0.00     0.198 A 
ATOM     57  F   UNL     1       4.977  -2.698   9.102  1.00  0.00    -0.203 F 
ATOM     58  F   UNL     1       9.194   0.307  10.807  1.00  0.00    -0.200 F 
ATOM     59  C   UNL     1       6.915  -0.286  10.975  1.00  0.00     0.200 A 
ATOM     60  F   UNL     1       4.641  -0.913  11.091  1.00  0.00    -0.200 F 
ATOM     61  F   UNL     1       6.748   0.574  11.988  1.00  0.00    -0.200 F 
ENDBRANCH  27  51
BRANCH  39  62
ATOM     62  C   UNL     1      11.138  -7.890   8.180  1.00  0.00     0.064 A 
ATOM     63  C   UNL     1      10.692  -8.571   9.322  1.00  0.00     0.173 A 
ATOM     64  C   UNL     1      12.514  -7.873   7.913  1.00  0.00     0.173 A 
ATOM     65  F   UNL     1       9.385  -8.597   9.625  1.00  0.00    -0.203 F 
ATOM     66  C   UNL     1      11.595  -9.187  10.181  1.00  0.00     0.198 A 
ATOM     67  C   UNL     1      13.412  -8.516   8.759  1.00  0.00     0.198 A 
ATOM     68  F   UNL     1      12.986  -7.238   6.829  1.00  0.00    -0.203 F 
ATOM     69  F   UNL     1      11.154  -9.786  11.296  1.00  0.00    -0.200 F 
ATOM     70  C   UNL     1      12.953  -9.164   9.896  1.00  0.00     0.200 A 
ATOM     71  F   UNL     1      14.722  -8.503   8.477  1.00  0.00    -0.200 F 
ATOM     72  F   UNL     1      13.822  -9.760  10.725  1.00  0.00    -0.200 F 
ENDBRANCH  39  62
ENDBRANCH  13  14
ENDBRANCH   6   8
ENDBRANCH   5   6
ENDBRANCH   4   5
ENDBRANCH   3   4
ENDBRANCH   2   3
ENDBRANCH   1   2
BRANCH   1  73
ATOM     73  C   UNL     1       2.162   3.417   1.043  1.00  0.00     0.188 C 
BRANCH  73  74
ATOM     74  O   UNL     1       3.042   4.537   1.125  1.00  0.00    -0.376 OA
BRANCH  74  75
ATOM     75  C   UNL     1       4.327   4.303   1.708  1.00  0.00     0.202 C 
BRANCH  75  76
ATOM     76  C   UNL     1       4.330   3.870   3.179  1.00  0.00     0.261 C 
BRANCH  76  77
ATOM     77  O   UNL     1       3.739   2.572   3.370  1.00  0.00    -0.460 OA
BRANCH  77  78
ATOM     78  C   UNL     1       3.413   2.304   4.654  1.00  0.00     0.338 C 
ATOM     79  O   UNL     1       3.696   2.993   5.630  1.00  0.00    -0.246 OA
BRANCH  78  80
ATOM     80  C   UNL     1       2.675   1.028   4.778  1.00  0.00     0.062 A 
ATOM     81  C   UNL     1       1.721   0.611   3.843  1.00  0.00     0.016 A 
ATOM     82  C   UNL     1       2.853   0.300   5.959  1.00  0.00     0.041 A 
ATOM     83  C   UNL     1       0.939  -0.516   4.098  1.00  0.00     0.003 A 
ATOM     84  C   UNL     1       2.058  -0.816   6.230  1.00  0.00     0.039 A 
ATOM     85  C   UNL     1       1.098  -1.214   5.294  1.00  0.00     0.026 A 
BRANCH  84  86
ATOM     86  N   UNL     1       2.056  -1.403   7.512  1.00  0.00    -0.355 N 
ATOM     87  H   UNL     1       2.691  -2.127   7.716  1.00  0.00     0.167 HD
BRANCH  86  88
ATOM     88  C   UNL     1       1.147  -0.963   8.514  1.00  0.00     0.050 A 
ATOM     89  C   UNL     1       1.084   0.396   8.835  1.00  0.00     0.047 A 
ATOM     90  C   UNL     1       0.350  -1.877   9.234  1.00  0.00     0.027 A 
ATOM     91  C   UNL     1       0.197   0.807   9.805  1.00  0.00     0.114 A 
ATOM     92  C   UNL     1      -0.522  -1.343  10.212  1.00  0.00     0.072 A 
ATOM     93  C   UNL     1       0.357  -3.269   8.999  1.00  0.00     0.051 A 
ATOM     94  N   UNL     1      -0.601  -0.032  10.488  1.00  0.00    -0.256 NA
ATOM     95  C   UNL     1      -1.347  -2.207  10.917  1.00  0.00     0.032 A 
ATOM     96  C   UNL     1      -0.484  -4.102   9.726  1.00  0.00     0.124 A 
ATOM     97  C   UNL     1      -1.337  -3.583  10.686  1.00  0.00     0.041 A 
ATOM     98  F   UNL     1      -0.477  -5.420   9.492  1.00  0.00    -0.207 F 
ENDBRANCH  86  88
ENDBRANCH  84  86
ENDBRANCH  78  80
ENDBRANCH  77  78
ENDBRANCH  76  77
ENDBRANCH  75  76
ENDBRANCH  74  75
ENDBRANCH  73  74
ENDBRANCH   1  73
TORSDOF 19
