REMARK SMILES COc1cc([N+](=O)[O-])cc([C@H]2[NH2+][C@H](C(=O)OCCOCCOCCOC(=O)c3ccc(-c4c5nc(c(-c6c(F)c(F)c(F)c(F)c6F)c6ccc([nH]6)c(-c6c(F)c(F)c(F)c(F)c6F)c6nc(c(-c7c(F)c(F)c(F)c(F)c7F)c7ccc4[nH]7)C=C6)C=C5)cc3)CS2)c1O
REMARK SMILES IDX 20 1 19 2 18 3 17 4 16 5 14 6 15 7 13 8 11 9 12 10 92 11
REMARK SMILES IDX 91 14 10 15 3 16 4 17 93 18 5 19 9 20 2 21 1 22 94 23 6 25
REMARK SMILES IDX 7 26 8 27 21 28 22 29 23 30 24 31 25 32 26 33 27 34 28 35
REMARK SMILES IDX 29 36 90 37 30 38 89 39 31 40 32 41 33 42 83 43 34 44 88 45
REMARK SMILES IDX 82 46 84 47 35 48 87 49 81 50 80 51 36 53 68 54 48 55 67 56
REMARK SMILES IDX 49 57 52 58 66 59 85 60 50 61 51 62 65 64 86 65 53 66 37 67
REMARK SMILES IDX 38 68 46 69 39 70 40 71 44 72 47 73 41 74 42 75 45 76 43 77
REMARK SMILES IDX 69 78 70 79 78 80 71 81 72 82 76 83 79 84 73 85 74 86 77 87
REMARK SMILES IDX 75 88 54 89 55 90 63 91 56 92 57 93 61 94 64 95 58 96 59 97
REMARK SMILES IDX 62 98 60 99
REMARK H PARENT 12 12 12 13 94 24 84 52 52 63
REMARK Flexibility Score: inf
ROOT
ATOM      1  C   UNL     1      -0.856  -0.407   2.592  1.00  0.00     0.188 C 
ENDROOT
BRANCH   1   2
ATOM      2  O   UNL     1       0.562  -0.334   2.499  1.00  0.00    -0.376 OA
BRANCH   2   3
ATOM      3  C   UNL     1       1.169   0.105   1.289  1.00  0.00     0.202 C 
BRANCH   3   4
ATOM      4  C   UNL     1       0.829  -0.642  -0.007  1.00  0.00     0.261 C 
BRANCH   4   5
ATOM      5  O   UNL     1      -0.582  -0.768  -0.262  1.00  0.00    -0.459 OA
BRANCH   5   6
ATOM      6  C   UNL     1      -1.061  -2.034  -0.333  1.00  0.00     0.365 C 
ATOM      7  O   UNL     1      -0.359  -3.042  -0.282  1.00  0.00    -0.245 OA
BRANCH   6   8
ATOM      8  C   UNL     1      -2.591  -2.135  -0.350  1.00  0.00     0.304 C 
ATOM      9  C   UNL     1      -3.887  -1.090  -2.097  1.00  0.00     0.278 C 
ATOM     10  N   UNL     1      -3.343  -0.890  -0.755  1.00  0.00    -0.319 N 
ATOM     11  S   UNL     1      -4.445  -2.835  -2.053  1.00  0.00    -0.087 SA
ATOM     12  H   UNL     1      -4.104  -0.719  -0.098  1.00  0.00     0.348 HD
ATOM     13  H   UNL     1      -2.715  -0.086  -0.750  1.00  0.00     0.348 HD
ATOM     14  C   UNL     1      -2.951  -3.340  -1.220  1.00  0.00     0.153 C 
BRANCH   9  15
ATOM     15  C   UNL     1      -5.033  -0.185  -2.535  1.00  0.00     0.073 A 
ATOM     16  C   UNL     1      -6.845   0.234  -4.158  1.00  0.00     0.167 A 
ATOM     17  C   UNL     1      -7.244   1.356  -3.439  1.00  0.00     0.136 A 
ATOM     18  C   UNL     1      -5.710  -0.474  -3.745  1.00  0.00     0.168 A 
ATOM     19  C   UNL     1      -6.534   1.731  -2.293  1.00  0.00     0.273 A 
ATOM     20  C   UNL     1      -5.447   0.960  -1.825  1.00  0.00     0.100 A 
BRANCH  16  21
ATOM     21  O   UNL     1      -7.633  -0.073  -5.237  1.00  0.00    -0.493 OA
ATOM     22  C   UNL     1      -7.729  -1.463  -5.550  1.00  0.00     0.278 C 
ENDBRANCH  16  21
BRANCH  18  23
ATOM     23  O   UNL     1      -5.224  -1.458  -4.570  1.00  0.00    -0.504 OA
ATOM     24  H   UNL     1      -5.665  -1.657  -5.373  1.00  0.00     0.293 HD
ENDBRANCH  18  23
BRANCH  19  25
ATOM     25  N   UNL     1      -6.942   2.948  -1.573  1.00  0.00     0.062 N 
ATOM     26  O   UNL     1      -7.903   3.591  -2.019  1.00  0.00    -0.258 OA
ATOM     27  O   UNL     1      -6.300   3.258  -0.560  1.00  0.00    -0.258 OA
ENDBRANCH  19  25
ENDBRANCH   9  15
ENDBRANCH   6   8
ENDBRANCH   5   6
ENDBRANCH   4   5
ENDBRANCH   3   4
ENDBRANCH   2   3
ENDBRANCH   1   2
BRANCH   1  28
ATOM     28  C   UNL     1      -1.736   0.687   1.955  1.00  0.00     0.188 C 
BRANCH  28  29
ATOM     29  O   UNL     1      -1.012   1.758   1.389  1.00  0.00    -0.376 OA
BRANCH  29  30
ATOM     30  C   UNL     1      -1.204   3.035   1.974  1.00  0.00     0.202 C 
BRANCH  30  31
ATOM     31  C   UNL     1      -0.733   3.193   3.429  1.00  0.00     0.261 C 
BRANCH  31  32
ATOM     32  O   UNL     1      -1.193   2.187   4.350  1.00  0.00    -0.460 OA
BRANCH  32  33
ATOM     33  C   UNL     1      -2.485   2.251   4.729  1.00  0.00     0.338 C 
ATOM     34  O   UNL     1      -3.311   3.088   4.385  1.00  0.00    -0.246 OA
BRANCH  33  35
ATOM     35  C   UNL     1      -2.822   1.022   5.477  1.00  0.00     0.060 A 
ATOM     36  C   UNL     1      -3.875   0.221   5.014  1.00  0.00     0.016 A 
ATOM     37  C   UNL     1      -2.135   0.676   6.645  1.00  0.00     0.016 A 
ATOM     38  C   UNL     1      -4.287  -0.890   5.752  1.00  0.00     0.010 A 
ATOM     39  C   UNL     1      -2.561  -0.427   7.394  1.00  0.00     0.010 A 
ATOM     40  C   UNL     1      -3.671  -1.183   6.977  1.00  0.00    -0.014 A 
BRANCH  40  41
ATOM     41  C   UNL     1      -4.363  -2.088   7.931  1.00  0.00     0.031 A 
ATOM     42  C   UNL     1      -5.275  -1.465   8.956  1.00  0.00     0.074 A 
ATOM     43  C   UNL     1      -4.245  -3.425   7.864  1.00  0.00     0.049 A 
ATOM     44  N   UNL     1      -6.012  -2.032   9.877  1.00  0.00    -0.248 NA
ATOM     45  C   UNL     1      -5.368   0.004   8.932  1.00  0.00     0.031 C 
ATOM     46  C   UNL     1      -3.437  -4.157   6.894  1.00  0.00     0.029 A 
ATOM     47  N   UNL     1      -4.820  -4.406   8.636  1.00  0.00    -0.354 N 
ATOM     48  C   UNL     1      -6.656  -0.992  10.536  1.00  0.00     0.074 A 
ATOM     49  C   UNL     1      -6.191   0.241   9.941  1.00  0.00     0.031 C 
ATOM     50  C   UNL     1      -3.571  -5.476   7.124  1.00  0.00     0.029 A 
ATOM     51  C   UNL     1      -4.455  -5.678   8.272  1.00  0.00     0.049 A 
ATOM     52  H   UNL     1      -5.435  -4.214   9.379  1.00  0.00     0.167 HD
ATOM     53  C   UNL     1      -7.567  -1.053  11.537  1.00  0.00     0.037 A 
ATOM     54  C   UNL     1      -4.797  -6.866   8.811  1.00  0.00     0.037 A 
ATOM     55  C   UNL     1      -8.021  -2.275  12.144  1.00  0.00     0.049 A 
ATOM     56  C   UNL     1      -5.743  -6.906   9.986  1.00  0.00     0.074 A 
ATOM     57  C   UNL     1      -8.930  -2.444  13.173  1.00  0.00     0.029 A 
ATOM     58  N   UNL     1      -7.589  -3.542  11.779  1.00  0.00    -0.354 N 
ATOM     59  N   UNL     1      -6.363  -5.921  10.589  1.00  0.00    -0.248 NA
ATOM     60  C   UNL     1      -6.041  -8.232  10.548  1.00  0.00     0.031 C 
ATOM     61  C   UNL     1      -9.012  -3.811  13.463  1.00  0.00     0.029 A 
ATOM     62  C   UNL     1      -8.200  -4.498  12.575  1.00  0.00     0.049 A 
ATOM     63  H   UNL     1      -6.944  -3.734  11.061  1.00  0.00     0.167 HD
ATOM     64  C   UNL     1      -7.157  -6.509  11.568  1.00  0.00     0.074 A 
ATOM     65  C   UNL     1      -6.942  -7.938  11.475  1.00  0.00     0.031 C 
ATOM     66  C   UNL     1      -7.994  -5.919  12.458  1.00  0.00     0.037 A 
BRANCH  53  67
ATOM     67  C   UNL     1      -8.103   0.252  12.050  1.00  0.00     0.064 A 
ATOM     68  C   UNL     1      -8.956   1.054  11.275  1.00  0.00     0.173 A 
ATOM     69  C   UNL     1      -7.750   0.714  13.326  1.00  0.00     0.173 A 
ATOM     70  F   UNL     1      -9.308   0.668  10.039  1.00  0.00    -0.203 F 
ATOM     71  C   UNL     1      -9.401   2.288  11.743  1.00  0.00     0.198 A 
ATOM     72  C   UNL     1      -8.224   1.932  13.805  1.00  0.00     0.198 A 
ATOM     73  F   UNL     1      -6.939  -0.015  14.109  1.00  0.00    -0.203 F 
ATOM     74  F   UNL     1     -10.160   3.066  10.959  1.00  0.00    -0.200 F 
ATOM     75  C   UNL     1      -9.039   2.723  13.009  1.00  0.00     0.200 A 
ATOM     76  F   UNL     1      -7.881   2.347  15.032  1.00  0.00    -0.200 F 
ATOM     77  F   UNL     1      -9.464   3.912  13.457  1.00  0.00    -0.200 F 
ENDBRANCH  53  67
BRANCH  54  78
ATOM     78  C   UNL     1      -4.263  -8.129   8.235  1.00  0.00     0.064 A 
ATOM     79  C   UNL     1      -5.107  -9.032   7.574  1.00  0.00     0.173 A 
ATOM     80  C   UNL     1      -2.909  -8.474   8.360  1.00  0.00     0.173 A 
ATOM     81  F   UNL     1      -6.415  -8.761   7.455  1.00  0.00    -0.203 F 
ATOM     82  C   UNL     1      -4.623 -10.240   7.076  1.00  0.00     0.198 A 
ATOM     83  C   UNL     1      -2.420  -9.670   7.837  1.00  0.00     0.198 A 
ATOM     84  F   UNL     1      -2.061  -7.648   8.989  1.00  0.00    -0.203 F 
ATOM     85  F   UNL     1      -5.462 -11.106   6.491  1.00  0.00    -0.200 F 
ATOM     86  C   UNL     1      -3.279 -10.555   7.203  1.00  0.00     0.200 A 
ATOM     87  F   UNL     1      -1.119  -9.967   7.955  1.00  0.00    -0.200 F 
ATOM     88  F   UNL     1      -2.812 -11.716   6.722  1.00  0.00    -0.200 F 
ENDBRANCH  54  78
BRANCH  66  89
ATOM     89  C   UNL     1      -8.793  -6.818  13.359  1.00  0.00     0.064 A 
ATOM     90  C   UNL     1      -8.200  -7.548  14.399  1.00  0.00     0.173 A 
ATOM     91  C   UNL     1     -10.183  -6.927  13.192  1.00  0.00     0.173 A 
ATOM     92  F   UNL     1      -6.875  -7.490  14.595  1.00  0.00    -0.203 F 
ATOM     93  C   UNL     1      -8.964  -8.379  15.216  1.00  0.00     0.198 A 
ATOM     94  C   UNL     1     -10.947  -7.733  14.031  1.00  0.00     0.198 A 
ATOM     95  F   UNL     1     -10.803  -6.243  12.218  1.00  0.00    -0.203 F 
ATOM     96  F   UNL     1      -8.367  -9.111  16.168  1.00  0.00    -0.200 F 
ATOM     97  C   UNL     1     -10.336  -8.466  15.036  1.00  0.00     0.200 A 
ATOM     98  F   UNL     1     -12.275  -7.803  13.864  1.00  0.00    -0.200 F 
ATOM     99  F   UNL     1     -11.068  -9.265  15.824  1.00  0.00    -0.200 F 
ENDBRANCH  66  89
ENDBRANCH  40  41
ENDBRANCH  33  35
ENDBRANCH  32  33
ENDBRANCH  31  32
ENDBRANCH  30  31
ENDBRANCH  29  30
ENDBRANCH  28  29
ENDBRANCH   1  28
TORSDOF 21
