REMARK SMILES O=C(OCCOCCOCCOC(=O)[C@H]1Cc2[nH]cnc2CN1C(=O)NCc1nc[nH]n1)c1ccc(-c2c3nc(c(-c4c(F)c(F)c(F)c(F)c4F)c4ccc([nH]4)c(-c4c(F)c(F)c(F)c(F)c4F)c4nc(c(-c5c(F)c(F)c(F)c(F)c5F)c5ccc2[nH]5)C=C4)C=C3)cc1
REMARK SMILES IDX 8 1 7 2 6 3 5 4 4 5 3 6 2 7 1 8 33 9 34 10 95 11 35 12 94 13
REMARK SMILES IDX 36 14 37 15 38 16 88 17 39 18 93 19 87 20 89 21 40 22 92 23
REMARK SMILES IDX 86 24 85 25 41 27 73 28 53 29 72 30 54 31 57 32 71 33 90 34
REMARK SMILES IDX 55 35 56 36 70 38 91 39 58 40 42 41 43 42 51 43 44 44 45 45
REMARK SMILES IDX 49 46 52 47 46 48 47 49 50 50 48 51 74 52 75 53 83 54 76 55
REMARK SMILES IDX 77 56 81 57 84 58 78 59 79 60 82 61 80 62 59 63 60 64 68 65
REMARK SMILES IDX 61 66 62 67 66 68 69 69 63 70 64 71 67 72 65 73 9 74 10 75
REMARK SMILES IDX 11 76 12 77 13 78 14 79 15 80 16 81 23 82 17 83 22 84 18 85
REMARK SMILES IDX 21 86 19 87 20 89 24 90 25 91 26 92 27 94 28 95 29 96 32 97
REMARK SMILES IDX 30 98 31 99
REMARK H PARENT 89 26 57 37 18 88 26 93 31 100
REMARK Flexibility Score: inf
ROOT
ATOM      1  C   UNL     1       1.468   1.599   2.078  1.00  0.00     0.188 C 
ENDROOT
BRANCH   1   2
ATOM      2  C   UNL     1       1.903   1.328   0.644  1.00  0.00     0.188 C 
BRANCH   2   3
ATOM      3  O   UNL     1       3.179   0.672   0.610  1.00  0.00    -0.376 OA
BRANCH   3   4
ATOM      4  C   UNL     1       4.196   1.408  -0.063  1.00  0.00     0.202 C 
BRANCH   4   5
ATOM      5  C   UNL     1       4.371   1.027  -1.529  1.00  0.00     0.261 C 
BRANCH   5   6
ATOM      6  O   UNL     1       3.182   1.191  -2.317  1.00  0.00    -0.460 OA
BRANCH   6   7
ATOM      7  C   UNL     1       2.100   0.385  -2.232  1.00  0.00     0.338 C 
ATOM      8  O   UNL     1       0.973   0.831  -2.435  1.00  0.00    -0.246 OA
BRANCH   7   9
ATOM      9  C   UNL     1       2.244  -1.064  -1.957  1.00  0.00     0.060 A 
ATOM     10  C   UNL     1       3.285  -1.814  -2.506  1.00  0.00     0.016 A 
ATOM     11  C   UNL     1       1.150  -1.709  -1.347  1.00  0.00     0.016 A 
ATOM     12  C   UNL     1       3.186  -3.195  -2.530  1.00  0.00     0.010 A 
ATOM     13  C   UNL     1       1.036  -3.088  -1.391  1.00  0.00     0.010 A 
ATOM     14  C   UNL     1       2.019  -3.808  -2.060  1.00  0.00    -0.014 A 
BRANCH  14  15
ATOM     15  C   UNL     1       1.786  -5.177  -2.487  1.00  0.00     0.031 A 
ATOM     16  C   UNL     1       2.511  -6.247  -1.769  1.00  0.00     0.074 A 
ATOM     17  C   UNL     1       0.957  -5.437  -3.518  1.00  0.00     0.049 A 
ATOM     18  N   UNL     1       3.388  -7.070  -2.248  1.00  0.00    -0.248 NA
ATOM     19  C   UNL     1       2.259  -6.396  -0.332  1.00  0.00     0.031 C 
ATOM     20  C   UNL     1      -0.019  -4.542  -4.148  1.00  0.00     0.029 A 
ATOM     21  N   UNL     1       0.772  -6.613  -4.179  1.00  0.00    -0.354 N 
ATOM     22  C   UNL     1       3.704  -7.940  -1.208  1.00  0.00     0.074 A 
ATOM     23  C   UNL     1       3.052  -7.425  -0.030  1.00  0.00     0.031 C 
ATOM     24  C   UNL     1      -0.825  -5.264  -4.959  1.00  0.00     0.029 A 
ATOM     25  C   UNL     1      -0.338  -6.632  -5.006  1.00  0.00     0.049 A 
ATOM     26  H   UNL     1       1.376  -7.384  -4.077  1.00  0.00     0.167 HD
ATOM     27  C   UNL     1       4.337  -9.123  -1.434  1.00  0.00     0.037 A 
ATOM     28  C   UNL     1      -0.858  -7.718  -5.625  1.00  0.00     0.037 A 
ATOM     29  C   UNL     1       5.043  -9.120  -2.687  1.00  0.00     0.049 A 
ATOM     30  C   UNL     1       0.206  -8.750  -5.698  1.00  0.00     0.074 A 
ATOM     31  C   UNL     1       6.077  -8.368  -3.211  1.00  0.00     0.029 A 
ATOM     32  N   UNL     1       4.501  -9.788  -3.757  1.00  0.00    -0.354 N 
ATOM     33  N   UNL     1       1.268  -8.656  -6.451  1.00  0.00    -0.248 NA
ATOM     34  C   UNL     1       0.299  -9.706  -4.605  1.00  0.00     0.031 C 
ATOM     35  C   UNL     1       5.779  -8.241  -4.599  1.00  0.00     0.029 A 
ATOM     36  C   UNL     1       4.601  -8.950  -4.837  1.00  0.00     0.049 A 
ATOM     37  H   UNL     1       4.114 -10.694  -3.749  1.00  0.00     0.167 HD
ATOM     38  C   UNL     1       2.287  -9.218  -5.696  1.00  0.00     0.074 A 
ATOM     39  C   UNL     1       1.614  -9.931  -4.615  1.00  0.00     0.031 C 
ATOM     40  C   UNL     1       3.585  -8.827  -5.854  1.00  0.00     0.037 A 
BRANCH  27  41
ATOM     41  C   UNL     1       4.064 -10.389  -0.663  1.00  0.00     0.064 A 
ATOM     42  C   UNL     1       4.881 -11.519  -0.872  1.00  0.00     0.173 A 
ATOM     43  C   UNL     1       2.861 -10.628   0.035  1.00  0.00     0.173 A 
ATOM     44  F   UNL     1       6.039 -11.413  -1.542  1.00  0.00    -0.203 F 
ATOM     45  C   UNL     1       4.481 -12.800  -0.483  1.00  0.00     0.198 A 
ATOM     46  C   UNL     1       2.491 -11.900   0.469  1.00  0.00     0.198 A 
ATOM     47  F   UNL     1       1.946  -9.669   0.222  1.00  0.00    -0.203 F 
ATOM     48  F   UNL     1       5.229 -13.860  -0.818  1.00  0.00    -0.200 F 
ATOM     49  C   UNL     1       3.283 -12.990   0.180  1.00  0.00     0.200 A 
ATOM     50  F   UNL     1       1.317 -12.068   1.094  1.00  0.00    -0.200 F 
ATOM     51  F   UNL     1       2.867 -14.224   0.494  1.00  0.00    -0.200 F 
ENDBRANCH  27  41
BRANCH  28  52
ATOM     52  C   UNL     1      -2.292  -8.020  -5.838  1.00  0.00     0.064 A 
ATOM     53  C   UNL     1      -2.704  -8.992  -6.762  1.00  0.00     0.173 A 
ATOM     54  C   UNL     1      -3.276  -7.543  -4.948  1.00  0.00     0.173 A 
ATOM     55  F   UNL     1      -1.819  -9.535  -7.610  1.00  0.00    -0.203 F 
ATOM     56  C   UNL     1      -4.020  -9.468  -6.784  1.00  0.00     0.198 A 
ATOM     57  C   UNL     1      -4.589  -8.011  -4.978  1.00  0.00     0.198 A 
ATOM     58  F   UNL     1      -2.961  -6.683  -3.969  1.00  0.00    -0.203 F 
ATOM     59  F   UNL     1      -4.365 -10.438  -7.642  1.00  0.00    -0.200 F 
ATOM     60  C   UNL     1      -4.958  -8.982  -5.888  1.00  0.00     0.200 A 
ATOM     61  F   UNL     1      -5.475  -7.559  -4.079  1.00  0.00    -0.200 F 
ATOM     62  F   UNL     1      -6.203  -9.477  -5.872  1.00  0.00    -0.200 F 
ENDBRANCH  28  52
BRANCH  40  63
ATOM     63  C   UNL     1       3.919  -7.963  -7.035  1.00  0.00     0.064 A 
ATOM     64  C   UNL     1       3.428  -6.656  -7.199  1.00  0.00     0.173 A 
ATOM     65  C   UNL     1       4.898  -8.403  -7.935  1.00  0.00     0.173 A 
ATOM     66  F   UNL     1       2.569  -6.128  -6.317  1.00  0.00    -0.203 F 
ATOM     67  C   UNL     1       3.870  -5.844  -8.241  1.00  0.00     0.198 A 
ATOM     68  C   UNL     1       5.363  -7.578  -8.955  1.00  0.00     0.198 A 
ATOM     69  F   UNL     1       5.447  -9.620  -7.789  1.00  0.00    -0.203 F 
ATOM     70  F   UNL     1       3.387  -4.600  -8.377  1.00  0.00    -0.200 F 
ATOM     71  C   UNL     1       4.844  -6.303  -9.113  1.00  0.00     0.200 A 
ATOM     72  F   UNL     1       6.343  -8.005  -9.764  1.00  0.00    -0.200 F 
ATOM     73  F   UNL     1       5.306  -5.504 -10.086  1.00  0.00    -0.200 F 
ENDBRANCH  40  63
ENDBRANCH  14  15
ENDBRANCH   7   9
ENDBRANCH   6   7
ENDBRANCH   5   6
ENDBRANCH   4   5
ENDBRANCH   3   4
ENDBRANCH   2   3
ENDBRANCH   1   2
BRANCH   1  74
ATOM     74  O   UNL     1       1.654   2.951   2.491  1.00  0.00    -0.376 OA
BRANCH  74  75
ATOM     75  C   UNL     1       2.961   3.263   2.974  1.00  0.00     0.202 C 
BRANCH  75  76
ATOM     76  C   UNL     1       3.143   2.901   4.457  1.00  0.00     0.261 C 
BRANCH  76  77
ATOM     77  O   UNL     1       3.318   1.473   4.600  1.00  0.00    -0.462 OA
BRANCH  77  78
ATOM     78  C   UNL     1       2.438   0.760   5.311  1.00  0.00     0.329 C 
ATOM     79  O   UNL     1       1.615   1.279   6.064  1.00  0.00    -0.250 OA
BRANCH  78  80
ATOM     80  C   UNL     1       2.432  -0.769   5.011  1.00  0.00     0.203 C 
ATOM     81  C   UNL     1       0.967  -1.061   4.532  1.00  0.00     0.093 C 
ATOM     82  N   UNL     1       3.397  -1.772   4.348  1.00  0.00    -0.305 N 
ATOM     83  C   UNL     1       0.696  -2.485   4.797  1.00  0.00     0.042 A 
ATOM     84  C   UNL     1       3.143  -3.180   4.814  1.00  0.00     0.180 C 
ATOM     85  N   UNL     1      -0.492  -3.085   5.076  1.00  0.00    -0.348 N 
ATOM     86  C   UNL     1       1.665  -3.454   4.910  1.00  0.00     0.081 A 
ATOM     87  C   UNL     1      -0.205  -4.397   5.344  1.00  0.00     0.197 A 
ATOM     88  H   UNL     1      -1.381  -2.660   5.083  1.00  0.00     0.167 HD
ATOM     89  N   UNL     1       1.086  -4.649   5.256  1.00  0.00    -0.240 NA
BRANCH  82  90
ATOM     90  C   UNL     1       3.853  -1.767   3.034  1.00  0.00     0.318 C 
ATOM     91  O   UNL     1       3.487  -2.594   2.197  1.00  0.00    -0.249 OA
ATOM     92  N   UNL     1       4.941  -1.004   2.721  1.00  0.00    -0.331 N 
ATOM     93  H   UNL     1       5.530  -1.322   1.999  1.00  0.00     0.165 HD
BRANCH  92  94
ATOM     94  C   UNL     1       5.286   0.220   3.365  1.00  0.00     0.197 C 
BRANCH  94  95
ATOM     95  C   UNL     1       6.432   1.036   2.871  1.00  0.00     0.169 A 
ATOM     96  N   UNL     1       6.207   2.342   2.468  1.00  0.00    -0.218 NA
ATOM     97  N   UNL     1       7.728   0.724   2.994  1.00  0.00    -0.157 NA
ATOM     98  C   UNL     1       7.409   2.848   2.366  1.00  0.00     0.216 A 
ATOM     99  N   UNL     1       8.321   1.892   2.674  1.00  0.00    -0.266 N 
ATOM    100  H   UNL     1       9.296   2.033   2.664  1.00  0.00     0.191 HD
ENDBRANCH  94  95
ENDBRANCH  92  94
ENDBRANCH  82  90
ENDBRANCH  78  80
ENDBRANCH  77  78
ENDBRANCH  76  77
ENDBRANCH  75  76
ENDBRANCH  74  75
ENDBRANCH   1  74
TORSDOF 20
