REMARK SMILES CS(=O)(=O)c1ccc(/C=C(/C(=O)OCCOCCOCCOC(=O)c2ccc(-c3c4nc(c(-c5c(F)c(F)c(F)c(F)c5F)c5ccc([nH]5)c(-c5c(F)c(F)c(F)c(F)c5F)c5nc(c(-c6c(F)c(F)c(F)c(F)c6F)c6ccc3[nH]6)C=C5)C=C4)cc2)c2ccc(-c3ccc(F)cc3F)cc2)cc1
REMARK SMILES IDX 17 1 16 2 15 3 14 4 13 5 11 6 12 7 10 8 9 9 8 10 5 11 6 12
REMARK SMILES IDX 103 13 7 14 102 15 2 16 1 17 3 18 4 19 88 20 89 21 101 22
REMARK SMILES IDX 90 23 100 24 91 25 92 26 93 27 98 28 94 29 97 30 99 31 95 32
REMARK SMILES IDX 96 33 18 34 19 35 20 36 21 37 22 38 23 39 24 40 25 41 26 42
REMARK SMILES IDX 87 43 27 44 86 45 28 46 29 47 30 48 80 49 31 50 85 51 79 52
REMARK SMILES IDX 81 53 32 54 84 55 78 56 77 57 33 59 65 60 45 61 64 62 46 63
REMARK SMILES IDX 49 64 63 65 82 66 47 67 48 68 62 70 83 71 50 72 34 73 35 74
REMARK SMILES IDX 43 75 36 76 37 77 41 78 44 79 38 80 39 81 42 82 40 83 66 84
REMARK SMILES IDX 67 85 75 86 68 87 69 88 73 89 76 90 70 91 71 92 74 93 72 94
REMARK SMILES IDX 51 95 52 96 60 97 53 98 54 99 58 100 61 101 55 102 56 103
REMARK SMILES IDX 59 104 57 105
REMARK H PARENT 81 58 49 69
REMARK Flexibility Score: inf
ROOT
ATOM      1  C   UNL     1       1.139   7.260   7.557  1.00  0.00     0.188 C 
ENDROOT
BRANCH   1   2
ATOM      2  O   UNL     1       1.512   8.592   7.858  1.00  0.00    -0.376 OA
BRANCH   2   3
ATOM      3  C   UNL     1       2.830   8.947   7.462  1.00  0.00     0.202 C 
BRANCH   3   4
ATOM      4  C   UNL     1       3.086   9.021   5.947  1.00  0.00     0.261 C 
BRANCH   4   5
ATOM      5  O   UNL     1       2.662   7.880   5.171  1.00  0.00    -0.460 OA
BRANCH   5   6
ATOM      6  C   UNL     1       3.432   6.764   5.200  1.00  0.00     0.338 C 
ATOM      7  O   UNL     1       4.465   6.647   5.841  1.00  0.00    -0.246 OA
BRANCH   6   8
ATOM      8  C   UNL     1       2.768   5.627   4.458  1.00  0.00     0.067 C 
ATOM      9  C   UNL     1       2.010   5.878   3.360  1.00  0.00     0.024 C 
BRANCH   9  10
ATOM     10  C   UNL     1       1.352   4.915   2.435  1.00  0.00    -0.025 A 
ATOM     11  C   UNL     1       0.494   3.032   0.520  1.00  0.00     0.067 A 
ATOM     12  C   UNL     1       0.438   2.715   1.874  1.00  0.00     0.021 A 
ATOM     13  C   UNL     1       0.863   4.317   0.119  1.00  0.00     0.021 A 
ATOM     14  C   UNL     1       0.830   3.670   2.821  1.00  0.00     0.009 A 
ATOM     15  C   UNL     1       1.284   5.251   1.074  1.00  0.00     0.009 A 
BRANCH  11  16
ATOM     16  S   UNL     1       0.152   1.798  -0.713  1.00  0.00     0.175 S 
ATOM     17  C   UNL     1       0.926   0.307  -0.139  1.00  0.00     0.163 C 
ATOM     18  O   UNL     1       0.858   2.195  -1.918  1.00  0.00    -0.224 OA
ATOM     19  O   UNL     1      -1.282   1.595  -0.714  1.00  0.00    -0.224 OA
ENDBRANCH  11  16
ENDBRANCH   9  10
BRANCH   8  20
ATOM     20  C   UNL     1       2.943   4.261   4.995  1.00  0.00    -0.011 A 
ATOM     21  C   UNL     1       2.248   3.889   6.154  1.00  0.00     0.009 A 
ATOM     22  C   UNL     1       3.665   3.283   4.306  1.00  0.00     0.009 A 
ATOM     23  C   UNL     1       2.249   2.566   6.597  1.00  0.00     0.009 A 
ATOM     24  C   UNL     1       3.651   1.953   4.748  1.00  0.00     0.009 A 
ATOM     25  C   UNL     1       2.941   1.568   5.899  1.00  0.00    -0.015 A 
BRANCH  25  26
ATOM     26  C   UNL     1       2.915   0.173   6.374  1.00  0.00     0.018 A 
ATOM     27  C   UNL     1       1.710  -0.439   6.775  1.00  0.00     0.015 A 
ATOM     28  C   UNL     1       4.092  -0.588   6.476  1.00  0.00     0.133 A 
ATOM     29  C   UNL     1       1.696  -1.749   7.263  1.00  0.00     0.040 A 
ATOM     30  C   UNL     1       4.086  -1.894   6.954  1.00  0.00     0.079 A 
ATOM     31  F   UNL     1       5.274  -0.053   6.131  1.00  0.00    -0.206 F 
ATOM     32  C   UNL     1       2.884  -2.463   7.343  1.00  0.00     0.126 A 
ATOM     33  F   UNL     1       2.869  -3.719   7.803  1.00  0.00    -0.207 F 
ENDBRANCH  25  26
ENDBRANCH   8  20
ENDBRANCH   6   8
ENDBRANCH   5   6
ENDBRANCH   4   5
ENDBRANCH   3   4
ENDBRANCH   2   3
ENDBRANCH   1   2
BRANCH   1  34
ATOM     34  C   UNL     1       0.093   7.143   6.429  1.00  0.00     0.188 C 
BRANCH  34  35
ATOM     35  O   UNL     1      -0.572   8.288   5.926  1.00  0.00    -0.376 OA
BRANCH  35  36
ATOM     36  C   UNL     1      -0.954   9.321   6.817  1.00  0.00     0.202 C 
BRANCH  36  37
ATOM     37  C   UNL     1      -1.772   8.997   8.082  1.00  0.00     0.261 C 
BRANCH  37  38
ATOM     38  O   UNL     1      -1.488   7.752   8.742  1.00  0.00    -0.460 OA
BRANCH  38  39
ATOM     39  C   UNL     1      -2.343   6.736   8.481  1.00  0.00     0.338 C 
ATOM     40  O   UNL     1      -3.331   6.764   7.758  1.00  0.00    -0.246 OA
BRANCH  39  41
ATOM     41  C   UNL     1      -1.820   5.481   9.065  1.00  0.00     0.060 A 
ATOM     42  C   UNL     1      -1.569   4.396   8.211  1.00  0.00     0.016 A 
ATOM     43  C   UNL     1      -1.630   5.346  10.441  1.00  0.00     0.016 A 
ATOM     44  C   UNL     1      -1.153   3.170   8.730  1.00  0.00     0.010 A 
ATOM     45  C   UNL     1      -1.240   4.106  10.965  1.00  0.00     0.010 A 
ATOM     46  C   UNL     1      -1.028   3.005  10.116  1.00  0.00    -0.014 A 
BRANCH  46  47
ATOM     47  C   UNL     1      -0.876   1.637  10.675  1.00  0.00     0.031 A 
ATOM     48  C   UNL     1      -2.113   0.901  11.113  1.00  0.00     0.074 A 
ATOM     49  C   UNL     1       0.325   1.038  10.761  1.00  0.00     0.049 A 
ATOM     50  N   UNL     1      -2.231  -0.289  11.646  1.00  0.00    -0.248 NA
ATOM     51  C   UNL     1      -3.391   1.606  10.925  1.00  0.00     0.031 C 
ATOM     52  C   UNL     1       1.593   1.630  10.347  1.00  0.00     0.029 A 
ATOM     53  N   UNL     1       0.671  -0.204  11.236  1.00  0.00    -0.354 N 
ATOM     54  C   UNL     1      -3.591  -0.471  11.864  1.00  0.00     0.074 A 
ATOM     55  C   UNL     1      -4.255   0.739  11.431  1.00  0.00     0.031 C 
ATOM     56  C   UNL     1       2.583   0.750  10.581  1.00  0.00     0.029 A 
ATOM     57  C   UNL     1       2.024  -0.446  11.212  1.00  0.00     0.049 A 
ATOM     58  H   UNL     1       0.013  -0.859  11.563  1.00  0.00     0.167 HD
ATOM     59  C   UNL     1      -4.229  -1.550  12.376  1.00  0.00     0.037 A 
ATOM     60  C   UNL     1       2.729  -1.498  11.677  1.00  0.00     0.037 A 
ATOM     61  C   UNL     1      -3.567  -2.747  12.825  1.00  0.00     0.049 A 
ATOM     62  C   UNL     1       1.999  -2.654  12.321  1.00  0.00     0.074 A 
ATOM     63  C   UNL     1      -4.130  -3.898  13.349  1.00  0.00     0.029 A 
ATOM     64  N   UNL     1      -2.194  -2.941  12.818  1.00  0.00    -0.354 N 
ATOM     65  N   UNL     1       0.711  -2.832  12.492  1.00  0.00    -0.248 NA
ATOM     66  C   UNL     1       2.826  -3.755  12.837  1.00  0.00     0.031 C 
ATOM     67  C   UNL     1      -3.094  -4.761  13.719  1.00  0.00     0.029 A 
ATOM     68  C   UNL     1      -1.889  -4.181  13.355  1.00  0.00     0.049 A 
ATOM     69  H   UNL     1      -1.534  -2.292  12.482  1.00  0.00     0.167 HD
ATOM     70  C   UNL     1       0.573  -4.076  13.099  1.00  0.00     0.074 A 
ATOM     71  C   UNL     1       1.907  -4.614  13.256  1.00  0.00     0.031 C 
ATOM     72  C   UNL     1      -0.557  -4.715  13.490  1.00  0.00     0.037 A 
BRANCH  59  73
ATOM     73  C   UNL     1      -5.723  -1.470  12.513  1.00  0.00     0.064 A 
ATOM     74  C   UNL     1      -6.569  -1.473  11.394  1.00  0.00     0.173 A 
ATOM     75  C   UNL     1      -6.316  -1.421  13.784  1.00  0.00     0.173 A 
ATOM     76  F   UNL     1      -6.052  -1.505  10.156  1.00  0.00    -0.203 F 
ATOM     77  C   UNL     1      -7.952  -1.399  11.541  1.00  0.00     0.198 A 
ATOM     78  C   UNL     1      -7.700  -1.381  13.928  1.00  0.00     0.198 A 
ATOM     79  F   UNL     1      -5.554  -1.420  14.887  1.00  0.00    -0.203 F 
ATOM     80  F   UNL     1      -8.738  -1.349  10.457  1.00  0.00    -0.200 F 
ATOM     81  C   UNL     1      -8.516  -1.361  12.807  1.00  0.00     0.200 A 
ATOM     82  F   UNL     1      -8.244  -1.360  15.153  1.00  0.00    -0.200 F 
ATOM     83  F   UNL     1      -9.848  -1.297  12.948  1.00  0.00    -0.200 F 
ENDBRANCH  59  73
BRANCH  60  84
ATOM     84  C   UNL     1       4.215  -1.506  11.580  1.00  0.00     0.064 A 
ATOM     85  C   UNL     1       4.886  -2.449  10.789  1.00  0.00     0.173 A 
ATOM     86  C   UNL     1       4.999  -0.598  12.308  1.00  0.00     0.173 A 
ATOM     87  F   UNL     1       4.189  -3.372  10.113  1.00  0.00    -0.203 F 
ATOM     88  C   UNL     1       6.278  -2.492  10.738  1.00  0.00     0.198 A 
ATOM     89  C   UNL     1       6.390  -0.624  12.236  1.00  0.00     0.198 A 
ATOM     90  F   UNL     1       4.412   0.317  13.094  1.00  0.00    -0.203 F 
ATOM     91  F   UNL     1       6.889  -3.438  10.011  1.00  0.00    -0.200 F 
ATOM     92  C   UNL     1       7.029  -1.576  11.456  1.00  0.00     0.200 A 
ATOM     93  F   UNL     1       7.111   0.267  12.929  1.00  0.00    -0.200 F 
ATOM     94  F   UNL     1       8.368  -1.621  11.411  1.00  0.00    -0.200 F 
ENDBRANCH  60  84
BRANCH  72  95
ATOM     95  C   UNL     1      -0.415  -6.097  14.069  1.00  0.00     0.064 A 
ATOM     96  C   UNL     1       0.153  -6.321  15.332  1.00  0.00     0.173 A 
ATOM     97  C   UNL     1      -0.903  -7.210  13.365  1.00  0.00     0.173 A 
ATOM     98  F   UNL     1       0.645  -5.295  16.043  1.00  0.00    -0.203 F 
ATOM     99  C   UNL     1       0.255  -7.609  15.854  1.00  0.00     0.198 A 
ATOM    100  C   UNL     1      -0.833  -8.491  13.906  1.00  0.00     0.198 A 
ATOM    101  F   UNL     1      -1.467  -7.053  12.158  1.00  0.00    -0.203 F 
ATOM    102  F   UNL     1       0.849  -7.804  17.040  1.00  0.00    -0.200 F 
ATOM    103  C   UNL     1      -0.246  -8.691  15.146  1.00  0.00     0.200 A 
ATOM    104  F   UNL     1      -1.336  -9.532  13.227  1.00  0.00    -0.200 F 
ATOM    105  F   UNL     1      -0.158  -9.927  15.655  1.00  0.00    -0.200 F 
ENDBRANCH  72  95
ENDBRANCH  46  47
ENDBRANCH  39  41
ENDBRANCH  38  39
ENDBRANCH  37  38
ENDBRANCH  36  37
ENDBRANCH  35  36
ENDBRANCH  34  35
ENDBRANCH   1  34
TORSDOF 21
