REMARK SMILES COc1cccc(NC(=O)/C(C#N)=C\c2ccc(O[C@@H](C)C(=O)OCCOCCOCCOC(=O)c3ccc(-c4c5nc(c(-c6c(F)c(F)c(F)c(F)c6F)c6ccc([nH]6)c(-c6c(F)c(F)c(F)c(F)c6F)c6nc(c(-c7c(F)c(F)c(F)c(F)c7F)c7ccc4[nH]7)C=C6)C=C5)cc3)cc2)c1
REMARK SMILES IDX 26 1 25 2 24 3 22 4 23 5 20 6 21 7 19 8 18 9 15 10 16 11
REMARK SMILES IDX 100 12 17 13 99 14 14 15 11 16 9 17 8 18 10 20 7 21 3 22
REMARK SMILES IDX 4 23 101 24 5 25 6 26 2 27 1 28 12 29 13 30 27 31 28 32
REMARK SMILES IDX 29 33 30 34 31 35 32 36 33 37 34 38 35 39 36 40 37 41 98 42
REMARK SMILES IDX 38 43 97 44 39 45 40 46 41 47 91 48 42 49 96 50 90 51 92 52
REMARK SMILES IDX 43 53 95 54 89 55 88 56 44 58 76 59 56 60 75 61 57 62 60 63
REMARK SMILES IDX 74 64 93 65 58 66 59 67 73 69 94 70 61 71 45 72 46 73 54 74
REMARK SMILES IDX 47 75 48 76 52 77 55 78 49 79 50 80 53 81 51 82 77 83 78 84
REMARK SMILES IDX 86 85 79 86 80 87 84 88 87 89 81 90 82 91 85 92 83 93 62 94
REMARK SMILES IDX 63 95 71 96 64 97 65 98 69 99 72 100 66 101 67 102 70 103
REMARK SMILES IDX 68 104
REMARK H PARENT 8 19 92 57 60 68
REMARK Flexibility Score: inf
ROOT
ATOM      1  C   UNL     1       9.720   5.030   9.190  1.00  0.00     0.202 C 
ENDROOT
BRANCH   1   2
ATOM      2  C   UNL     1       9.825   4.226   7.888  1.00  0.00     0.261 C 
BRANCH   2   3
ATOM      3  O   UNL     1       9.688   2.809   8.095  1.00  0.00    -0.461 OA
BRANCH   3   4
ATOM      4  C   UNL     1      10.577   1.976   7.496  1.00  0.00     0.347 C 
ATOM      5  O   UNL     1      11.483   2.360   6.765  1.00  0.00    -0.248 OA
BRANCH   4   6
ATOM      6  C   UNL     1      10.365   0.469   7.867  1.00  0.00     0.279 C 
ATOM      7  C   UNL     1      10.466  -0.387   6.604  1.00  0.00     0.066 C 
BRANCH   6   8
ATOM      8  O   UNL     1       9.373  -0.098   8.718  1.00  0.00    -0.479 OA
BRANCH   8   9
ATOM      9  C   UNL     1       8.047   0.169   8.545  1.00  0.00     0.120 A 
ATOM     10  C   UNL     1       5.294   0.642   8.399  1.00  0.00    -0.024 A 
ATOM     11  C   UNL     1       5.785  -0.263   9.339  1.00  0.00     0.012 A 
ATOM     12  C   UNL     1       6.188   1.370   7.612  1.00  0.00     0.012 A 
ATOM     13  C   UNL     1       7.167  -0.478   9.425  1.00  0.00     0.047 A 
ATOM     14  C   UNL     1       7.536   1.061   7.617  1.00  0.00     0.047 A 
BRANCH  10  15
ATOM     15  C   UNL     1       3.873   0.779   8.098  1.00  0.00     0.033 C 
ATOM     16  C   UNL     1       3.403   0.597   6.851  1.00  0.00     0.118 C 
BRANCH  16  17
ATOM     17  C   UNL     1       4.171   0.037   5.619  1.00  0.00     0.266 C 
ATOM     18  N   UNL     1       3.776   0.143   4.298  1.00  0.00    -0.321 N 
ATOM     19  H   UNL     1       4.557   0.172   3.700  1.00  0.00     0.170 HD
ATOM     20  O   UNL     1       5.289  -0.471   5.757  1.00  0.00    -0.268 OA
BRANCH  18  21
ATOM     21  C   UNL     1       2.573   0.221   3.557  1.00  0.00     0.045 A 
ATOM     22  C   UNL     1       1.435   0.943   1.539  1.00  0.00     0.120 A 
ATOM     23  C   UNL     1       0.193   0.679   2.102  1.00  0.00     0.046 A 
ATOM     24  C   UNL     1       2.617   0.771   2.270  1.00  0.00     0.072 A 
ATOM     25  C   UNL     1       0.158   0.001   3.307  1.00  0.00     0.006 A 
ATOM     26  C   UNL     1       1.356  -0.316   3.968  1.00  0.00     0.026 A 
BRANCH  22  27
ATOM     27  O   UNL     1       1.495   1.341   0.230  1.00  0.00    -0.497 OA
ATOM     28  C   UNL     1       1.347   0.181  -0.603  1.00  0.00     0.278 C 
ENDBRANCH  22  27
ENDBRANCH  18  21
ENDBRANCH  16  17
BRANCH  16  29
ATOM     29  C   UNL     1       1.940   0.830   6.513  1.00  0.00     0.105 C 
ATOM     30  N   UNL     1       0.726   1.023   6.232  1.00  0.00    -0.192 NA
ENDBRANCH  16  29
ENDBRANCH  10  15
ENDBRANCH   8   9
ENDBRANCH   6   8
ENDBRANCH   4   6
ENDBRANCH   3   4
ENDBRANCH   2   3
ENDBRANCH   1   2
BRANCH   1  31
ATOM     31  O   UNL     1      10.591   4.668  10.258  1.00  0.00    -0.376 OA
BRANCH  31  32
ATOM     32  C   UNL     1      10.626   3.308  10.680  1.00  0.00     0.188 C 
BRANCH  32  33
ATOM     33  C   UNL     1       9.307   2.535  10.862  1.00  0.00     0.188 C 
BRANCH  33  34
ATOM     34  O   UNL     1       8.134   3.301  10.667  1.00  0.00    -0.376 OA
BRANCH  34  35
ATOM     35  C   UNL     1       7.281   3.401  11.796  1.00  0.00     0.202 C 
BRANCH  35  36
ATOM     36  C   UNL     1       7.857   4.231  12.952  1.00  0.00     0.261 C 
BRANCH  36  37
ATOM     37  O   UNL     1       9.151   3.815  13.435  1.00  0.00    -0.460 OA
BRANCH  37  38
ATOM     38  C   UNL     1       9.228   2.631  14.083  1.00  0.00     0.338 C 
ATOM     39  O   UNL     1       8.306   1.877  14.348  1.00  0.00    -0.246 OA
BRANCH  38  40
ATOM     40  C   UNL     1      10.662   2.283  14.226  1.00  0.00     0.060 A 
ATOM     41  C   UNL     1      11.145   1.097  13.653  1.00  0.00     0.016 A 
ATOM     42  C   UNL     1      11.536   3.140  14.898  1.00  0.00     0.016 A 
ATOM     43  C   UNL     1      12.496   0.754  13.772  1.00  0.00     0.010 A 
ATOM     44  C   UNL     1      12.882   2.785  15.037  1.00  0.00     0.010 A 
ATOM     45  C   UNL     1      13.365   1.577  14.500  1.00  0.00    -0.014 A 
BRANCH  45  46
ATOM     46  C   UNL     1      14.725   1.100  14.865  1.00  0.00     0.031 A 
ATOM     47  C   UNL     1      14.936   0.523  16.239  1.00  0.00     0.074 A 
ATOM     48  C   UNL     1      15.760   1.180  14.011  1.00  0.00     0.049 A 
ATOM     49  N   UNL     1      16.038   0.112  16.814  1.00  0.00    -0.248 NA
ATOM     50  C   UNL     1      13.736   0.404  17.081  1.00  0.00     0.031 C 
ATOM     51  C   UNL     1      15.691   1.686  12.643  1.00  0.00     0.029 A 
ATOM     52  N   UNL     1      17.084   0.849  14.183  1.00  0.00    -0.354 N 
ATOM     53  C   UNL     1      15.666  -0.302  18.087  1.00  0.00     0.074 A 
ATOM     54  C   UNL     1      14.244  -0.062  18.211  1.00  0.00     0.031 C 
ATOM     55  C   UNL     1      16.922   1.648  12.103  1.00  0.00     0.029 A 
ATOM     56  C   UNL     1      17.871   1.148  13.098  1.00  0.00     0.049 A 
ATOM     57  H   UNL     1      17.433   0.436  15.005  1.00  0.00     0.167 HD
ATOM     58  C   UNL     1      16.436  -0.841  19.063  1.00  0.00     0.037 A 
ATOM     59  C   UNL     1      19.207   1.055  12.938  1.00  0.00     0.037 A 
ATOM     60  C   UNL     1      17.852  -1.073  18.943  1.00  0.00     0.049 A 
ATOM     61  C   UNL     1      20.059   0.521  14.064  1.00  0.00     0.074 A 
ATOM     62  C   UNL     1      18.713  -1.642  19.865  1.00  0.00     0.029 A 
ATOM     63  N   UNL     1      18.619  -0.734  17.838  1.00  0.00    -0.354 N 
ATOM     64  N   UNL     1      19.697   0.095  15.250  1.00  0.00    -0.248 NA
ATOM     65  C   UNL     1      21.509   0.451  13.824  1.00  0.00     0.031 C 
ATOM     66  C   UNL     1      20.011  -1.585  19.345  1.00  0.00     0.029 A 
ATOM     67  C   UNL     1      19.949  -1.048  18.069  1.00  0.00     0.049 A 
ATOM     68  H   UNL     1      18.269  -0.329  17.011  1.00  0.00     0.167 HD
ATOM     69  C   UNL     1      20.863  -0.319  15.884  1.00  0.00     0.074 A 
ATOM     70  C   UNL     1      21.944  -0.106  14.945  1.00  0.00     0.031 C 
ATOM     71  C   UNL     1      21.022  -0.833  17.129  1.00  0.00     0.037 A 
BRANCH  58  72
ATOM     72  C   UNL     1      15.764  -1.178  20.364  1.00  0.00     0.064 A 
ATOM     73  C   UNL     1      14.828  -2.218  20.468  1.00  0.00     0.173 A 
ATOM     74  C   UNL     1      16.069  -0.453  21.526  1.00  0.00     0.173 A 
ATOM     75  F   UNL     1      14.490  -2.934  19.386  1.00  0.00    -0.203 F 
ATOM     76  C   UNL     1      14.194  -2.494  21.678  1.00  0.00     0.198 A 
ATOM     77  C   UNL     1      15.461  -0.755  22.741  1.00  0.00     0.198 A 
ATOM     78  F   UNL     1      16.961   0.549  21.485  1.00  0.00    -0.203 F 
ATOM     79  F   UNL     1      13.257  -3.450  21.738  1.00  0.00    -0.200 F 
ATOM     80  C   UNL     1      14.515  -1.766  22.814  1.00  0.00     0.200 A 
ATOM     81  F   UNL     1      15.784  -0.061  23.841  1.00  0.00    -0.200 F 
ATOM     82  F   UNL     1      13.906  -2.034  23.977  1.00  0.00    -0.200 F 
ENDBRANCH  58  72
BRANCH  59  83
ATOM     83  C   UNL     1      19.831   1.489  11.659  1.00  0.00     0.064 A 
ATOM     84  C   UNL     1      20.421   0.562  10.789  1.00  0.00     0.173 A 
ATOM     85  C   UNL     1      19.859   2.842  11.286  1.00  0.00     0.173 A 
ATOM     86  F   UNL     1      20.449  -0.738  11.116  1.00  0.00    -0.203 F 
ATOM     87  C   UNL     1      21.025   0.972   9.601  1.00  0.00     0.198 A 
ATOM     88  C   UNL     1      20.436   3.246  10.084  1.00  0.00     0.198 A 
ATOM     89  F   UNL     1      19.316   3.771  12.087  1.00  0.00    -0.203 F 
ATOM     90  F   UNL     1      21.622   0.070   8.810  1.00  0.00    -0.200 F 
ATOM     91  C   UNL     1      21.024   2.312   9.246  1.00  0.00     0.200 A 
ATOM     92  F   UNL     1      20.425   4.541   9.740  1.00  0.00    -0.200 F 
ATOM     93  F   UNL     1      21.598   2.704   8.100  1.00  0.00    -0.200 F 
ENDBRANCH  59  83
BRANCH  71  94
ATOM     94  C   UNL     1      22.409  -1.241  17.544  1.00  0.00     0.064 A 
ATOM     95  C   UNL     1      23.417  -0.297  17.793  1.00  0.00     0.173 A 
ATOM     96  C   UNL     1      22.721  -2.596  17.738  1.00  0.00     0.173 A 
ATOM     97  F   UNL     1      23.178   1.010  17.613  1.00  0.00    -0.203 F 
ATOM     98  C   UNL     1      24.692  -0.697  18.191  1.00  0.00     0.198 A 
ATOM     99  C   UNL     1      23.985  -2.990  18.170  1.00  0.00     0.198 A 
ATOM    100  F   UNL     1      21.794  -3.542  17.524  1.00  0.00    -0.203 F 
ATOM    101  F   UNL     1      25.653   0.219  18.372  1.00  0.00    -0.200 F 
ATOM    102  C   UNL     1      24.972  -2.041  18.387  1.00  0.00     0.200 A 
ATOM    103  F   UNL     1      24.248  -4.288  18.375  1.00  0.00    -0.200 F 
ATOM    104  F   UNL     1      26.196  -2.422  18.778  1.00  0.00    -0.200 F 
ENDBRANCH  71  94
ENDBRANCH  45  46
ENDBRANCH  38  40
ENDBRANCH  37  38
ENDBRANCH  36  37
ENDBRANCH  35  36
ENDBRANCH  34  35
ENDBRANCH  33  34
ENDBRANCH  32  33
ENDBRANCH  31  32
ENDBRANCH   1  31
TORSDOF 24
