REMARK SMILES COc1cccc(NC(=O)[C@@H]2[C@@H](C(=O)OCCOCCOCCOC(=O)c3ccc(-c4c5nc(c(-c6c(F)c(F)c(F)c(F)c6F)c6ccc([nH]6)c(-c6c(F)c(F)c(F)c(F)c6F)c6nc(c(-c7c(F)c(F)c(F)c(F)c7F)c7ccc4[nH]7)C=C6)C=C5)cc3)[C@H]3C=C[C@@H]2C3)c1
REMARK SMILES IDX 19 1 18 2 17 3 16 4 15 5 13 6 14 7 12 8 11 9 93 10 90 11
REMARK SMILES IDX 92 12 94 13 91 14 9 15 8 16 10 18 7 19 3 20 4 21 95 22 5 23
REMARK SMILES IDX 6 24 2 25 1 26 20 27 21 28 22 29 23 30 24 31 25 32 26 33
REMARK SMILES IDX 27 34 28 35 89 36 29 37 88 38 30 39 31 40 32 41 82 42 33 43
REMARK SMILES IDX 87 44 81 45 83 46 34 47 86 48 80 49 79 50 35 52 67 53 47 54
REMARK SMILES IDX 66 55 48 56 51 57 65 58 84 59 49 60 50 61 64 63 85 64 52 65
REMARK SMILES IDX 36 66 37 67 45 68 38 69 39 70 43 71 46 72 40 73 41 74 44 75
REMARK SMILES IDX 42 76 68 77 69 78 77 79 70 80 71 81 75 82 78 83 72 84 73 85
REMARK SMILES IDX 76 86 74 87 53 88 54 89 62 90 55 91 56 92 60 93 63 94 57 95
REMARK SMILES IDX 58 96 61 97 59 98
REMARK H PARENT 8 17 83 51 51 62
REMARK Flexibility Score: inf
ROOT
ATOM      1  C   UNL     1       1.356   2.707 -10.517  1.00  0.00     0.188 C 
ENDROOT
BRANCH   1   2
ATOM      2  O   UNL     1       2.518   3.048 -11.258  1.00  0.00    -0.376 OA
BRANCH   2   3
ATOM      3  C   UNL     1       3.492   2.043 -11.508  1.00  0.00     0.202 C 
BRANCH   3   4
ATOM      4  C   UNL     1       4.375   1.613 -10.319  1.00  0.00     0.261 C 
BRANCH   4   5
ATOM      5  O   UNL     1       3.737   0.867  -9.240  1.00  0.00    -0.463 OA
BRANCH   5   6
ATOM      6  C   UNL     1       3.643   1.498  -8.039  1.00  0.00     0.310 C 
ATOM      7  O   UNL     1       3.982   2.667  -7.869  1.00  0.00    -0.252 OA
BRANCH   6   8
ATOM      8  C   UNL     1       3.018   0.706  -6.885  1.00  0.00     0.119 C 
ATOM      9  C   UNL     1       3.655  -0.653  -6.426  1.00  0.00     0.100 C 
ATOM     10  C   UNL     1       2.417  -1.535  -6.298  1.00  0.00     0.025 C 
ATOM     11  C   UNL     1       1.498   0.372  -7.011  1.00  0.00     0.027 C 
ATOM     12  C   UNL     1       1.810  -1.832  -7.634  1.00  0.00    -0.027 C 
ATOM     13  C   UNL     1       1.353  -0.528  -5.793  1.00  0.00     0.017 C 
ATOM     14  C   UNL     1       1.173  -0.719  -7.995  1.00  0.00    -0.027 C 
BRANCH   9  15
ATOM     15  C   UNL     1       4.498  -0.500  -5.131  1.00  0.00     0.228 C 
ATOM     16  N   UNL     1       4.089  -0.605  -3.825  1.00  0.00    -0.326 N 
ATOM     17  H   UNL     1       4.756  -0.237  -3.201  1.00  0.00     0.169 HD
ATOM     18  O   UNL     1       5.655  -0.070  -5.277  1.00  0.00    -0.274 OA
BRANCH  16  19
ATOM     19  C   UNL     1       2.955  -1.105  -3.150  1.00  0.00     0.044 A 
ATOM     20  C   UNL     1       1.130  -0.636  -1.618  1.00  0.00     0.120 A 
ATOM     21  C   UNL     1       0.416  -1.716  -2.130  1.00  0.00     0.046 A 
ATOM     22  C   UNL     1       2.395  -0.320  -2.133  1.00  0.00     0.072 A 
ATOM     23  C   UNL     1       1.041  -2.590  -3.009  1.00  0.00     0.006 A 
ATOM     24  C   UNL     1       2.342  -2.321  -3.446  1.00  0.00     0.026 A 
BRANCH  20  25
ATOM     25  O   UNL     1       0.474   0.110  -0.680  1.00  0.00    -0.497 OA
ATOM     26  C   UNL     1       1.279   0.514   0.425  1.00  0.00     0.278 C 
ENDBRANCH  20  25
ENDBRANCH  16  19
ENDBRANCH   9  15
ENDBRANCH   6   8
ENDBRANCH   5   6
ENDBRANCH   4   5
ENDBRANCH   3   4
ENDBRANCH   2   3
ENDBRANCH   1   2
BRANCH   1  27
ATOM     27  C   UNL     1       0.950   1.243 -10.457  1.00  0.00     0.188 C 
BRANCH  27  28
ATOM     28  O   UNL     1       0.975   0.585 -11.713  1.00  0.00    -0.376 OA
BRANCH  28  29
ATOM     29  C   UNL     1       0.365  -0.706 -11.700  1.00  0.00     0.202 C 
BRANCH  29  30
ATOM     30  C   UNL     1      -1.046  -0.550 -12.260  1.00  0.00     0.261 C 
BRANCH  30  31
ATOM     31  O   UNL     1      -1.848   0.377 -11.494  1.00  0.00    -0.460 OA
BRANCH  31  32
ATOM     32  C   UNL     1      -2.225  -0.028 -10.261  1.00  0.00     0.338 C 
ATOM     33  O   UNL     1      -2.057  -1.140  -9.777  1.00  0.00    -0.246 OA
BRANCH  32  34
ATOM     34  C   UNL     1      -2.681   1.150  -9.484  1.00  0.00     0.060 A 
ATOM     35  C   UNL     1      -2.223   1.306  -8.167  1.00  0.00     0.016 A 
ATOM     36  C   UNL     1      -3.532   2.106 -10.041  1.00  0.00     0.016 A 
ATOM     37  C   UNL     1      -2.630   2.401  -7.398  1.00  0.00     0.010 A 
ATOM     38  C   UNL     1      -3.957   3.190  -9.264  1.00  0.00     0.010 A 
ATOM     39  C   UNL     1      -3.530   3.332  -7.930  1.00  0.00    -0.014 A 
BRANCH  39  40
ATOM     40  C   UNL     1      -4.175   4.354  -7.065  1.00  0.00     0.031 A 
ATOM     41  C   UNL     1      -5.585   4.108  -6.602  1.00  0.00     0.074 A 
ATOM     42  C   UNL     1      -3.545   5.488  -6.710  1.00  0.00     0.049 A 
ATOM     43  N   UNL     1      -6.421   4.915  -6.000  1.00  0.00    -0.248 NA
ATOM     44  C   UNL     1      -6.125   2.764  -6.862  1.00  0.00     0.031 C 
ATOM     45  C   UNL     1      -2.159   5.822  -7.022  1.00  0.00     0.029 A 
ATOM     46  N   UNL     1      -4.010   6.585  -6.022  1.00  0.00    -0.354 N 
ATOM     47  C   UNL     1      -7.592   4.187  -5.834  1.00  0.00     0.074 A 
ATOM     48  C   UNL     1      -7.365   2.880  -6.413  1.00  0.00     0.031 C 
ATOM     49  C   UNL     1      -1.891   7.053  -6.550  1.00  0.00     0.029 A 
ATOM     50  C   UNL     1      -3.103   7.614  -5.952  1.00  0.00     0.049 A 
ATOM     51  H   UNL     1      -4.907   6.628  -5.618  1.00  0.00     0.167 HD
ATOM     52  C   UNL     1      -8.752   4.574  -5.253  1.00  0.00     0.037 A 
ATOM     53  C   UNL     1      -3.248   8.876  -5.499  1.00  0.00     0.037 A 
ATOM     54  C   UNL     1      -8.974   5.873  -4.674  1.00  0.00     0.049 A 
ATOM     55  C   UNL     1      -4.583   9.321  -4.948  1.00  0.00     0.074 A 
ATOM     56  C   UNL     1     -10.112   6.358  -4.055  1.00  0.00     0.029 A 
ATOM     57  N   UNL     1      -8.039   6.898  -4.652  1.00  0.00    -0.354 N 
ATOM     58  N   UNL     1      -5.690   8.634  -4.798  1.00  0.00    -0.248 NA
ATOM     59  C   UNL     1      -4.689  10.722  -4.510  1.00  0.00     0.031 C 
ATOM     60  C   UNL     1      -9.889   7.696  -3.716  1.00  0.00     0.029 A 
ATOM     61  C   UNL     1      -8.586   8.023  -4.056  1.00  0.00     0.049 A 
ATOM     62  H   UNL     1      -7.123   6.835  -5.006  1.00  0.00     0.167 HD
ATOM     63  C   UNL     1      -6.606   9.503  -4.215  1.00  0.00     0.074 A 
ATOM     64  C   UNL     1      -5.926  10.767  -4.034  1.00  0.00     0.031 C 
ATOM     65  C   UNL     1      -7.893   9.271  -3.857  1.00  0.00     0.037 A 
BRANCH  52  66
ATOM     66  C   UNL     1      -9.891   3.595  -5.252  1.00  0.00     0.064 A 
ATOM     67  C   UNL     1      -9.870   2.431  -4.471  1.00  0.00     0.173 A 
ATOM     68  C   UNL     1     -11.036   3.845  -6.025  1.00  0.00     0.173 A 
ATOM     69  F   UNL     1      -8.794   2.137  -3.724  1.00  0.00    -0.203 F 
ATOM     70  C   UNL     1     -10.939   1.538  -4.486  1.00  0.00     0.198 A 
ATOM     71  C   UNL     1     -12.117   2.969  -6.011  1.00  0.00     0.198 A 
ATOM     72  F   UNL     1     -11.111   4.946  -6.788  1.00  0.00    -0.203 F 
ATOM     73  F   UNL     1     -10.874   0.405  -3.773  1.00  0.00    -0.200 F 
ATOM     74  C   UNL     1     -12.064   1.812  -5.249  1.00  0.00     0.200 A 
ATOM     75  F   UNL     1     -13.210   3.244  -6.737  1.00  0.00    -0.200 F 
ATOM     76  F   UNL     1     -13.095   0.956  -5.256  1.00  0.00    -0.200 F 
ENDBRANCH  52  66
BRANCH  53  77
ATOM     77  C   UNL     1      -2.112   9.835  -5.579  1.00  0.00     0.064 A 
ATOM     78  C   UNL     1      -1.511  10.344  -4.419  1.00  0.00     0.173 A 
ATOM     79  C   UNL     1      -1.628  10.292  -6.814  1.00  0.00     0.173 A 
ATOM     80  F   UNL     1      -1.959   9.965  -3.212  1.00  0.00    -0.203 F 
ATOM     81  C   UNL     1      -0.486  11.286  -4.490  1.00  0.00     0.198 A 
ATOM     82  C   UNL     1      -0.581  11.208  -6.886  1.00  0.00     0.198 A 
ATOM     83  F   UNL     1      -2.173   9.847  -7.956  1.00  0.00    -0.203 F 
ATOM     84  F   UNL     1       0.029  11.799  -3.365  1.00  0.00    -0.200 F 
ATOM     85  C   UNL     1      -0.017  11.712  -5.723  1.00  0.00     0.200 A 
ATOM     86  F   UNL     1      -0.125  11.611  -8.080  1.00  0.00    -0.200 F 
ATOM     87  F   UNL     1       0.968  12.618  -5.792  1.00  0.00    -0.200 F 
ENDBRANCH  53  77
BRANCH  65  88
ATOM     88  C   UNL     1      -8.646  10.378  -3.173  1.00  0.00     0.064 A 
ATOM     89  C   UNL     1      -9.071  11.524  -3.860  1.00  0.00     0.173 A 
ATOM     90  C   UNL     1      -9.011  10.250  -1.823  1.00  0.00     0.173 A 
ATOM     91  F   UNL     1      -8.739  11.702  -5.147  1.00  0.00    -0.203 F 
ATOM     92  C   UNL     1      -9.820  12.508  -3.217  1.00  0.00     0.198 A 
ATOM     93  C   UNL     1      -9.788  11.219  -1.193  1.00  0.00     0.198 A 
ATOM     94  F   UNL     1      -8.638   9.170  -1.121  1.00  0.00    -0.203 F 
ATOM     95  F   UNL     1     -10.183  13.613  -3.883  1.00  0.00    -0.200 F 
ATOM     96  C   UNL     1     -10.187  12.349  -1.889  1.00  0.00     0.200 A 
ATOM     97  F   UNL     1     -10.157  11.053   0.085  1.00  0.00    -0.200 F 
ATOM     98  F   UNL     1     -10.924  13.287  -1.278  1.00  0.00    -0.200 F 
ENDBRANCH  65  88
ENDBRANCH  39  40
ENDBRANCH  32  34
ENDBRANCH  31  32
ENDBRANCH  30  31
ENDBRANCH  29  30
ENDBRANCH  28  29
ENDBRANCH  27  28
ENDBRANCH   1  27
TORSDOF 20
