REMARK SMILES COc1cccc(Cn2c(=O)c(=O)n(CC(=O)OCCOCCOCCOC(=O)c3ccc(-c4c5nc(c(-c6c(F)c(F)c(F)c(F)c6F)c6ccc([nH]6)c(-c6c(F)c(F)c(F)c(F)c6F)c6nc(c(-c7c(F)c(F)c(F)c(F)c7F)c7ccc4[nH]7)C=C6)C=C5)cc3)c3ccccc32)c1
REMARK SMILES IDX 22 1 21 2 20 3 19 4 18 5 16 6 17 7 15 8 14 9 9 10 10 11
REMARK SMILES IDX 98 12 11 13 12 14 93 15 97 16 13 17 94 18 96 19 95 20 8 21
REMARK SMILES IDX 7 22 3 23 4 24 99 25 5 26 6 27 2 28 1 29 23 30 24 31 25 32
REMARK SMILES IDX 26 33 27 34 28 35 29 36 30 37 31 38 92 39 32 40 91 41 33 42
REMARK SMILES IDX 34 43 35 44 85 45 36 46 90 47 84 48 86 49 37 50 89 51 83 52
REMARK SMILES IDX 82 53 38 55 70 56 50 57 69 58 51 59 54 60 68 61 87 62 52 63
REMARK SMILES IDX 53 64 67 66 88 67 55 68 39 69 40 70 48 71 41 72 42 73 46 74
REMARK SMILES IDX 49 75 43 76 44 77 47 78 45 79 71 80 72 81 80 82 73 83 74 84
REMARK SMILES IDX 78 85 81 86 75 87 76 88 79 89 77 90 56 91 57 92 65 93 58 94
REMARK SMILES IDX 59 95 63 96 66 97 60 98 61 99 64 100 62 101
REMARK H PARENT 86 54 54 65
REMARK Flexibility Score: inf
ROOT
ATOM      1  C   UNL     1       3.060   3.770   8.511  1.00  0.00     0.188 C 
ENDROOT
BRANCH   1   2
ATOM      2  O   UNL     1       1.796   4.341   8.173  1.00  0.00    -0.376 OA
BRANCH   2   3
ATOM      3  C   UNL     1       0.747   3.478   7.751  1.00  0.00     0.202 C 
BRANCH   3   4
ATOM      4  C   UNL     1       0.842   2.993   6.304  1.00  0.00     0.261 C 
BRANCH   4   5
ATOM      5  O   UNL     1       2.131   2.440   6.006  1.00  0.00    -0.462 OA
BRANCH   5   6
ATOM      6  C   UNL     1       2.968   3.244   5.296  1.00  0.00     0.326 C 
ATOM      7  O   UNL     1       2.718   4.392   4.944  1.00  0.00    -0.250 OA
BRANCH   6   8
ATOM      8  C   UNL     1       4.365   2.639   5.138  1.00  0.00     0.248 C 
BRANCH   8   9
ATOM      9  N   UNL     1       4.488   1.196   5.197  1.00  0.00    -0.291 N 
ATOM     10  N   UNL     1       5.046  -1.461   4.440  1.00  0.00    -0.298 N 
ATOM     11  C   UNL     1       4.611  -0.522   3.523  1.00  0.00     0.317 A 
ATOM     12  C   UNL     1       5.688  -0.934   5.598  1.00  0.00     0.068 A 
ATOM     13  O   UNL     1       4.836  -0.497   2.328  1.00  0.00    -0.263 OA
ATOM     14  C   UNL     1       3.793   0.574   4.166  1.00  0.00     0.317 A 
ATOM     15  C   UNL     1       5.504   0.458   5.894  1.00  0.00     0.069 A 
ATOM     16  C   UNL     1       6.610  -1.687   6.336  1.00  0.00     0.028 A 
ATOM     17  O   UNL     1       2.735   0.916   3.688  1.00  0.00    -0.263 OA
ATOM     18  C   UNL     1       6.303   1.047   6.875  1.00  0.00     0.028 A 
ATOM     19  C   UNL     1       7.393  -1.068   7.316  1.00  0.00     0.002 A 
ATOM     20  C   UNL     1       7.250   0.293   7.575  1.00  0.00     0.002 A 
BRANCH  10  21
ATOM     21  C   UNL     1       4.939  -2.854   4.029  1.00  0.00     0.162 C 
BRANCH  21  22
ATOM     22  C   UNL     1       3.465  -3.123   3.691  1.00  0.00    -0.024 A 
ATOM     23  C   UNL     1       1.575  -2.373   2.339  1.00  0.00     0.119 A 
ATOM     24  C   UNL     1       0.716  -2.735   3.375  1.00  0.00     0.046 A 
ATOM     25  C   UNL     1       2.933  -2.660   2.462  1.00  0.00     0.052 A 
ATOM     26  C   UNL     1       1.208  -3.347   4.530  1.00  0.00     0.004 A 
ATOM     27  C   UNL     1       2.581  -3.517   4.702  1.00  0.00     0.006 A 
BRANCH  23  28
ATOM     28  O   UNL     1       0.978  -1.696   1.311  1.00  0.00    -0.497 OA
ATOM     29  C   UNL     1       1.813  -1.044   0.358  1.00  0.00     0.278 C 
ENDBRANCH  23  28
ENDBRANCH  21  22
ENDBRANCH  10  21
ENDBRANCH   8   9
ENDBRANCH   6   8
ENDBRANCH   5   6
ENDBRANCH   4   5
ENDBRANCH   3   4
ENDBRANCH   2   3
ENDBRANCH   1   2
BRANCH   1  30
ATOM     30  C   UNL     1       3.136   2.300   8.947  1.00  0.00     0.188 C 
BRANCH  30  31
ATOM     31  O   UNL     1       2.303   2.043  10.076  1.00  0.00    -0.376 OA
BRANCH  31  32
ATOM     32  C   UNL     1       3.011   1.677  11.258  1.00  0.00     0.202 C 
BRANCH  32  33
ATOM     33  C   UNL     1       3.337   2.902  12.118  1.00  0.00     0.261 C 
BRANCH  33  34
ATOM     34  O   UNL     1       4.284   3.813  11.527  1.00  0.00    -0.460 OA
BRANCH  34  35
ATOM     35  C   UNL     1       5.543   3.354  11.380  1.00  0.00     0.338 C 
ATOM     36  O   UNL     1       5.967   2.248  11.666  1.00  0.00    -0.246 OA
BRANCH  35  37
ATOM     37  C   UNL     1       6.345   4.366  10.669  1.00  0.00     0.060 A 
ATOM     38  C   UNL     1       6.880   4.024   9.425  1.00  0.00     0.016 A 
ATOM     39  C   UNL     1       6.648   5.596  11.251  1.00  0.00     0.016 A 
ATOM     40  C   UNL     1       7.752   4.892   8.766  1.00  0.00     0.010 A 
ATOM     41  C   UNL     1       7.528   6.465  10.595  1.00  0.00     0.010 A 
ATOM     42  C   UNL     1       8.111   6.108   9.363  1.00  0.00    -0.014 A 
BRANCH  42  43
ATOM     43  C   UNL     1       9.209   6.937   8.798  1.00  0.00     0.031 A 
ATOM     44  C   UNL     1      10.535   6.967   9.508  1.00  0.00     0.074 A 
ATOM     45  C   UNL     1       9.055   7.646   7.665  1.00  0.00     0.049 A 
ATOM     46  N   UNL     1      11.565   7.754   9.324  1.00  0.00    -0.248 NA
ATOM     47  C   UNL     1      10.721   5.970  10.573  1.00  0.00     0.031 C 
ATOM     48  C   UNL     1       7.866   7.644   6.817  1.00  0.00     0.029 A 
ATOM     49  N   UNL     1       9.914   8.519   7.040  1.00  0.00    -0.354 N 
ATOM     50  C   UNL     1      12.502   7.378  10.278  1.00  0.00     0.074 A 
ATOM     51  C   UNL     1      11.920   6.291  11.037  1.00  0.00     0.031 C 
ATOM     52  C   UNL     1       8.068   8.479   5.783  1.00  0.00     0.029 A 
ATOM     53  C   UNL     1       9.373   9.123   5.932  1.00  0.00     0.049 A 
ATOM     54  H   UNL     1      10.830   8.694   7.356  1.00  0.00     0.167 HD
ATOM     55  C   UNL     1      13.733   7.895  10.505  1.00  0.00     0.037 A 
ATOM     56  C   UNL     1       9.854  10.114   5.155  1.00  0.00     0.037 A 
ATOM     57  C   UNL     1      14.327   8.955   9.734  1.00  0.00     0.049 A 
ATOM     58  C   UNL     1      11.191  10.733   5.475  1.00  0.00     0.074 A 
ATOM     59  C   UNL     1      15.566   9.551   9.895  1.00  0.00     0.029 A 
ATOM     60  N   UNL     1      13.726   9.572   8.648  1.00  0.00    -0.354 N 
ATOM     61  N   UNL     1      12.047  10.421   6.417  1.00  0.00    -0.248 NA
ATOM     62  C   UNL     1      11.618  11.861   4.631  1.00  0.00     0.031 C 
ATOM     63  C   UNL     1      15.699  10.554   8.928  1.00  0.00     0.029 A 
ATOM     64  C   UNL     1      14.562  10.552   8.138  1.00  0.00     0.049 A 
ATOM     65  H   UNL     1      12.836   9.347   8.292  1.00  0.00     0.167 HD
ATOM     66  C   UNL     1      13.117  11.294   6.268  1.00  0.00     0.074 A 
ATOM     67  C   UNL     1      12.811  12.144   5.137  1.00  0.00     0.031 C 
ATOM     68  C   UNL     1      14.252  11.385   7.004  1.00  0.00     0.037 A 
BRANCH  55  69
ATOM     69  C   UNL     1      14.502   7.349  11.670  1.00  0.00     0.064 A 
ATOM     70  C   UNL     1      15.082   6.072  11.645  1.00  0.00     0.173 A 
ATOM     71  C   UNL     1      14.671   8.125  12.828  1.00  0.00     0.173 A 
ATOM     72  F   UNL     1      14.932   5.285  10.569  1.00  0.00    -0.203 F 
ATOM     73  C   UNL     1      15.777   5.581  12.748  1.00  0.00     0.198 A 
ATOM     74  C   UNL     1      15.389   7.642  13.917  1.00  0.00     0.198 A 
ATOM     75  F   UNL     1      14.138   9.354  12.901  1.00  0.00    -0.203 F 
ATOM     76  F   UNL     1      16.277   4.338  12.722  1.00  0.00    -0.200 F 
ATOM     77  C   UNL     1      15.934   6.367  13.880  1.00  0.00     0.200 A 
ATOM     78  F   UNL     1      15.548   8.407  15.006  1.00  0.00    -0.200 F 
ATOM     79  F   UNL     1      16.603   5.892  14.939  1.00  0.00    -0.200 F 
ENDBRANCH  55  69
BRANCH  56  80
ATOM     80  C   UNL     1       9.047  10.621   4.015  1.00  0.00     0.064 A 
ATOM     81  C   UNL     1       9.455  10.408   2.691  1.00  0.00     0.173 A 
ATOM     82  C   UNL     1       7.864  11.346   4.225  1.00  0.00     0.173 A 
ATOM     83  F   UNL     1      10.597   9.751   2.441  1.00  0.00    -0.203 F 
ATOM     84  C   UNL     1       8.715  10.907   1.621  1.00  0.00     0.198 A 
ATOM     85  C   UNL     1       7.111  11.821   3.154  1.00  0.00     0.198 A 
ATOM     86  F   UNL     1       7.439  11.588   5.473  1.00  0.00    -0.203 F 
ATOM     87  F   UNL     1       9.151  10.727   0.367  1.00  0.00    -0.200 F 
ATOM     88  C   UNL     1       7.540  11.607   1.853  1.00  0.00     0.200 A 
ATOM     89  F   UNL     1       5.974  12.492   3.383  1.00  0.00    -0.200 F 
ATOM     90  F   UNL     1       6.828  12.084   0.823  1.00  0.00    -0.200 F 
ENDBRANCH  56  80
BRANCH  68  91
ATOM     91  C   UNL     1      15.269  12.408   6.590  1.00  0.00     0.064 A 
ATOM     92  C   UNL     1      15.074  13.777   6.825  1.00  0.00     0.173 A 
ATOM     93  C   UNL     1      16.475  12.009   5.993  1.00  0.00     0.173 A 
ATOM     94  F   UNL     1      13.932  14.210   7.379  1.00  0.00    -0.203 F 
ATOM     95  C   UNL     1      16.041  14.710   6.459  1.00  0.00     0.198 A 
ATOM     96  C   UNL     1      17.450  12.942   5.652  1.00  0.00     0.198 A 
ATOM     97  F   UNL     1      16.713  10.711   5.754  1.00  0.00    -0.203 F 
ATOM     98  F   UNL     1      15.818  16.017   6.658  1.00  0.00    -0.200 F 
ATOM     99  C   UNL     1      17.230  14.292   5.880  1.00  0.00     0.200 A 
ATOM    100  F   UNL     1      18.603  12.535   5.104  1.00  0.00    -0.200 F 
ATOM    101  F   UNL     1      18.163  15.191   5.537  1.00  0.00    -0.200 F 
ENDBRANCH  68  91
ENDBRANCH  42  43
ENDBRANCH  35  37
ENDBRANCH  34  35
ENDBRANCH  33  34
ENDBRANCH  32  33
ENDBRANCH  31  32
ENDBRANCH  30  31
ENDBRANCH   1  30
TORSDOF 21
