REMARK SMILES Cc1ccn2c([C@@H]3CCCC[C@@H]3C(=O)OCCOCCOCCOC(=O)c3ccc(-c4c5nc(c(-c6c(F)c(F)c(F)c(F)c6F)c6ccc([nH]6)c(-c6c(F)c(F)c(F)c(F)c6F)c6nc(c(-c7c(F)c(F)c(F)c(F)c7F)c7ccc4[nH]7)C=C6)C=C5)cc3)nnc2c1
REMARK SMILES IDX 20 1 19 2 18 3 17 4 16 5 15 6 13 7 14 8 12 9 7 10 8 11 9 12
REMARK SMILES IDX 11 13 10 14 6 15 1 16 2 17 3 18 93 19 4 20 92 21 5 22 91 23
REMARK SMILES IDX 90 24 21 25 22 26 23 27 24 28 25 29 26 30 27 31 28 32 89 33
REMARK SMILES IDX 29 34 88 35 30 36 31 37 32 38 82 39 33 40 87 41 81 42 83 43
REMARK SMILES IDX 34 44 86 45 80 46 79 47 35 49 67 50 47 51 66 52 48 53 51 54
REMARK SMILES IDX 65 55 84 56 49 57 50 58 64 60 85 61 52 62 36 63 37 64 45 65
REMARK SMILES IDX 38 66 39 67 43 68 46 69 40 70 41 71 44 72 42 73 68 74 69 75
REMARK SMILES IDX 77 76 70 77 71 78 75 79 78 80 72 81 73 82 76 83 74 84 53 85
REMARK SMILES IDX 54 86 62 87 55 88 56 89 60 90 63 91 57 92 58 93 61 94 59 95
REMARK H PARENT 83 48 51 59
REMARK Flexibility Score: inf
ROOT
ATOM      1  C   UNL     1      -0.702   3.294   0.021  1.00  0.00     0.188 C 
ENDROOT
BRANCH   1   2
ATOM      2  C   UNL     1      -2.599   3.170  -0.677  1.00  0.00     0.188 C 
BRANCH   2   3
ATOM      3  O   UNL     1      -3.467   1.924  -1.134  1.00  0.00    -0.376 OA
BRANCH   3   4
ATOM      4  C   UNL     1      -3.687   1.397  -2.517  1.00  0.00     0.202 C 
BRANCH   4   5
ATOM      5  C   UNL     1      -2.634   1.297  -3.712  1.00  0.00     0.261 C 
BRANCH   5   6
ATOM      6  O   UNL     1      -1.919   2.508  -3.896  1.00  0.00    -0.463 OA
BRANCH   6   7
ATOM      7  C   UNL     1      -2.707   3.444  -4.444  1.00  0.00     0.309 C 
ATOM      8  O   UNL     1      -3.740   3.190  -5.050  1.00  0.00    -0.252 OA
BRANCH   7   9
ATOM      9  C   UNL     1      -2.231   4.822  -4.125  1.00  0.00     0.110 C 
ATOM     10  C   UNL     1      -1.522   4.987  -2.798  1.00  0.00     0.072 C 
ATOM     11  C   UNL     1      -2.446   5.531  -1.653  1.00  0.00     0.012 C 
ATOM     12  C   UNL     1      -4.009   5.506  -1.823  1.00  0.00     0.001 C 
ATOM     13  C   UNL     1      -3.490   5.697  -4.191  1.00  0.00     0.016 C 
ATOM     14  C   UNL     1      -4.558   5.331  -3.194  1.00  0.00     0.001 C 
BRANCH  10  15
ATOM     15  C   UNL     1      -0.190   4.305  -2.468  1.00  0.00     0.141 A 
ATOM     16  C   UNL     1       1.747   0.604   1.430  1.00  0.00     0.044 C 
ATOM     17  C   UNL     1       0.980   1.957   1.253  1.00  0.00    -0.046 A 
ATOM     18  C   UNL     1      -0.737   1.549   0.689  1.00  0.00     0.022 A 
ATOM     19  C   UNL     1       1.784   2.917   0.533  1.00  0.00     0.053 A 
ATOM     20  C   UNL     1      -1.126   1.871  -1.052  1.00  0.00     0.095 A 
ATOM     21  C   UNL     1       1.426   3.512  -0.953  1.00  0.00     0.161 A 
ATOM     22  N   UNL     1       0.053   3.033  -1.852  1.00  0.00    -0.286 N 
ATOM     23  N   UNL     1       1.824   4.656  -1.467  1.00  0.00    -0.130 NA
ATOM     24  N   UNL     1       0.894   5.085  -2.374  1.00  0.00    -0.134 NA
ENDBRANCH  10  15
ENDBRANCH   7   9
ENDBRANCH   6   7
ENDBRANCH   5   6
ENDBRANCH   4   5
ENDBRANCH   3   4
ENDBRANCH   2   3
ENDBRANCH   1   2
BRANCH   1  25
ATOM     25  O   UNL     1       0.475   1.670  -0.597  1.00  0.00    -0.376 OA
BRANCH  25  26
ATOM     26  C   UNL     1      -0.533   0.008  -0.593  1.00  0.00     0.202 C 
BRANCH  26  27
ATOM     27  C   UNL     1      -2.261   0.040   0.371  1.00  0.00     0.261 C 
BRANCH  27  28
ATOM     28  O   UNL     1      -3.024   1.539   1.114  1.00  0.00    -0.460 OA
BRANCH  28  29
ATOM     29  C   UNL     1      -2.846   2.575   2.190  1.00  0.00     0.338 C 
ATOM     30  O   UNL     1      -2.179   2.291   3.186  1.00  0.00    -0.246 OA
BRANCH  29  31
ATOM     31  C   UNL     1      -3.187   4.289   1.996  1.00  0.00     0.060 A 
ATOM     32  C   UNL     1      -4.385   4.881   1.567  1.00  0.00     0.016 A 
ATOM     33  C   UNL     1      -2.166   5.308   2.078  1.00  0.00     0.016 A 
ATOM     34  C   UNL     1      -4.427   6.241   0.942  1.00  0.00     0.010 A 
ATOM     35  C   UNL     1      -2.201   6.662   1.417  1.00  0.00     0.010 A 
ATOM     36  C   UNL     1      -3.278   7.085   0.641  1.00  0.00    -0.014 A 
BRANCH  36  37
ATOM     37  C   UNL     1      -3.364   8.328  -0.559  1.00  0.00     0.031 A 
ATOM     38  C   UNL     1      -4.580   9.054  -0.153  1.00  0.00     0.074 A 
ATOM     39  C   UNL     1      -2.776   8.748  -1.813  1.00  0.00     0.049 A 
ATOM     40  N   UNL     1      -5.742   8.966  -0.702  1.00  0.00    -0.248 NA
ATOM     41  C   UNL     1      -4.575   9.688   1.172  1.00  0.00     0.031 C 
ATOM     42  C   UNL     1      -1.522   8.301  -2.434  1.00  0.00     0.029 A 
ATOM     43  N   UNL     1      -3.192   9.563  -2.957  1.00  0.00    -0.354 N 
ATOM     44  C   UNL     1      -6.545   9.804   0.058  1.00  0.00     0.074 A 
ATOM     45  C   UNL     1      -5.858  10.028   1.301  1.00  0.00     0.031 C 
ATOM     46  C   UNL     1      -1.117   8.897  -3.565  1.00  0.00     0.029 A 
ATOM     47  C   UNL     1      -2.137   9.804  -3.961  1.00  0.00     0.049 A 
ATOM     48  H   UNL     1      -4.104   9.922  -3.049  1.00  0.00     0.167 HD
ATOM     49  C   UNL     1      -7.449  10.575  -0.596  1.00  0.00     0.037 A 
ATOM     50  C   UNL     1      -1.993  10.498  -5.151  1.00  0.00     0.037 A 
ATOM     51  C   UNL     1      -7.831   9.964  -1.844  1.00  0.00     0.049 A 
ATOM     52  C   UNL     1      -3.323  10.957  -5.586  1.00  0.00     0.074 A 
ATOM     53  C   UNL     1      -8.571   8.855  -2.197  1.00  0.00     0.029 A 
ATOM     54  N   UNL     1      -6.938  10.175  -2.862  1.00  0.00    -0.354 N 
ATOM     55  N   UNL     1      -4.225  10.182  -6.114  1.00  0.00    -0.248 NA
ATOM     56  C   UNL     1      -3.798  12.065  -4.785  1.00  0.00     0.031 C 
ATOM     57  C   UNL     1      -8.033   8.383  -3.432  1.00  0.00     0.029 A 
ATOM     58  C   UNL     1      -7.089   9.296  -3.899  1.00  0.00     0.049 A 
ATOM     59  H   UNL     1      -6.258  10.886  -2.848  1.00  0.00     0.167 HD
ATOM     60  C   UNL     1      -5.309  10.350  -5.269  1.00  0.00     0.074 A 
ATOM     61  C   UNL     1      -4.992  11.553  -4.488  1.00  0.00     0.031 C 
ATOM     62  C   UNL     1      -6.216   9.347  -5.061  1.00  0.00     0.037 A 
BRANCH  49  63
ATOM     63  C   UNL     1      -7.478  12.064  -0.358  1.00  0.00     0.064 A 
ATOM     64  C   UNL     1      -8.591  12.816  -0.753  1.00  0.00     0.173 A 
ATOM     65  C   UNL     1      -6.341  12.812   0.038  1.00  0.00     0.173 A 
ATOM     66  F   UNL     1      -9.685  12.204  -1.227  1.00  0.00    -0.203 F 
ATOM     67  C   UNL     1      -8.578  14.216  -0.717  1.00  0.00     0.198 A 
ATOM     68  C   UNL     1      -6.349  14.200   0.130  1.00  0.00     0.198 A 
ATOM     69  F   UNL     1      -5.152  12.234   0.251  1.00  0.00    -0.203 F 
ATOM     70  F   UNL     1      -9.639  14.902  -1.161  1.00  0.00    -0.200 F 
ATOM     71  C   UNL     1      -7.466  14.905  -0.258  1.00  0.00     0.200 A 
ATOM     72  F   UNL     1      -5.247  14.844   0.542  1.00  0.00    -0.200 F 
ATOM     73  F   UNL     1      -7.454  16.244  -0.231  1.00  0.00    -0.200 F 
ENDBRANCH  49  63
BRANCH  50  74
ATOM     74  C   UNL     1      -0.712  11.163  -5.667  1.00  0.00     0.064 A 
ATOM     75  C   UNL     1      -0.613  11.939  -6.852  1.00  0.00     0.173 A 
ATOM     76  C   UNL     1       0.406  11.282  -4.813  1.00  0.00     0.173 A 
ATOM     77  F   UNL     1      -1.588  11.917  -7.774  1.00  0.00    -0.203 F 
ATOM     78  C   UNL     1       0.473  12.820  -7.084  1.00  0.00     0.198 A 
ATOM     79  C   UNL     1       1.480  12.134  -5.050  1.00  0.00     0.198 A 
ATOM     80  F   UNL     1       0.464  10.654  -3.638  1.00  0.00    -0.203 F 
ATOM     81  F   UNL     1       0.494  13.608  -8.170  1.00  0.00    -0.200 F 
ATOM     82  C   UNL     1       1.502  12.934  -6.164  1.00  0.00     0.200 A 
ATOM     83  F   UNL     1       2.449  12.222  -4.129  1.00  0.00    -0.200 F 
ATOM     84  F   UNL     1       2.481  13.837  -6.317  1.00  0.00    -0.200 F 
ENDBRANCH  50  74
BRANCH  62  85
ATOM     85  C   UNL     1      -6.301   8.212  -6.059  1.00  0.00     0.064 A 
ATOM     86  C   UNL     1      -5.248   7.356  -6.410  1.00  0.00     0.173 A 
ATOM     87  C   UNL     1      -7.558   7.900  -6.601  1.00  0.00     0.173 A 
ATOM     88  F   UNL     1      -3.997   7.607  -5.999  1.00  0.00    -0.203 F 
ATOM     89  C   UNL     1      -5.467   6.189  -7.159  1.00  0.00     0.198 A 
ATOM     90  C   UNL     1      -7.773   6.753  -7.364  1.00  0.00     0.198 A 
ATOM     91  F   UNL     1      -8.607   8.700  -6.358  1.00  0.00    -0.203 F 
ATOM     92  F   UNL     1      -4.456   5.339  -7.398  1.00  0.00    -0.200 F 
ATOM     93  C   UNL     1      -6.733   5.880  -7.618  1.00  0.00     0.200 A 
ATOM     94  F   UNL     1      -9.000   6.487  -7.830  1.00  0.00    -0.200 F 
ATOM     95  F   UNL     1      -6.950   4.750  -8.306  1.00  0.00    -0.200 F 
ENDBRANCH  62  85
ENDBRANCH  36  37
ENDBRANCH  29  31
ENDBRANCH  28  29
ENDBRANCH  27  28
ENDBRANCH  26  27
ENDBRANCH  25  26
ENDBRANCH   1  25
TORSDOF 18
