REMARK SMILES COCC[C@@]1(C(=O)OCCOCCOCCOC(=O)c2ccc(-c3c4nc(c(-c5c(F)c(F)c(F)c(F)c5F)c5ccc([nH]5)c(-c5c(F)c(F)c(F)c(F)c5F)c5nc(c(-c6c(F)c(F)c(F)c(F)c6F)c6ccc3[nH]6)C=C5)C=C4)cc2)CCCN(C(=O)c2ccc3c(c2)CCCO3)C1
REMARK SMILES IDX 12 1 11 2 10 3 9 4 8 5 6 6 7 7 5 8 83 9 99 10 84 11 86 12
REMARK SMILES IDX 85 13 4 14 3 15 2 16 1 17 87 18 88 19 89 20 90 21 94 22
REMARK SMILES IDX 91 23 93 24 92 25 95 26 98 27 96 28 97 29 13 30 14 31 15 32
REMARK SMILES IDX 16 33 17 34 18 35 19 36 20 37 21 38 82 39 22 40 81 41 23 42
REMARK SMILES IDX 24 43 25 44 75 45 26 46 80 47 74 48 76 49 27 50 79 51 73 52
REMARK SMILES IDX 72 53 28 55 60 56 40 57 59 58 41 59 44 60 58 61 77 62 42 63
REMARK SMILES IDX 43 64 57 66 78 67 45 68 29 69 30 70 38 71 31 72 32 73 36 74
REMARK SMILES IDX 39 75 33 76 34 77 37 78 35 79 61 80 62 81 70 82 63 83 64 84
REMARK SMILES IDX 68 85 71 86 65 87 66 88 69 89 67 90 46 91 47 92 55 93 48 94
REMARK SMILES IDX 49 95 53 96 56 97 50 98 51 99 54 100 52 101
REMARK H PARENT 76 54 44 65
REMARK Flexibility Score: inf
ROOT
ATOM      1  C   UNL     1       0.146   3.318   1.701  1.00  0.00     0.188 C 
ENDROOT
BRANCH   1   2
ATOM      2  O   UNL     1      -1.086   3.788   2.224  1.00  0.00    -0.376 OA
BRANCH   2   3
ATOM      3  C   UNL     1      -2.173   2.862   2.221  1.00  0.00     0.202 C 
BRANCH   3   4
ATOM      4  C   UNL     1      -2.036   1.764   3.278  1.00  0.00     0.261 C 
BRANCH   4   5
ATOM      5  O   UNL     1      -0.901   0.959   2.933  1.00  0.00    -0.463 OA
BRANCH   5   6
ATOM      6  C   UNL     1      -0.973  -0.386   2.771  1.00  0.00     0.314 C 
ATOM      7  O   UNL     1      -1.995  -1.054   2.822  1.00  0.00    -0.252 OA
BRANCH   6   8
ATOM      8  C   UNL     1       0.431  -0.886   2.388  1.00  0.00     0.088 C 
ATOM      9  C   UNL     1       0.562  -2.433   2.403  1.00  0.00     0.022 C 
ATOM     10  C   UNL     1       1.397  -0.312   3.468  1.00  0.00     0.138 C 
ATOM     11  C   UNL     1       0.528  -3.077   3.789  1.00  0.00     0.023 C 
ATOM     12  N   UNL     1       1.177  -0.961   4.768  1.00  0.00    -0.337 N 
ATOM     13  C   UNL     1       1.471  -2.386   4.761  1.00  0.00     0.120 C 
BRANCH   8  14
ATOM     14  C   UNL     1       0.610  -0.436   0.889  1.00  0.00     0.049 C 
BRANCH  14  15
ATOM     15  C   UNL     1       1.934   0.172   0.442  1.00  0.00     0.161 C 
BRANCH  15  16
ATOM     16  O   UNL     1       3.016  -0.542   1.010  1.00  0.00    -0.385 OA
ATOM     17  C   UNL     1       4.176   0.263   1.189  1.00  0.00     0.194 C 
ENDBRANCH  15  16
ENDBRANCH  14  15
ENDBRANCH   8  14
BRANCH  12  18
ATOM     18  C   UNL     1       0.476  -0.282   5.767  1.00  0.00     0.253 C 
ATOM     19  O   UNL     1       0.087   0.878   5.659  1.00  0.00    -0.269 OA
BRANCH  18  20
ATOM     20  C   UNL     1       0.119  -0.984   7.016  1.00  0.00     0.040 A 
ATOM     21  C   UNL     1      -1.234  -1.077   7.373  1.00  0.00     0.017 A 
ATOM     22  C   UNL     1       1.115  -1.497   7.854  1.00  0.00     0.021 A 
ATOM     23  C   UNL     1      -1.597  -1.702   8.567  1.00  0.00     0.047 A 
ATOM     24  C   UNL     1       0.747  -2.134   9.039  1.00  0.00    -0.005 A 
ATOM     25  C   UNL     1      -0.602  -2.203   9.399  1.00  0.00     0.122 A 
ATOM     26  C   UNL     1       1.732  -2.811   9.937  1.00  0.00     0.043 C 
ATOM     27  O   UNL     1      -0.965  -2.810  10.570  1.00  0.00    -0.493 OA
ATOM     28  C   UNL     1       1.397  -2.444  11.371  1.00  0.00     0.046 C 
ATOM     29  C   UNL     1      -0.110  -2.436  11.660  1.00  0.00     0.230 C 
ENDBRANCH  18  20
ENDBRANCH  12  18
ENDBRANCH   6   8
ENDBRANCH   5   6
ENDBRANCH   4   5
ENDBRANCH   3   4
ENDBRANCH   2   3
ENDBRANCH   1   2
BRANCH   1  30
ATOM     30  C   UNL     1       1.370   3.512   2.624  1.00  0.00     0.188 C 
BRANCH  30  31
ATOM     31  O   UNL     1       1.265   4.239   3.834  1.00  0.00    -0.376 OA
BRANCH  31  32
ATOM     32  C   UNL     1       0.515   5.443   3.837  1.00  0.00     0.202 C 
BRANCH  32  33
ATOM     33  C   UNL     1       0.934   6.555   2.863  1.00  0.00     0.261 C 
BRANCH  33  34
ATOM     34  O   UNL     1       1.097   6.144   1.489  1.00  0.00    -0.460 OA
BRANCH  34  35
ATOM     35  C   UNL     1       2.361   6.195   1.006  1.00  0.00     0.338 C 
ATOM     36  O   UNL     1       3.366   6.582   1.589  1.00  0.00    -0.246 OA
BRANCH  35  37
ATOM     37  C   UNL     1       2.438   5.554  -0.323  1.00  0.00     0.060 A 
ATOM     38  C   UNL     1       3.257   4.426  -0.476  1.00  0.00     0.016 A 
ATOM     39  C   UNL     1       1.802   6.114  -1.432  1.00  0.00     0.016 A 
ATOM     40  C   UNL     1       3.464   3.868  -1.740  1.00  0.00     0.010 A 
ATOM     41  C   UNL     1       2.029   5.568  -2.703  1.00  0.00     0.010 A 
ATOM     42  C   UNL     1       2.884   4.461  -2.868  1.00  0.00    -0.014 A 
BRANCH  42  43
ATOM     43  C   UNL     1       3.294   4.027  -4.229  1.00  0.00     0.031 A 
ATOM     44  C   UNL     1       4.352   4.811  -4.957  1.00  0.00     0.074 A 
ATOM     45  C   UNL     1       2.746   2.946  -4.811  1.00  0.00     0.049 A 
ATOM     46  N   UNL     1       4.821   4.652  -6.170  1.00  0.00    -0.248 NA
ATOM     47  C   UNL     1       4.962   5.926  -4.217  1.00  0.00     0.031 C 
ATOM     48  C   UNL     1       1.746   2.074  -4.201  1.00  0.00     0.029 A 
ATOM     49  N   UNL     1       2.949   2.407  -6.059  1.00  0.00    -0.354 N 
ATOM     50  C   UNL     1       5.773   5.649  -6.340  1.00  0.00     0.074 A 
ATOM     51  C   UNL     1       5.798   6.423  -5.117  1.00  0.00     0.031 C 
ATOM     52  C   UNL     1       1.406   1.118  -5.084  1.00  0.00     0.029 A 
ATOM     53  C   UNL     1       2.140   1.331  -6.331  1.00  0.00     0.049 A 
ATOM     54  H   UNL     1       3.611   2.759  -6.697  1.00  0.00     0.167 HD
ATOM     55  C   UNL     1       6.560   5.894  -7.416  1.00  0.00     0.037 A 
ATOM     56  C   UNL     1       1.991   0.619  -7.466  1.00  0.00     0.037 A 
ATOM     57  C   UNL     1       6.535   5.130  -8.635  1.00  0.00     0.049 A 
ATOM     58  C   UNL     1       2.820   0.961  -8.678  1.00  0.00     0.074 A 
ATOM     59  C   UNL     1       7.311   5.291  -9.771  1.00  0.00     0.029 A 
ATOM     60  N   UNL     1       5.680   4.067  -8.884  1.00  0.00    -0.354 N 
ATOM     61  N   UNL     1       3.738   1.885  -8.821  1.00  0.00    -0.248 NA
ATOM     62  C   UNL     1       2.592   0.155  -9.887  1.00  0.00     0.031 C 
ATOM     63  C   UNL     1       6.887   4.361 -10.726  1.00  0.00     0.029 A 
ATOM     64  C   UNL     1       5.889   3.581 -10.166  1.00  0.00     0.049 A 
ATOM     65  H   UNL     1       5.022   3.709  -8.245  1.00  0.00     0.167 HD
ATOM     66  C   UNL     1       4.217   1.754 -10.119  1.00  0.00     0.074 A 
ATOM     67  C   UNL     1       3.495   0.652 -10.721  1.00  0.00     0.031 C 
ATOM     68  C   UNL     1       5.172   2.478 -10.754  1.00  0.00     0.037 A 
BRANCH  55  69
ATOM     69  C   UNL     1       7.498   7.064  -7.333  1.00  0.00     0.064 A 
ATOM     70  C   UNL     1       8.633   7.043  -6.510  1.00  0.00     0.173 A 
ATOM     71  C   UNL     1       7.273   8.209  -8.113  1.00  0.00     0.173 A 
ATOM     72  F   UNL     1       8.887   5.977  -5.736  1.00  0.00    -0.203 F 
ATOM     73  C   UNL     1       9.494   8.136  -6.449  1.00  0.00     0.198 A 
ATOM     74  C   UNL     1       8.151   9.288  -8.072  1.00  0.00     0.198 A 
ATOM     75  F   UNL     1       6.205   8.278  -8.921  1.00  0.00    -0.203 F 
ATOM     76  F   UNL     1      10.546   8.114  -5.620  1.00  0.00    -0.200 F 
ATOM     77  C   UNL     1       9.256   9.255  -7.234  1.00  0.00     0.200 A 
ATOM     78  F   UNL     1       7.926  10.362  -8.841  1.00  0.00    -0.200 F 
ATOM     79  F   UNL     1      10.088  10.304  -7.179  1.00  0.00    -0.200 F 
ENDBRANCH  55  69
BRANCH  56  80
ATOM     80  C   UNL     1       0.999  -0.487  -7.521  1.00  0.00     0.064 A 
ATOM     81  C   UNL     1       1.409  -1.823  -7.630  1.00  0.00     0.173 A 
ATOM     82  C   UNL     1      -0.380  -0.229  -7.488  1.00  0.00     0.173 A 
ATOM     83  F   UNL     1       2.715  -2.119  -7.694  1.00  0.00    -0.203 F 
ATOM     84  C   UNL     1       0.478  -2.857  -7.720  1.00  0.00     0.198 A 
ATOM     85  C   UNL     1      -1.309  -1.265  -7.549  1.00  0.00     0.198 A 
ATOM     86  F   UNL     1      -0.824   1.033  -7.389  1.00  0.00    -0.203 F 
ATOM     87  F   UNL     1       0.897  -4.120  -7.870  1.00  0.00    -0.200 F 
ATOM     88  C   UNL     1      -0.880  -2.577  -7.673  1.00  0.00     0.200 A 
ATOM     89  F   UNL     1      -2.619  -0.991  -7.493  1.00  0.00    -0.200 F 
ATOM     90  F   UNL     1      -1.774  -3.572  -7.755  1.00  0.00    -0.200 F 
ENDBRANCH  56  80
BRANCH  68  91
ATOM     91  C   UNL     1       5.528   2.083 -12.159  1.00  0.00     0.064 A 
ATOM     92  C   UNL     1       4.660   2.316 -13.236  1.00  0.00     0.173 A 
ATOM     93  C   UNL     1       6.777   1.505 -12.438  1.00  0.00     0.173 A 
ATOM     94  F   UNL     1       3.449   2.853 -13.023  1.00  0.00    -0.203 F 
ATOM     95  C   UNL     1       5.019   1.965 -14.535  1.00  0.00     0.198 A 
ATOM     96  C   UNL     1       7.145   1.183 -13.742  1.00  0.00     0.198 A 
ATOM     97  F   UNL     1       7.648   1.266 -11.446  1.00  0.00    -0.203 F 
ATOM     98  F   UNL     1       4.155   2.156 -15.542  1.00  0.00    -0.200 F 
ATOM     99  C   UNL     1       6.263   1.407 -14.788  1.00  0.00     0.200 A 
ATOM    100  F   UNL     1       8.353   0.657 -13.985  1.00  0.00    -0.200 F 
ATOM    101  F   UNL     1       6.611   1.078 -16.040  1.00  0.00    -0.200 F 
ENDBRANCH  68  91
ENDBRANCH  42  43
ENDBRANCH  35  37
ENDBRANCH  34  35
ENDBRANCH  33  34
ENDBRANCH  32  33
ENDBRANCH  31  32
ENDBRANCH  30  31
ENDBRANCH   1  30
TORSDOF 22
