REMARK SMILES CCCC[C@@H](C(=O)OCCOCCOCCOC(=O)c1ccc(-c2c3nc(c(-c4c(F)c(F)c(F)c(F)c4F)c4ccc([nH]4)c(-c4c(F)c(F)c(F)c(F)c4F)c4nc(c(-c5c(F)c(F)c(F)c(F)c5F)c5ccc2[nH]5)C=C4)C=C3)cc1)[C@]1(O)COc2cc(O)ccc21
REMARK SMILES IDX 12 1 11 2 10 3 9 4 8 5 6 6 7 7 5 8 4 9 3 10 2 11 1 12 83 13
REMARK SMILES IDX 85 14 93 15 86 16 87 17 92 18 88 19 91 20 89 21 84 22 90 24
REMARK SMILES IDX 13 26 14 27 15 28 16 29 17 30 18 31 19 32 20 33 21 34 82 35
REMARK SMILES IDX 22 36 81 37 23 38 24 39 25 40 75 41 26 42 80 43 74 44 76 45
REMARK SMILES IDX 27 46 79 47 73 48 72 49 28 51 60 52 40 53 59 54 41 55 44 56
REMARK SMILES IDX 58 57 77 58 42 59 43 60 57 62 78 63 45 64 29 65 30 66 38 67
REMARK SMILES IDX 31 68 32 69 36 70 39 71 33 72 34 73 37 74 35 75 61 76 62 77
REMARK SMILES IDX 70 78 63 79 64 80 68 81 71 82 65 83 66 84 69 85 67 86 46 87
REMARK SMILES IDX 47 88 55 89 48 90 49 91 53 92 56 93 50 94 51 95 54 96 52 97
REMARK H PARENT 84 23 90 25 76 50 44 61
REMARK Flexibility Score: inf
ROOT
ATOM      1  C   UNL     1      -0.850  -6.126  -2.138  1.00  0.00     0.188 C 
ENDROOT
BRANCH   1   2
ATOM      2  O   UNL     1      -1.212  -5.909  -3.497  1.00  0.00    -0.376 OA
BRANCH   2   3
ATOM      3  C   UNL     1      -2.327  -5.049  -3.706  1.00  0.00     0.202 C 
BRANCH   3   4
ATOM      4  C   UNL     1      -2.034  -3.583  -3.390  1.00  0.00     0.261 C 
BRANCH   4   5
ATOM      5  O   UNL     1      -1.737  -3.423  -1.988  1.00  0.00    -0.463 OA
BRANCH   5   6
ATOM      6  C   UNL     1      -2.413  -2.509  -1.267  1.00  0.00     0.312 C 
ATOM      7  O   UNL     1      -3.387  -1.884  -1.669  1.00  0.00    -0.252 OA
BRANCH   6   8
ATOM      8  C   UNL     1      -1.856  -2.360   0.144  1.00  0.00     0.139 C 
BRANCH   8   9
ATOM      9  C   UNL     1      -0.308  -2.353   0.260  1.00  0.00     0.019 C 
BRANCH   9  10
ATOM     10  C   UNL     1       0.521  -1.681  -0.849  1.00  0.00     0.001 C 
BRANCH  10  11
ATOM     11  C   UNL     1       0.301  -0.187  -1.058  1.00  0.00    -0.003 C 
ATOM     12  C   UNL     1       0.934   0.661   0.032  1.00  0.00     0.004 C 
ENDBRANCH  10  11
ENDBRANCH   9  10
ENDBRANCH   8   9
BRANCH   8  13
ATOM     13  C   UNL     1      -2.598  -3.281   1.179  1.00  0.00     0.140 C 
ATOM     14  C   UNL     1      -1.726  -4.224   2.058  1.00  0.00     0.270 C 
ATOM     15  C   UNL     1      -3.501  -4.355   0.639  1.00  0.00     0.030 A 
ATOM     16  O   UNL     1      -1.695  -5.539   1.457  1.00  0.00    -0.490 OA
ATOM     17  C   UNL     1      -2.916  -5.602   0.837  1.00  0.00     0.129 A 
ATOM     18  C   UNL     1      -4.739  -4.269   0.016  1.00  0.00     0.014 A 
ATOM     19  C   UNL     1      -3.500  -6.778   0.405  1.00  0.00     0.093 A 
ATOM     20  C   UNL     1      -5.356  -5.447  -0.427  1.00  0.00     0.047 A 
ATOM     21  C   UNL     1      -4.730  -6.684  -0.236  1.00  0.00     0.119 A 
BRANCH  13  22
ATOM     22  O   UNL     1      -3.340  -2.437   2.071  1.00  0.00    -0.381 OA
ATOM     23  H   UNL     1      -2.758  -1.744   2.420  1.00  0.00     0.212 HD
ENDBRANCH  13  22
BRANCH  21  24
ATOM     24  O   UNL     1      -5.301  -7.841  -0.681  1.00  0.00    -0.508 OA
ATOM     25  H   UNL     1      -4.867  -8.660  -0.545  1.00  0.00     0.293 HD
ENDBRANCH  21  24
ENDBRANCH   8  13
ENDBRANCH   6   8
ENDBRANCH   5   6
ENDBRANCH   4   5
ENDBRANCH   3   4
ENDBRANCH   2   3
ENDBRANCH   1   2
BRANCH   1  26
ATOM     26  C   UNL     1       0.456  -5.423  -1.732  1.00  0.00     0.188 C 
BRANCH  26  27
ATOM     27  O   UNL     1       1.555  -5.338  -2.631  1.00  0.00    -0.376 OA
BRANCH  27  28
ATOM     28  C   UNL     1       1.693  -6.333  -3.627  1.00  0.00     0.202 C 
BRANCH  28  29
ATOM     29  C   UNL     1       2.121  -7.722  -3.144  1.00  0.00     0.261 C 
BRANCH  29  30
ATOM     30  O   UNL     1       1.427  -8.184  -1.972  1.00  0.00    -0.460 OA
BRANCH  30  31
ATOM     31  C   UNL     1       2.118  -8.057  -0.813  1.00  0.00     0.338 C 
ATOM     32  O   UNL     1       3.270  -7.668  -0.683  1.00  0.00    -0.246 OA
BRANCH  31  33
ATOM     33  C   UNL     1       1.251  -8.337   0.354  1.00  0.00     0.060 A 
ATOM     34  C   UNL     1       1.334  -7.461   1.446  1.00  0.00     0.016 A 
ATOM     35  C   UNL     1       0.447  -9.478   0.432  1.00  0.00     0.016 A 
ATOM     36  C   UNL     1       0.671  -7.754   2.637  1.00  0.00     0.010 A 
ATOM     37  C   UNL     1      -0.202  -9.782   1.638  1.00  0.00     0.010 A 
ATOM     38  C   UNL     1      -0.053  -8.946   2.760  1.00  0.00    -0.014 A 
BRANCH  38  39
ATOM     39  C   UNL     1      -0.435  -9.415   4.118  1.00  0.00     0.031 A 
ATOM     40  C   UNL     1       0.538 -10.286   4.869  1.00  0.00     0.074 A 
ATOM     41  C   UNL     1      -1.584  -9.043   4.707  1.00  0.00     0.049 A 
ATOM     42  N   UNL     1       0.453 -10.783   6.078  1.00  0.00    -0.248 NA
ATOM     43  C   UNL     1       1.778 -10.638   4.160  1.00  0.00     0.031 C 
ATOM     44  C   UNL     1      -2.594  -8.172   4.116  1.00  0.00     0.029 A 
ATOM     45  N   UNL     1      -2.091  -9.358   5.945  1.00  0.00    -0.354 N 
ATOM     46  C   UNL     1       1.631 -11.492   6.277  1.00  0.00     0.074 A 
ATOM     47  C   UNL     1       2.398 -11.393   5.053  1.00  0.00     0.031 C 
ATOM     48  C   UNL     1      -3.612  -8.033   4.984  1.00  0.00     0.029 A 
ATOM     49  C   UNL     1      -3.329  -8.816   6.187  1.00  0.00     0.049 A 
ATOM     50  H   UNL     1      -1.612  -9.919   6.596  1.00  0.00     0.167 HD
ATOM     51  C   UNL     1       2.047 -12.155   7.381  1.00  0.00     0.037 A 
ATOM     52  C   UNL     1      -4.141  -8.946   7.255  1.00  0.00     0.037 A 
ATOM     53  C   UNL     1       1.284 -12.280   8.594  1.00  0.00     0.049 A 
ATOM     54  C   UNL     1      -3.691  -9.762   8.443  1.00  0.00     0.074 A 
ATOM     55  C   UNL     1       1.624 -12.936   9.765  1.00  0.00     0.029 A 
ATOM     56  N   UNL     1       0.018 -11.749   8.787  1.00  0.00    -0.354 N 
ATOM     57  N   UNL     1      -2.559 -10.392   8.639  1.00  0.00    -0.248 NA
ATOM     58  C   UNL     1      -4.636  -9.874   9.565  1.00  0.00     0.031 C 
ATOM     59  C   UNL     1       0.543 -12.844  10.649  1.00  0.00     0.029 A 
ATOM     60  C   UNL     1      -0.448 -12.083  10.049  1.00  0.00     0.049 A 
ATOM     61  H   UNL     1      -0.476 -11.213   8.126  1.00  0.00     0.167 HD
ATOM     62  C   UNL     1      -2.640 -10.940   9.914  1.00  0.00     0.074 A 
ATOM     63  C   UNL     1      -3.929 -10.560  10.451  1.00  0.00     0.031 C 
ATOM     64  C   UNL     1      -1.727 -11.690  10.581  1.00  0.00     0.037 A 
BRANCH  51  65
ATOM     65  C   UNL     1       3.388 -12.824   7.312  1.00  0.00     0.064 A 
ATOM     66  C   UNL     1       4.579 -12.083   7.318  1.00  0.00     0.173 A 
ATOM     67  C   UNL     1       3.482 -14.222   7.254  1.00  0.00     0.173 A 
ATOM     68  F   UNL     1       4.540 -10.742   7.356  1.00  0.00    -0.203 F 
ATOM     69  C   UNL     1       5.816 -12.717   7.241  1.00  0.00     0.198 A 
ATOM     70  C   UNL     1       4.722 -14.853   7.204  1.00  0.00     0.198 A 
ATOM     71  F   UNL     1       2.373 -14.976   7.247  1.00  0.00    -0.203 F 
ATOM     72  F   UNL     1       6.940 -11.987   7.199  1.00  0.00    -0.200 F 
ATOM     73  C   UNL     1       5.886 -14.101   7.190  1.00  0.00     0.200 A 
ATOM     74  F   UNL     1       4.789 -16.191   7.165  1.00  0.00    -0.200 F 
ATOM     75  F   UNL     1       7.078 -14.710   7.118  1.00  0.00    -0.200 F 
ENDBRANCH  51  65
BRANCH  52  76
ATOM     76  C   UNL     1      -5.475  -8.290   7.264  1.00  0.00     0.064 A 
ATOM     77  C   UNL     1      -5.756  -7.231   8.139  1.00  0.00     0.173 A 
ATOM     78  C   UNL     1      -6.511  -8.744   6.435  1.00  0.00     0.173 A 
ATOM     79  F   UNL     1      -4.808  -6.784   8.975  1.00  0.00    -0.203 F 
ATOM     80  C   UNL     1      -7.030  -6.670   8.203  1.00  0.00     0.198 A 
ATOM     81  C   UNL     1      -7.776  -8.163   6.479  1.00  0.00     0.198 A 
ATOM     82  F   UNL     1      -6.297  -9.761   5.588  1.00  0.00    -0.203 F 
ATOM     83  F   UNL     1      -7.288  -5.700   9.091  1.00  0.00    -0.200 F 
ATOM     84  C   UNL     1      -8.037  -7.133   7.370  1.00  0.00     0.200 A 
ATOM     85  F   UNL     1      -8.746  -8.611   5.671  1.00  0.00    -0.200 F 
ATOM     86  F   UNL     1      -9.264  -6.598   7.438  1.00  0.00    -0.200 F 
ENDBRANCH  52  76
BRANCH  64  87
ATOM     87  C   UNL     1      -2.065 -12.111  11.984  1.00  0.00     0.064 A 
ATOM     88  C   UNL     1      -3.052 -13.072  12.251  1.00  0.00     0.173 A 
ATOM     89  C   UNL     1      -1.368 -11.568  13.075  1.00  0.00     0.173 A 
ATOM     90  F   UNL     1      -3.757 -13.613  11.247  1.00  0.00    -0.203 F 
ATOM     91  C   UNL     1      -3.350 -13.448  13.559  1.00  0.00     0.198 A 
ATOM     92  C   UNL     1      -1.646 -11.970  14.378  1.00  0.00     0.198 A 
ATOM     93  F   UNL     1      -0.407 -10.653  12.876  1.00  0.00    -0.203 F 
ATOM     94  F   UNL     1      -4.334 -14.328  13.793  1.00  0.00    -0.200 F 
ATOM     95  C   UNL     1      -2.643 -12.903  14.620  1.00  0.00     0.200 A 
ATOM     96  F   UNL     1      -0.952 -11.453  15.401  1.00  0.00    -0.200 F 
ATOM     97  F   UNL     1      -2.929 -13.269  15.877  1.00  0.00    -0.200 F 
ENDBRANCH  64  87
ENDBRANCH  38  39
ENDBRANCH  31  33
ENDBRANCH  30  31
ENDBRANCH  29  30
ENDBRANCH  28  29
ENDBRANCH  27  28
ENDBRANCH  26  27
ENDBRANCH   1  26
TORSDOF 23
