REMARK SMILES COc1ncnc(N2CCSC[C@@H]2CC(=O)OCCOCCOCCOC(=O)c2ccc(-c3c4nc(c(-c5c(F)c(F)c(F)c(F)c5F)c5ccc([nH]5)c(-c5c(F)c(F)c(F)c(F)c5F)c5nc(c(-c6c(F)c(F)c(F)c(F)c6F)c6ccc3[nH]6)C=C5)C=C4)cc2)c1[N+](=O)[O-]
REMARK SMILES IDX 21 1 20 2 19 3 18 4 17 5 15 6 16 7 14 8 13 9 8 10 9 11 10 12
REMARK SMILES IDX 12 13 11 14 7 15 3 16 4 17 92 18 5 19 6 20 2 21 1 22 93 23
REMARK SMILES IDX 94 24 95 25 22 26 23 27 24 28 25 29 26 30 27 31 28 32 29 33
REMARK SMILES IDX 30 34 91 35 31 36 90 37 32 38 33 39 34 40 84 41 35 42 89 43
REMARK SMILES IDX 83 44 85 45 36 46 88 47 82 48 81 49 37 51 69 52 49 53 68 54
REMARK SMILES IDX 50 55 53 56 67 57 86 58 51 59 52 60 66 62 87 63 54 64 38 65
REMARK SMILES IDX 39 66 47 67 40 68 41 69 45 70 48 71 42 72 43 73 46 74 44 75
REMARK SMILES IDX 70 76 71 77 79 78 72 79 73 80 77 81 80 82 74 83 75 84 78 85
REMARK SMILES IDX 76 86 55 87 56 88 64 89 57 90 58 91 62 92 65 93 59 94 60 95
REMARK SMILES IDX 63 96 61 97
REMARK H PARENT 85 50 53 61
REMARK Flexibility Score: inf
ROOT
ATOM      1  C   UNL     1       4.021  -2.990   0.427  1.00  0.00     0.188 C 
ENDROOT
BRANCH   1   2
ATOM      2  O   UNL     1       3.053  -3.998   0.185  1.00  0.00    -0.376 OA
BRANCH   2   3
ATOM      3  C   UNL     1       2.405  -4.622   1.291  1.00  0.00     0.202 C 
BRANCH   3   4
ATOM      4  C   UNL     1       3.305  -5.168   2.401  1.00  0.00     0.261 C 
BRANCH   4   5
ATOM      5  O   UNL     1       3.593  -4.102   3.323  1.00  0.00    -0.463 OA
BRANCH   5   6
ATOM      6  C   UNL     1       4.572  -4.354   4.226  1.00  0.00     0.307 C 
ATOM      7  O   UNL     1       5.110  -5.442   4.383  1.00  0.00    -0.252 OA
BRANCH   6   8
ATOM      8  C   UNL     1       5.043  -3.083   4.891  1.00  0.00     0.148 C 
BRANCH   8   9
ATOM      9  C   UNL     1       3.940  -2.293   5.633  1.00  0.00     0.105 C 
ATOM     10  N   UNL     1       3.924  -0.866   5.193  1.00  0.00    -0.345 N 
ATOM     11  C   UNL     1       5.145  -0.075   5.446  1.00  0.00     0.129 C 
ATOM     12  C   UNL     1       5.498   0.030   6.929  1.00  0.00     0.091 C 
ATOM     13  C   UNL     1       4.107  -2.342   7.168  1.00  0.00     0.095 C 
ATOM     14  S   UNL     1       5.668  -1.582   7.759  1.00  0.00    -0.158 SA
BRANCH  10  15
ATOM     15  C   UNL     1       2.678  -0.285   4.969  1.00  0.00     0.215 A 
ATOM     16  C   UNL     1       1.108   1.030   3.732  1.00  0.00     0.299 A 
ATOM     17  N   UNL     1       0.075   0.585   4.463  1.00  0.00    -0.196 NA
ATOM     18  C   UNL     1       2.413   0.681   4.017  1.00  0.00     0.372 A 
ATOM     19  C   UNL     1       0.403  -0.270   5.437  1.00  0.00     0.228 A 
ATOM     20  N   UNL     1       1.636  -0.758   5.691  1.00  0.00    -0.212 NA
BRANCH  16  21
ATOM     21  O   UNL     1       0.855   1.886   2.680  1.00  0.00    -0.476 OA
ATOM     22  C   UNL     1      -0.428   1.718   2.072  1.00  0.00     0.280 C 
ENDBRANCH  16  21
BRANCH  18  23
ATOM     23  N   UNL     1       3.456   1.431   3.430  1.00  0.00     0.072 N 
ATOM     24  O   UNL     1       3.627   2.573   3.890  1.00  0.00    -0.258 OA
ATOM     25  O   UNL     1       4.183   0.890   2.590  1.00  0.00    -0.258 OA
ENDBRANCH  18  23
ENDBRANCH  10  15
ENDBRANCH   8   9
ENDBRANCH   6   8
ENDBRANCH   5   6
ENDBRANCH   4   5
ENDBRANCH   3   4
ENDBRANCH   2   3
ENDBRANCH   1   2
BRANCH   1  26
ATOM     26  C   UNL     1       3.665  -1.795   1.317  1.00  0.00     0.188 C 
BRANCH  26  27
ATOM     27  O   UNL     1       2.310  -1.419   1.493  1.00  0.00    -0.376 OA
BRANCH  27  28
ATOM     28  C   UNL     1       1.512  -1.123   0.358  1.00  0.00     0.202 C 
BRANCH  28  29
ATOM     29  C   UNL     1       2.075  -0.212  -0.736  1.00  0.00     0.261 C 
BRANCH  29  30
ATOM     30  O   UNL     1       2.952   0.810  -0.254  1.00  0.00    -0.460 OA
BRANCH  30  31
ATOM     31  C   UNL     1       2.601   2.105  -0.436  1.00  0.00     0.338 C 
ATOM     32  O   UNL     1       1.520   2.560  -0.752  1.00  0.00    -0.246 OA
BRANCH  31  33
ATOM     33  C   UNL     1       3.842   2.875  -0.242  1.00  0.00     0.060 A 
ATOM     34  C   UNL     1       4.095   3.462   0.991  1.00  0.00     0.016 A 
ATOM     35  C   UNL     1       4.819   2.874  -1.238  1.00  0.00     0.016 A 
ATOM     36  C   UNL     1       5.391   3.872   1.307  1.00  0.00     0.010 A 
ATOM     37  C   UNL     1       6.083   3.401  -0.962  1.00  0.00     0.010 A 
ATOM     38  C   UNL     1       6.394   3.862   0.328  1.00  0.00    -0.014 A 
BRANCH  38  39
ATOM     39  C   UNL     1       7.735   4.437   0.610  1.00  0.00     0.031 A 
ATOM     40  C   UNL     1       7.855   5.912   0.869  1.00  0.00     0.074 A 
ATOM     41  C   UNL     1       8.835   3.658   0.614  1.00  0.00     0.049 A 
ATOM     42  N   UNL     1       8.929   6.639   1.050  1.00  0.00    -0.248 NA
ATOM     43  C   UNL     1       6.597   6.671   0.959  1.00  0.00     0.031 C 
ATOM     44  C   UNL     1       8.844   2.201   0.482  1.00  0.00     0.029 A 
ATOM     45  N   UNL     1      10.165   3.990   0.714  1.00  0.00    -0.354 N 
ATOM     46  C   UNL     1       8.471   7.924   1.305  1.00  0.00     0.074 A 
ATOM     47  C   UNL     1       7.028   7.883   1.269  1.00  0.00     0.031 C 
ATOM     48  C   UNL     1      10.118   1.769   0.461  1.00  0.00     0.029 A 
ATOM     49  C   UNL     1      11.014   2.920   0.546  1.00  0.00     0.049 A 
ATOM     50  H   UNL     1      10.481   4.906   0.888  1.00  0.00     0.167 HD
ATOM     51  C   UNL     1       9.187   9.053   1.515  1.00  0.00     0.037 A 
ATOM     52  C   UNL     1      12.358   2.888   0.436  1.00  0.00     0.037 A 
ATOM     53  C   UNL     1      10.617   9.126   1.418  1.00  0.00     0.049 A 
ATOM     54  C   UNL     1      13.127   4.184   0.513  1.00  0.00     0.074 A 
ATOM     55  C   UNL     1      11.434  10.238   1.485  1.00  0.00     0.029 A 
ATOM     56  N   UNL     1      11.439   8.031   1.195  1.00  0.00    -0.354 N 
ATOM     57  N   UNL     1      12.684   5.400   0.726  1.00  0.00    -0.248 NA
ATOM     58  C   UNL     1      14.583   4.105   0.322  1.00  0.00     0.031 C 
ATOM     59  C   UNL     1      12.751   9.822   1.254  1.00  0.00     0.029 A 
ATOM     60  C   UNL     1      12.757   8.444   1.100  1.00  0.00     0.049 A 
ATOM     61  H   UNL     1      11.132   7.100   1.116  1.00  0.00     0.167 HD
ATOM     62  C   UNL     1      13.803   6.223   0.721  1.00  0.00     0.074 A 
ATOM     63  C   UNL     1      14.949   5.367   0.498  1.00  0.00     0.031 C 
ATOM     64  C   UNL     1      13.879   7.568   0.884  1.00  0.00     0.037 A 
BRANCH  51  65
ATOM     65  C   UNL     1       8.401  10.302   1.769  1.00  0.00     0.064 A 
ATOM     66  C   UNL     1       7.765  10.528   2.999  1.00  0.00     0.173 A 
ATOM     67  C   UNL     1       8.230  11.252   0.752  1.00  0.00     0.173 A 
ATOM     68  F   UNL     1       7.871   9.630   3.989  1.00  0.00    -0.203 F 
ATOM     69  C   UNL     1       6.964  11.651   3.192  1.00  0.00     0.198 A 
ATOM     70  C   UNL     1       7.445  12.383   0.956  1.00  0.00     0.198 A 
ATOM     71  F   UNL     1       8.804  11.069  -0.447  1.00  0.00    -0.203 F 
ATOM     72  F   UNL     1       6.320  11.821   4.355  1.00  0.00    -0.200 F 
ATOM     73  C   UNL     1       6.807  12.577   2.171  1.00  0.00     0.200 A 
ATOM     74  F   UNL     1       7.289  13.274  -0.033  1.00  0.00    -0.200 F 
ATOM     75  F   UNL     1       6.024  13.650   2.353  1.00  0.00    -0.200 F 
ENDBRANCH  51  65
BRANCH  52  76
ATOM     76  C   UNL     1      13.071   1.603   0.193  1.00  0.00     0.064 A 
ATOM     77  C   UNL     1      13.946   1.066   1.149  1.00  0.00     0.173 A 
ATOM     78  C   UNL     1      12.938   0.913  -1.022  1.00  0.00     0.173 A 
ATOM     79  F   UNL     1      14.138   1.704   2.312  1.00  0.00    -0.203 F 
ATOM     80  C   UNL     1      14.673  -0.096   0.892  1.00  0.00     0.198 A 
ATOM     81  C   UNL     1      13.644  -0.264  -1.267  1.00  0.00     0.198 A 
ATOM     82  F   UNL     1      12.126   1.387  -1.979  1.00  0.00    -0.203 F 
ATOM     83  F   UNL     1      15.544  -0.554   1.802  1.00  0.00    -0.200 F 
ATOM     84  C   UNL     1      14.518  -0.763  -0.314  1.00  0.00     0.200 A 
ATOM     85  F   UNL     1      13.488  -0.907  -2.432  1.00  0.00    -0.200 F 
ATOM     86  F   UNL     1      15.221  -1.877  -0.562  1.00  0.00    -0.200 F 
ENDBRANCH  52  76
BRANCH  64  87
ATOM     87  C   UNL     1      15.245   8.185   0.866  1.00  0.00     0.064 A 
ATOM     88  C   UNL     1      15.979   8.319  -0.321  1.00  0.00     0.173 A 
ATOM     89  C   UNL     1      15.809   8.683   2.050  1.00  0.00     0.173 A 
ATOM     90  F   UNL     1      15.487   7.846  -1.476  1.00  0.00    -0.203 F 
ATOM     91  C   UNL     1      17.241   8.905  -0.317  1.00  0.00     0.198 A 
ATOM     92  C   UNL     1      17.059   9.294   2.045  1.00  0.00     0.198 A 
ATOM     93  F   UNL     1      15.142   8.586   3.210  1.00  0.00    -0.203 F 
ATOM     94  F   UNL     1      17.946   8.981  -1.455  1.00  0.00    -0.200 F 
ATOM     95  C   UNL     1      17.777   9.398   0.864  1.00  0.00     0.200 A 
ATOM     96  F   UNL     1      17.570   9.781   3.185  1.00  0.00    -0.200 F 
ATOM     97  F   UNL     1      18.991   9.965   0.865  1.00  0.00    -0.200 F 
ENDBRANCH  64  87
ENDBRANCH  38  39
ENDBRANCH  31  33
ENDBRANCH  30  31
ENDBRANCH  29  30
ENDBRANCH  28  29
ENDBRANCH  27  28
ENDBRANCH  26  27
ENDBRANCH   1  26
TORSDOF 21
