REMARK SMILES CC(C)(C)C(=O)C[N@H+]1CCCC[C@H]1C(=O)OCCOCCOCCOC(=O)c1ccc(-c2c3nc(c(-c4c(F)c(F)c(F)c(F)c4F)c4ccc([nH]4)c(-c4c(F)c(F)c(F)c(F)c4F)c4nc(c(-c5c(F)c(F)c(F)c(F)c5F)c5ccc2[nH]5)C=C4)C=C3)cc1
REMARK SMILES IDX 20 1 19 2 18 3 17 4 16 5 14 6 15 7 13 8 8 9 9 10 10 12 12 13
REMARK SMILES IDX 11 14 7 15 5 16 6 17 2 18 1 19 3 20 4 21 21 22 22 23 23 24
REMARK SMILES IDX 24 25 25 26 26 27 27 28 28 29 29 30 90 31 30 32 89 33 31 34
REMARK SMILES IDX 32 35 33 36 83 37 34 38 88 39 82 40 84 41 35 42 87 43 81 44
REMARK SMILES IDX 80 45 36 47 68 48 48 49 67 50 49 51 52 52 66 53 85 54 50 55
REMARK SMILES IDX 51 56 65 58 86 59 53 60 37 61 38 62 46 63 39 64 40 65 44 66
REMARK SMILES IDX 47 67 41 68 42 69 45 70 43 71 69 72 70 73 78 74 71 75 72 76
REMARK SMILES IDX 76 77 79 78 73 79 74 80 77 81 75 82 54 83 55 84 63 85 56 86
REMARK SMILES IDX 57 87 61 88 64 89 58 90 59 91 62 92 60 93
REMARK H PARENT 8 11 84 46 52 57
REMARK Flexibility Score: inf
ROOT
ATOM      1  C   UNL     1       4.627  -6.312  -0.267  1.00  0.00     0.188 C 
ENDROOT
BRANCH   1   2
ATOM      2  O   UNL     1       5.064  -5.428  -1.297  1.00  0.00    -0.376 OA
BRANCH   2   3
ATOM      3  C   UNL     1       6.060  -4.460  -1.020  1.00  0.00     0.202 C 
BRANCH   3   4
ATOM      4  C   UNL     1       5.501  -3.072  -0.668  1.00  0.00     0.261 C 
BRANCH   4   5
ATOM      5  O   UNL     1       4.652  -2.995   0.493  1.00  0.00    -0.459 OA
BRANCH   5   6
ATOM      6  C   UNL     1       3.341  -3.327   0.290  1.00  0.00     0.365 C 
ATOM      7  O   UNL     1       2.909  -3.781  -0.761  1.00  0.00    -0.245 OA
BRANCH   6   8
ATOM      8  C   UNL     1       2.459  -2.946   1.504  1.00  0.00     0.295 C 
ATOM      9  N   UNL     1       1.063  -3.471   1.454  1.00  0.00    -0.317 N 
ATOM     10  C   UNL     1       0.978  -4.877   1.845  1.00  0.00     0.263 C 
ATOM     11  H   UNL     1       0.597  -2.897   2.156  1.00  0.00     0.349 HD
ATOM     12  C   UNL     1       1.279  -4.966   3.332  1.00  0.00     0.062 C 
ATOM     13  C   UNL     1       3.036  -3.155   2.926  1.00  0.00     0.078 C 
ATOM     14  C   UNL     1       2.683  -4.469   3.637  1.00  0.00     0.013 C 
BRANCH   9  15
ATOM     15  C   UNL     1       0.298  -3.219   0.225  1.00  0.00     0.340 C 
BRANCH  15  16
ATOM     16  C   UNL     1       0.390  -1.776  -0.256  1.00  0.00     0.192 C 
ATOM     17  O   UNL     1       0.881  -1.540  -1.367  1.00  0.00    -0.293 OA
BRANCH  16  18
ATOM     18  C   UNL     1      -0.240  -0.635   0.575  1.00  0.00     0.026 C 
ATOM     19  C   UNL     1       0.344   0.692   0.050  1.00  0.00     0.019 C 
ATOM     20  C   UNL     1       0.021  -0.688   2.086  1.00  0.00     0.019 C 
ATOM     21  C   UNL     1      -1.752  -0.672   0.336  1.00  0.00     0.019 C 
ENDBRANCH  16  18
ENDBRANCH  15  16
ENDBRANCH   9  15
ENDBRANCH   6   8
ENDBRANCH   5   6
ENDBRANCH   4   5
ENDBRANCH   3   4
ENDBRANCH   2   3
ENDBRANCH   1   2
BRANCH   1  22
ATOM     22  C   UNL     1       4.909  -5.986   1.202  1.00  0.00     0.188 C 
BRANCH  22  23
ATOM     23  O   UNL     1       6.295  -5.887   1.494  1.00  0.00    -0.376 OA
BRANCH  23  24
ATOM     24  C   UNL     1       6.768  -6.793   2.481  1.00  0.00     0.202 C 
BRANCH  24  25
ATOM     25  C   UNL     1       6.932  -8.207   1.913  1.00  0.00     0.261 C 
BRANCH  25  26
ATOM     26  O   UNL     1       5.690  -8.838   1.534  1.00  0.00    -0.460 OA
BRANCH  26  27
ATOM     27  C   UNL     1       4.817  -9.094   2.531  1.00  0.00     0.338 C 
ATOM     28  O   UNL     1       4.992  -8.906   3.729  1.00  0.00    -0.246 OA
BRANCH  27  29
ATOM     29  C   UNL     1       3.510  -9.432   1.938  1.00  0.00     0.060 A 
ATOM     30  C   UNL     1       2.398  -8.652   2.280  1.00  0.00     0.016 A 
ATOM     31  C   UNL     1       3.370 -10.519   1.075  1.00  0.00     0.016 A 
ATOM     32  C   UNL     1       1.134  -8.969   1.778  1.00  0.00     0.010 A 
ATOM     33  C   UNL     1       2.100 -10.850   0.591  1.00  0.00     0.010 A 
ATOM     34  C   UNL     1       0.971 -10.093   0.958  1.00  0.00    -0.014 A 
BRANCH  34  35
ATOM     35  C   UNL     1      -0.390 -10.591   0.633  1.00  0.00     0.031 A 
ATOM     36  C   UNL     1      -0.950 -11.727   1.443  1.00  0.00     0.074 A 
ATOM     37  C   UNL     1      -1.131 -10.044  -0.347  1.00  0.00     0.049 A 
ATOM     38  N   UNL     1      -2.044 -12.422   1.263  1.00  0.00    -0.248 NA
ATOM     39  C   UNL     1      -0.167 -12.130   2.621  1.00  0.00     0.031 C 
ATOM     40  C   UNL     1      -0.750  -8.887  -1.153  1.00  0.00     0.029 A 
ATOM     41  N   UNL     1      -2.364 -10.406  -0.836  1.00  0.00    -0.354 N 
ATOM     42  C   UNL     1      -2.069 -13.357   2.289  1.00  0.00     0.074 A 
ATOM     43  C   UNL     1      -0.878 -13.147   3.084  1.00  0.00     0.031 C 
ATOM     44  C   UNL     1      -1.724  -8.643  -2.048  1.00  0.00     0.029 A 
ATOM     45  C   UNL     1      -2.769  -9.657  -1.913  1.00  0.00     0.049 A 
ATOM     46  H   UNL     1      -2.904 -11.133  -0.450  1.00  0.00     0.167 HD
ATOM     47  C   UNL     1      -2.999 -14.308   2.544  1.00  0.00     0.037 A 
ATOM     48  C   UNL     1      -3.840  -9.801  -2.720  1.00  0.00     0.037 A 
ATOM     49  C   UNL     1      -4.186 -14.516   1.760  1.00  0.00     0.049 A 
ATOM     50  C   UNL     1      -4.810 -10.933  -2.478  1.00  0.00     0.074 A 
ATOM     51  C   UNL     1      -5.183 -15.461   1.936  1.00  0.00     0.029 A 
ATOM     52  N   UNL     1      -4.537 -13.768   0.646  1.00  0.00    -0.354 N 
ATOM     53  N   UNL     1      -4.816 -11.832  -1.524  1.00  0.00    -0.248 NA
ATOM     54  C   UNL     1      -5.917 -11.075  -3.437  1.00  0.00     0.031 C 
ATOM     55  C   UNL     1      -6.112 -15.315   0.900  1.00  0.00     0.029 A 
ATOM     56  C   UNL     1      -5.722 -14.245   0.111  1.00  0.00     0.049 A 
ATOM     57  H   UNL     1      -4.020 -13.010   0.289  1.00  0.00     0.167 HD
ATOM     58  C   UNL     1      -5.934 -12.627  -1.753  1.00  0.00     0.074 A 
ATOM     59  C   UNL     1      -6.591 -12.096  -2.928  1.00  0.00     0.031 C 
ATOM     60  C   UNL     1      -6.375 -13.701  -1.052  1.00  0.00     0.037 A 
BRANCH  47  61
ATOM     61  C   UNL     1      -2.741 -15.229   3.700  1.00  0.00     0.064 A 
ATOM     62  C   UNL     1      -2.854 -14.798   5.029  1.00  0.00     0.173 A 
ATOM     63  C   UNL     1      -2.395 -16.569   3.469  1.00  0.00     0.173 A 
ATOM     64  F   UNL     1      -3.164 -13.522   5.302  1.00  0.00    -0.203 F 
ATOM     65  C   UNL     1      -2.603 -15.670   6.086  1.00  0.00     0.198 A 
ATOM     66  C   UNL     1      -2.173 -17.444   4.527  1.00  0.00     0.198 A 
ATOM     67  F   UNL     1      -2.276 -17.030   2.215  1.00  0.00    -0.203 F 
ATOM     68  F   UNL     1      -2.668 -15.225   7.349  1.00  0.00    -0.200 F 
ATOM     69  C   UNL     1      -2.270 -16.992   5.835  1.00  0.00     0.200 A 
ATOM     70  F   UNL     1      -1.861 -18.724   4.282  1.00  0.00    -0.200 F 
ATOM     71  F   UNL     1      -2.032 -17.830   6.853  1.00  0.00    -0.200 F 
ENDBRANCH  47  61
BRANCH  48  72
ATOM     72  C   UNL     1      -4.037  -8.881  -3.872  1.00  0.00     0.064 A 
ATOM     73  C   UNL     1      -5.122  -7.994  -3.914  1.00  0.00     0.173 A 
ATOM     74  C   UNL     1      -3.171  -8.902  -4.975  1.00  0.00     0.173 A 
ATOM     75  F   UNL     1      -6.000  -7.962  -2.900  1.00  0.00    -0.203 F 
ATOM     76  C   UNL     1      -5.343  -7.178  -5.022  1.00  0.00     0.198 A 
ATOM     77  C   UNL     1      -3.375  -8.064  -6.069  1.00  0.00     0.198 A 
ATOM     78  F   UNL     1      -2.126  -9.742  -4.992  1.00  0.00    -0.203 F 
ATOM     79  F   UNL     1      -6.420  -6.381  -5.060  1.00  0.00    -0.200 F 
ATOM     80  C   UNL     1      -4.466  -7.209  -6.096  1.00  0.00     0.200 A 
ATOM     81  F   UNL     1      -2.523  -8.095  -7.103  1.00  0.00    -0.200 F 
ATOM     82  F   UNL     1      -4.682  -6.427  -7.162  1.00  0.00    -0.200 F 
ENDBRANCH  48  72
BRANCH  60  83
ATOM     83  C   UNL     1      -7.650 -14.354  -1.505  1.00  0.00     0.064 A 
ATOM     84  C   UNL     1      -7.706 -15.133  -2.670  1.00  0.00     0.173 A 
ATOM     85  C   UNL     1      -8.817 -14.244  -0.733  1.00  0.00     0.173 A 
ATOM     86  F   UNL     1      -6.623 -15.259  -3.451  1.00  0.00    -0.203 F 
ATOM     87  C   UNL     1      -8.889 -15.761  -3.055  1.00  0.00     0.198 A 
ATOM     88  C   UNL     1      -9.989 -14.896  -1.105  1.00  0.00     0.198 A 
ATOM     89  F   UNL     1      -8.815 -13.518   0.395  1.00  0.00    -0.203 F 
ATOM     90  F   UNL     1      -8.931 -16.467  -4.193  1.00  0.00    -0.200 F 
ATOM     91  C   UNL     1     -10.026 -15.649  -2.269  1.00  0.00     0.200 A 
ATOM     92  F   UNL     1     -11.082 -14.799  -0.336  1.00  0.00    -0.200 F 
ATOM     93  F   UNL     1     -11.159 -16.263  -2.635  1.00  0.00    -0.200 F 
ENDBRANCH  60  83
ENDBRANCH  34  35
ENDBRANCH  27  29
ENDBRANCH  26  27
ENDBRANCH  25  26
ENDBRANCH  24  25
ENDBRANCH  23  24
ENDBRANCH  22  23
ENDBRANCH   1  22
TORSDOF 20
