REMARK SMILES Cc1ccc(-c2cc(Cl)cc3c2O[C@@H](C(F)(F)F)C(C(=O)OCCOCCOCCOC(=O)c2ccc(-c4c5nc(c(-c6c(F)c(F)c(F)c(F)c6F)c6ccc([nH]6)c(-c6c(F)c(F)c(F)c(F)c6F)c6nc(c(-c7c(F)c(F)c(F)c(F)c7F)c7ccc4[nH]7)C=C6)C=C5)cc2)=C3)cc1
REMARK SMILES IDX 27 1 26 2 25 3 24 4 23 5 22 6 20 7 21 8 19 9 6 10 7 11 12 12
REMARK SMILES IDX 8 13 11 14 13 15 9 16 10 17 97 18 14 19 5 20 1 21 2 22 3 23
REMARK SMILES IDX 99 24 4 25 98 26 15 27 16 28 17 29 18 30 28 31 29 32 30 33
REMARK SMILES IDX 31 34 32 35 33 36 34 37 35 38 96 39 36 40 95 41 37 42 38 43
REMARK SMILES IDX 39 44 89 45 40 46 94 47 88 48 90 49 41 50 93 51 87 52 86 53
REMARK SMILES IDX 42 55 74 56 54 57 73 58 55 59 58 60 72 61 91 62 56 63 57 64
REMARK SMILES IDX 71 66 92 67 59 68 43 69 44 70 52 71 45 72 46 73 50 74 53 75
REMARK SMILES IDX 47 76 48 77 51 78 49 79 75 80 76 81 84 82 77 83 78 84 82 85
REMARK SMILES IDX 85 86 79 87 80 88 83 89 81 90 60 91 61 92 69 93 62 94 63 95
REMARK SMILES IDX 67 96 70 97 64 98 65 99 68 100 66 101
REMARK H PARENT 90 54 58 65
REMARK Flexibility Score: inf
ROOT
ATOM      1  C   UNL     1      -0.872  -4.682   1.590  1.00  0.00     0.188 C 
ENDROOT
BRANCH   1   2
ATOM      2  C   UNL     1      -0.569  -3.342   2.182  1.00  0.00     0.188 C 
BRANCH   2   3
ATOM      3  O   UNL     1      -0.346  -3.221   3.579  1.00  0.00    -0.376 OA
BRANCH   3   4
ATOM      4  C   UNL     1      -1.227  -3.484   4.704  1.00  0.00     0.202 C 
BRANCH   4   5
ATOM      5  C   UNL     1      -2.961  -3.319   5.275  1.00  0.00     0.261 C 
BRANCH   5   6
ATOM      6  O   UNL     1      -4.548  -2.404   4.591  1.00  0.00    -0.460 OA
BRANCH   6   7
ATOM      7  C   UNL     1      -5.120  -0.892   4.078  1.00  0.00     0.338 C 
ATOM      8  O   UNL     1      -4.472   0.151   4.250  1.00  0.00    -0.246 OA
BRANCH   7   9
ATOM      9  C   UNL     1      -6.391  -0.422   3.223  1.00  0.00     0.087 C 
ATOM     10  C   UNL     1      -4.890   0.586  -0.591  1.00  0.00     0.026 A 
ATOM     11  C   UNL     1      -5.621   1.270  -1.530  1.00  0.00     0.033 A 
ATOM     12  C   UNL     1      -5.718   0.233   0.658  1.00  0.00     0.135 A 
ATOM     13  C   UNL     1      -6.915   1.683  -1.151  1.00  0.00     0.042 A 
ATOM     14  C   UNL     1      -6.645   1.052   1.226  1.00  0.00     0.019 A 
ATOM     15  O   UNL     1      -6.303  -1.245   0.938  1.00  0.00    -0.475 OA
ATOM     16  Cl  UNL     1      -7.955   2.253  -2.408  1.00  0.00    -0.084 Cl
ATOM     17  C   UNL     1      -7.389   1.664   0.220  1.00  0.00     0.032 A 
ATOM     18  C   UNL     1      -6.708   0.857   2.767  1.00  0.00     0.027 C 
ATOM     19  C   UNL     1      -7.046  -1.352   2.302  1.00  0.00     0.316 C 
BRANCH  10  20
ATOM     20  C   UNL     1      -3.073   0.660  -0.709  1.00  0.00    -0.015 A 
ATOM     21  C   UNL     1       2.056   1.412  -0.703  1.00  0.00     0.044 C 
ATOM     22  C   UNL     1       0.554   1.269  -0.676  1.00  0.00    -0.051 A 
ATOM     23  C   UNL     1       0.069  -0.311  -0.166  1.00  0.00     0.004 A 
ATOM     24  C   UNL     1      -0.621   2.510  -1.216  1.00  0.00     0.004 A 
ATOM     25  C   UNL     1      -1.676  -0.659  -0.107  1.00  0.00     0.009 A 
ATOM     26  C   UNL     1      -2.407   2.258  -1.272  1.00  0.00     0.009 A 
ENDBRANCH  10  20
BRANCH  19  27
ATOM     27  C   UNL     1      -7.444  -2.499   3.299  1.00  0.00     0.430 C 
ATOM     28  F   UNL     1      -7.641  -1.966   4.562  1.00  0.00    -0.167 F 
ATOM     29  F   UNL     1      -8.640  -3.053   3.003  1.00  0.00    -0.167 F 
ATOM     30  F   UNL     1      -6.555  -3.482   3.462  1.00  0.00    -0.167 F 
ENDBRANCH  19  27
ENDBRANCH   7   9
ENDBRANCH   6   7
ENDBRANCH   5   6
ENDBRANCH   4   5
ENDBRANCH   3   4
ENDBRANCH   2   3
ENDBRANCH   1   2
BRANCH   1  31
ATOM     31  O   UNL     1      -1.397  -5.455   2.637  1.00  0.00    -0.376 OA
BRANCH  31  32
ATOM     32  C   UNL     1      -0.936  -6.782   2.672  1.00  0.00     0.202 C 
BRANCH  32  33
ATOM     33  C   UNL     1      -1.492  -7.580   1.494  1.00  0.00     0.261 C 
BRANCH  33  34
ATOM     34  O   UNL     1      -2.934  -7.631   1.570  1.00  0.00    -0.460 OA
BRANCH  34  35
ATOM     35  C   UNL     1      -3.561  -6.785   0.707  1.00  0.00     0.338 C 
ATOM     36  O   UNL     1      -3.464  -6.799  -0.508  1.00  0.00    -0.246 OA
BRANCH  35  37
ATOM     37  C   UNL     1      -4.047  -5.629   1.466  1.00  0.00     0.060 A 
ATOM     38  C   UNL     1      -4.137  -4.404   0.875  1.00  0.00     0.016 A 
ATOM     39  C   UNL     1      -4.168  -5.609   2.813  1.00  0.00     0.016 A 
ATOM     40  C   UNL     1      -3.889  -3.229   1.669  1.00  0.00     0.010 A 
ATOM     41  C   UNL     1      -3.914  -4.372   3.450  1.00  0.00     0.010 A 
ATOM     42  C   UNL     1      -3.343  -3.084   2.953  1.00  0.00    -0.014 A 
BRANCH  42  43
ATOM     43  C   UNL     1      -2.665  -1.568   3.942  1.00  0.00     0.031 A 
ATOM     44  C   UNL     1      -3.249  -1.101   5.717  1.00  0.00     0.074 A 
ATOM     45  C   UNL     1      -1.563  -0.745   3.687  1.00  0.00     0.049 A 
ATOM     46  N   UNL     1      -3.146   0.027   6.360  1.00  0.00    -0.248 NA
ATOM     47  C   UNL     1      -4.309  -1.947   6.698  1.00  0.00     0.031 C 
ATOM     48  C   UNL     1      -0.834   0.134   4.632  1.00  0.00     0.029 A 
ATOM     49  N   UNL     1      -0.750  -0.529   2.544  1.00  0.00    -0.354 N 
ATOM     50  C   UNL     1      -3.827  -0.070   7.595  1.00  0.00     0.074 A 
ATOM     51  C   UNL     1      -4.784  -1.088   7.557  1.00  0.00     0.031 C 
ATOM     52  C   UNL     1       0.017   0.955   3.971  1.00  0.00     0.029 A 
ATOM     53  C   UNL     1      -0.261   0.819   2.554  1.00  0.00     0.049 A 
ATOM     54  H   UNL     1      -0.552  -1.201   1.852  1.00  0.00     0.167 HD
ATOM     55  C   UNL     1      -3.337   0.557   8.688  1.00  0.00     0.037 A 
ATOM     56  C   UNL     1      -0.686   1.819   1.673  1.00  0.00     0.037 A 
ATOM     57  C   UNL     1      -2.456   1.592   8.199  1.00  0.00     0.049 A 
ATOM     58  C   UNL     1      -1.357   2.990   2.554  1.00  0.00     0.074 A 
ATOM     59  C   UNL     1      -1.096   1.707   8.018  1.00  0.00     0.029 A 
ATOM     60  N   UNL     1      -3.024   2.474   7.305  1.00  0.00    -0.354 N 
ATOM     61  N   UNL     1      -1.402   3.036   3.869  1.00  0.00    -0.248 NA
ATOM     62  C   UNL     1      -2.134   4.100   1.986  1.00  0.00     0.031 C 
ATOM     63  C   UNL     1      -0.882   2.708   7.011  1.00  0.00     0.029 A 
ATOM     64  C   UNL     1      -2.108   3.205   6.599  1.00  0.00     0.049 A 
ATOM     65  H   UNL     1      -3.997   2.570   7.187  1.00  0.00     0.167 HD
ATOM     66  C   UNL     1      -2.284   4.001   4.313  1.00  0.00     0.074 A 
ATOM     67  C   UNL     1      -2.689   4.662   3.082  1.00  0.00     0.031 C 
ATOM     68  C   UNL     1      -2.651   4.160   5.635  1.00  0.00     0.037 A 
BRANCH  55  69
ATOM     69  C   UNL     1      -3.477   0.072  10.130  1.00  0.00     0.064 A 
ATOM     70  C   UNL     1      -2.717   0.750  11.099  1.00  0.00     0.173 A 
ATOM     71  C   UNL     1      -4.160  -1.072  10.639  1.00  0.00     0.173 A 
ATOM     72  F   UNL     1      -2.058   1.874  10.790  1.00  0.00    -0.203 F 
ATOM     73  C   UNL     1      -2.579   0.294  12.414  1.00  0.00     0.198 A 
ATOM     74  C   UNL     1      -4.038  -1.513  11.965  1.00  0.00     0.198 A 
ATOM     75  F   UNL     1      -4.958  -1.856   9.911  1.00  0.00    -0.203 F 
ATOM     76  F   UNL     1      -1.784   0.963  13.259  1.00  0.00    -0.200 F 
ATOM     77  C   UNL     1      -3.228  -0.842  12.847  1.00  0.00     0.200 A 
ATOM     78  F   UNL     1      -4.694  -2.615  12.363  1.00  0.00    -0.200 F 
ATOM     79  F   UNL     1      -3.075  -1.286  14.100  1.00  0.00    -0.200 F 
ENDBRANCH  55  69
BRANCH  56  80
ATOM     80  C   UNL     1      -1.496   1.188   0.318  1.00  0.00     0.064 A 
ATOM     81  C   UNL     1      -1.363   0.456  -1.548  1.00  0.00     0.173 A 
ATOM     82  C   UNL     1      -2.720   0.541   1.354  1.00  0.00     0.173 A 
ATOM     83  F   UNL     1      -0.446   0.672  -2.559  1.00  0.00    -0.203 F 
ATOM     84  C   UNL     1      -2.438  -0.897  -2.044  1.00  0.00     0.198 A 
ATOM     85  C   UNL     1      -3.542  -0.807   0.844  1.00  0.00     0.198 A 
ATOM     86  F   UNL     1      -3.197   1.236   2.391  1.00  0.00    -0.203 F 
ATOM     87  F   UNL     1      -2.304  -1.498  -3.235  1.00  0.00    -0.200 F 
ATOM     88  C   UNL     1      -3.510  -1.526  -0.818  1.00  0.00     0.200 A 
ATOM     89  F   UNL     1      -4.356  -1.102   1.829  1.00  0.00    -0.200 F 
ATOM     90  F   UNL     1      -4.359  -2.502  -1.165  1.00  0.00    -0.200 F 
ENDBRANCH  56  80
BRANCH  68  91
ATOM     91  C   UNL     1      -3.579   5.252   6.213  1.00  0.00     0.064 A 
ATOM     92  C   UNL     1      -3.508   6.576   5.766  1.00  0.00     0.173 A 
ATOM     93  C   UNL     1      -4.404   5.074   7.370  1.00  0.00     0.173 A 
ATOM     94  F   UNL     1      -2.719   6.911   4.737  1.00  0.00    -0.203 F 
ATOM     95  C   UNL     1      -4.210   7.617   6.397  1.00  0.00     0.198 A 
ATOM     96  C   UNL     1      -5.028   6.123   8.045  1.00  0.00     0.198 A 
ATOM     97  F   UNL     1      -4.690   3.873   7.889  1.00  0.00    -0.203 F 
ATOM     98  F   UNL     1      -4.145   8.855   5.890  1.00  0.00    -0.200 F 
ATOM     99  C   UNL     1      -4.946   7.396   7.547  1.00  0.00     0.200 A 
ATOM    100  F   UNL     1      -5.710   5.877   9.175  1.00  0.00    -0.200 F 
ATOM    101  F   UNL     1      -5.578   8.402   8.166  1.00  0.00    -0.200 F 
ENDBRANCH  68  91
ENDBRANCH  42  43
ENDBRANCH  35  37
ENDBRANCH  34  35
ENDBRANCH  33  34
ENDBRANCH  32  33
ENDBRANCH  31  32
ENDBRANCH   1  31
TORSDOF 19
