REMARK SMILES Cc1nn(CC(=O)OCCOCCOCCOC(=O)c2ccc(-c3c4nc(c(-c5c(F)c(F)c(F)c(F)c5F)c5ccc([nH]5)c(-c5c(F)c(F)c(F)c(F)c5F)c5nc(c(-c6c(F)c(F)c(F)c(F)c6F)c6ccc3[nH]6)C=C5)C=C4)cc2)c(C)c1NC(=O)C(=O)Nc1ccc(F)cc1
REMARK SMILES IDX 12 1 11 2 10 3 9 4 8 5 6 6 7 7 5 8 4 9 1 10 2 11 3 12 85 13
REMARK SMILES IDX 83 14 84 15 86 16 87 17 88 19 89 20 90 21 91 22 92 24 93 25
REMARK SMILES IDX 98 26 94 27 97 28 95 29 96 30 13 31 14 32 15 33 16 34 17 35
REMARK SMILES IDX 18 36 19 37 20 38 21 39 82 40 22 41 81 42 23 43 24 44 25 45
REMARK SMILES IDX 75 46 26 47 80 48 74 49 76 50 27 51 79 52 73 53 72 54 28 56
REMARK SMILES IDX 60 57 40 58 59 59 41 60 44 61 58 62 77 63 42 64 43 65 57 67
REMARK SMILES IDX 78 68 45 69 29 70 30 71 38 72 31 73 32 74 36 75 39 76 33 77
REMARK SMILES IDX 34 78 37 79 35 80 61 81 62 82 70 83 63 84 64 85 68 86 71 87
REMARK SMILES IDX 65 88 66 89 69 90 67 91 46 92 47 93 55 94 48 95 49 96 53 97
REMARK SMILES IDX 56 98 50 99 51 100 54 101 52 102
REMARK H PARENT 86 18 91 23 76 55 44 66
REMARK Flexibility Score: inf
ROOT
ATOM      1  C   UNL     1       3.638  -6.282  -0.869  1.00  0.00     0.188 C 
ENDROOT
BRANCH   1   2
ATOM      2  O   UNL     1       4.130  -7.051  -1.964  1.00  0.00    -0.376 OA
BRANCH   2   3
ATOM      3  C   UNL     1       3.395  -6.957  -3.191  1.00  0.00     0.202 C 
BRANCH   3   4
ATOM      4  C   UNL     1       1.867  -7.163  -3.104  1.00  0.00     0.261 C 
BRANCH   4   5
ATOM      5  O   UNL     1       1.192  -6.182  -2.281  1.00  0.00    -0.462 OA
BRANCH   5   6
ATOM      6  C   UNL     1       0.281  -6.644  -1.386  1.00  0.00     0.327 C 
ATOM      7  O   UNL     1      -0.124  -7.803  -1.363  1.00  0.00    -0.250 OA
BRANCH   6   8
ATOM      8  C   UNL     1      -0.081  -5.661  -0.306  1.00  0.00     0.267 C 
BRANCH   8   9
ATOM      9  N   UNL     1      -0.148  -4.257  -0.687  1.00  0.00    -0.256 N 
ATOM     10  C   UNL     1       0.767  -0.945   0.189  1.00  0.00     0.071 C 
ATOM     11  C   UNL     1       0.141  -2.180  -0.351  1.00  0.00     0.083 A 
ATOM     12  N   UNL     1       0.648  -3.377  -0.043  1.00  0.00    -0.175 NA
ATOM     13  C   UNL     1      -1.060  -2.305  -1.100  1.00  0.00     0.086 A 
ATOM     14  C   UNL     1      -1.136  -3.647  -1.427  1.00  0.00     0.060 A 
ATOM     15  C   UNL     1      -2.014  -4.426  -2.335  1.00  0.00     0.069 C 
BRANCH  13  16
ATOM     16  N   UNL     1      -1.912  -1.259  -1.402  1.00  0.00    -0.315 N 
ATOM     17  C   UNL     1      -3.292  -1.257  -1.417  1.00  0.00     0.314 C 
ATOM     18  H   UNL     1      -1.478  -0.407  -1.637  1.00  0.00     0.170 HD
ATOM     19  O   UNL     1      -3.900  -0.201  -1.568  1.00  0.00    -0.263 OA
BRANCH  17  20
ATOM     20  C   UNL     1      -4.046  -2.539  -1.063  1.00  0.00     0.314 C 
ATOM     21  O   UNL     1      -3.732  -3.159  -0.046  1.00  0.00    -0.263 OA
ATOM     22  N   UNL     1      -5.116  -3.000  -1.799  1.00  0.00    -0.318 N 
ATOM     23  H   UNL     1      -5.336  -3.947  -1.646  1.00  0.00     0.170 HD
BRANCH  22  24
ATOM     24  C   UNL     1      -5.946  -2.357  -2.727  1.00  0.00     0.041 A 
ATOM     25  C   UNL     1      -7.296  -2.739  -2.676  1.00  0.00     0.029 A 
ATOM     26  C   UNL     1      -5.560  -1.340  -3.599  1.00  0.00     0.029 A 
ATOM     27  C   UNL     1      -8.264  -2.019  -3.372  1.00  0.00     0.041 A 
ATOM     28  C   UNL     1      -6.531  -0.626  -4.311  1.00  0.00     0.041 A 
ATOM     29  C   UNL     1      -7.874  -0.951  -4.166  1.00  0.00     0.123 A 
ATOM     30  F   UNL     1      -8.806  -0.222  -4.793  1.00  0.00    -0.207 F 
ENDBRANCH  22  24
ENDBRANCH  17  20
ENDBRANCH  13  16
ENDBRANCH   8   9
ENDBRANCH   6   8
ENDBRANCH   5   6
ENDBRANCH   4   5
ENDBRANCH   3   4
ENDBRANCH   2   3
ENDBRANCH   1   2
BRANCH   1  31
ATOM     31  C   UNL     1       3.550  -4.765  -1.097  1.00  0.00     0.188 C 
BRANCH  31  32
ATOM     32  O   UNL     1       3.155  -4.409  -2.414  1.00  0.00    -0.376 OA
BRANCH  32  33
ATOM     33  C   UNL     1       3.302  -3.056  -2.832  1.00  0.00     0.202 C 
BRANCH  33  34
ATOM     34  C   UNL     1       4.758  -2.631  -3.059  1.00  0.00     0.261 C 
BRANCH  34  35
ATOM     35  O   UNL     1       5.541  -2.654  -1.871  1.00  0.00    -0.460 OA
BRANCH  35  36
ATOM     36  C   UNL     1       5.047  -1.986  -0.805  1.00  0.00     0.338 C 
ATOM     37  O   UNL     1       4.183  -1.133  -0.803  1.00  0.00    -0.246 OA
BRANCH  36  38
ATOM     38  C   UNL     1       5.757  -2.485   0.387  1.00  0.00     0.060 A 
ATOM     39  C   UNL     1       5.537  -1.810   1.585  1.00  0.00     0.016 A 
ATOM     40  C   UNL     1       6.745  -3.484   0.268  1.00  0.00     0.016 A 
ATOM     41  C   UNL     1       6.502  -1.907   2.558  1.00  0.00     0.010 A 
ATOM     42  C   UNL     1       7.704  -3.591   1.241  1.00  0.00     0.010 A 
ATOM     43  C   UNL     1       7.633  -2.688   2.293  1.00  0.00    -0.014 A 
BRANCH  43  44
ATOM     44  C   UNL     1       8.846  -2.318   2.983  1.00  0.00     0.031 A 
ATOM     45  C   UNL     1       9.033  -2.893   4.321  1.00  0.00     0.074 A 
ATOM     46  C   UNL     1       9.736  -1.507   2.380  1.00  0.00     0.049 A 
ATOM     47  N   UNL     1       9.106  -2.265   5.446  1.00  0.00    -0.248 NA
ATOM     48  C   UNL     1       9.065  -4.356   4.427  1.00  0.00     0.031 C 
ATOM     49  C   UNL     1       9.802  -1.123   0.964  1.00  0.00     0.029 A 
ATOM     50  N   UNL     1      10.844  -0.928   2.908  1.00  0.00    -0.354 N 
ATOM     51  C   UNL     1       9.360  -3.243   6.398  1.00  0.00     0.074 A 
ATOM     52  C   UNL     1       9.193  -4.516   5.744  1.00  0.00     0.031 C 
ATOM     53  C   UNL     1      11.005  -0.560   0.714  1.00  0.00     0.029 A 
ATOM     54  C   UNL     1      11.733  -0.439   1.966  1.00  0.00     0.049 A 
ATOM     55  H   UNL     1      11.003  -0.861   3.877  1.00  0.00     0.167 HD
ATOM     56  C   UNL     1       9.911  -2.932   7.599  1.00  0.00     0.037 A 
ATOM     57  C   UNL     1      13.011  -0.061   2.204  1.00  0.00     0.037 A 
ATOM     58  C   UNL     1       9.742  -1.543   7.930  1.00  0.00     0.049 A 
ATOM     59  C   UNL     1      13.145   0.180   3.665  1.00  0.00     0.074 A 
ATOM     60  C   UNL     1       8.643  -0.720   8.094  1.00  0.00     0.029 A 
ATOM     61  N   UNL     1      10.818  -0.697   7.814  1.00  0.00    -0.354 N 
ATOM     62  N   UNL     1      12.601   1.181   4.299  1.00  0.00    -0.248 NA
ATOM     63  C   UNL     1      13.538  -0.946   4.501  1.00  0.00     0.031 C 
ATOM     64  C   UNL     1       9.046   0.551   7.590  1.00  0.00     0.029 A 
ATOM     65  C   UNL     1      10.372   0.431   7.173  1.00  0.00     0.049 A 
ATOM     66  H   UNL     1      11.735  -0.868   8.130  1.00  0.00     0.167 HD
ATOM     67  C   UNL     1      12.213   0.657   5.525  1.00  0.00     0.074 A 
ATOM     68  C   UNL     1      12.902  -0.624   5.630  1.00  0.00     0.031 C 
ATOM     69  C   UNL     1      11.153   1.174   6.214  1.00  0.00     0.037 A 
BRANCH  56  70
ATOM     70  C   UNL     1      10.881  -3.833   8.305  1.00  0.00     0.064 A 
ATOM     71  C   UNL     1      11.206  -3.590   9.650  1.00  0.00     0.173 A 
ATOM     72  C   UNL     1      11.708  -4.758   7.628  1.00  0.00     0.173 A 
ATOM     73  F   UNL     1      10.509  -2.696  10.368  1.00  0.00    -0.203 F 
ATOM     74  C   UNL     1      12.307  -4.196  10.258  1.00  0.00     0.198 A 
ATOM     75  C   UNL     1      12.767  -5.406   8.255  1.00  0.00     0.198 A 
ATOM     76  F   UNL     1      11.591  -4.984   6.312  1.00  0.00    -0.203 F 
ATOM     77  F   UNL     1      12.650  -3.848  11.505  1.00  0.00    -0.200 F 
ATOM     78  C   UNL     1      13.085  -5.104   9.561  1.00  0.00     0.200 A 
ATOM     79  F   UNL     1      13.522  -6.264   7.555  1.00  0.00    -0.200 F 
ATOM     80  F   UNL     1      14.170  -5.646  10.128  1.00  0.00    -0.200 F 
ENDBRANCH  56  70
BRANCH  57  81
ATOM     81  C   UNL     1      14.177  -0.214   1.304  1.00  0.00     0.064 A 
ATOM     82  C   UNL     1      15.369   0.487   1.544  1.00  0.00     0.173 A 
ATOM     83  C   UNL     1      14.238  -1.240   0.339  1.00  0.00     0.173 A 
ATOM     84  F   UNL     1      15.410   1.445   2.481  1.00  0.00    -0.203 F 
ATOM     85  C   UNL     1      16.553   0.168   0.872  1.00  0.00     0.198 A 
ATOM     86  C   UNL     1      15.415  -1.547  -0.342  1.00  0.00     0.198 A 
ATOM     87  F   UNL     1      13.182  -2.031   0.102  1.00  0.00    -0.203 F 
ATOM     88  F   UNL     1      17.687   0.817   1.173  1.00  0.00    -0.200 F 
ATOM     89  C   UNL     1      16.577  -0.852  -0.066  1.00  0.00     0.200 A 
ATOM     90  F   UNL     1      15.430  -2.558  -1.221  1.00  0.00    -0.200 F 
ATOM     91  F   UNL     1      17.723  -1.192  -0.671  1.00  0.00    -0.200 F 
ENDBRANCH  57  81
BRANCH  69  92
ATOM     92  C   UNL     1      10.590   2.485   5.747  1.00  0.00     0.064 A 
ATOM     93  C   UNL     1       9.989   2.666   4.490  1.00  0.00     0.173 A 
ATOM     94  C   UNL     1      10.527   3.551   6.654  1.00  0.00     0.173 A 
ATOM     95  F   UNL     1       9.911   1.657   3.613  1.00  0.00    -0.203 F 
ATOM     96  C   UNL     1       9.399   3.879   4.140  1.00  0.00     0.198 A 
ATOM     97  C   UNL     1       9.906   4.750   6.314  1.00  0.00     0.198 A 
ATOM     98  F   UNL     1      11.029   3.413   7.891  1.00  0.00    -0.203 F 
ATOM     99  F   UNL     1       8.844   4.032   2.929  1.00  0.00    -0.200 F 
ATOM    100  C   UNL     1       9.353   4.918   5.055  1.00  0.00     0.200 A 
ATOM    101  F   UNL     1       9.817   5.735   7.220  1.00  0.00    -0.200 F 
ATOM    102  F   UNL     1       8.751   6.072   4.733  1.00  0.00    -0.200 F 
ENDBRANCH  69  92
ENDBRANCH  43  44
ENDBRANCH  36  38
ENDBRANCH  35  36
ENDBRANCH  34  35
ENDBRANCH  33  34
ENDBRANCH  32  33
ENDBRANCH  31  32
ENDBRANCH   1  31
TORSDOF 21
