REMARK SMILES Cn1ncc(C(=O)OCCOCCOCCOC(=O)c2ccc(-c3c4nc(c(-c5c(F)c(F)c(F)c(F)c5F)c5ccc([nH]5)c(-c5c(F)c(F)c(F)c(F)c5F)c5nc(c(-c6c(F)c(F)c(F)c(F)c6F)c6ccc3[nH]6)C=C5)C=C4)cc2)c1C(=O)Nc1nccc(-c2ccc(OC(F)F)cc2)n1
REMARK SMILES IDX 11 1 10 2 9 3 8 4 6 5 7 6 5 7 1 8 2 9 3 10 83 11 4 12 84 13
REMARK SMILES IDX 85 14 86 15 87 17 88 18 102 19 89 20 91 21 90 22 92 23 93 24
REMARK SMILES IDX 101 25 94 26 100 27 95 28 96 29 97 30 98 31 99 32 12 33
REMARK SMILES IDX 13 34 14 35 15 36 16 37 17 38 18 39 19 40 20 41 21 42 82 43
REMARK SMILES IDX 22 44 81 45 23 46 24 47 25 48 75 49 26 50 80 51 74 52 76 53
REMARK SMILES IDX 27 54 79 55 73 56 72 57 28 59 60 60 40 61 59 62 41 63 44 64
REMARK SMILES IDX 58 65 77 66 42 67 43 68 57 70 78 71 45 72 29 73 30 74 38 75
REMARK SMILES IDX 31 76 32 77 36 78 39 79 33 80 34 81 37 82 35 83 61 84 62 85
REMARK SMILES IDX 70 86 63 87 64 88 68 89 71 90 65 91 66 92 69 93 67 94 46 95
REMARK SMILES IDX 47 96 55 97 48 98 49 99 53 100 56 101 50 102 51 103 54 104
REMARK SMILES IDX 52 105
REMARK H PARENT 86 16 76 58 44 69
REMARK Flexibility Score: inf
ROOT
ATOM      1  O   UNL     1       5.149  -2.457  -1.345  1.00  0.00    -0.376 OA
ENDROOT
BRANCH   1   2
ATOM      2  C   UNL     1       4.875  -3.619  -0.570  1.00  0.00     0.202 C 
BRANCH   2   3
ATOM      3  C   UNL     1       4.084  -3.488   0.729  1.00  0.00     0.261 C 
BRANCH   3   4
ATOM      4  O   UNL     1       2.834  -2.826   0.517  1.00  0.00    -0.460 OA
BRANCH   4   5
ATOM      5  C   UNL     1       2.509  -1.922   1.483  1.00  0.00     0.342 C 
ATOM      6  O   UNL     1       3.098  -1.787   2.539  1.00  0.00    -0.246 OA
BRANCH   5   7
ATOM      7  C   UNL     1       1.520  -0.959   1.040  1.00  0.00     0.111 A 
ATOM      8  C   UNL     1      -1.502   0.704   1.388  1.00  0.00     0.174 C 
ATOM      9  N   UNL     1      -0.303   0.173   0.782  1.00  0.00    -0.262 N 
ATOM     10  N   UNL     1       0.675   1.084   0.564  1.00  0.00    -0.180 NA
ATOM     11  C   UNL     1       0.154  -1.132   0.774  1.00  0.00     0.140 A 
ATOM     12  C   UNL     1       1.780   0.409   0.856  1.00  0.00     0.151 A 
BRANCH  11  13
ATOM     13  C   UNL     1      -0.540  -2.407   0.764  1.00  0.00     0.277 C 
ATOM     14  O   UNL     1       0.071  -3.440   1.062  1.00  0.00    -0.267 OA
ATOM     15  N   UNL     1      -1.870  -2.603   0.549  1.00  0.00    -0.289 N 
ATOM     16  H   UNL     1      -2.147  -3.515   0.795  1.00  0.00     0.173 HD
BRANCH  15  17
ATOM     17  C   UNL     1      -2.926  -1.860   0.077  1.00  0.00     0.230 A 
ATOM     18  N   UNL     1      -4.103  -2.281   0.567  1.00  0.00    -0.221 NA
ATOM     19  N   UNL     1      -2.778  -0.794  -0.710  1.00  0.00    -0.213 NA
ATOM     20  C   UNL     1      -5.177  -1.511   0.331  1.00  0.00     0.117 A 
ATOM     21  C   UNL     1      -3.898  -0.073  -0.978  1.00  0.00     0.076 A 
ATOM     22  C   UNL     1      -5.130  -0.378  -0.435  1.00  0.00     0.049 A 
BRANCH  21  23
ATOM     23  C   UNL     1      -3.714   1.117  -1.814  1.00  0.00     0.001 A 
ATOM     24  C   UNL     1      -3.433   1.006  -3.181  1.00  0.00     0.014 A 
ATOM     25  C   UNL     1      -3.808   2.405  -1.262  1.00  0.00     0.014 A 
ATOM     26  C   UNL     1      -3.238   2.149  -3.965  1.00  0.00     0.047 A 
ATOM     27  C   UNL     1      -3.591   3.547  -2.042  1.00  0.00     0.047 A 
ATOM     28  C   UNL     1      -3.296   3.425  -3.397  1.00  0.00     0.126 A 
BRANCH  28  29
ATOM     29  O   UNL     1      -3.050   4.450  -4.265  1.00  0.00    -0.435 OA
BRANCH  29  30
ATOM     30  C   UNL     1      -2.943   5.767  -3.737  1.00  0.00     0.542 C 
ATOM     31  F   UNL     1      -4.125   6.139  -3.186  1.00  0.00    -0.167 F 
ATOM     32  F   UNL     1      -1.993   5.808  -2.772  1.00  0.00    -0.167 F 
ENDBRANCH  29  30
ENDBRANCH  28  29
ENDBRANCH  21  23
ENDBRANCH  15  17
ENDBRANCH  11  13
ENDBRANCH   5   7
ENDBRANCH   4   5
ENDBRANCH   3   4
ENDBRANCH   2   3
ENDBRANCH   1   2
BRANCH   1  33
ATOM     33  C   UNL     1       4.117  -1.527  -1.632  1.00  0.00     0.188 C 
BRANCH  33  34
ATOM     34  C   UNL     1       2.810  -1.964  -2.332  1.00  0.00     0.188 C 
BRANCH  34  35
ATOM     35  O   UNL     1       2.651  -3.275  -2.840  1.00  0.00    -0.376 OA
BRANCH  35  36
ATOM     36  C   UNL     1       3.626  -3.818  -3.715  1.00  0.00     0.202 C 
BRANCH  36  37
ATOM     37  C   UNL     1       4.008  -3.066  -4.987  1.00  0.00     0.261 C 
BRANCH  37  38
ATOM     38  O   UNL     1       4.453  -1.725  -4.741  1.00  0.00    -0.460 OA
BRANCH  38  39
ATOM     39  C   UNL     1       3.724  -0.766  -5.356  1.00  0.00     0.338 C 
ATOM     40  O   UNL     1       2.780  -0.913  -6.114  1.00  0.00    -0.246 OA
BRANCH  39  41
ATOM     41  C   UNL     1       4.146   0.557  -4.872  1.00  0.00     0.060 A 
ATOM     42  C   UNL     1       3.187   1.372  -4.257  1.00  0.00     0.016 A 
ATOM     43  C   UNL     1       5.442   1.022  -5.098  1.00  0.00     0.016 A 
ATOM     44  C   UNL     1       3.512   2.679  -3.903  1.00  0.00     0.010 A 
ATOM     45  C   UNL     1       5.761   2.339  -4.759  1.00  0.00     0.010 A 
ATOM     46  C   UNL     1       4.787   3.182  -4.193  1.00  0.00    -0.014 A 
BRANCH  46  47
ATOM     47  C   UNL     1       5.054   4.631  -4.056  1.00  0.00     0.031 A 
ATOM     48  C   UNL     1       4.895   5.512  -5.263  1.00  0.00     0.074 A 
ATOM     49  C   UNL     1       5.427   5.157  -2.878  1.00  0.00     0.049 A 
ATOM     50  N   UNL     1       5.118   6.795  -5.393  1.00  0.00    -0.248 NA
ATOM     51  C   UNL     1       4.421   4.856  -6.493  1.00  0.00     0.031 C 
ATOM     52  C   UNL     1       5.579   4.411  -1.631  1.00  0.00     0.029 A 
ATOM     53  N   UNL     1       5.756   6.447  -2.545  1.00  0.00    -0.354 N 
ATOM     54  C   UNL     1       4.812   7.099  -6.712  1.00  0.00     0.074 A 
ATOM     55  C   UNL     1       4.414   5.864  -7.353  1.00  0.00     0.031 C 
ATOM     56  C   UNL     1       5.990   5.255  -0.668  1.00  0.00     0.029 A 
ATOM     57  C   UNL     1       6.154   6.591  -1.240  1.00  0.00     0.049 A 
ATOM     58  H   UNL     1       5.712   7.196  -3.182  1.00  0.00     0.167 HD
ATOM     59  C   UNL     1       4.852   8.302  -7.331  1.00  0.00     0.037 A 
ATOM     60  C   UNL     1       6.619   7.676  -0.592  1.00  0.00     0.037 A 
ATOM     61  C   UNL     1       5.255   9.528  -6.697  1.00  0.00     0.049 A 
ATOM     62  C   UNL     1       6.729   8.988  -1.326  1.00  0.00     0.074 A 
ATOM     63  C   UNL     1       5.311  10.802  -7.235  1.00  0.00     0.029 A 
ATOM     64  N   UNL     1       5.683   9.630  -5.381  1.00  0.00    -0.354 N 
ATOM     65  N   UNL     1       6.407   9.276  -2.563  1.00  0.00    -0.248 NA
ATOM     66  C   UNL     1       7.269  10.127  -0.569  1.00  0.00     0.031 C 
ATOM     67  C   UNL     1       5.816  11.667  -6.259  1.00  0.00     0.029 A 
ATOM     68  C   UNL     1       6.031  10.941  -5.098  1.00  0.00     0.049 A 
ATOM     69  H   UNL     1       5.733   8.882  -4.744  1.00  0.00     0.167 HD
ATOM     70  C   UNL     1       6.679  10.628  -2.725  1.00  0.00     0.074 A 
ATOM     71  C   UNL     1       7.183  11.108  -1.456  1.00  0.00     0.031 C 
ATOM     72  C   UNL     1       6.525  11.403  -3.827  1.00  0.00     0.037 A 
BRANCH  59  73
ATOM     73  C   UNL     1       4.468   8.345  -8.779  1.00  0.00     0.064 A 
ATOM     74  C   UNL     1       3.133   8.218  -9.187  1.00  0.00     0.173 A 
ATOM     75  C   UNL     1       5.443   8.547  -9.766  1.00  0.00     0.173 A 
ATOM     76  F   UNL     1       2.166   8.009  -8.281  1.00  0.00    -0.203 F 
ATOM     77  C   UNL     1       2.790   8.271 -10.536  1.00  0.00     0.198 A 
ATOM     78  C   UNL     1       5.094   8.624 -11.112  1.00  0.00     0.198 A 
ATOM     79  F   UNL     1       6.734   8.676  -9.426  1.00  0.00    -0.203 F 
ATOM     80  F   UNL     1       1.512   8.109 -10.907  1.00  0.00    -0.200 F 
ATOM     81  C   UNL     1       3.769   8.480 -11.495  1.00  0.00     0.200 A 
ATOM     82  F   UNL     1       6.040   8.835 -12.037  1.00  0.00    -0.200 F 
ATOM     83  F   UNL     1       3.436   8.538 -12.792  1.00  0.00    -0.200 F 
ENDBRANCH  59  73
BRANCH  60  84
ATOM     84  C   UNL     1       7.033   7.570   0.830  1.00  0.00     0.064 A 
ATOM     85  C   UNL     1       6.298   8.196   1.846  1.00  0.00     0.173 A 
ATOM     86  C   UNL     1       8.189   6.866   1.198  1.00  0.00     0.173 A 
ATOM     87  F   UNL     1       5.204   8.907   1.538  1.00  0.00    -0.203 F 
ATOM     88  C   UNL     1       6.714   8.138   3.174  1.00  0.00     0.198 A 
ATOM     89  C   UNL     1       8.589   6.786   2.530  1.00  0.00     0.198 A 
ATOM     90  F   UNL     1       8.931   6.255   0.263  1.00  0.00    -0.203 F 
ATOM     91  F   UNL     1       6.021   8.787   4.120  1.00  0.00    -0.200 F 
ATOM     92  C   UNL     1       7.856   7.429   3.516  1.00  0.00     0.200 A 
ATOM     93  F   UNL     1       9.691   6.097   2.857  1.00  0.00    -0.200 F 
ATOM     94  F   UNL     1       8.257   7.377   4.793  1.00  0.00    -0.200 F 
ENDBRANCH  60  84
BRANCH  72  95
ATOM     95  C   UNL     1       6.876  12.857  -3.703  1.00  0.00     0.064 A 
ATOM     96  C   UNL     1       8.209  13.287  -3.635  1.00  0.00     0.173 A 
ATOM     97  C   UNL     1       5.869  13.833  -3.700  1.00  0.00     0.173 A 
ATOM     98  F   UNL     1       9.208  12.391  -3.620  1.00  0.00    -0.203 F 
ATOM     99  C   UNL     1       8.520  14.641  -3.549  1.00  0.00     0.198 A 
ATOM    100  C   UNL     1       6.184  15.188  -3.641  1.00  0.00     0.198 A 
ATOM    101  F   UNL     1       4.578  13.474  -3.771  1.00  0.00    -0.203 F 
ATOM    102  F   UNL     1       9.799  15.028  -3.445  1.00  0.00    -0.200 F 
ATOM    103  C   UNL     1       7.508  15.590  -3.559  1.00  0.00     0.200 A 
ATOM    104  F   UNL     1       5.206  16.104  -3.664  1.00  0.00    -0.200 F 
ATOM    105  F   UNL     1       7.810  16.894  -3.485  1.00  0.00    -0.200 F 
ENDBRANCH  72  95
ENDBRANCH  46  47
ENDBRANCH  39  41
ENDBRANCH  38  39
ENDBRANCH  37  38
ENDBRANCH  36  37
ENDBRANCH  35  36
ENDBRANCH  34  35
ENDBRANCH  33  34
ENDBRANCH   1  33
TORSDOF 22
