REMARK SMILES CC[C@@](C)(NC(=O)c1cccc2ccccc12)C(=O)OCCOCCOCCOC(=O)c1ccc(-c2c3nc(c(-c4c(F)c(F)c(F)c(F)c4F)c4ccc([nH]4)c(-c4c(F)c(F)c(F)c(F)c4F)c4nc(c(-c5c(F)c(F)c(F)c(F)c5F)c5ccc2[nH]5)C=C4)C=C3)cc1
REMARK SMILES IDX 24 1 23 2 22 3 21 4 20 5 18 6 19 7 3 8 4 9 2 10 1 11 5 12
REMARK SMILES IDX 6 13 7 15 8 16 9 17 17 18 10 19 12 20 16 21 11 22 13 23
REMARK SMILES IDX 15 24 14 25 25 26 26 27 27 28 28 29 29 30 30 31 31 32 32 33
REMARK SMILES IDX 33 34 94 35 34 36 93 37 35 38 36 39 37 40 87 41 38 42 92 43
REMARK SMILES IDX 86 44 88 45 39 46 91 47 85 48 84 49 40 51 72 52 52 53 71 54
REMARK SMILES IDX 53 55 56 56 70 57 89 58 54 59 55 60 69 62 90 63 57 64 41 65
REMARK SMILES IDX 42 66 50 67 43 68 44 69 48 70 51 71 45 72 46 73 49 74 47 75
REMARK SMILES IDX 73 76 74 77 82 78 75 79 76 80 80 81 83 82 77 83 78 84 81 85
REMARK SMILES IDX 79 86 58 87 59 88 67 89 60 90 61 91 65 92 68 93 62 94 63 95
REMARK SMILES IDX 66 96 64 97
REMARK H PARENT 5 14 88 50 56 61
REMARK Flexibility Score: inf
ROOT
ATOM      1  C   UNL     1       1.944   1.728   2.748  1.00  0.00     0.188 C 
ENDROOT
BRANCH   1   2
ATOM      2  O   UNL     1       3.304   1.269   2.817  1.00  0.00    -0.376 OA
BRANCH   2   3
ATOM      3  C   UNL     1       3.826   0.443   1.741  1.00  0.00     0.202 C 
BRANCH   3   4
ATOM      4  C   UNL     1       4.276   1.089   0.396  1.00  0.00     0.261 C 
BRANCH   4   5
ATOM      5  O   UNL     1       3.386   2.112  -0.037  1.00  0.00    -0.462 OA
BRANCH   5   6
ATOM      6  C   UNL     1       2.316   1.798  -0.788  1.00  0.00     0.331 C 
ATOM      7  O   UNL     1       2.279   0.860  -1.570  1.00  0.00    -0.249 OA
BRANCH   6   8
ATOM      8  C   UNL     1       1.108   2.663  -0.331  1.00  0.00     0.135 C 
ATOM      9  C   UNL     1       0.437   3.213  -1.612  1.00  0.00     0.047 C 
BRANCH   8  10
ATOM     10  C   UNL     1      -0.032   1.780   0.342  1.00  0.00     0.037 C 
ATOM     11  C   UNL     1       0.011   0.275   0.051  1.00  0.00     0.007 C 
ENDBRANCH   8  10
BRANCH   8  12
ATOM     12  N   UNL     1       1.523   3.917   0.487  1.00  0.00    -0.336 N 
ATOM     13  C   UNL     1       2.476   4.440   1.383  1.00  0.00     0.252 C 
ATOM     14  H   UNL     1       0.860   4.623   0.310  1.00  0.00     0.165 HD
ATOM     15  O   UNL     1       2.315   5.662   1.561  1.00  0.00    -0.269 OA
BRANCH  13  16
ATOM     16  C   UNL     1       3.815   3.861   1.969  1.00  0.00     0.047 A 
ATOM     17  C   UNL     1       4.811   4.249   1.020  1.00  0.00     0.014 A 
ATOM     18  C   UNL     1       4.180   3.429   3.448  1.00  0.00    -0.006 A 
ATOM     19  C   UNL     1       6.190   4.212   1.236  1.00  0.00     0.001 A 
ATOM     20  C   UNL     1       5.934   3.738   3.594  1.00  0.00    -0.018 A 
ATOM     21  C   UNL     1       3.328   3.006   5.103  1.00  0.00     0.009 A 
ATOM     22  C   UNL     1       6.736   3.954   2.483  1.00  0.00     0.009 A 
ATOM     23  C   UNL     1       6.689   3.889   5.196  1.00  0.00     0.009 A 
ATOM     24  C   UNL     1       4.144   3.190   6.701  1.00  0.00     0.001 A 
ATOM     25  C   UNL     1       5.835   3.639   6.707  1.00  0.00     0.001 A 
ENDBRANCH  13  16
ENDBRANCH   8  12
ENDBRANCH   6   8
ENDBRANCH   5   6
ENDBRANCH   4   5
ENDBRANCH   3   4
ENDBRANCH   2   3
ENDBRANCH   1   2
BRANCH   1  26
ATOM     26  C   UNL     1       1.248   3.044   3.566  1.00  0.00     0.188 C 
BRANCH  26  27
ATOM     27  O   UNL     1       1.788   4.416   3.725  1.00  0.00    -0.376 OA
BRANCH  27  28
ATOM     28  C   UNL     1       2.763   5.132   4.620  1.00  0.00     0.202 C 
BRANCH  28  29
ATOM     29  C   UNL     1       4.488   4.649   5.114  1.00  0.00     0.261 C 
BRANCH  29  30
ATOM     30  O   UNL     1       5.127   2.719   5.047  1.00  0.00    -0.460 OA
BRANCH  30  31
ATOM     31  C   UNL     1       5.282   1.327   5.495  1.00  0.00     0.338 C 
ATOM     32  O   UNL     1       6.410   1.001   5.904  1.00  0.00    -0.246 OA
BRANCH  31  33
ATOM     33  C   UNL     1       4.253   0.133   5.573  1.00  0.00     0.060 A 
ATOM     34  C   UNL     1       2.860   0.116   5.415  1.00  0.00     0.016 A 
ATOM     35  C   UNL     1       4.780  -1.142   5.885  1.00  0.00     0.016 A 
ATOM     36  C   UNL     1       2.049  -1.049   5.486  1.00  0.00     0.010 A 
ATOM     37  C   UNL     1       3.982  -2.316   6.002  1.00  0.00     0.010 A 
ATOM     38  C   UNL     1       2.599  -2.284   5.801  1.00  0.00    -0.014 A 
BRANCH  38  39
ATOM     39  C   UNL     1       1.753  -3.504   5.988  1.00  0.00     0.031 A 
ATOM     40  C   UNL     1       1.156  -3.819   7.337  1.00  0.00     0.074 A 
ATOM     41  C   UNL     1       1.516  -4.360   4.974  1.00  0.00     0.049 A 
ATOM     42  N   UNL     1       0.546  -4.905   7.750  1.00  0.00    -0.248 NA
ATOM     43  C   UNL     1       1.247  -2.761   8.351  1.00  0.00     0.031 C 
ATOM     44  C   UNL     1       1.920  -4.156   3.586  1.00  0.00     0.029 A 
ATOM     45  N   UNL     1       0.893  -5.591   4.965  1.00  0.00    -0.354 N 
ATOM     46  C   UNL     1       0.201  -4.672   9.076  1.00  0.00     0.074 A 
ATOM     47  C   UNL     1       0.659  -3.333   9.393  1.00  0.00     0.031 C 
ATOM     48  C   UNL     1       1.576  -5.240   2.868  1.00  0.00     0.029 A 
ATOM     49  C   UNL     1       0.970  -6.237   3.753  1.00  0.00     0.049 A 
ATOM     50  H   UNL     1       0.438  -5.970   5.750  1.00  0.00     0.167 HD
ATOM     51  C   UNL     1      -0.424  -5.497   9.955  1.00  0.00     0.037 A 
ATOM     52  C   UNL     1       0.639  -7.498   3.402  1.00  0.00     0.037 A 
ATOM     53  C   UNL     1      -0.866  -6.839   9.661  1.00  0.00     0.049 A 
ATOM     54  C   UNL     1       0.061  -8.445   4.424  1.00  0.00     0.074 A 
ATOM     55  C   UNL     1      -1.494  -7.746  10.499  1.00  0.00     0.029 A 
ATOM     56  N   UNL     1      -0.714  -7.473   8.437  1.00  0.00    -0.354 N 
ATOM     57  N   UNL     1      -0.231  -8.229   5.682  1.00  0.00    -0.248 NA
ATOM     58  C   UNL     1      -0.224  -9.818   3.975  1.00  0.00     0.031 C 
ATOM     59  C   UNL     1      -1.676  -8.945   9.799  1.00  0.00     0.029 A 
ATOM     60  C   UNL     1      -1.211  -8.768   8.507  1.00  0.00     0.049 A 
ATOM     61  H   UNL     1      -0.313  -7.066   7.636  1.00  0.00     0.167 HD
ATOM     62  C   UNL     1      -0.757  -9.421   6.166  1.00  0.00     0.074 A 
ATOM     63  C   UNL     1      -0.751 -10.360   5.065  1.00  0.00     0.031 C 
ATOM     64  C   UNL     1      -1.210  -9.705   7.413  1.00  0.00     0.037 A 
BRANCH  51  65
ATOM     65  C   UNL     1      -0.620  -4.992  11.357  1.00  0.00     0.064 A 
ATOM     66  C   UNL     1      -1.574  -4.010  11.664  1.00  0.00     0.173 A 
ATOM     67  C   UNL     1       0.132  -5.528  12.414  1.00  0.00     0.173 A 
ATOM     68  F   UNL     1      -2.315  -3.460  10.691  1.00  0.00    -0.203 F 
ATOM     69  C   UNL     1      -1.746  -3.564  12.973  1.00  0.00     0.198 A 
ATOM     70  C   UNL     1      -0.061  -5.099  13.724  1.00  0.00     0.198 A 
ATOM     71  F   UNL     1       1.048  -6.479  12.177  1.00  0.00    -0.203 F 
ATOM     72  F   UNL     1      -2.631  -2.593  13.238  1.00  0.00    -0.200 F 
ATOM     73  C   UNL     1      -0.993  -4.111  14.002  1.00  0.00     0.200 A 
ATOM     74  F   UNL     1       0.657  -5.640  14.718  1.00  0.00    -0.200 F 
ATOM     75  F   UNL     1      -1.161  -3.681  15.260  1.00  0.00    -0.200 F 
ENDBRANCH  51  65
BRANCH  52  76
ATOM     76  C   UNL     1       0.889  -7.962   2.011  1.00  0.00     0.064 A 
ATOM     77  C   UNL     1      -0.171  -8.229   1.134  1.00  0.00     0.173 A 
ATOM     78  C   UNL     1       2.194  -8.151   1.531  1.00  0.00     0.173 A 
ATOM     79  F   UNL     1      -1.438  -8.105   1.558  1.00  0.00    -0.203 F 
ATOM     80  C   UNL     1       0.064  -8.662  -0.170  1.00  0.00     0.198 A 
ATOM     81  C   UNL     1       2.429  -8.556   0.219  1.00  0.00     0.198 A 
ATOM     82  F   UNL     1       3.244  -7.927   2.336  1.00  0.00    -0.203 F 
ATOM     83  F   UNL     1      -0.968  -8.941  -0.978  1.00  0.00    -0.200 F 
ATOM     84  C   UNL     1       1.364  -8.813  -0.630  1.00  0.00     0.200 A 
ATOM     85  F   UNL     1       3.687  -8.695  -0.222  1.00  0.00    -0.200 F 
ATOM     86  F   UNL     1       1.590  -9.214  -1.889  1.00  0.00    -0.200 F 
ENDBRANCH  52  76
BRANCH  64  87
ATOM     87  C   UNL     1      -1.780 -11.075   7.651  1.00  0.00     0.064 A 
ATOM     88  C   UNL     1      -0.965 -12.214   7.726  1.00  0.00     0.173 A 
ATOM     89  C   UNL     1      -3.162 -11.247   7.833  1.00  0.00     0.173 A 
ATOM     90  F   UNL     1       0.359 -12.109   7.544  1.00  0.00    -0.203 F 
ATOM     91  C   UNL     1      -1.514 -13.476   7.949  1.00  0.00     0.198 A 
ATOM     92  C   UNL     1      -3.704 -12.506   8.081  1.00  0.00     0.198 A 
ATOM     93  F   UNL     1      -3.987 -10.191   7.776  1.00  0.00    -0.203 F 
ATOM     94  F   UNL     1      -0.721 -14.556   7.971  1.00  0.00    -0.200 F 
ATOM     95  C   UNL     1      -2.882 -13.620   8.131  1.00  0.00     0.200 A 
ATOM     96  F   UNL     1      -5.025 -12.641   8.266  1.00  0.00    -0.200 F 
ATOM     97  F   UNL     1      -3.407 -14.834   8.346  1.00  0.00    -0.200 F 
ENDBRANCH  64  87
ENDBRANCH  38  39
ENDBRANCH  31  33
ENDBRANCH  30  31
ENDBRANCH  29  30
ENDBRANCH  28  29
ENDBRANCH  27  28
ENDBRANCH  26  27
ENDBRANCH   1  26
TORSDOF 20
