REMARK SMILES CC(C)c1nc(N2C[C@H](C)OC(C)(C)C2)sc1C(=O)OCCOCCOCCOC(=O)c1ccc(-c2c3nc(c(-c4c(F)c(F)c(F)c(F)c4F)c4ccc([nH]4)c(-c4c(F)c(F)c(F)c(F)c4F)c4nc(c(-c5c(F)c(F)c(F)c(F)c5F)c5ccc2[nH]5)C=C4)C=C3)cc1
REMARK SMILES IDX 25 1 24 2 23 3 22 4 21 5 20 6 18 7 19 8 17 9 4 10 5 11 6 12
REMARK SMILES IDX 16 13 2 14 1 15 3 16 7 17 8 18 15 19 9 20 12 21 11 22 10 23
REMARK SMILES IDX 13 24 14 25 26 26 27 27 28 28 29 29 30 30 31 31 32 32 33 33
REMARK SMILES IDX 94 34 34 35 93 36 35 37 36 38 37 39 87 40 38 41 92 42 86 43
REMARK SMILES IDX 88 44 39 45 91 46 85 47 84 48 40 50 72 51 52 52 71 53 53 54
REMARK SMILES IDX 56 55 70 56 89 57 54 58 55 59 69 61 90 62 57 63 41 64 42 65
REMARK SMILES IDX 50 66 43 67 44 68 48 69 51 70 45 71 46 72 49 73 47 74 73 75
REMARK SMILES IDX 74 76 82 77 75 78 76 79 80 80 83 81 77 82 78 83 81 84 79 85
REMARK SMILES IDX 58 86 59 87 67 88 60 89 61 90 65 91 68 92 62 93 63 94 66 95
REMARK SMILES IDX 64 96
REMARK H PARENT 88 49 56 60
REMARK Flexibility Score: inf
ROOT
ATOM      1  C   UNL     1      -0.707   3.167  -3.375  1.00  0.00     0.188 C 
ENDROOT
BRANCH   1   2
ATOM      2  C   UNL     1      -1.639   4.161  -2.658  1.00  0.00     0.188 C 
BRANCH   2   3
ATOM      3  O   UNL     1      -1.101   5.302  -1.998  1.00  0.00    -0.376 OA
BRANCH   3   4
ATOM      4  C   UNL     1       0.137   5.204  -1.307  1.00  0.00     0.202 C 
BRANCH   4   5
ATOM      5  C   UNL     1       0.150   4.335  -0.049  1.00  0.00     0.261 C 
BRANCH   5   6
ATOM      6  O   UNL     1      -0.174   2.963  -0.330  1.00  0.00    -0.459 OA
BRANCH   6   7
ATOM      7  C   UNL     1      -1.294   2.479   0.278  1.00  0.00     0.350 C 
ATOM      8  O   UNL     1      -1.943   3.096   1.115  1.00  0.00    -0.245 OA
BRANCH   7   9
ATOM      9  C   UNL     1      -1.663   1.198  -0.281  1.00  0.00     0.137 A 
ATOM     10  C   UNL     1      -0.930   0.160  -0.841  1.00  0.00     0.071 A 
ATOM     11  N   UNL     1      -1.703  -0.938  -1.210  1.00  0.00    -0.224 NA
ATOM     12  C   UNL     1      -2.980  -0.712  -1.025  1.00  0.00     0.186 A 
ATOM     13  S   UNL     1      -3.341   0.818  -0.346  1.00  0.00    -0.089 S 
BRANCH  10  14
ATOM     14  C   UNL     1       0.565   0.063  -1.051  1.00  0.00     0.034 C 
ATOM     15  C   UNL     1       1.289  -0.260   0.256  1.00  0.00     0.014 C 
ATOM     16  C   UNL     1       0.942  -0.969  -2.124  1.00  0.00     0.014 C 
ENDBRANCH  10  14
BRANCH  12  17
ATOM     17  N   UNL     1      -3.939  -1.620  -1.283  1.00  0.00    -0.343 N 
ATOM     18  C   UNL     1      -4.929  -1.447  -2.333  1.00  0.00     0.150 C 
ATOM     19  C   UNL     1      -4.098  -2.782  -0.421  1.00  0.00     0.153 C 
ATOM     20  C   UNL     1      -5.020  -2.754  -3.151  1.00  0.00     0.135 C 
ATOM     21  C   UNL     1      -4.271  -4.069  -1.266  1.00  0.00     0.081 C 
ATOM     22  O   UNL     1      -5.265  -3.893  -2.303  1.00  0.00    -0.369 OA
ATOM     23  C   UNL     1      -6.158  -2.689  -4.162  1.00  0.00     0.040 C 
ATOM     24  C   UNL     1      -2.932  -4.527  -1.863  1.00  0.00     0.044 C 
ATOM     25  C   UNL     1      -4.811  -5.184  -0.360  1.00  0.00     0.044 C 
ENDBRANCH  12  17
ENDBRANCH   7   9
ENDBRANCH   6   7
ENDBRANCH   5   6
ENDBRANCH   4   5
ENDBRANCH   3   4
ENDBRANCH   2   3
ENDBRANCH   1   2
BRANCH   1  26
ATOM     26  O   UNL     1       0.542   3.719  -3.763  1.00  0.00    -0.376 OA
BRANCH  26  27
ATOM     27  C   UNL     1       0.785   3.777  -5.161  1.00  0.00     0.202 C 
BRANCH  27  28
ATOM     28  C   UNL     1       0.115   4.983  -5.824  1.00  0.00     0.261 C 
BRANCH  28  29
ATOM     29  O   UNL     1      -1.320   4.985  -5.741  1.00  0.00    -0.460 OA
BRANCH  29  30
ATOM     30  C   UNL     1      -1.970   4.005  -6.406  1.00  0.00     0.338 C 
ATOM     31  O   UNL     1      -1.481   3.117  -7.079  1.00  0.00    -0.246 OA
BRANCH  30  32
ATOM     32  C   UNL     1      -3.400   4.089  -6.050  1.00  0.00     0.060 A 
ATOM     33  C   UNL     1      -4.040   2.953  -5.540  1.00  0.00     0.016 A 
ATOM     34  C   UNL     1      -4.104   5.284  -6.221  1.00  0.00     0.016 A 
ATOM     35  C   UNL     1      -5.399   3.005  -5.224  1.00  0.00     0.010 A 
ATOM     36  C   UNL     1      -5.466   5.330  -5.918  1.00  0.00     0.010 A 
ATOM     37  C   UNL     1      -6.126   4.185  -5.443  1.00  0.00    -0.014 A 
BRANCH  37  38
ATOM     38  C   UNL     1      -7.605   4.185  -5.331  1.00  0.00     0.031 A 
ATOM     39  C   UNL     1      -8.421   3.952  -6.572  1.00  0.00     0.074 A 
ATOM     40  C   UNL     1      -8.217   4.401  -4.154  1.00  0.00     0.049 A 
ATOM     41  N   UNL     1      -9.720   3.951  -6.726  1.00  0.00    -0.248 NA
ATOM     42  C   UNL     1      -7.666   3.685  -7.807  1.00  0.00     0.031 C 
ATOM     43  C   UNL     1      -7.543   4.619  -2.876  1.00  0.00     0.029 A 
ATOM     44  N   UNL     1      -9.554   4.485  -3.850  1.00  0.00    -0.354 N 
ATOM     45  C   UNL     1      -9.938   3.684  -8.071  1.00  0.00     0.074 A 
ATOM     46  C   UNL     1      -8.640   3.555  -8.696  1.00  0.00     0.031 C 
ATOM     47  C   UNL     1      -8.472   4.827  -1.925  1.00  0.00     0.029 A 
ATOM     48  C   UNL     1      -9.802   4.781  -2.533  1.00  0.00     0.049 A 
ATOM     49  H   UNL     1     -10.267   4.346  -4.515  1.00  0.00     0.167 HD
ATOM     50  C   UNL     1     -11.116   3.552  -8.726  1.00  0.00     0.037 A 
ATOM     51  C   UNL     1     -10.969   5.007  -1.898  1.00  0.00     0.037 A 
ATOM     52  C   UNL     1     -12.409   3.689  -8.113  1.00  0.00     0.049 A 
ATOM     53  C   UNL     1     -12.264   4.924  -2.666  1.00  0.00     0.074 A 
ATOM     54  C   UNL     1     -13.658   3.548  -8.692  1.00  0.00     0.029 A 
ATOM     55  N   UNL     1     -12.619   4.013  -6.781  1.00  0.00    -0.354 N 
ATOM     56  N   UNL     1     -12.464   4.627  -3.927  1.00  0.00    -0.248 NA
ATOM     57  C   UNL     1     -13.498   5.209  -1.918  1.00  0.00     0.031 C 
ATOM     58  C   UNL     1     -14.625   3.829  -7.720  1.00  0.00     0.029 A 
ATOM     59  C   UNL     1     -13.977   4.101  -6.526  1.00  0.00     0.049 A 
ATOM     60  H   UNL     1     -11.908   4.159  -6.116  1.00  0.00     0.167 HD
ATOM     61  C   UNL     1     -13.840   4.659  -4.115  1.00  0.00     0.074 A 
ATOM     62  C   UNL     1     -14.430   4.998  -2.838  1.00  0.00     0.031 C 
ATOM     63  C   UNL     1     -14.551   4.427  -5.246  1.00  0.00     0.037 A 
BRANCH  50  64
ATOM     64  C   UNL     1     -11.056   3.259 -10.194  1.00  0.00     0.064 A 
ATOM     65  C   UNL     1     -10.689   1.994 -10.675  1.00  0.00     0.173 A 
ATOM     66  C   UNL     1     -11.400   4.246 -11.130  1.00  0.00     0.173 A 
ATOM     67  F   UNL     1     -10.336   1.023  -9.819  1.00  0.00    -0.203 F 
ATOM     68  C   UNL     1     -10.649   1.733 -12.042  1.00  0.00     0.198 A 
ATOM     69  C   UNL     1     -11.381   3.975 -12.495  1.00  0.00     0.198 A 
ATOM     70  F   UNL     1     -11.758   5.472 -10.719  1.00  0.00    -0.203 F 
ATOM     71  F   UNL     1     -10.257   0.529 -12.481  1.00  0.00    -0.200 F 
ATOM     72  C   UNL     1     -11.000   2.721 -12.950  1.00  0.00     0.200 A 
ATOM     73  F   UNL     1     -11.728   4.928 -13.371  1.00  0.00    -0.200 F 
ATOM     74  F   UNL     1     -10.965   2.467 -14.265  1.00  0.00    -0.200 F 
ENDBRANCH  50  64
BRANCH  51  75
ATOM     75  C   UNL     1     -10.977   5.345  -0.451  1.00  0.00     0.064 A 
ATOM     76  C   UNL     1     -11.482   4.445   0.497  1.00  0.00     0.173 A 
ATOM     77  C   UNL     1     -10.516   6.587   0.008  1.00  0.00     0.173 A 
ATOM     78  F   UNL     1     -11.965   3.258   0.101  1.00  0.00    -0.203 F 
ATOM     79  C   UNL     1     -11.542   4.781   1.848  1.00  0.00     0.198 A 
ATOM     80  C   UNL     1     -10.553   6.913   1.362  1.00  0.00     0.198 A 
ATOM     81  F   UNL     1     -10.033   7.487  -0.862  1.00  0.00    -0.203 F 
ATOM     82  F   UNL     1     -12.076   3.922   2.726  1.00  0.00    -0.200 F 
ATOM     83  C   UNL     1     -11.073   6.013   2.280  1.00  0.00     0.200 A 
ATOM     84  F   UNL     1     -10.097   8.103   1.776  1.00  0.00    -0.200 F 
ATOM     85  F   UNL     1     -11.136   6.338   3.578  1.00  0.00    -0.200 F 
ENDBRANCH  51  75
BRANCH  63  86
ATOM     86  C   UNL     1     -16.047   4.490  -5.149  1.00  0.00     0.064 A 
ATOM     87  C   UNL     1     -16.726   5.712  -5.034  1.00  0.00     0.173 A 
ATOM     88  C   UNL     1     -16.813   3.317  -5.225  1.00  0.00     0.173 A 
ATOM     89  F   UNL     1     -16.038   6.860  -4.944  1.00  0.00    -0.203 F 
ATOM     90  C   UNL     1     -18.117   5.755  -4.979  1.00  0.00     0.198 A 
ATOM     91  C   UNL     1     -18.204   3.365  -5.195  1.00  0.00     0.198 A 
ATOM     92  F   UNL     1     -16.212   2.123  -5.343  1.00  0.00    -0.203 F 
ATOM     93  F   UNL     1     -18.744   6.930  -4.830  1.00  0.00    -0.200 F 
ATOM     94  C   UNL     1     -18.855   4.583  -5.066  1.00  0.00     0.200 A 
ATOM     95  F   UNL     1     -18.915   2.233  -5.292  1.00  0.00    -0.200 F 
ATOM     96  F   UNL     1     -20.193   4.627  -5.021  1.00  0.00    -0.200 F 
ENDBRANCH  63  86
ENDBRANCH  37  38
ENDBRANCH  30  32
ENDBRANCH  29  30
ENDBRANCH  28  29
ENDBRANCH  27  28
ENDBRANCH  26  27
ENDBRANCH   1  26
TORSDOF 19
