REMARK SMILES O=C(N[C@]1(C(=O)OCCOCCOCCOC(=O)c2ccc(-c3c4nc(c(-c5c(F)c(F)c(F)c(F)c5F)c5ccc([nH]5)c(-c5c(F)c(F)c(F)c(F)c5F)c5nc(c(-c6c(F)c(F)c(F)c(F)c6F)c6ccc3[nH]6)C=C5)C=C4)cc2)CC[C@H](c2ccccc2)CC1)OCC1c2ccccc2-c2ccccc21
REMARK SMILES IDX 11 1 10 2 9 3 8 4 7 5 5 6 6 7 4 8 82 9 92 10 83 11 91 12
REMARK SMILES IDX 84 13 3 14 1 15 2 16 93 18 94 19 95 20 96 21 107 22 97 23
REMARK SMILES IDX 101 24 102 25 106 26 98 27 100 28 103 29 105 30 99 31 104 32
REMARK SMILES IDX 85 33 86 34 90 35 87 36 89 37 88 38 12 39 13 40 14 41 15 42
REMARK SMILES IDX 16 43 17 44 18 45 19 46 20 47 81 48 21 49 80 50 22 51 23 52
REMARK SMILES IDX 24 53 74 54 25 55 79 56 73 57 75 58 26 59 78 60 72 61 71 62
REMARK SMILES IDX 27 64 59 65 39 66 58 67 40 68 43 69 57 70 76 71 41 72 42 73
REMARK SMILES IDX 56 75 77 76 44 77 28 78 29 79 37 80 30 81 31 82 35 83 38 84
REMARK SMILES IDX 32 85 33 86 36 87 34 88 60 89 61 90 69 91 62 92 63 93 67 94
REMARK SMILES IDX 70 95 64 96 65 97 68 98 66 99 45 100 46 101 54 102 47 103
REMARK SMILES IDX 48 104 52 105 55 106 49 107 50 108 53 109 51 110
REMARK H PARENT 3 17 75 63 43 74
REMARK Flexibility Score: inf
ROOT
ATOM      1  C   UNL     1       4.276   0.733   4.285  1.00  0.00     0.188 C 
ENDROOT
BRANCH   1   2
ATOM      2  O   UNL     1       5.194   0.138   5.200  1.00  0.00    -0.376 OA
BRANCH   2   3
ATOM      3  C   UNL     1       6.493  -0.135   4.675  1.00  0.00     0.202 C 
BRANCH   3   4
ATOM      4  C   UNL     1       6.576  -1.463   3.910  1.00  0.00     0.261 C 
BRANCH   4   5
ATOM      5  O   UNL     1       6.286  -1.342   2.496  1.00  0.00    -0.461 OA
BRANCH   5   6
ATOM      6  C   UNL     1       5.058  -1.757   2.095  1.00  0.00     0.332 C 
ATOM      7  O   UNL     1       4.183  -2.140   2.870  1.00  0.00    -0.249 OA
BRANCH   6   8
ATOM      8  C   UNL     1       4.866  -1.805   0.554  1.00  0.00     0.141 C 
ATOM      9  C   UNL     1       4.833  -3.315   0.209  1.00  0.00     0.041 C 
ATOM     10  C   UNL     1       5.868  -1.112  -0.389  1.00  0.00     0.041 C 
ATOM     11  C   UNL     1       6.240  -3.913  -0.003  1.00  0.00     0.011 C 
ATOM     12  C   UNL     1       7.208  -1.763  -0.654  1.00  0.00     0.011 C 
ATOM     13  C   UNL     1       7.043  -3.209  -1.120  1.00  0.00     0.019 C 
BRANCH   8  14
ATOM     14  N   UNL     1       3.526  -1.185   0.320  1.00  0.00    -0.305 N 
ATOM     15  O   UNL     1       2.174   0.554  -0.247  1.00  0.00    -0.225 OA
ATOM     16  C   UNL     1       3.253   0.153   0.141  1.00  0.00     0.408 C 
ATOM     17  H   UNL     1       2.757  -1.798   0.290  1.00  0.00     0.168 HD
BRANCH  16  18
ATOM     18  O   UNL     1       4.313   0.959   0.420  1.00  0.00    -0.449 OA
BRANCH  18  19
ATOM     19  C   UNL     1       4.640   1.993  -0.549  1.00  0.00     0.248 C 
BRANCH  19  20
ATOM     20  C   UNL     1       5.711   2.941   0.038  1.00  0.00     0.088 C 
ATOM     21  C   UNL     1       7.117   2.386   0.305  1.00  0.00    -0.029 A 
ATOM     22  C   UNL     1       6.051   4.154  -0.830  1.00  0.00    -0.029 A 
ATOM     23  C   UNL     1       7.508   1.396   1.187  1.00  0.00     0.005 A 
ATOM     24  C   UNL     1       8.098   3.159  -0.339  1.00  0.00    -0.014 A 
ATOM     25  C   UNL     1       7.451   4.288  -0.963  1.00  0.00    -0.014 A 
ATOM     26  C   UNL     1       5.203   5.161  -1.260  1.00  0.00     0.005 A 
ATOM     27  C   UNL     1       8.862   1.077   1.316  1.00  0.00     0.000 A 
ATOM     28  C   UNL     1       9.448   2.857  -0.218  1.00  0.00     0.009 A 
ATOM     29  C   UNL     1       8.014   5.456  -1.451  1.00  0.00     0.009 A 
ATOM     30  C   UNL     1       5.770   6.353  -1.715  1.00  0.00     0.000 A 
ATOM     31  C   UNL     1       9.828   1.792   0.601  1.00  0.00     0.001 A 
ATOM     32  C   UNL     1       7.162   6.506  -1.797  1.00  0.00     0.001 A 
ENDBRANCH  19  20
ENDBRANCH  18  19
ENDBRANCH  16  18
ENDBRANCH   8  14
BRANCH  13  33
ATOM     33  C   UNL     1       6.480  -3.346  -2.538  1.00  0.00    -0.045 A 
ATOM     34  C   UNL     1       5.527  -4.324  -2.865  1.00  0.00     0.004 A 
ATOM     35  C   UNL     1       6.939  -2.524  -3.585  1.00  0.00     0.004 A 
ATOM     36  C   UNL     1       4.997  -4.428  -4.153  1.00  0.00     0.000 A 
ATOM     37  C   UNL     1       6.418  -2.635  -4.879  1.00  0.00     0.000 A 
ATOM     38  C   UNL     1       5.437  -3.579  -5.160  1.00  0.00     0.000 A 
ENDBRANCH  13  33
ENDBRANCH   6   8
ENDBRANCH   5   6
ENDBRANCH   4   5
ENDBRANCH   3   4
ENDBRANCH   2   3
ENDBRANCH   1   2
BRANCH   1  39
ATOM     39  C   UNL     1       4.423   2.247   4.204  1.00  0.00     0.188 C 
BRANCH  39  40
ATOM     40  O   UNL     1       5.595   2.602   3.465  1.00  0.00    -0.376 OA
BRANCH  40  41
ATOM     41  C   UNL     1       6.226   3.797   3.932  1.00  0.00     0.202 C 
BRANCH  41  42
ATOM     42  C   UNL     1       5.567   5.088   3.436  1.00  0.00     0.261 C 
BRANCH  42  43
ATOM     43  O   UNL     1       4.135   5.008   3.536  1.00  0.00    -0.460 OA
BRANCH  43  44
ATOM     44  C   UNL     1       3.499   5.147   2.352  1.00  0.00     0.338 C 
ATOM     45  O   UNL     1       3.959   5.555   1.302  1.00  0.00    -0.246 OA
BRANCH  44  46
ATOM     46  C   UNL     1       2.132   4.632   2.407  1.00  0.00     0.060 A 
ATOM     47  C   UNL     1       1.815   3.527   1.608  1.00  0.00     0.016 A 
ATOM     48  C   UNL     1       1.145   5.342   3.081  1.00  0.00     0.016 A 
ATOM     49  C   UNL     1       0.490   3.155   1.426  1.00  0.00     0.010 A 
ATOM     50  C   UNL     1      -0.184   4.966   2.904  1.00  0.00     0.010 A 
ATOM     51  C   UNL     1      -0.515   3.896   2.051  1.00  0.00    -0.014 A 
BRANCH  51  52
ATOM     52  C   UNL     1      -1.935   3.625   1.761  1.00  0.00     0.031 A 
ATOM     53  C   UNL     1      -2.690   4.590   0.902  1.00  0.00     0.074 A 
ATOM     54  C   UNL     1      -2.529   2.554   2.311  1.00  0.00     0.049 A 
ATOM     55  N   UNL     1      -3.979   4.742   0.755  1.00  0.00    -0.248 NA
ATOM     56  C   UNL     1      -1.876   5.526   0.108  1.00  0.00     0.031 C 
ATOM     57  C   UNL     1      -1.844   1.517   3.081  1.00  0.00     0.029 A 
ATOM     58  N   UNL     1      -3.846   2.182   2.334  1.00  0.00    -0.354 N 
ATOM     59  C   UNL     1      -4.133   5.816  -0.112  1.00  0.00     0.074 A 
ATOM     60  C   UNL     1      -2.808   6.276  -0.464  1.00  0.00     0.031 C 
ATOM     61  C   UNL     1      -2.753   0.642   3.537  1.00  0.00     0.029 A 
ATOM     62  C   UNL     1      -4.081   1.102   3.149  1.00  0.00     0.049 A 
ATOM     63  H   UNL     1      -4.550   2.640   1.821  1.00  0.00     0.167 HD
ATOM     64  C   UNL     1      -5.290   6.365  -0.551  1.00  0.00     0.037 A 
ATOM     65  C   UNL     1      -5.248   0.592   3.583  1.00  0.00     0.037 A 
ATOM     66  C   UNL     1      -6.589   5.865  -0.177  1.00  0.00     0.049 A 
ATOM     67  C   UNL     1      -6.521   1.251   3.130  1.00  0.00     0.074 A 
ATOM     68  C   UNL     1      -7.839   6.337  -0.528  1.00  0.00     0.029 A 
ATOM     69  N   UNL     1      -6.792   4.757   0.639  1.00  0.00    -0.354 N 
ATOM     70  N   UNL     1      -6.677   2.308   2.367  1.00  0.00    -0.248 NA
ATOM     71  C   UNL     1      -7.776   0.656   3.600  1.00  0.00     0.031 C 
ATOM     72  C   UNL     1      -8.798   5.538   0.106  1.00  0.00     0.029 A 
ATOM     73  C   UNL     1      -8.147   4.536   0.811  1.00  0.00     0.049 A 
ATOM     74  H   UNL     1      -6.077   4.210   1.036  1.00  0.00     0.167 HD
ATOM     75  C   UNL     1      -8.045   2.497   2.249  1.00  0.00     0.074 A 
ATOM     76  C   UNL     1      -8.674   1.433   3.010  1.00  0.00     0.031 C 
ATOM     77  C   UNL     1      -8.726   3.460   1.578  1.00  0.00     0.037 A 
BRANCH  64  78
ATOM     78  C   UNL     1      -5.198   7.585  -1.423  1.00  0.00     0.064 A 
ATOM     79  C   UNL     1      -4.722   7.525  -2.742  1.00  0.00     0.173 A 
ATOM     80  C   UNL     1      -5.594   8.839  -0.931  1.00  0.00     0.173 A 
ATOM     81  F   UNL     1      -4.313   6.357  -3.259  1.00  0.00    -0.203 F 
ATOM     82  C   UNL     1      -4.619   8.676  -3.522  1.00  0.00     0.198 A 
ATOM     83  C   UNL     1      -5.516   9.982  -1.723  1.00  0.00     0.198 A 
ATOM     84  F   UNL     1      -6.057   8.958   0.323  1.00  0.00    -0.203 F 
ATOM     85  F   UNL     1      -4.111   8.601  -4.761  1.00  0.00    -0.200 F 
ATOM     86  C   UNL     1      -5.021   9.902  -3.014  1.00  0.00     0.200 A 
ATOM     87  F   UNL     1      -5.914  11.165  -1.232  1.00  0.00    -0.200 F 
ATOM     88  F   UNL     1      -4.920  11.007  -3.766  1.00  0.00    -0.200 F 
ENDBRANCH  64  78
BRANCH  65  89
ATOM     89  C   UNL     1      -5.243  -0.558   4.523  1.00  0.00     0.064 A 
ATOM     90  C   UNL     1      -5.687  -1.824   4.118  1.00  0.00     0.173 A 
ATOM     91  C   UNL     1      -4.753  -0.428   5.832  1.00  0.00     0.173 A 
ATOM     92  F   UNL     1      -6.184  -1.995   2.884  1.00  0.00    -0.203 F 
ATOM     93  C   UNL     1      -5.645  -2.913   4.987  1.00  0.00     0.198 A 
ATOM     94  C   UNL     1      -4.684  -1.524   6.690  1.00  0.00     0.198 A 
ATOM     95  F   UNL     1      -4.314   0.761   6.271  1.00  0.00    -0.203 F 
ATOM     96  F   UNL     1      -6.104  -4.106   4.584  1.00  0.00    -0.200 F 
ATOM     97  C   UNL     1      -5.134  -2.765   6.268  1.00  0.00     0.200 A 
ATOM     98  F   UNL     1      -4.174  -1.379   7.920  1.00  0.00    -0.200 F 
ATOM     99  F   UNL     1      -5.079  -3.817   7.096  1.00  0.00    -0.200 F 
ENDBRANCH  65  89
BRANCH  77 100
ATOM    100  C   UNL     1     -10.221   3.372   1.616  1.00  0.00     0.064 A 
ATOM    101  C   UNL     1     -10.948   3.711   2.765  1.00  0.00     0.173 A 
ATOM    102  C   UNL     1     -10.932   2.970   0.475  1.00  0.00     0.173 A 
ATOM    103  F   UNL     1     -10.307   4.083   3.884  1.00  0.00    -0.203 F 
ATOM    104  C   UNL     1     -12.336   3.624   2.780  1.00  0.00     0.198 A 
ATOM    105  C   UNL     1     -12.322   2.913   0.485  1.00  0.00     0.198 A 
ATOM    106  F   UNL     1     -10.279   2.642  -0.649  1.00  0.00    -0.203 F 
ATOM    107  F   UNL     1     -13.011   3.905   3.904  1.00  0.00    -0.200 F 
ATOM    108  C   UNL     1     -13.022   3.232   1.639  1.00  0.00     0.200 A 
ATOM    109  F   UNL     1     -12.983   2.545  -0.620  1.00  0.00    -0.200 F 
ATOM    110  F   UNL     1     -14.359   3.153   1.655  1.00  0.00    -0.200 F 
ENDBRANCH  77 100
ENDBRANCH  51  52
ENDBRANCH  44  46
ENDBRANCH  43  44
ENDBRANCH  42  43
ENDBRANCH  41  42
ENDBRANCH  40  41
ENDBRANCH  39  40
ENDBRANCH   1  39
TORSDOF 22
