REMARK SMILES O=C(OCCOCCOCCOC(=O)c1ccc(-c2c3nc(c(-c4c(F)c(F)c(F)c(F)c4F)c4ccc([nH]4)c(-c4c(F)c(F)c(F)c(F)c4F)c4nc(c(-c5c(F)c(F)c(F)c(F)c5F)c5ccc2[nH]5)C=C4)C=C3)cc1)C1=Cc2c(cc(Cl)c(Cl)c2Cl)O[C@H]1C(F)(F)F
REMARK SMILES IDX 8 1 7 2 6 3 5 4 4 5 3 6 2 7 1 8 78 9 79 10 90 11 80 12 89 13
REMARK SMILES IDX 81 14 87 15 82 16 85 17 88 18 83 19 86 20 84 21 91 22 92 23
REMARK SMILES IDX 93 24 94 25 9 26 10 27 11 28 12 29 13 30 14 31 15 32 16 33
REMARK SMILES IDX 77 34 17 35 76 36 18 37 19 38 20 39 70 40 21 41 75 42 69 43
REMARK SMILES IDX 71 44 22 45 74 46 68 47 67 48 23 50 55 51 35 52 54 53 36 54
REMARK SMILES IDX 39 55 53 56 72 57 37 58 38 59 52 61 73 62 40 63 24 64 25 65
REMARK SMILES IDX 33 66 26 67 27 68 31 69 34 70 28 71 29 72 32 73 30 74 56 75
REMARK SMILES IDX 57 76 65 77 58 78 59 79 63 80 66 81 60 82 61 83 64 84 62 85
REMARK SMILES IDX 41 86 42 87 50 88 43 89 44 90 48 91 51 92 45 93 46 94 49 95
REMARK SMILES IDX 47 96
REMARK H PARENT 71 49 39 60
REMARK Flexibility Score: inf
ROOT
ATOM      1  C   UNL     1       0.906  -0.902  -4.053  1.00  0.00     0.188 C 
ENDROOT
BRANCH   1   2
ATOM      2  C   UNL     1       0.834  -0.571  -2.556  1.00  0.00     0.188 C 
BRANCH   2   3
ATOM      3  O   UNL     1       2.120  -0.422  -1.971  1.00  0.00    -0.376 OA
BRANCH   3   4
ATOM      4  C   UNL     1       2.481  -1.578  -1.221  1.00  0.00     0.202 C 
BRANCH   4   5
ATOM      5  C   UNL     1       2.251  -1.395   0.276  1.00  0.00     0.261 C 
BRANCH   5   6
ATOM      6  O   UNL     1       1.928  -0.029   0.627  1.00  0.00    -0.460 OA
BRANCH   6   7
ATOM      7  C   UNL     1       2.728   0.996   0.993  1.00  0.00     0.338 C 
ATOM      8  O   UNL     1       2.217   2.015   1.446  1.00  0.00    -0.246 OA
BRANCH   7   9
ATOM      9  C   UNL     1       4.200   0.864   1.027  1.00  0.00     0.087 C 
ATOM     10  C   UNL     1       4.911   0.059   0.234  1.00  0.00     0.029 C 
ATOM     11  C   UNL     1       4.939   1.881   1.880  1.00  0.00     0.316 C 
ATOM     12  C   UNL     1       6.238  -0.359   0.659  1.00  0.00     0.038 A 
ATOM     13  O   UNL     1       6.349   1.574   2.123  1.00  0.00    -0.475 OA
ATOM     14  C   UNL     1       6.891   0.440   1.592  1.00  0.00     0.131 A 
ATOM     15  C   UNL     1       6.815  -1.594   0.272  1.00  0.00     0.072 A 
ATOM     16  C   UNL     1       8.147   0.069   2.070  1.00  0.00     0.069 A 
ATOM     17  C   UNL     1       8.057  -1.993   0.791  1.00  0.00     0.079 A 
ATOM     18  Cl  UNL     1       5.943  -2.685  -0.769  1.00  0.00    -0.082 Cl
ATOM     19  C   UNL     1       8.727  -1.141   1.676  1.00  0.00     0.064 A 
ATOM     20  Cl  UNL     1       8.735  -3.541   0.378  1.00  0.00    -0.081 Cl
ATOM     21  Cl  UNL     1      10.263  -1.545   2.358  1.00  0.00    -0.083 Cl
BRANCH  11  22
ATOM     22  C   UNL     1       4.854   3.284   1.208  1.00  0.00     0.430 C 
ATOM     23  F   UNL     1       4.809   3.193  -0.146  1.00  0.00    -0.167 F 
ATOM     24  F   UNL     1       3.777   3.996   1.604  1.00  0.00    -0.167 F 
ATOM     25  F   UNL     1       5.938   4.044   1.504  1.00  0.00    -0.167 F 
ENDBRANCH  11  22
ENDBRANCH   7   9
ENDBRANCH   6   7
ENDBRANCH   5   6
ENDBRANCH   4   5
ENDBRANCH   3   4
ENDBRANCH   2   3
ENDBRANCH   1   2
BRANCH   1  26
ATOM     26  O   UNL     1       1.738  -1.983  -4.457  1.00  0.00    -0.376 OA
BRANCH  26  27
ATOM     27  C   UNL     1       3.159  -1.841  -4.427  1.00  0.00     0.202 C 
BRANCH  27  28
ATOM     28  C   UNL     1       3.848  -0.618  -5.043  1.00  0.00     0.261 C 
BRANCH  28  29
ATOM     29  O   UNL     1       3.461   0.632  -4.455  1.00  0.00    -0.460 OA
BRANCH  29  30
ATOM     30  C   UNL     1       2.954   1.525  -5.331  1.00  0.00     0.338 C 
ATOM     31  O   UNL     1       2.758   1.373  -6.531  1.00  0.00    -0.246 OA
BRANCH  30  32
ATOM     32  C   UNL     1       2.616   2.779  -4.658  1.00  0.00     0.060 A 
ATOM     33  C   UNL     1       1.374   2.920  -4.031  1.00  0.00     0.016 A 
ATOM     34  C   UNL     1       3.449   3.880  -4.862  1.00  0.00     0.016 A 
ATOM     35  C   UNL     1       0.935   4.183  -3.649  1.00  0.00     0.010 A 
ATOM     36  C   UNL     1       3.011   5.144  -4.477  1.00  0.00     0.010 A 
ATOM     37  C   UNL     1       1.733   5.301  -3.916  1.00  0.00    -0.014 A 
BRANCH  37  38
ATOM     38  C   UNL     1       1.155   6.654  -3.795  1.00  0.00     0.031 A 
ATOM     39  C   UNL     1       0.606   7.311  -5.028  1.00  0.00     0.074 A 
ATOM     40  C   UNL     1       1.120   7.270  -2.603  1.00  0.00     0.049 A 
ATOM     41  N   UNL     1       0.126   8.517  -5.185  1.00  0.00    -0.248 NA
ATOM     42  C   UNL     1       0.598   6.496  -6.255  1.00  0.00     0.031 C 
ATOM     43  C   UNL     1       1.578   6.691  -1.343  1.00  0.00     0.029 A 
ATOM     44  N   UNL     1       0.690   8.526  -2.268  1.00  0.00    -0.354 N 
ATOM     45  C   UNL     1      -0.232   8.608  -6.523  1.00  0.00     0.074 A 
ATOM     46  C   UNL     1       0.104   7.346  -7.143  1.00  0.00     0.031 C 
ATOM     47  C   UNL     1       1.424   7.602  -0.367  1.00  0.00     0.029 A 
ATOM     48  C   UNL     1       0.892   8.834  -0.946  1.00  0.00     0.049 A 
ATOM     49  H   UNL     1       0.277   9.147  -2.911  1.00  0.00     0.167 HD
ATOM     50  C   UNL     1      -0.795   9.654  -7.171  1.00  0.00     0.037 A 
ATOM     51  C   UNL     1       0.695   9.995  -0.295  1.00  0.00     0.037 A 
ATOM     52  C   UNL     1      -1.113  10.908  -6.540  1.00  0.00     0.049 A 
ATOM     53  C   UNL     1       0.141  11.171  -1.057  1.00  0.00     0.074 A 
ATOM     54  C   UNL     1      -1.684  12.037  -7.097  1.00  0.00     0.029 A 
ATOM     55  N   UNL     1      -0.873  11.195  -5.203  1.00  0.00    -0.354 N 
ATOM     56  N   UNL     1      -0.209  11.252  -2.319  1.00  0.00    -0.248 NA
ATOM     57  C   UNL     1      -0.048  12.417  -0.303  1.00  0.00     0.031 C 
ATOM     58  C   UNL     1      -1.743  13.026  -6.109  1.00  0.00     0.029 A 
ATOM     59  C   UNL     1      -1.263  12.494  -4.922  1.00  0.00     0.049 A 
ATOM     60  H   UNL     1      -0.484  10.569  -4.551  1.00  0.00     0.167 HD
ATOM     61  C   UNL     1      -0.688  12.542  -2.503  1.00  0.00     0.074 A 
ATOM     62  C   UNL     1      -0.592  13.206  -1.219  1.00  0.00     0.031 C 
ATOM     63  C   UNL     1      -1.167  13.126  -3.630  1.00  0.00     0.037 A 
BRANCH  50  64
ATOM     64  C   UNL     1      -1.064   9.498  -8.639  1.00  0.00     0.064 A 
ATOM     65  C   UNL     1      -2.078   8.655  -9.120  1.00  0.00     0.173 A 
ATOM     66  C   UNL     1      -0.310  10.217  -9.579  1.00  0.00     0.173 A 
ATOM     67  F   UNL     1      -2.818   7.933  -8.265  1.00  0.00    -0.203 F 
ATOM     68  C   UNL     1      -2.309   8.520 -10.487  1.00  0.00     0.198 A 
ATOM     69  C   UNL     1      -0.563  10.101 -10.943  1.00  0.00     0.198 A 
ATOM     70  F   UNL     1       0.671  11.037  -9.174  1.00  0.00    -0.203 F 
ATOM     71  F   UNL     1      -3.252   7.673 -10.925  1.00  0.00    -0.200 F 
ATOM     72  C   UNL     1      -1.557   9.247 -11.396  1.00  0.00     0.200 A 
ATOM     73  F   UNL     1       0.159  10.813 -11.820  1.00  0.00    -0.200 F 
ATOM     74  F   UNL     1      -1.784   9.120 -12.711  1.00  0.00    -0.200 F 
ENDBRANCH  50  64
BRANCH  51  75
ATOM     75  C   UNL     1       1.037  10.102   1.146  1.00  0.00     0.064 A 
ATOM     76  C   UNL     1       0.039  10.267   2.116  1.00  0.00     0.173 A 
ATOM     77  C   UNL     1       2.369  10.050   1.583  1.00  0.00     0.173 A 
ATOM     78  F   UNL     1      -1.248  10.348   1.745  1.00  0.00    -0.203 F 
ATOM     79  C   UNL     1       0.361  10.393   3.466  1.00  0.00     0.198 A 
ATOM     80  C   UNL     1       2.688  10.147   2.936  1.00  0.00     0.198 A 
ATOM     81  F   UNL     1       3.363   9.898   0.696  1.00  0.00    -0.203 F 
ATOM     82  F   UNL     1      -0.609  10.598   4.367  1.00  0.00    -0.200 F 
ATOM     83  C   UNL     1       1.684  10.326   3.875  1.00  0.00     0.200 A 
ATOM     84  F   UNL     1       3.967  10.073   3.328  1.00  0.00    -0.200 F 
ATOM     85  F   UNL     1       1.993  10.448   5.174  1.00  0.00    -0.200 F 
ENDBRANCH  51  75
BRANCH  63  86
ATOM     86  C   UNL     1      -1.664  14.537  -3.514  1.00  0.00     0.064 A 
ATOM     87  C   UNL     1      -0.786  15.618  -3.350  1.00  0.00     0.173 A 
ATOM     88  C   UNL     1      -3.037  14.812  -3.618  1.00  0.00     0.173 A 
ATOM     89  F   UNL     1       0.533  15.405  -3.232  1.00  0.00    -0.203 F 
ATOM     90  C   UNL     1      -1.267  16.922  -3.271  1.00  0.00     0.198 A 
ATOM     91  C   UNL     1      -3.510  16.119  -3.570  1.00  0.00     0.198 A 
ATOM     92  F   UNL     1      -3.916  13.813  -3.785  1.00  0.00    -0.203 F 
ATOM     93  F   UNL     1      -0.415  17.936  -3.068  1.00  0.00    -0.200 F 
ATOM     94  C   UNL     1      -2.627  17.172  -3.389  1.00  0.00     0.200 A 
ATOM     95  F   UNL     1      -4.822  16.360  -3.701  1.00  0.00    -0.200 F 
ATOM     96  F   UNL     1      -3.086  18.429  -3.322  1.00  0.00    -0.200 F 
ENDBRANCH  63  86
ENDBRANCH  37  38
ENDBRANCH  30  32
ENDBRANCH  29  30
ENDBRANCH  28  29
ENDBRANCH  27  28
ENDBRANCH  26  27
ENDBRANCH   1  26
TORSDOF 18
