REMARK SMILES CC[C@@](C)([NH2+]CCC(=O)NC(C)C)C(=O)OCCOCCOCCOC(=O)c1ccc(-c2c3nc(c(-c4c(F)c(F)c(F)c(F)c4F)c4ccc([nH]4)c(-c4c(F)c(F)c(F)c(F)c4F)c4nc(c(-c5c(F)c(F)c(F)c(F)c5F)c5ccc2[nH]5)C=C4)C=C3)cc1
REMARK SMILES IDX 19 1 18 2 17 3 16 4 14 5 15 6 3 7 4 8 2 9 1 10 5 11 6 14
REMARK SMILES IDX 7 15 8 16 9 17 10 18 11 20 12 21 13 22 20 23 21 24 22 25
REMARK SMILES IDX 23 26 24 27 25 28 26 29 27 30 28 31 29 32 90 33 30 34 89 35
REMARK SMILES IDX 31 36 32 37 33 38 83 39 34 40 88 41 82 42 84 43 35 44 87 45
REMARK SMILES IDX 81 46 80 47 36 49 68 50 48 51 67 52 49 53 52 54 66 55 85 56
REMARK SMILES IDX 50 57 51 58 65 60 86 61 53 62 37 63 38 64 46 65 39 66 40 67
REMARK SMILES IDX 44 68 47 69 41 70 42 71 45 72 43 73 69 74 70 75 78 76 71 77
REMARK SMILES IDX 72 78 76 79 79 80 73 81 74 82 77 83 75 84 54 85 55 86 63 87
REMARK SMILES IDX 56 88 57 89 61 90 64 91 58 92 59 93 62 94 60 95
REMARK H PARENT 5 12 5 13 10 19 84 48 52 59
REMARK Flexibility Score: inf
ROOT
ATOM      1  O   UNL     1       5.473   3.297  -0.425  1.00  0.00    -0.376 OA
ENDROOT
BRANCH   1   2
ATOM      2  C   UNL     1       5.972   2.480  -1.475  1.00  0.00     0.202 C 
BRANCH   2   3
ATOM      3  C   UNL     1       5.115   1.881  -2.612  1.00  0.00     0.261 C 
BRANCH   3   4
ATOM      4  O   UNL     1       3.694   1.958  -2.480  1.00  0.00    -0.459 OA
BRANCH   4   5
ATOM      5  C   UNL     1       3.040   0.813  -2.155  1.00  0.00     0.367 C 
ATOM      6  O   UNL     1       3.609  -0.257  -1.952  1.00  0.00    -0.245 OA
BRANCH   5   7
ATOM      7  C   UNL     1       1.498   0.986  -2.030  1.00  0.00     0.191 C 
ATOM      8  C   UNL     1       0.884  -0.059  -2.967  1.00  0.00     0.092 C 
BRANCH   7   9
ATOM      9  C   UNL     1       1.090   0.758  -0.534  1.00  0.00     0.077 C 
ATOM     10  C   UNL     1       1.375  -0.595   0.100  1.00  0.00     0.011 C 
ENDBRANCH   7   9
BRANCH   7  11
ATOM     11  N   UNL     1       1.035   2.365  -2.300  1.00  0.00    -0.332 N 
ATOM     12  H   UNL     1       1.693   2.962  -1.801  1.00  0.00     0.347 HD
ATOM     13  H   UNL     1       0.053   2.254  -2.046  1.00  0.00     0.347 HD
BRANCH  11  14
ATOM     14  C   UNL     1       0.862   3.001  -3.588  1.00  0.00     0.271 C 
BRANCH  14  15
ATOM     15  C   UNL     1      -0.253   2.541  -4.526  1.00  0.00     0.161 C 
BRANCH  15  16
ATOM     16  C   UNL     1      -1.702   2.979  -4.327  1.00  0.00     0.225 C 
ATOM     17  O   UNL     1      -2.263   3.644  -5.205  1.00  0.00    -0.275 OA
ATOM     18  N   UNL     1      -2.485   2.572  -3.289  1.00  0.00    -0.354 N 
ATOM     19  H   UNL     1      -3.451   2.704  -3.429  1.00  0.00     0.163 HD
BRANCH  18  20
ATOM     20  C   UNL     1      -2.137   1.978  -2.017  1.00  0.00     0.075 C 
ATOM     21  C   UNL     1      -2.334   2.983  -0.887  1.00  0.00     0.030 C 
ATOM     22  C   UNL     1      -2.853   0.665  -1.740  1.00  0.00     0.030 C 
ENDBRANCH  18  20
ENDBRANCH  15  16
ENDBRANCH  14  15
ENDBRANCH  11  14
ENDBRANCH   7  11
ENDBRANCH   5   7
ENDBRANCH   4   5
ENDBRANCH   3   4
ENDBRANCH   2   3
ENDBRANCH   1   2
BRANCH   1  23
ATOM     23  C   UNL     1       4.129   3.151  -0.028  1.00  0.00     0.188 C 
BRANCH  23  24
ATOM     24  C   UNL     1       3.184   4.179  -0.670  1.00  0.00     0.188 C 
BRANCH  24  25
ATOM     25  O   UNL     1       3.597   4.947  -1.783  1.00  0.00    -0.376 OA
BRANCH  25  26
ATOM     26  C   UNL     1       4.760   5.751  -1.647  1.00  0.00     0.202 C 
BRANCH  26  27
ATOM     27  C   UNL     1       5.044   6.572  -0.368  1.00  0.00     0.261 C 
BRANCH  27  28
ATOM     28  O   UNL     1       4.653   5.990   0.890  1.00  0.00    -0.460 OA
BRANCH  28  29
ATOM     29  C   UNL     1       3.563   6.543   1.478  1.00  0.00     0.338 C 
ATOM     30  O   UNL     1       2.924   7.513   1.088  1.00  0.00    -0.246 OA
BRANCH  29  31
ATOM     31  C   UNL     1       3.078   5.671   2.570  1.00  0.00     0.060 A 
ATOM     32  C   UNL     1       1.793   5.112   2.461  1.00  0.00     0.016 A 
ATOM     33  C   UNL     1       3.841   5.458   3.717  1.00  0.00     0.016 A 
ATOM     34  C   UNL     1       1.253   4.370   3.511  1.00  0.00     0.010 A 
ATOM     35  C   UNL     1       3.285   4.740   4.783  1.00  0.00     0.010 A 
ATOM     36  C   UNL     1       1.974   4.229   4.701  1.00  0.00    -0.014 A 
BRANCH  36  37
ATOM     37  C   UNL     1       1.277   3.766   5.929  1.00  0.00     0.031 A 
ATOM     38  C   UNL     1       0.765   4.806   6.889  1.00  0.00     0.074 A 
ATOM     39  C   UNL     1       1.075   2.462   6.184  1.00  0.00     0.049 A 
ATOM     40  N   UNL     1       0.180   4.657   8.051  1.00  0.00    -0.248 NA
ATOM     41  C   UNL     1       0.942   6.209   6.480  1.00  0.00     0.031 C 
ATOM     42  C   UNL     1       1.466   1.357   5.313  1.00  0.00     0.029 A 
ATOM     43  N   UNL     1       0.493   1.849   7.267  1.00  0.00    -0.354 N 
ATOM     44  C   UNL     1      -0.064   5.944   8.517  1.00  0.00     0.074 A 
ATOM     45  C   UNL     1       0.461   6.860   7.528  1.00  0.00     0.031 C 
ATOM     46  C   UNL     1       1.124   0.197   5.903  1.00  0.00     0.029 A 
ATOM     47  C   UNL     1       0.522   0.478   7.207  1.00  0.00     0.049 A 
ATOM     48  H   UNL     1       0.092   2.347   8.016  1.00  0.00     0.167 HD
ATOM     49  C   UNL     1      -0.676   6.329   9.662  1.00  0.00     0.037 A 
ATOM     50  C   UNL     1       0.130  -0.440   8.112  1.00  0.00     0.037 A 
ATOM     51  C   UNL     1      -1.196   5.418  10.648  1.00  0.00     0.049 A 
ATOM     52  C   UNL     1      -0.468   0.014   9.422  1.00  0.00     0.074 A 
ATOM     53  C   UNL     1      -1.850   5.710  11.833  1.00  0.00     0.029 A 
ATOM     54  N   UNL     1      -1.110   4.036  10.570  1.00  0.00    -0.354 N 
ATOM     55  N   UNL     1      -0.720   1.229   9.846  1.00  0.00    -0.248 NA
ATOM     56  C   UNL     1      -0.839  -1.038  10.380  1.00  0.00     0.031 C 
ATOM     57  C   UNL     1      -2.101   4.508  12.502  1.00  0.00     0.029 A 
ATOM     58  C   UNL     1      -1.670   3.462  11.701  1.00  0.00     0.049 A 
ATOM     59  H   UNL     1      -0.710   3.537   9.822  1.00  0.00     0.167 HD
ATOM     60  C   UNL     1      -1.315   1.086  11.095  1.00  0.00     0.074 A 
ATOM     61  C   UNL     1      -1.395  -0.336  11.356  1.00  0.00     0.031 C 
ATOM     62  C   UNL     1      -1.759   2.045  11.946  1.00  0.00     0.037 A 
BRANCH  49  63
ATOM     63  C   UNL     1      -0.777   7.804   9.929  1.00  0.00     0.064 A 
ATOM     64  C   UNL     1      -1.604   8.642   9.165  1.00  0.00     0.173 A 
ATOM     65  C   UNL     1      -0.043   8.385  10.974  1.00  0.00     0.173 A 
ATOM     66  F   UNL     1      -2.316   8.141   8.144  1.00  0.00    -0.203 F 
ATOM     67  C   UNL     1      -1.664  10.011   9.416  1.00  0.00     0.198 A 
ATOM     68  C   UNL     1      -0.134   9.748  11.245  1.00  0.00     0.198 A 
ATOM     69  F   UNL     1       0.760   7.630  11.739  1.00  0.00    -0.203 F 
ATOM     70  F   UNL     1      -2.414  10.801   8.635  1.00  0.00    -0.200 F 
ATOM     71  C   UNL     1      -0.935  10.561  10.459  1.00  0.00     0.200 A 
ATOM     72  F   UNL     1       0.560  10.274  12.263  1.00  0.00    -0.200 F 
ATOM     73  F   UNL     1      -0.997  11.878  10.702  1.00  0.00    -0.200 F 
ENDBRANCH  49  63
BRANCH  50  74
ATOM     74  C   UNL     1       0.288  -1.891   7.824  1.00  0.00     0.064 A 
ATOM     75  C   UNL     1      -0.832  -2.720   7.662  1.00  0.00     0.173 A 
ATOM     76  C   UNL     1       1.555  -2.487   7.744  1.00  0.00     0.173 A 
ATOM     77  F   UNL     1      -2.066  -2.204   7.759  1.00  0.00    -0.203 F 
ATOM     78  C   UNL     1      -0.691  -4.091   7.453  1.00  0.00     0.198 A 
ATOM     79  C   UNL     1       1.695  -3.853   7.503  1.00  0.00     0.198 A 
ATOM     80  F   UNL     1       2.659  -1.742   7.898  1.00  0.00    -0.203 F 
ATOM     81  F   UNL     1      -1.779  -4.867   7.358  1.00  0.00    -0.200 F 
ATOM     82  C   UNL     1       0.573  -4.655   7.368  1.00  0.00     0.200 A 
ATOM     83  F   UNL     1       2.918  -4.392   7.411  1.00  0.00    -0.200 F 
ATOM     84  F   UNL     1       0.708  -5.973   7.167  1.00  0.00    -0.200 F 
ENDBRANCH  50  74
BRANCH  62  85
ATOM     85  C   UNL     1      -2.428   1.593  13.216  1.00  0.00     0.064 A 
ATOM     86  C   UNL     1      -1.716   0.972  14.253  1.00  0.00     0.173 A 
ATOM     87  C   UNL     1      -3.801   1.815  13.409  1.00  0.00     0.173 A 
ATOM     88  F   UNL     1      -0.404   0.724  14.118  1.00  0.00    -0.203 F 
ATOM     89  C   UNL     1      -2.359   0.559  15.418  1.00  0.00     0.198 A 
ATOM     90  C   UNL     1      -4.433   1.435  14.589  1.00  0.00     0.198 A 
ATOM     91  F   UNL     1      -4.530   2.413  12.455  1.00  0.00    -0.203 F 
ATOM     92  F   UNL     1      -1.669  -0.086  16.369  1.00  0.00    -0.200 F 
ATOM     93  C   UNL     1      -3.715   0.797  15.588  1.00  0.00     0.200 A 
ATOM     94  F   UNL     1      -5.739   1.683  14.758  1.00  0.00    -0.200 F 
ATOM     95  F   UNL     1      -4.330   0.404  16.712  1.00  0.00    -0.200 F 
ENDBRANCH  62  85
ENDBRANCH  36  37
ENDBRANCH  29  31
ENDBRANCH  28  29
ENDBRANCH  27  28
ENDBRANCH  26  27
ENDBRANCH  25  26
ENDBRANCH  24  25
ENDBRANCH  23  24
ENDBRANCH   1  23
TORSDOF 23
