REMARK SMILES CC[N@H+]1CCC[C@@H]1C[N@@H+](C)C[C@H]([NH3+])C(=O)OCCOCCOCCOC(=O)c1ccc(-c2c3nc(c(-c4c(F)c(F)c(F)c(F)c4F)c4ccc([nH]4)c(-c4c(F)c(F)c(F)c(F)c4F)c4nc(c(-c5c(F)c(F)c(F)c(F)c5F)c5ccc2[nH]5)C=C4)C=C3)cc1
REMARK SMILES IDX 19 1 18 2 17 3 16 4 14 5 15 6 12 7 11 8 9 9 10 10 8 12 7 13
REMARK SMILES IDX 3 14 4 15 5 17 6 18 2 19 1 20 13 21 20 25 21 26 22 27 23 28
REMARK SMILES IDX 24 29 25 30 26 31 27 32 28 33 29 34 90 35 30 36 89 37 31 38
REMARK SMILES IDX 32 39 33 40 83 41 34 42 88 43 82 44 84 45 35 46 87 47 81 48
REMARK SMILES IDX 80 49 36 51 68 52 48 53 67 54 49 55 52 56 66 57 85 58 50 59
REMARK SMILES IDX 51 60 65 62 86 63 53 64 37 65 38 66 46 67 39 68 40 69 44 70
REMARK SMILES IDX 47 71 41 72 42 73 45 74 43 75 69 76 70 77 78 78 71 79 72 80
REMARK SMILES IDX 76 81 79 82 73 83 74 84 77 85 75 86 54 87 55 88 63 89 56 90
REMARK SMILES IDX 57 91 61 92 64 93 58 94 59 95 62 96 60 97
REMARK H PARENT 9 11 3 16 13 22 13 23 13 24 84 50 52 61
REMARK Flexibility Score: inf
ROOT
ATOM      1  O   UNL     1      -2.936   7.779  -0.223  1.00  0.00    -0.376 OA
ENDROOT
BRANCH   1   2
ATOM      2  C   UNL     1      -3.366   7.046   0.917  1.00  0.00     0.202 C 
BRANCH   2   3
ATOM      3  C   UNL     1      -3.484   5.529   0.767  1.00  0.00     0.261 C 
BRANCH   3   4
ATOM      4  O   UNL     1      -2.247   4.767   0.733  1.00  0.00    -0.459 OA
BRANCH   4   5
ATOM      5  C   UNL     1      -2.063   3.946  -0.347  1.00  0.00     0.370 C 
ATOM      6  O   UNL     1      -2.773   3.970  -1.350  1.00  0.00    -0.245 OA
BRANCH   5   7
ATOM      7  C   UNL     1      -0.870   2.971  -0.223  1.00  0.00     0.347 C 
BRANCH   7   8
ATOM      8  C   UNL     1      -1.155   1.568   0.390  1.00  0.00     0.340 C 
BRANCH   8   9
ATOM      9  N   UNL     1      -2.488   0.944   0.412  1.00  0.00    -0.327 N 
ATOM     10  C   UNL     1      -2.898   0.609  -0.962  1.00  0.00     0.333 C 
ATOM     11  H   UNL     1      -2.371   0.111   0.989  1.00  0.00     0.348 HD
BRANCH   9  12
ATOM     12  C   UNL     1      -3.563   1.700   1.087  1.00  0.00     0.327 C 
BRANCH  12  13
ATOM     13  C   UNL     1      -3.541   2.112   2.599  1.00  0.00     0.239 C 
ATOM     14  N   UNL     1      -4.343   3.318   2.899  1.00  0.00    -0.328 N 
ATOM     15  C   UNL     1      -3.949   3.754   4.241  1.00  0.00     0.262 C 
ATOM     16  H   UNL     1      -4.114   3.968   2.146  1.00  0.00     0.348 HD
ATOM     17  C   UNL     1      -2.446   3.611   4.216  1.00  0.00     0.068 C 
ATOM     18  C   UNL     1      -2.183   2.518   3.191  1.00  0.00     0.077 C 
BRANCH  14  19
ATOM     19  C   UNL     1      -5.793   3.315   2.738  1.00  0.00     0.259 C 
ATOM     20  C   UNL     1      -6.311   3.178   1.310  1.00  0.00     0.071 C 
ENDBRANCH  14  19
ENDBRANCH  12  13
ENDBRANCH   9  12
ENDBRANCH   8   9
ENDBRANCH   7   8
BRANCH   7  21
ATOM     21  N   UNL     1       0.316   3.569   0.451  1.00  0.00    -0.341 N 
ATOM     22  H   UNL     1       0.102   3.733   1.434  1.00  0.00     0.345 HD
ATOM     23  H   UNL     1       0.552   4.454   0.002  1.00  0.00     0.345 HD
ATOM     24  H   UNL     1       1.107   2.929   0.377  1.00  0.00     0.345 HD
ENDBRANCH   7  21
ENDBRANCH   5   7
ENDBRANCH   4   5
ENDBRANCH   3   4
ENDBRANCH   2   3
ENDBRANCH   1   2
BRANCH   1  25
ATOM     25  C   UNL     1      -1.852   7.227  -0.954  1.00  0.00     0.188 C 
BRANCH  25  26
ATOM     26  C   UNL     1      -0.559   6.943  -0.169  1.00  0.00     0.188 C 
BRANCH  26  27
ATOM     27  O   UNL     1      -0.631   7.247   1.205  1.00  0.00    -0.376 OA
BRANCH  27  28
ATOM     28  C   UNL     1      -0.068   8.476   1.639  1.00  0.00     0.202 C 
BRANCH  28  29
ATOM     29  C   UNL     1      -0.275   9.788   0.850  1.00  0.00     0.261 C 
BRANCH  29  30
ATOM     30  O   UNL     1      -0.311   9.711  -0.585  1.00  0.00    -0.460 OA
BRANCH  30  31
ATOM     31  C   UNL     1       0.847   9.546  -1.265  1.00  0.00     0.338 C 
ATOM     32  O   UNL     1       1.972   9.505  -0.798  1.00  0.00    -0.246 OA
BRANCH  31  33
ATOM     33  C   UNL     1       0.476   9.117  -2.642  1.00  0.00     0.060 A 
ATOM     34  C   UNL     1       0.960   7.887  -3.120  1.00  0.00     0.016 A 
ATOM     35  C   UNL     1      -0.453   9.840  -3.397  1.00  0.00     0.016 A 
ATOM     36  C   UNL     1       0.527   7.386  -4.352  1.00  0.00     0.010 A 
ATOM     37  C   UNL     1      -0.856   9.358  -4.647  1.00  0.00     0.010 A 
ATOM     38  C   UNL     1      -0.344   8.145  -5.144  1.00  0.00    -0.014 A 
BRANCH  38  39
ATOM     39  C   UNL     1      -0.467   7.846  -6.593  1.00  0.00     0.031 A 
ATOM     40  C   UNL     1       0.525   8.514  -7.508  1.00  0.00     0.074 A 
ATOM     41  C   UNL     1      -1.409   7.031  -7.101  1.00  0.00     0.049 A 
ATOM     42  N   UNL     1       0.598   8.510  -8.814  1.00  0.00    -0.248 NA
ATOM     43  C   UNL     1       1.580   9.303  -6.849  1.00  0.00     0.031 C 
ATOM     44  C   UNL     1      -2.394   6.280  -6.328  1.00  0.00     0.029 A 
ATOM     45  N   UNL     1      -1.691   6.713  -8.409  1.00  0.00    -0.354 N 
ATOM     46  C   UNL     1       1.697   9.297  -9.127  1.00  0.00     0.074 A 
ATOM     47  C   UNL     1       2.248   9.784  -7.883  1.00  0.00     0.031 C 
ATOM     48  C   UNL     1      -3.190   5.605  -7.179  1.00  0.00     0.029 A 
ATOM     49  C   UNL     1      -2.790   5.902  -8.555  1.00  0.00     0.049 A 
ATOM     50  H   UNL     1      -1.156   7.037  -9.169  1.00  0.00     0.167 HD
ATOM     51  C   UNL     1       2.209   9.589 -10.344  1.00  0.00     0.037 A 
ATOM     52  C   UNL     1      -3.413   5.477  -9.674  1.00  0.00     0.037 A 
ATOM     53  C   UNL     1       1.656   9.123 -11.585  1.00  0.00     0.049 A 
ATOM     54  C   UNL     1      -2.878   5.892 -11.026  1.00  0.00     0.074 A 
ATOM     55  C   UNL     1       2.102   9.363 -12.871  1.00  0.00     0.029 A 
ATOM     56  N   UNL     1       0.524   8.330 -11.691  1.00  0.00    -0.354 N 
ATOM     57  N   UNL     1      -1.827   6.619 -11.318  1.00  0.00    -0.248 NA
ATOM     58  C   UNL     1      -3.623   5.427 -12.207  1.00  0.00     0.031 C 
ATOM     59  C   UNL     1       1.209   8.757 -13.760  1.00  0.00     0.029 A 
ATOM     60  C   UNL     1       0.241   8.091 -13.024  1.00  0.00     0.049 A 
ATOM     61  H   UNL     1       0.000   7.987 -10.931  1.00  0.00     0.167 HD
ATOM     62  C   UNL     1      -1.765   6.670 -12.706  1.00  0.00     0.074 A 
ATOM     63  C   UNL     1      -2.881   5.893 -13.202  1.00  0.00     0.031 C 
ATOM     64  C   UNL     1      -0.865   7.301 -13.500  1.00  0.00     0.037 A 
BRANCH  51  65
ATOM     65  C   UNL     1       3.408  10.488 -10.384  1.00  0.00     0.064 A 
ATOM     66  C   UNL     1       4.670  10.052  -9.953  1.00  0.00     0.173 A 
ATOM     67  C   UNL     1       3.293  11.801 -10.863  1.00  0.00     0.173 A 
ATOM     68  F   UNL     1       4.825   8.813  -9.461  1.00  0.00    -0.203 F 
ATOM     69  C   UNL     1       5.768  10.908  -9.977  1.00  0.00     0.198 A 
ATOM     70  C   UNL     1       4.399  12.643 -10.914  1.00  0.00     0.198 A 
ATOM     71  F   UNL     1       2.106  12.267 -11.281  1.00  0.00    -0.203 F 
ATOM     72  F   UNL     1       6.952  10.488  -9.510  1.00  0.00    -0.200 F 
ATOM     73  C   UNL     1       5.633  12.199 -10.464  1.00  0.00     0.200 A 
ATOM     74  F   UNL     1       4.269  13.888 -11.392  1.00  0.00    -0.200 F 
ATOM     75  F   UNL     1       6.692  13.020 -10.491  1.00  0.00    -0.200 F 
ENDBRANCH  51  65
BRANCH  52  76
ATOM     76  C   UNL     1      -4.631   4.627  -9.581  1.00  0.00     0.064 A 
ATOM     77  C   UNL     1      -4.620   3.296 -10.023  1.00  0.00     0.173 A 
ATOM     78  C   UNL     1      -5.842   5.141  -9.096  1.00  0.00     0.173 A 
ATOM     79  F   UNL     1      -3.497   2.768 -10.530  1.00  0.00    -0.203 F 
ATOM     80  C   UNL     1      -5.778   2.518  -9.999  1.00  0.00     0.198 A 
ATOM     81  C   UNL     1      -6.992   4.354  -9.046  1.00  0.00     0.198 A 
ATOM     82  F   UNL     1      -5.912   6.412  -8.675  1.00  0.00    -0.203 F 
ATOM     83  F   UNL     1      -5.752   1.267 -10.479  1.00  0.00    -0.200 F 
ATOM     84  C   UNL     1      -6.961   3.046  -9.506  1.00  0.00     0.200 A 
ATOM     85  F   UNL     1      -8.133   4.867  -8.566  1.00  0.00    -0.200 F 
ATOM     86  F   UNL     1      -8.074   2.300  -9.487  1.00  0.00    -0.200 F 
ENDBRANCH  52  76
BRANCH  64  87
ATOM     87  C   UNL     1      -1.012   7.144 -14.987  1.00  0.00     0.064 A 
ATOM     88  C   UNL     1      -2.039   7.778 -15.700  1.00  0.00     0.173 A 
ATOM     89  C   UNL     1      -0.070   6.400 -15.715  1.00  0.00     0.173 A 
ATOM     90  F   UNL     1      -2.971   8.492 -15.050  1.00  0.00    -0.203 F 
ATOM     91  C   UNL     1      -2.131   7.655 -17.084  1.00  0.00     0.198 A 
ATOM     92  C   UNL     1      -0.146   6.306 -17.102  1.00  0.00     0.198 A 
ATOM     93  F   UNL     1       0.940   5.784 -15.083  1.00  0.00    -0.203 F 
ATOM     94  F   UNL     1      -3.145   8.236 -17.741  1.00  0.00    -0.200 F 
ATOM     95  C   UNL     1      -1.180   6.928 -17.784  1.00  0.00     0.200 A 
ATOM     96  F   UNL     1       0.784   5.617 -17.777  1.00  0.00    -0.200 F 
ATOM     97  F   UNL     1      -1.263   6.822 -19.118  1.00  0.00    -0.200 F 
ENDBRANCH  64  87
ENDBRANCH  38  39
ENDBRANCH  31  33
ENDBRANCH  30  31
ENDBRANCH  29  30
ENDBRANCH  28  29
ENDBRANCH  27  28
ENDBRANCH  26  27
ENDBRANCH  25  26
ENDBRANCH   1  25
TORSDOF 23
