REMARK SMILES CCC1CN(c2cccc(F)c2C(=O)OCCOCCOCCOC(=O)c2ccc(-c3c4nc(c(-c5c(F)c(F)c(F)c(F)c5F)c5ccc([nH]5)c(-c5c(F)c(F)c(F)c(F)c5F)c5nc(c(-c6c(F)c(F)c(F)c(F)c6F)c6ccc3[nH]6)C=C5)C=C4)cc2)C1
REMARK SMILES IDX 19 1 18 2 17 3 16 4 15 5 13 6 14 7 12 8 6 9 7 10 8 11 10 12
REMARK SMILES IDX 9 13 11 14 5 15 3 16 4 17 90 18 2 19 1 20 20 21 21 22 22 23
REMARK SMILES IDX 23 24 24 25 25 26 26 27 27 28 28 29 89 30 29 31 88 32 30 33
REMARK SMILES IDX 31 34 32 35 82 36 33 37 87 38 81 39 83 40 34 41 86 42 80 43
REMARK SMILES IDX 79 44 35 46 67 47 47 48 66 49 48 50 51 51 65 52 84 53 49 54
REMARK SMILES IDX 50 55 64 57 85 58 52 59 36 60 37 61 45 62 38 63 39 64 43 65
REMARK SMILES IDX 46 66 40 67 41 68 44 69 42 70 68 71 69 72 77 73 70 74 71 75
REMARK SMILES IDX 75 76 78 77 72 78 73 79 76 80 74 81 53 82 54 83 62 84 55 85
REMARK SMILES IDX 56 86 60 87 63 88 57 89 58 90 61 91 59 92
REMARK H PARENT 83 45 51 56
REMARK Flexibility Score: inf
ROOT
ATOM      1  C   UNL     1      -2.706  -3.822   2.991  1.00  0.00     0.188 C 
ENDROOT
BRANCH   1   2
ATOM      2  O   UNL     1      -4.101  -3.925   2.761  1.00  0.00    -0.376 OA
BRANCH   2   3
ATOM      3  C   UNL     1      -4.483  -4.559   1.546  1.00  0.00     0.202 C 
BRANCH   3   4
ATOM      4  C   UNL     1      -4.293  -6.077   1.570  1.00  0.00     0.261 C 
BRANCH   4   5
ATOM      5  O   UNL     1      -2.946  -6.475   1.878  1.00  0.00    -0.460 OA
BRANCH   5   6
ATOM      6  C   UNL     1      -2.014  -6.417   0.902  1.00  0.00     0.343 C 
ATOM      7  O   UNL     1      -2.214  -6.070  -0.259  1.00  0.00    -0.246 OA
BRANCH   6   8
ATOM      8  C   UNL     1      -0.695  -6.702   1.508  1.00  0.00     0.119 A 
ATOM      9  C   UNL     1       0.450  -5.927   1.243  1.00  0.00     0.054 A 
ATOM     10  C   UNL     1       1.657  -6.281   1.883  1.00  0.00     0.027 A 
ATOM     11  C   UNL     1       1.730  -7.342   2.787  1.00  0.00     0.005 A 
ATOM     12  C   UNL     1      -0.600  -7.780   2.405  1.00  0.00     0.139 A 
ATOM     13  C   UNL     1       0.593  -8.089   3.054  1.00  0.00     0.040 A 
ATOM     14  F   UNL     1      -1.665  -8.550   2.673  1.00  0.00    -0.206 F 
BRANCH   9  15
ATOM     15  N   UNL     1       0.505  -4.761   0.464  1.00  0.00    -0.370 N 
ATOM     16  C   UNL     1       0.497  -3.105  -0.730  1.00  0.00     0.028 C 
ATOM     17  C   UNL     1      -0.208  -3.536   0.562  1.00  0.00     0.122 C 
ATOM     18  C   UNL     1       0.742  -4.615  -0.942  1.00  0.00     0.122 C 
BRANCH  16  19
ATOM     19  C   UNL     1      -0.375  -2.281  -1.667  1.00  0.00     0.004 C 
ATOM     20  C   UNL     1      -0.674  -0.901  -1.081  1.00  0.00     0.004 C 
ENDBRANCH  16  19
ENDBRANCH   9  15
ENDBRANCH   6   8
ENDBRANCH   5   6
ENDBRANCH   4   5
ENDBRANCH   3   4
ENDBRANCH   2   3
ENDBRANCH   1   2
BRANCH   1  21
ATOM     21  C   UNL     1      -2.203  -4.538   4.256  1.00  0.00     0.188 C 
BRANCH  21  22
ATOM     22  O   UNL     1      -3.055  -4.736   5.375  1.00  0.00    -0.376 OA
BRANCH  22  23
ATOM     23  C   UNL     1      -4.149  -3.862   5.579  1.00  0.00     0.202 C 
BRANCH  23  24
ATOM     24  C   UNL     1      -3.830  -2.404   5.935  1.00  0.00     0.261 C 
BRANCH  24  25
ATOM     25  O   UNL     1      -2.875  -1.739   5.084  1.00  0.00    -0.460 OA
BRANCH  25  26
ATOM     26  C   UNL     1      -1.620  -1.630   5.585  1.00  0.00     0.338 C 
ATOM     27  O   UNL     1      -1.223  -2.037   6.665  1.00  0.00    -0.246 OA
BRANCH  26  28
ATOM     28  C   UNL     1      -0.697  -1.022   4.595  1.00  0.00     0.060 A 
ATOM     29  C   UNL     1       0.523  -1.663   4.336  1.00  0.00     0.016 A 
ATOM     30  C   UNL     1      -0.959   0.224   4.024  1.00  0.00     0.016 A 
ATOM     31  C   UNL     1       1.505  -1.039   3.556  1.00  0.00     0.010 A 
ATOM     32  C   UNL     1       0.029   0.852   3.250  1.00  0.00     0.010 A 
ATOM     33  C   UNL     1       1.285   0.245   3.043  1.00  0.00    -0.014 A 
BRANCH  33  34
ATOM     34  C   UNL     1       2.388   1.037   2.425  1.00  0.00     0.031 A 
ATOM     35  C   UNL     1       3.083   2.082   3.235  1.00  0.00     0.074 A 
ATOM     36  C   UNL     1       2.801   0.847   1.161  1.00  0.00     0.049 A 
ATOM     37  N   UNL     1       3.995   2.939   2.857  1.00  0.00    -0.248 NA
ATOM     38  C   UNL     1       2.749   2.135   4.664  1.00  0.00     0.031 C 
ATOM     39  C   UNL     1       2.367  -0.248   0.321  1.00  0.00     0.029 A 
ATOM     40  N   UNL     1       3.638   1.575   0.348  1.00  0.00    -0.354 N 
ATOM     41  C   UNL     1       4.391   3.591   4.010  1.00  0.00     0.074 A 
ATOM     42  C   UNL     1       3.561   3.092   5.088  1.00  0.00     0.031 C 
ATOM     43  C   UNL     1       2.834  -0.069  -0.925  1.00  0.00     0.029 A 
ATOM     44  C   UNL     1       3.589   1.175  -0.967  1.00  0.00     0.049 A 
ATOM     45  H   UNL     1       4.212   2.306   0.674  1.00  0.00     0.167 HD
ATOM     46  C   UNL     1       5.390   4.490   4.157  1.00  0.00     0.037 A 
ATOM     47  C   UNL     1       4.053   1.763  -2.087  1.00  0.00     0.037 A 
ATOM     48  C   UNL     1       6.189   5.008   3.078  1.00  0.00     0.049 A 
ATOM     49  C   UNL     1       4.944   2.962  -1.958  1.00  0.00     0.074 A 
ATOM     50  C   UNL     1       7.225   5.922   3.137  1.00  0.00     0.029 A 
ATOM     51  N   UNL     1       6.023   4.680   1.738  1.00  0.00    -0.354 N 
ATOM     52  N   UNL     1       5.331   3.569  -0.864  1.00  0.00    -0.248 NA
ATOM     53  C   UNL     1       5.515   3.519  -3.191  1.00  0.00     0.031 C 
ATOM     54  C   UNL     1       7.635   6.204   1.830  1.00  0.00     0.029 A 
ATOM     55  C   UNL     1       6.903   5.414   0.957  1.00  0.00     0.049 A 
ATOM     56  H   UNL     1       5.377   4.022   1.394  1.00  0.00     0.167 HD
ATOM     57  C   UNL     1       6.254   4.522  -1.263  1.00  0.00     0.074 A 
ATOM     58  C   UNL     1       6.334   4.446  -2.708  1.00  0.00     0.031 C 
ATOM     59  C   UNL     1       6.995   5.345  -0.482  1.00  0.00     0.037 A 
BRANCH  46  60
ATOM     60  C   UNL     1       5.652   4.980   5.548  1.00  0.00     0.064 A 
ATOM     61  C   UNL     1       5.333   6.295   5.908  1.00  0.00     0.173 A 
ATOM     62  C   UNL     1       6.220   4.146   6.523  1.00  0.00     0.173 A 
ATOM     63  F   UNL     1       4.788   7.130   5.010  1.00  0.00    -0.203 F 
ATOM     64  C   UNL     1       5.570   6.759   7.198  1.00  0.00     0.198 A 
ATOM     65  C   UNL     1       6.428   4.604   7.821  1.00  0.00     0.198 A 
ATOM     66  F   UNL     1       6.526   2.873   6.230  1.00  0.00    -0.203 F 
ATOM     67  F   UNL     1       5.268   8.025   7.518  1.00  0.00    -0.200 F 
ATOM     68  C   UNL     1       6.108   5.911   8.155  1.00  0.00     0.200 A 
ATOM     69  F   UNL     1       6.920   3.775   8.752  1.00  0.00    -0.200 F 
ATOM     70  F   UNL     1       6.308   6.352   9.405  1.00  0.00    -0.200 F 
ENDBRANCH  46  60
BRANCH  47  71
ATOM     71  C   UNL     1       3.671   1.214  -3.413  1.00  0.00     0.064 A 
ATOM     72  C   UNL     1       2.371   1.392  -3.914  1.00  0.00     0.173 A 
ATOM     73  C   UNL     1       4.571   0.472  -4.186  1.00  0.00     0.173 A 
ATOM     74  F   UNL     1       1.472   2.100  -3.213  1.00  0.00    -0.203 F 
ATOM     75  C   UNL     1       1.983   0.834  -5.130  1.00  0.00     0.198 A 
ATOM     76  C   UNL     1       4.186  -0.076  -5.409  1.00  0.00     0.198 A 
ATOM     77  F   UNL     1       5.829   0.291  -3.758  1.00  0.00    -0.203 F 
ATOM     78  F   UNL     1       0.730   1.002  -5.576  1.00  0.00    -0.200 F 
ATOM     79  C   UNL     1       2.891   0.099  -5.877  1.00  0.00     0.200 A 
ATOM     80  F   UNL     1       5.069  -0.774  -6.136  1.00  0.00    -0.200 F 
ATOM     81  F   UNL     1       2.520  -0.440  -7.047  1.00  0.00    -0.200 F 
ENDBRANCH  47  71
BRANCH  59  82
ATOM     82  C   UNL     1       8.021   6.210  -1.151  1.00  0.00     0.064 A 
ATOM     83  C   UNL     1       9.389   5.958  -0.949  1.00  0.00     0.173 A 
ATOM     84  C   UNL     1       7.666   7.335  -1.906  1.00  0.00     0.173 A 
ATOM     85  F   UNL     1       9.781   4.892  -0.234  1.00  0.00    -0.203 F 
ATOM     86  C   UNL     1      10.359   6.819  -1.451  1.00  0.00     0.198 A 
ATOM     87  C   UNL     1       8.641   8.178  -2.433  1.00  0.00     0.198 A 
ATOM     88  F   UNL     1       6.374   7.607  -2.145  1.00  0.00    -0.203 F 
ATOM     89  F   UNL     1      11.655   6.584  -1.203  1.00  0.00    -0.200 F 
ATOM     90  C   UNL     1       9.985   7.929  -2.192  1.00  0.00     0.200 A 
ATOM     91  F   UNL     1       8.281   9.236  -3.172  1.00  0.00    -0.200 F 
ATOM     92  F   UNL     1      10.920   8.759  -2.675  1.00  0.00    -0.200 F 
ENDBRANCH  59  82
ENDBRANCH  33  34
ENDBRANCH  26  28
ENDBRANCH  25  26
ENDBRANCH  24  25
ENDBRANCH  23  24
ENDBRANCH  22  23
ENDBRANCH  21  22
ENDBRANCH   1  21
TORSDOF 19
