REMARK SMILES C[C@@](NC(=O)[C@H]1COc2ccccc21)(C(=O)OCCOCCOCCOC(=O)c1ccc(-c2c3nc(c(-c4c(F)c(F)c(F)c(F)c4F)c4ccc([nH]4)c(-c4c(F)c(F)c(F)c(F)c4F)c4nc(c(-c5c(F)c(F)c(F)c(F)c5F)c5ccc2[nH]5)C=C4)C=C3)cc1)C(F)(F)F
REMARK SMILES IDX 21 1 20 2 19 3 18 4 17 5 15 6 16 7 2 8 1 9 3 10 4 11 5 13
REMARK SMILES IDX 6 14 7 15 14 16 8 17 9 18 13 19 10 20 12 21 11 22 92 23
REMARK SMILES IDX 93 24 94 25 95 26 22 27 23 28 24 29 25 30 26 31 27 32 28 33
REMARK SMILES IDX 29 34 30 35 91 36 31 37 90 38 32 39 33 40 34 41 84 42 35 43
REMARK SMILES IDX 89 44 83 45 85 46 36 47 88 48 82 49 81 50 37 52 69 53 49 54
REMARK SMILES IDX 68 55 50 56 53 57 67 58 86 59 51 60 52 61 66 63 87 64 54 65
REMARK SMILES IDX 38 66 39 67 47 68 40 69 41 70 45 71 48 72 42 73 43 74 46 75
REMARK SMILES IDX 44 76 70 77 71 78 79 79 72 80 73 81 77 82 80 83 74 84 75 85
REMARK SMILES IDX 78 86 76 87 55 88 56 89 64 90 57 91 58 92 62 93 65 94 59 95
REMARK SMILES IDX 60 96 63 97 61 98
REMARK H PARENT 3 12 85 51 53 62
REMARK Flexibility Score: inf
ROOT
ATOM      1  C   UNL     1      -2.599  -1.933  -0.388  1.00  0.00     0.188 C 
ENDROOT
BRANCH   1   2
ATOM      2  O   UNL     1      -3.797  -1.185  -0.331  1.00  0.00    -0.376 OA
BRANCH   2   3
ATOM      3  C   UNL     1      -4.014  -0.495   0.881  1.00  0.00     0.202 C 
BRANCH   3   4
ATOM      4  C   UNL     1      -3.070   0.662   1.206  1.00  0.00     0.261 C 
BRANCH   4   5
ATOM      5  O   UNL     1      -1.637   0.506   1.041  1.00  0.00    -0.461 OA
BRANCH   5   6
ATOM      6  C   UNL     1      -0.907  -0.262   1.899  1.00  0.00     0.341 C 
ATOM      7  O   UNL     1      -1.421  -1.065   2.663  1.00  0.00    -0.249 OA
BRANCH   6   8
ATOM      8  C   UNL     1       0.579   0.167   1.930  1.00  0.00     0.231 C 
ATOM      9  C   UNL     1       1.058   0.815   0.615  1.00  0.00     0.058 C 
BRANCH   8  10
ATOM     10  N   UNL     1       0.971   1.073   3.083  1.00  0.00    -0.332 N 
ATOM     11  C   UNL     1       0.288   1.940   3.897  1.00  0.00     0.232 C 
ATOM     12  H   UNL     1       1.931   1.027   3.295  1.00  0.00     0.164 HD
ATOM     13  O   UNL     1       0.952   2.747   4.545  1.00  0.00    -0.274 OA
BRANCH  11  14
ATOM     14  C   UNL     1      -1.206   1.826   3.999  1.00  0.00     0.150 C 
ATOM     15  C   UNL     1      -1.635   0.669   4.914  1.00  0.00     0.248 C 
ATOM     16  C   UNL     1      -2.016   2.917   4.590  1.00  0.00     0.010 A 
ATOM     17  O   UNL     1      -2.269   1.190   6.104  1.00  0.00    -0.492 OA
ATOM     18  C   UNL     1      -2.646   2.451   5.732  1.00  0.00     0.123 A 
ATOM     19  C   UNL     1      -2.338   4.151   4.052  1.00  0.00     0.008 A 
ATOM     20  C   UNL     1      -3.621   3.178   6.378  1.00  0.00     0.047 A 
ATOM     21  C   UNL     1      -3.331   4.901   4.686  1.00  0.00     0.001 A 
ATOM     22  C   UNL     1      -3.975   4.413   5.836  1.00  0.00     0.004 A 
ENDBRANCH  11  14
ENDBRANCH   8  10
BRANCH   8  23
ATOM     23  C   UNL     1       1.315  -1.189   2.063  1.00  0.00     0.422 C 
ATOM     24  F   UNL     1       0.963  -2.065   1.094  1.00  0.00    -0.168 F 
ATOM     25  F   UNL     1       2.658  -1.007   1.960  1.00  0.00    -0.168 F 
ATOM     26  F   UNL     1       1.101  -1.780   3.259  1.00  0.00    -0.168 F 
ENDBRANCH   8  23
ENDBRANCH   6   8
ENDBRANCH   5   6
ENDBRANCH   4   5
ENDBRANCH   3   4
ENDBRANCH   2   3
ENDBRANCH   1   2
BRANCH   1  27
ATOM     27  C   UNL     1      -1.507  -1.246  -1.222  1.00  0.00     0.188 C 
BRANCH  27  28
ATOM     28  O   UNL     1      -1.812  -0.126  -2.035  1.00  0.00    -0.376 OA
BRANCH  28  29
ATOM     29  C   UNL     1      -3.010  -0.146  -2.800  1.00  0.00     0.202 C 
BRANCH  29  30
ATOM     30  C   UNL     1      -3.333  -1.351  -3.709  1.00  0.00     0.261 C 
BRANCH  30  31
ATOM     31  O   UNL     1      -2.958  -2.648  -3.210  1.00  0.00    -0.460 OA
BRANCH  31  32
ATOM     32  C   UNL     1      -1.822  -3.182  -3.729  1.00  0.00     0.338 C 
ATOM     33  O   UNL     1      -1.137  -2.717  -4.626  1.00  0.00    -0.246 OA
BRANCH  32  34
ATOM     34  C   UNL     1      -1.367  -4.305  -2.869  1.00  0.00     0.060 A 
ATOM     35  C   UNL     1      -0.075  -4.233  -2.320  1.00  0.00     0.016 A 
ATOM     36  C   UNL     1      -2.184  -5.399  -2.582  1.00  0.00     0.016 A 
ATOM     37  C   UNL     1       0.404  -5.246  -1.491  1.00  0.00     0.010 A 
ATOM     38  C   UNL     1      -1.682  -6.444  -1.792  1.00  0.00     0.010 A 
ATOM     39  C   UNL     1      -0.377  -6.384  -1.266  1.00  0.00    -0.014 A 
BRANCH  39  40
ATOM     40  C   UNL     1       0.266  -7.596  -0.697  1.00  0.00     0.031 A 
ATOM     41  C   UNL     1       0.845  -8.599  -1.659  1.00  0.00     0.074 A 
ATOM     42  C   UNL     1       0.388  -7.789   0.628  1.00  0.00     0.049 A 
ATOM     43  N   UNL     1       1.420  -9.750  -1.421  1.00  0.00    -0.248 NA
ATOM     44  C   UNL     1       0.766  -8.251  -3.088  1.00  0.00     0.031 C 
ATOM     45  C   UNL     1      -0.065  -6.869   1.667  1.00  0.00     0.029 A 
ATOM     46  N   UNL     1       0.932  -8.842   1.324  1.00  0.00    -0.354 N 
ATOM     47  C   UNL     1       1.771 -10.259  -2.664  1.00  0.00     0.074 A 
ATOM     48  C   UNL     1       1.319  -9.310  -3.657  1.00  0.00     0.031 C 
ATOM     49  C   UNL     1       0.199  -7.408   2.871  1.00  0.00     0.029 A 
ATOM     50  C   UNL     1       0.814  -8.723   2.687  1.00  0.00     0.049 A 
ATOM     51  H   UNL     1       1.367  -9.610   0.886  1.00  0.00     0.167 HD
ATOM     52  C   UNL     1       2.419 -11.411  -2.955  1.00  0.00     0.037 A 
ATOM     53  C   UNL     1       1.141  -9.590   3.667  1.00  0.00     0.037 A 
ATOM     54  C   UNL     1       2.862 -12.364  -1.974  1.00  0.00     0.049 A 
ATOM     55  C   UNL     1       1.775 -10.914   3.309  1.00  0.00     0.074 A 
ATOM     56  C   UNL     1       3.522 -13.564  -2.174  1.00  0.00     0.029 A 
ATOM     57  N   UNL     1       2.684 -12.228  -0.606  1.00  0.00    -0.354 N 
ATOM     58  N   UNL     1       2.114 -11.384   2.132  1.00  0.00    -0.248 NA
ATOM     59  C   UNL     1       2.075 -11.828   4.422  1.00  0.00     0.031 C 
ATOM     60  C   UNL     1       3.698 -14.179  -0.930  1.00  0.00     0.029 A 
ATOM     61  C   UNL     1       3.201 -13.335   0.049  1.00  0.00     0.049 A 
ATOM     62  H   UNL     1       2.255 -11.459  -0.165  1.00  0.00     0.167 HD
ATOM     63  C   UNL     1       2.692 -12.626   2.367  1.00  0.00     0.074 A 
ATOM     64  C   UNL     1       2.677 -12.830   3.799  1.00  0.00     0.031 C 
ATOM     65  C   UNL     1       3.190 -13.520   1.477  1.00  0.00     0.037 A 
BRANCH  52  66
ATOM     66  C   UNL     1       2.668 -11.718  -4.402  1.00  0.00     0.064 A 
ATOM     67  C   UNL     1       3.624 -11.015  -5.149  1.00  0.00     0.173 A 
ATOM     68  C   UNL     1       1.972 -12.758  -5.035  1.00  0.00     0.173 A 
ATOM     69  F   UNL     1       4.302  -9.999  -4.594  1.00  0.00    -0.203 F 
ATOM     70  C   UNL     1       3.864 -11.333  -6.483  1.00  0.00     0.198 A 
ATOM     71  C   UNL     1       2.234 -13.092  -6.360  1.00  0.00     0.198 A 
ATOM     72  F   UNL     1       1.046 -13.460  -4.364  1.00  0.00    -0.203 F 
ATOM     73  F   UNL     1       4.754 -10.623  -7.190  1.00  0.00    -0.200 F 
ATOM     74  C   UNL     1       3.176 -12.377  -7.084  1.00  0.00     0.200 A 
ATOM     75  F   UNL     1       1.576 -14.107  -6.937  1.00  0.00    -0.200 F 
ATOM     76  F   UNL     1       3.417 -12.690  -8.365  1.00  0.00    -0.200 F 
ENDBRANCH  52  66
BRANCH  53  77
ATOM     77  C   UNL     1       0.851  -9.264   5.090  1.00  0.00     0.064 A 
ATOM     78  C   UNL     1       1.884  -9.088   6.022  1.00  0.00     0.173 A 
ATOM     79  C   UNL     1      -0.469  -9.194   5.562  1.00  0.00     0.173 A 
ATOM     80  F   UNL     1       3.163  -9.181   5.629  1.00  0.00    -0.203 F 
ATOM     81  C   UNL     1       1.609  -8.887   7.374  1.00  0.00     0.198 A 
ATOM     82  C   UNL     1      -0.743  -8.959   6.908  1.00  0.00     0.198 A 
ATOM     83  F   UNL     1      -1.495  -9.366   4.716  1.00  0.00    -0.203 F 
ATOM     84  F   UNL     1       2.616  -8.793   8.253  1.00  0.00    -0.200 F 
ATOM     85  C   UNL     1       0.296  -8.818   7.815  1.00  0.00     0.200 A 
ATOM     86  F   UNL     1      -2.013  -8.889   7.329  1.00  0.00    -0.200 F 
ATOM     87  F   UNL     1       0.033  -8.636   9.116  1.00  0.00    -0.200 F 
ENDBRANCH  53  77
BRANCH  65  88
ATOM     88  C   UNL     1       3.797 -14.781   2.026  1.00  0.00     0.064 A 
ATOM     89  C   UNL     1       3.013 -15.785   2.612  1.00  0.00     0.173 A 
ATOM     90  C   UNL     1       5.181 -15.001   1.934  1.00  0.00     0.173 A 
ATOM     91  F   UNL     1       1.687 -15.621   2.735  1.00  0.00    -0.203 F 
ATOM     92  C   UNL     1       3.595 -16.945   3.119  1.00  0.00     0.198 A 
ATOM     93  C   UNL     1       5.755 -16.176   2.411  1.00  0.00     0.198 A 
ATOM     94  F   UNL     1       5.977 -14.079   1.372  1.00  0.00    -0.203 F 
ATOM     95  F   UNL     1       2.832 -17.864   3.727  1.00  0.00    -0.200 F 
ATOM     96  C   UNL     1       4.963 -17.142   3.013  1.00  0.00     0.200 A 
ATOM     97  F   UNL     1       7.075 -16.372   2.292  1.00  0.00    -0.200 F 
ATOM     98  F   UNL     1       5.520 -18.261   3.497  1.00  0.00    -0.200 F 
ENDBRANCH  65  88
ENDBRANCH  39  40
ENDBRANCH  32  34
ENDBRANCH  31  32
ENDBRANCH  30  31
ENDBRANCH  29  30
ENDBRANCH  28  29
ENDBRANCH  27  28
ENDBRANCH   1  27
TORSDOF 20
