REMARK SMILES Cc1c(Cl)ccc2c(OCC(=O)OCCOCCOCCOC(=O)c3ccc(-c4c5nc(c(-c6c(F)c(F)c(F)c(F)c6F)c6ccc([nH]6)c(-c6c(F)c(F)c(F)c(F)c6F)c6nc(c(-c7c(F)c(F)c(F)c(F)c7F)c7ccc4[nH]7)C=C6)C=C5)cc3)ccnc12
REMARK SMILES IDX 17 1 16 2 15 3 14 4 13 5 11 6 12 7 10 8 9 9 8 10 1 11 2 12
REMARK SMILES IDX 3 13 91 14 4 15 5 16 7 17 90 18 6 19 89 20 88 21 18 22 19 23
REMARK SMILES IDX 20 24 21 25 22 26 23 27 24 28 25 29 26 30 87 31 27 32 86 33
REMARK SMILES IDX 28 34 29 35 30 36 80 37 31 38 85 39 79 40 81 41 32 42 84 43
REMARK SMILES IDX 78 44 77 45 33 47 65 48 45 49 64 50 46 51 49 52 63 53 82 54
REMARK SMILES IDX 47 55 48 56 62 58 83 59 50 60 34 61 35 62 43 63 36 64 37 65
REMARK SMILES IDX 41 66 44 67 38 68 39 69 42 70 40 71 66 72 67 73 75 74 68 75
REMARK SMILES IDX 69 76 73 77 76 78 70 79 71 80 74 81 72 82 51 83 52 84 60 85
REMARK SMILES IDX 53 86 54 87 58 88 61 89 55 90 56 91 59 92 57 93
REMARK H PARENT 81 46 49 57
REMARK Flexibility Score: inf
ROOT
ATOM      1  C   UNL     1       2.395   5.610   3.680  1.00  0.00     0.188 C 
ENDROOT
BRANCH   1   2
ATOM      2  O   UNL     1       3.408   6.211   4.477  1.00  0.00    -0.376 OA
BRANCH   2   3
ATOM      3  C   UNL     1       3.779   5.551   5.682  1.00  0.00     0.202 C 
BRANCH   3   4
ATOM      4  C   UNL     1       2.695   5.534   6.760  1.00  0.00     0.261 C 
BRANCH   4   5
ATOM      5  O   UNL     1       1.696   4.519   6.512  1.00  0.00    -0.461 OA
BRANCH   5   6
ATOM      6  C   UNL     1       0.396   4.919   6.494  1.00  0.00     0.344 C 
ATOM      7  O   UNL     1       0.020   6.080   6.617  1.00  0.00    -0.248 OA
BRANCH   6   8
ATOM      8  C   UNL     1      -0.587   3.747   6.387  1.00  0.00     0.352 C 
BRANCH   8   9
ATOM      9  O   UNL     1      -0.215   2.582   5.670  1.00  0.00    -0.481 OA
BRANCH   9  10
ATOM     10  C   UNL     1      -0.569   2.411   4.354  1.00  0.00     0.131 A 
ATOM     11  C   UNL     1       0.283  -0.205   0.234  1.00  0.00     0.048 C 
ATOM     12  C   UNL     1       0.191  -0.125   1.739  1.00  0.00    -0.006 A 
ATOM     13  C   UNL     1       0.656  -1.193   2.526  1.00  0.00     0.046 A 
ATOM     14  C   UNL     1      -0.314   1.031   2.360  1.00  0.00     0.078 A 
ATOM     15  Cl  UNL     1       1.197  -2.678   1.822  1.00  0.00    -0.084 Cl
ATOM     16  C   UNL     1       0.691  -1.091   3.911  1.00  0.00     0.022 A 
ATOM     17  C   UNL     1      -0.184   1.179   3.762  1.00  0.00     0.043 A 
ATOM     18  N   UNL     1      -0.918   1.983   1.626  1.00  0.00    -0.256 NA
ATOM     19  C   UNL     1       0.314   0.101   4.521  1.00  0.00     0.016 A 
ATOM     20  C   UNL     1      -1.409   3.074   2.244  1.00  0.00     0.115 A 
ATOM     21  C   UNL     1      -1.217   3.361   3.579  1.00  0.00     0.067 A 
ENDBRANCH   9  10
ENDBRANCH   8   9
ENDBRANCH   6   8
ENDBRANCH   5   6
ENDBRANCH   4   5
ENDBRANCH   3   4
ENDBRANCH   2   3
ENDBRANCH   1   2
BRANCH   1  22
ATOM     22  C   UNL     1       2.448   4.084   3.478  1.00  0.00     0.188 C 
BRANCH  22  23
ATOM     23  O   UNL     1       3.726   3.473   3.346  1.00  0.00    -0.376 OA
BRANCH  23  24
ATOM     24  C   UNL     1       4.625   4.053   2.408  1.00  0.00     0.202 C 
BRANCH  24  25
ATOM     25  C   UNL     1       4.165   3.939   0.959  1.00  0.00     0.261 C 
BRANCH  25  26
ATOM     26  O   UNL     1       3.026   4.787   0.731  1.00  0.00    -0.460 OA
BRANCH  26  27
ATOM     27  C   UNL     1       2.270   4.421  -0.328  1.00  0.00     0.338 C 
ATOM     28  O   UNL     1       2.494   3.518  -1.113  1.00  0.00    -0.246 OA
BRANCH  27  29
ATOM     29  C   UNL     1       1.119   5.336  -0.464  1.00  0.00     0.060 A 
ATOM     30  C   UNL     1       0.232   5.573   0.591  1.00  0.00     0.016 A 
ATOM     31  C   UNL     1       0.865   5.872  -1.725  1.00  0.00     0.016 A 
ATOM     32  C   UNL     1      -0.954   6.276   0.364  1.00  0.00     0.010 A 
ATOM     33  C   UNL     1      -0.295   6.614  -1.940  1.00  0.00     0.010 A 
ATOM     34  C   UNL     1      -1.237   6.780  -0.911  1.00  0.00    -0.014 A 
BRANCH  34  35
ATOM     35  C   UNL     1      -2.551   7.387  -1.235  1.00  0.00     0.031 A 
ATOM     36  C   UNL     1      -3.474   6.670  -2.180  1.00  0.00     0.074 A 
ATOM     37  C   UNL     1      -2.918   8.568  -0.710  1.00  0.00     0.049 A 
ATOM     38  N   UNL     1      -4.538   7.112  -2.799  1.00  0.00    -0.248 NA
ATOM     39  C   UNL     1      -3.149   5.263  -2.465  1.00  0.00     0.031 C 
ATOM     40  C   UNL     1      -2.170   9.316   0.297  1.00  0.00     0.029 A 
ATOM     41  N   UNL     1      -4.017   9.349  -0.965  1.00  0.00    -0.354 N 
ATOM     42  C   UNL     1      -4.989   6.051  -3.574  1.00  0.00     0.074 A 
ATOM     43  C   UNL     1      -4.083   4.945  -3.350  1.00  0.00     0.031 C 
ATOM     44  C   UNL     1      -2.835  10.448   0.581  1.00  0.00     0.029 A 
ATOM     45  C   UNL     1      -4.010  10.540  -0.283  1.00  0.00     0.049 A 
ATOM     46  H   UNL     1      -4.740   9.082  -1.578  1.00  0.00     0.167 HD
ATOM     47  C   UNL     1      -6.061   6.011  -4.401  1.00  0.00     0.037 A 
ATOM     48  C   UNL     1      -4.828  11.605  -0.382  1.00  0.00     0.037 A 
ATOM     49  C   UNL     1      -6.962   7.114  -4.610  1.00  0.00     0.049 A 
ATOM     50  C   UNL     1      -5.943  11.588  -1.391  1.00  0.00     0.074 A 
ATOM     51  C   UNL     1      -8.053   7.193  -5.457  1.00  0.00     0.029 A 
ATOM     52  N   UNL     1      -6.877   8.333  -3.952  1.00  0.00    -0.354 N 
ATOM     53  N   UNL     1      -6.308  10.625  -2.202  1.00  0.00    -0.248 NA
ATOM     54  C   UNL     1      -6.739  12.816  -1.519  1.00  0.00     0.031 C 
ATOM     55  C   UNL     1      -8.608   8.473  -5.336  1.00  0.00     0.029 A 
ATOM     56  C   UNL     1      -7.889   9.175  -4.382  1.00  0.00     0.049 A 
ATOM     57  H   UNL     1      -6.197   8.565  -3.279  1.00  0.00     0.167 HD
ATOM     58  C   UNL     1      -7.381  11.123  -2.928  1.00  0.00     0.074 A 
ATOM     59  C   UNL     1      -7.615  12.472  -2.454  1.00  0.00     0.031 C 
ATOM     60  C   UNL     1      -8.104  10.517  -3.902  1.00  0.00     0.037 A 
BRANCH  47  61
ATOM     61  C   UNL     1      -6.290   4.745  -5.172  1.00  0.00     0.064 A 
ATOM     62  C   UNL     1      -6.770   3.581  -4.554  1.00  0.00     0.173 A 
ATOM     63  C   UNL     1      -6.043   4.701  -6.552  1.00  0.00     0.173 A 
ATOM     64  F   UNL     1      -7.006   3.567  -3.233  1.00  0.00    -0.203 F 
ATOM     65  C   UNL     1      -6.971   2.413  -5.285  1.00  0.00     0.198 A 
ATOM     66  C   UNL     1      -6.269   3.539  -7.285  1.00  0.00     0.198 A 
ATOM     67  F   UNL     1      -5.585   5.788  -7.192  1.00  0.00    -0.203 F 
ATOM     68  F   UNL     1      -7.389   1.300  -4.667  1.00  0.00    -0.200 F 
ATOM     69  C   UNL     1      -6.727   2.395  -6.651  1.00  0.00     0.200 A 
ATOM     70  F   UNL     1      -6.042   3.527  -8.606  1.00  0.00    -0.200 F 
ATOM     71  F   UNL     1      -6.925   1.271  -7.354  1.00  0.00    -0.200 F 
ENDBRANCH  47  61
BRANCH  48  72
ATOM     72  C   UNL     1      -4.594  12.784   0.489  1.00  0.00     0.064 A 
ATOM     73  C   UNL     1      -5.461  13.069   1.551  1.00  0.00     0.173 A 
ATOM     74  C   UNL     1      -3.475  13.612   0.315  1.00  0.00     0.173 A 
ATOM     75  F   UNL     1      -6.557  12.319   1.739  1.00  0.00    -0.203 F 
ATOM     76  C   UNL     1      -5.212  14.132   2.416  1.00  0.00     0.198 A 
ATOM     77  C   UNL     1      -3.214  14.660   1.194  1.00  0.00     0.198 A 
ATOM     78  F   UNL     1      -2.618  13.381  -0.690  1.00  0.00    -0.203 F 
ATOM     79  F   UNL     1      -6.063  14.392   3.417  1.00  0.00    -0.200 F 
ATOM     80  C   UNL     1      -4.082  14.919   2.245  1.00  0.00     0.200 A 
ATOM     81  F   UNL     1      -2.115  15.409   1.034  1.00  0.00    -0.200 F 
ATOM     82  F   UNL     1      -3.829  15.925   3.092  1.00  0.00    -0.200 F 
ENDBRANCH  48  72
BRANCH  60  83
ATOM     83  C   UNL     1      -9.232  11.296  -4.508  1.00  0.00     0.064 A 
ATOM     84  C   UNL     1      -8.998  12.326  -5.430  1.00  0.00     0.173 A 
ATOM     85  C   UNL     1     -10.563  10.966  -4.211  1.00  0.00     0.173 A 
ATOM     86  F   UNL     1      -7.742  12.686  -5.735  1.00  0.00    -0.203 F 
ATOM     87  C   UNL     1     -10.057  13.008  -6.023  1.00  0.00     0.198 A 
ATOM     88  C   UNL     1     -11.620  11.635  -4.823  1.00  0.00     0.198 A 
ATOM     89  F   UNL     1     -10.838   9.984  -3.340  1.00  0.00    -0.203 F 
ATOM     90  F   UNL     1      -9.812  14.010  -6.878  1.00  0.00    -0.200 F 
ATOM     91  C   UNL     1     -11.366  12.657  -5.725  1.00  0.00     0.200 A 
ATOM     92  F   UNL     1     -12.883  11.287  -4.543  1.00  0.00    -0.200 F 
ATOM     93  F   UNL     1     -12.384  13.307  -6.305  1.00  0.00    -0.200 F 
ENDBRANCH  60  83
ENDBRANCH  34  35
ENDBRANCH  27  29
ENDBRANCH  26  27
ENDBRANCH  25  26
ENDBRANCH  24  25
ENDBRANCH  23  24
ENDBRANCH  22  23
ENDBRANCH   1  22
TORSDOF 19
