REMARK SMILES COc1ccc(NC(=O)[C@H](CC(=O)OCCOCCOCCOC(=O)c2ccc(-c3c4nc(c(-c5c(F)c(F)c(F)c(F)c5F)c5ccc([nH]5)c(-c5c(F)c(F)c(F)c(F)c5F)c5nc(c(-c6c(F)c(F)c(F)c(F)c6F)c6ccc3[nH]6)C=C5)C=C4)cc2)Cc2ccccc2)cc1
REMARK SMILES IDX 18 1 17 2 16 3 15 4 14 5 12 6 13 7 11 8 10 9 8 10 7 11 9 13
REMARK SMILES IDX 6 14 3 15 4 16 97 17 5 18 96 19 2 20 1 21 89 22 90 23 91 24
REMARK SMILES IDX 95 25 92 26 94 27 93 28 19 29 20 30 21 31 22 32 23 33 24 34
REMARK SMILES IDX 25 35 26 36 27 37 88 38 28 39 87 40 29 41 30 42 31 43 81 44
REMARK SMILES IDX 32 45 86 46 80 47 82 48 33 49 85 50 79 51 78 52 34 54 66 55
REMARK SMILES IDX 46 56 65 57 47 58 50 59 64 60 83 61 48 62 49 63 63 65 84 66
REMARK SMILES IDX 51 67 35 68 36 69 44 70 37 71 38 72 42 73 45 74 39 75 40 76
REMARK SMILES IDX 43 77 41 78 67 79 68 80 76 81 69 82 70 83 74 84 77 85 71 86
REMARK SMILES IDX 72 87 75 88 73 89 52 90 53 91 61 92 54 93 55 94 59 95 62 96
REMARK SMILES IDX 56 97 57 98 60 99 58 100
REMARK H PARENT 7 12 82 53 50 64
REMARK Flexibility Score: inf
ROOT
ATOM      1  C   UNL     1       2.822  -2.869  -3.515  1.00  0.00     0.188 C 
ENDROOT
BRANCH   1   2
ATOM      2  O   UNL     1       3.699  -1.758  -3.361  1.00  0.00    -0.376 OA
BRANCH   2   3
ATOM      3  C   UNL     1       3.215  -0.466  -3.709  1.00  0.00     0.202 C 
BRANCH   3   4
ATOM      4  C   UNL     1       2.947  -0.260  -5.201  1.00  0.00     0.261 C 
BRANCH   4   5
ATOM      5  O   UNL     1       1.809  -1.028  -5.657  1.00  0.00    -0.463 OA
BRANCH   5   6
ATOM      6  C   UNL     1       1.929  -1.647  -6.849  1.00  0.00     0.306 C 
ATOM      7  O   UNL     1       2.935  -1.584  -7.550  1.00  0.00    -0.252 OA
BRANCH   6   8
ATOM      8  C   UNL     1       0.764  -2.537  -7.255  1.00  0.00     0.136 C 
BRANCH   8   9
ATOM      9  C   UNL     1      -0.689  -2.448  -6.740  1.00  0.00     0.094 C 
BRANCH   9  10
ATOM     10  C   UNL     1      -1.026  -3.654  -5.873  1.00  0.00     0.228 C 
ATOM     11  N   UNL     1      -1.287  -4.899  -6.357  1.00  0.00    -0.326 N 
ATOM     12  H   UNL     1      -1.332  -5.570  -5.638  1.00  0.00     0.169 HD
ATOM     13  O   UNL     1      -1.085  -3.548  -4.644  1.00  0.00    -0.274 OA
BRANCH  11  14
ATOM     14  C   UNL     1      -1.508  -5.472  -7.622  1.00  0.00     0.041 A 
ATOM     15  C   UNL     1      -2.401  -6.709  -9.985  1.00  0.00     0.119 A 
ATOM     16  C   UNL     1      -1.775  -5.468 -10.031  1.00  0.00     0.048 A 
ATOM     17  C   UNL     1      -2.474  -7.395  -8.780  1.00  0.00     0.048 A 
ATOM     18  C   UNL     1      -1.328  -4.854  -8.855  1.00  0.00     0.030 A 
ATOM     19  C   UNL     1      -2.027  -6.778  -7.607  1.00  0.00     0.030 A 
BRANCH  15  20
ATOM     20  O   UNL     1      -2.897  -7.191 -11.164  1.00  0.00    -0.497 OA
ATOM     21  C   UNL     1      -4.210  -7.739 -11.030  1.00  0.00     0.278 C 
ENDBRANCH  15  20
ENDBRANCH  11  14
ENDBRANCH   9  10
BRANCH   9  22
ATOM     22  C   UNL     1      -1.165  -1.145  -6.072  1.00  0.00     0.049 C 
BRANCH  22  23
ATOM     23  C   UNL     1      -1.359  -0.047  -7.090  1.00  0.00    -0.047 A 
ATOM     24  C   UNL     1      -0.358   0.898  -7.330  1.00  0.00     0.004 A 
ATOM     25  C   UNL     1      -2.533  -0.004  -7.858  1.00  0.00     0.004 A 
ATOM     26  C   UNL     1      -0.503   1.841  -8.346  1.00  0.00     0.000 A 
ATOM     27  C   UNL     1      -2.683   0.948  -8.865  1.00  0.00     0.000 A 
ATOM     28  C   UNL     1      -1.663   1.862  -9.117  1.00  0.00     0.000 A 
ENDBRANCH  22  23
ENDBRANCH   9  22
ENDBRANCH   8   9
ENDBRANCH   6   8
ENDBRANCH   5   6
ENDBRANCH   4   5
ENDBRANCH   3   4
ENDBRANCH   2   3
ENDBRANCH   1   2
BRANCH   1  29
ATOM     29  C   UNL     1       1.331  -2.662  -3.252  1.00  0.00     0.188 C 
BRANCH  29  30
ATOM     30  O   UNL     1       1.078  -1.822  -2.135  1.00  0.00    -0.376 OA
BRANCH  30  31
ATOM     31  C   UNL     1      -0.076  -2.212  -1.395  1.00  0.00     0.202 C 
BRANCH  31  32
ATOM     32  C   UNL     1       0.391  -3.091  -0.234  1.00  0.00     0.261 C 
BRANCH  32  33
ATOM     33  O   UNL     1       1.041  -4.298  -0.681  1.00  0.00    -0.460 OA
BRANCH  33  34
ATOM     34  C   UNL     1       0.233  -5.219  -1.255  1.00  0.00     0.338 C 
ATOM     35  O   UNL     1      -0.981  -5.193  -1.330  1.00  0.00    -0.246 OA
BRANCH  34  36
ATOM     36  C   UNL     1       1.081  -6.213  -1.946  1.00  0.00     0.060 A 
ATOM     37  C   UNL     1       0.843  -6.475  -3.302  1.00  0.00     0.016 A 
ATOM     38  C   UNL     1       2.079  -6.904  -1.258  1.00  0.00     0.016 A 
ATOM     39  C   UNL     1       1.574  -7.463  -3.966  1.00  0.00     0.010 A 
ATOM     40  C   UNL     1       2.799  -7.902  -1.918  1.00  0.00     0.010 A 
ATOM     41  C   UNL     1       2.527  -8.212  -3.263  1.00  0.00    -0.014 A 
BRANCH  41  42
ATOM     42  C   UNL     1       3.110  -9.443  -3.853  1.00  0.00     0.031 A 
ATOM     43  C   UNL     1       2.527 -10.770  -3.448  1.00  0.00     0.074 A 
ATOM     44  C   UNL     1       4.138  -9.397  -4.718  1.00  0.00     0.049 A 
ATOM     45  N   UNL     1       2.951 -11.981  -3.702  1.00  0.00    -0.248 NA
ATOM     46  C   UNL     1       1.296 -10.719  -2.643  1.00  0.00     0.031 C 
ATOM     47  C   UNL     1       4.754  -8.181  -5.241  1.00  0.00     0.029 A 
ATOM     48  N   UNL     1       4.857 -10.416  -5.295  1.00  0.00    -0.354 N 
ATOM     49  C   UNL     1       2.047 -12.833  -3.082  1.00  0.00     0.074 A 
ATOM     50  C   UNL     1       1.065 -12.004  -2.418  1.00  0.00     0.031 C 
ATOM     51  C   UNL     1       5.774  -8.524  -6.050  1.00  0.00     0.029 A 
ATOM     52  C   UNL     1       5.908  -9.980  -6.064  1.00  0.00     0.049 A 
ATOM     53  H   UNL     1       4.639 -11.368  -5.170  1.00  0.00     0.167 HD
ATOM     54  C   UNL     1       2.032 -14.187  -3.072  1.00  0.00     0.037 A 
ATOM     55  C   UNL     1       6.885 -10.679  -6.675  1.00  0.00     0.037 A 
ATOM     56  C   UNL     1       3.011 -15.015  -3.723  1.00  0.00     0.049 A 
ATOM     57  C   UNL     1       6.905 -12.184  -6.562  1.00  0.00     0.074 A 
ATOM     58  C   UNL     1       3.098 -16.396  -3.745  1.00  0.00     0.029 A 
ATOM     59  N   UNL     1       4.075 -14.535  -4.470  1.00  0.00    -0.354 N 
ATOM     60  N   UNL     1       6.058 -12.985  -5.961  1.00  0.00    -0.248 NA
ATOM     61  C   UNL     1       8.026 -12.883  -7.211  1.00  0.00     0.031 C 
ATOM     62  C   UNL     1       4.236 -16.751  -4.477  1.00  0.00     0.029 A 
ATOM     63  C   UNL     1       4.830 -15.593  -4.949  1.00  0.00     0.049 A 
ATOM     64  H   UNL     1       4.266 -13.583  -4.635  1.00  0.00     0.167 HD
ATOM     65  C   UNL     1       6.522 -14.275  -6.190  1.00  0.00     0.074 A 
ATOM     66  C   UNL     1       7.720 -14.154  -6.993  1.00  0.00     0.031 C 
ATOM     67  C   UNL     1       6.004 -15.456  -5.771  1.00  0.00     0.037 A 
BRANCH  54  68
ATOM     68  C   UNL     1       0.926 -14.858  -2.314  1.00  0.00     0.064 A 
ATOM     69  C   UNL     1      -0.391 -14.867  -2.797  1.00  0.00     0.173 A 
ATOM     70  C   UNL     1       1.190 -15.526  -1.109  1.00  0.00     0.173 A 
ATOM     71  F   UNL     1      -0.697 -14.225  -3.934  1.00  0.00    -0.203 F 
ATOM     72  C   UNL     1      -1.407 -15.505  -2.091  1.00  0.00     0.198 A 
ATOM     73  C   UNL     1       0.177 -16.186  -0.420  1.00  0.00     0.198 A 
ATOM     74  F   UNL     1       2.433 -15.547  -0.606  1.00  0.00    -0.203 F 
ATOM     75  F   UNL     1      -2.666 -15.466  -2.550  1.00  0.00    -0.200 F 
ATOM     76  C   UNL     1      -1.121 -16.171  -0.908  1.00  0.00     0.200 A 
ATOM     77  F   UNL     1       0.456 -16.837   0.718  1.00  0.00    -0.200 F 
ATOM     78  F   UNL     1      -2.099 -16.791  -0.234  1.00  0.00    -0.200 F 
ENDBRANCH  54  68
BRANCH  55  79
ATOM     79  C   UNL     1       7.958  -9.975  -7.428  1.00  0.00     0.064 A 
ATOM     80  C   UNL     1       8.079 -10.121  -8.817  1.00  0.00     0.173 A 
ATOM     81  C   UNL     1       8.920  -9.196  -6.768  1.00  0.00     0.173 A 
ATOM     82  F   UNL     1       7.204 -10.884  -9.489  1.00  0.00    -0.203 F 
ATOM     83  C   UNL     1       9.137  -9.539  -9.513  1.00  0.00     0.198 A 
ATOM     84  C   UNL     1       9.960  -8.590  -7.470  1.00  0.00     0.198 A 
ATOM     85  F   UNL     1       8.857  -9.034  -5.439  1.00  0.00    -0.203 F 
ATOM     86  F   UNL     1       9.265  -9.749 -10.831  1.00  0.00    -0.200 F 
ATOM     87  C   UNL     1      10.074  -8.771  -8.840  1.00  0.00     0.200 A 
ATOM     88  F   UNL     1      10.862  -7.845  -6.816  1.00  0.00    -0.200 F 
ATOM     89  F   UNL     1      11.098  -8.221  -9.508  1.00  0.00    -0.200 F 
ENDBRANCH  55  79
BRANCH  67  90
ATOM     90  C   UNL     1       6.690 -16.714  -6.221  1.00  0.00     0.064 A 
ATOM     91  C   UNL     1       7.928 -17.109  -5.696  1.00  0.00     0.173 A 
ATOM     92  C   UNL     1       6.075 -17.557  -7.160  1.00  0.00     0.173 A 
ATOM     93  F   UNL     1       8.563 -16.331  -4.806  1.00  0.00    -0.203 F 
ATOM     94  C   UNL     1       8.538 -18.290  -6.112  1.00  0.00     0.198 A 
ATOM     95  C   UNL     1       6.673 -18.750  -7.552  1.00  0.00     0.198 A 
ATOM     96  F   UNL     1       4.886 -17.229  -7.687  1.00  0.00    -0.203 F 
ATOM     97  F   UNL     1       9.742 -18.626  -5.630  1.00  0.00    -0.200 F 
ATOM     98  C   UNL     1       7.907 -19.113  -7.034  1.00  0.00     0.200 A 
ATOM     99  F   UNL     1       6.056 -19.551  -8.432  1.00  0.00    -0.200 F 
ATOM    100  F   UNL     1       8.492 -20.253  -7.427  1.00  0.00    -0.200 F 
ENDBRANCH  67  90
ENDBRANCH  41  42
ENDBRANCH  34  36
ENDBRANCH  33  34
ENDBRANCH  32  33
ENDBRANCH  31  32
ENDBRANCH  30  31
ENDBRANCH  29  30
ENDBRANCH   1  29
TORSDOF 23
