REMARK SMILES CC(C)OCCS(=O)(=O)Nc1nccnc1C(=O)OCCOCCOCCOC(=O)c1ccc(-c2c3nc(c(-c4c(F)c(F)c(F)c(F)c4F)c4ccc([nH]4)c(-c4c(F)c(F)c(F)c(F)c4F)c4nc(c(-c5c(F)c(F)c(F)c(F)c5F)c5ccc2[nH]5)C=C4)C=C3)cc1
REMARK SMILES IDX 21 1 20 2 19 3 17 4 18 5 16 6 11 7 12 8 13 9 15 10 14 11
REMARK SMILES IDX 10 12 7 14 8 15 9 16 6 17 5 18 4 19 2 20 1 21 3 22 22 23
REMARK SMILES IDX 23 24 24 25 25 26 26 27 27 28 28 29 29 30 30 31 31 32 32 33
REMARK SMILES IDX 93 34 33 35 92 36 34 37 35 38 36 39 86 40 37 41 91 42 85 43
REMARK SMILES IDX 87 44 38 45 90 46 84 47 83 48 39 50 71 51 51 52 70 53 52 54
REMARK SMILES IDX 55 55 69 56 88 57 53 58 54 59 68 61 89 62 56 63 40 64 41 65
REMARK SMILES IDX 49 66 42 67 43 68 47 69 50 70 44 71 45 72 48 73 46 74 72 75
REMARK SMILES IDX 73 76 81 77 74 78 75 79 79 80 82 81 76 82 77 83 80 84 78 85
REMARK SMILES IDX 57 86 58 87 66 88 59 89 60 90 64 91 67 92 61 93 62 94 65 95
REMARK SMILES IDX 63 96
REMARK H PARENT 10 13 87 49 55 60
REMARK Flexibility Score: inf
ROOT
ATOM      1  C   UNL     1       4.436   5.844   3.626  1.00  0.00     0.202 C 
ENDROOT
BRANCH   1   2
ATOM      2  C   UNL     1       4.707   4.744   2.588  1.00  0.00     0.261 C 
BRANCH   2   3
ATOM      3  O   UNL     1       3.687   3.739   2.512  1.00  0.00    -0.458 OA
BRANCH   3   4
ATOM      4  C   UNL     1       3.553   2.907   3.568  1.00  0.00     0.360 C 
ATOM      5  O   UNL     1       4.295   2.868   4.539  1.00  0.00    -0.244 OA
BRANCH   4   6
ATOM      6  C   UNL     1       2.265   2.173   3.447  1.00  0.00     0.191 A 
ATOM      7  C   UNL     1       1.658   1.873   2.213  1.00  0.00     0.173 A 
ATOM      8  N   UNL     1       0.482   1.226   2.217  1.00  0.00    -0.235 NA
ATOM      9  C   UNL     1      -0.078   0.921   3.421  1.00  0.00     0.133 A 
ATOM     10  N   UNL     1       1.671   1.913   4.661  1.00  0.00    -0.244 NA
ATOM     11  C   UNL     1       0.476   1.304   4.618  1.00  0.00     0.132 A 
BRANCH   7  12
ATOM     12  N   UNL     1       1.948   2.590   1.008  1.00  0.00    -0.265 N 
ATOM     13  H   UNL     1       2.244   3.523   1.113  1.00  0.00     0.181 HD
BRANCH  12  14
ATOM     14  S   UNL     1       1.839   2.022  -0.544  1.00  0.00     0.236 S 
ATOM     15  O   UNL     1       1.963   0.585  -0.550  1.00  0.00    -0.207 OA
ATOM     16  O   UNL     1       2.834   2.813  -1.249  1.00  0.00    -0.207 OA
BRANCH  14  17
ATOM     17  C   UNL     1       0.244   2.586  -1.191  1.00  0.00     0.188 C 
BRANCH  17  18
ATOM     18  C   UNL     1      -0.486   1.541  -2.027  1.00  0.00     0.178 C 
BRANCH  18  19
ATOM     19  O   UNL     1      -1.728   1.036  -1.538  1.00  0.00    -0.378 OA
BRANCH  19  20
ATOM     20  C   UNL     1      -1.795   0.366  -0.281  1.00  0.00     0.112 C 
ATOM     21  C   UNL     1      -0.694  -0.669  -0.046  1.00  0.00     0.038 C 
ATOM     22  C   UNL     1      -2.089   1.408   0.793  1.00  0.00     0.038 C 
ENDBRANCH  19  20
ENDBRANCH  18  19
ENDBRANCH  17  18
ENDBRANCH  14  17
ENDBRANCH  12  14
ENDBRANCH   7  12
ENDBRANCH   4   6
ENDBRANCH   3   4
ENDBRANCH   2   3
ENDBRANCH   1   2
BRANCH   1  23
ATOM     23  O   UNL     1       3.225   6.582   3.469  1.00  0.00    -0.376 OA
BRANCH  23  24
ATOM     24  C   UNL     1       2.023   5.868   3.749  1.00  0.00     0.188 C 
BRANCH  24  25
ATOM     25  C   UNL     1       1.247   5.525   2.469  1.00  0.00     0.188 C 
BRANCH  25  26
ATOM     26  O   UNL     1       1.980   5.834   1.291  1.00  0.00    -0.376 OA
BRANCH  26  27
ATOM     27  C   UNL     1       1.593   7.055   0.651  1.00  0.00     0.202 C 
BRANCH  27  28
ATOM     28  C   UNL     1       1.660   8.362   1.471  1.00  0.00     0.261 C 
BRANCH  28  29
ATOM     29  O   UNL     1       0.876   8.406   2.683  1.00  0.00    -0.460 OA
BRANCH  29  30
ATOM     30  C   UNL     1      -0.468   8.311   2.584  1.00  0.00     0.338 C 
ATOM     31  O   UNL     1      -1.126   8.225   1.564  1.00  0.00    -0.246 OA
BRANCH  30  32
ATOM     32  C   UNL     1      -1.007   8.097   3.951  1.00  0.00     0.060 A 
ATOM     33  C   UNL     1      -1.779   6.955   4.204  1.00  0.00     0.016 A 
ATOM     34  C   UNL     1      -0.737   9.001   4.982  1.00  0.00     0.016 A 
ATOM     35  C   UNL     1      -2.302   6.728   5.482  1.00  0.00     0.010 A 
ATOM     36  C   UNL     1      -1.277   8.782   6.256  1.00  0.00     0.010 A 
ATOM     37  C   UNL     1      -2.083   7.657   6.509  1.00  0.00    -0.014 A 
BRANCH  37  38
ATOM     38  C   UNL     1      -2.834   7.550   7.788  1.00  0.00     0.031 A 
ATOM     39  C   UNL     1      -4.099   8.352   7.948  1.00  0.00     0.074 A 
ATOM     40  C   UNL     1      -2.421   6.752   8.790  1.00  0.00     0.049 A 
ATOM     41  N   UNL     1      -4.896   8.456   8.982  1.00  0.00    -0.248 NA
ATOM     42  C   UNL     1      -4.520   9.141   6.781  1.00  0.00     0.031 C 
ATOM     43  C   UNL     1      -1.240   5.894   8.757  1.00  0.00     0.029 A 
ATOM     44  N   UNL     1      -2.954   6.545  10.040  1.00  0.00    -0.354 N 
ATOM     45  C   UNL     1      -5.912   9.316   8.588  1.00  0.00     0.074 A 
ATOM     46  C   UNL     1      -5.615   9.733   7.234  1.00  0.00     0.031 C 
ATOM     47  C   UNL     1      -1.130   5.259   9.939  1.00  0.00     0.029 A 
ATOM     48  C   UNL     1      -2.215   5.689  10.821  1.00  0.00     0.049 A 
ATOM     49  H   UNL     1      -3.787   6.970  10.348  1.00  0.00     0.167 HD
ATOM     50  C   UNL     1      -7.003   9.716   9.284  1.00  0.00     0.037 A 
ATOM     51  C   UNL     1      -2.385   5.315  12.106  1.00  0.00     0.037 A 
ATOM     52  C   UNL     1      -7.300   9.320  10.635  1.00  0.00     0.049 A 
ATOM     53  C   UNL     1      -3.557   5.853  12.893  1.00  0.00     0.074 A 
ATOM     54  C   UNL     1      -8.381   9.679  11.422  1.00  0.00     0.029 A 
ATOM     55  N   UNL     1      -6.507   8.482  11.403  1.00  0.00    -0.354 N 
ATOM     56  N   UNL     1      -4.526   6.644  12.504  1.00  0.00    -0.248 NA
ATOM     57  C   UNL     1      -3.655   5.440  14.302  1.00  0.00     0.031 C 
ATOM     58  C   UNL     1      -8.219   9.094  12.682  1.00  0.00     0.029 A 
ATOM     59  C   UNL     1      -7.064   8.329  12.662  1.00  0.00     0.049 A 
ATOM     60  H   UNL     1      -5.672   8.058  11.098  1.00  0.00     0.167 HD
ATOM     61  C   UNL     1      -5.364   6.795  13.603  1.00  0.00     0.074 A 
ATOM     62  C   UNL     1      -4.795   6.004  14.673  1.00  0.00     0.031 C 
ATOM     63  C   UNL     1      -6.502   7.522  13.715  1.00  0.00     0.037 A 
BRANCH  50  64
ATOM     64  C   UNL     1      -7.955  10.650   8.596  1.00  0.00     0.064 A 
ATOM     65  C   UNL     1      -8.791  10.210   7.559  1.00  0.00     0.173 A 
ATOM     66  C   UNL     1      -8.058  11.989   9.001  1.00  0.00     0.173 A 
ATOM     67  F   UNL     1      -8.720   8.942   7.126  1.00  0.00    -0.203 F 
ATOM     68  C   UNL     1      -9.680  11.082   6.938  1.00  0.00     0.198 A 
ATOM     69  C   UNL     1      -8.967  12.852   8.396  1.00  0.00     0.198 A 
ATOM     70  F   UNL     1      -7.282  12.458   9.989  1.00  0.00    -0.203 F 
ATOM     71  F   UNL     1     -10.439  10.651   5.920  1.00  0.00    -0.200 F 
ATOM     72  C   UNL     1      -9.773  12.400   7.361  1.00  0.00     0.200 A 
ATOM     73  F   UNL     1      -9.063  14.122   8.813  1.00  0.00    -0.200 F 
ATOM     74  F   UNL     1     -10.634  13.237   6.767  1.00  0.00    -0.200 F 
ENDBRANCH  50  64
BRANCH  51  75
ATOM     75  C   UNL     1      -1.419   4.387  12.754  1.00  0.00     0.064 A 
ATOM     76  C   UNL     1      -1.806   3.097  13.142  1.00  0.00     0.173 A 
ATOM     77  C   UNL     1      -0.108   4.790  13.048  1.00  0.00     0.173 A 
ATOM     78  F   UNL     1      -3.059   2.676  12.912  1.00  0.00    -0.203 F 
ATOM     79  C   UNL     1      -0.928   2.254  13.822  1.00  0.00     0.198 A 
ATOM     80  C   UNL     1       0.778   3.936  13.701  1.00  0.00     0.198 A 
ATOM     81  F   UNL     1       0.310   6.017  12.707  1.00  0.00    -0.203 F 
ATOM     82  F   UNL     1      -1.343   1.048  14.232  1.00  0.00    -0.200 F 
ATOM     83  C   UNL     1       0.365   2.673  14.097  1.00  0.00     0.200 A 
ATOM     84  F   UNL     1       2.029   4.342  13.960  1.00  0.00    -0.200 F 
ATOM     85  F   UNL     1       1.207   1.865  14.755  1.00  0.00    -0.200 F 
ENDBRANCH  51  75
BRANCH  63  86
ATOM     86  C   UNL     1      -7.244   7.460  15.020  1.00  0.00     0.064 A 
ATOM     87  C   UNL     1      -6.759   8.085  16.177  1.00  0.00     0.173 A 
ATOM     88  C   UNL     1      -8.483   6.803  15.099  1.00  0.00     0.173 A 
ATOM     89  F   UNL     1      -5.575   8.714  16.159  1.00  0.00    -0.203 F 
ATOM     90  C   UNL     1      -7.475   8.035  17.372  1.00  0.00     0.198 A 
ATOM     91  C   UNL     1      -9.209   6.780  16.287  1.00  0.00     0.198 A 
ATOM     92  F   UNL     1      -8.996   6.195  14.019  1.00  0.00    -0.203 F 
ATOM     93  F   UNL     1      -6.970   8.601  18.477  1.00  0.00    -0.200 F 
ATOM     94  C   UNL     1      -8.701   7.389  17.423  1.00  0.00     0.200 A 
ATOM     95  F   UNL     1     -10.401   6.168  16.330  1.00  0.00    -0.200 F 
ATOM     96  F   UNL     1      -9.392   7.349  18.572  1.00  0.00    -0.200 F 
ENDBRANCH  63  86
ENDBRANCH  37  38
ENDBRANCH  30  32
ENDBRANCH  29  30
ENDBRANCH  28  29
ENDBRANCH  27  28
ENDBRANCH  26  27
ENDBRANCH  25  26
ENDBRANCH  24  25
ENDBRANCH  23  24
ENDBRANCH   1  23
TORSDOF 23
