REMARK SMILES Cc1cc(C(=O)Nc2cccc(C(=O)NCC(=O)OCCOCCOCCOC(=O)c3ccc(-c4c5nc(c(-c6c(F)c(F)c(F)c(F)c6F)c6ccc([nH]6)c(-c6c(F)c(F)c(F)c(F)c6F)c6nc(c(-c7c(F)c(F)c(F)c(F)c7F)c7ccc4[nH]7)C=C6)C=C5)cc3)c2)no1
REMARK SMILES IDX 23 1 22 2 21 3 20 4 19 5 17 6 18 7 16 8 15 9 13 10 14 11
REMARK SMILES IDX 12 13 8 14 9 15 94 16 10 17 11 18 7 19 5 20 6 21 4 23 1 24
REMARK SMILES IDX 2 25 3 26 96 27 95 28 24 29 25 30 26 31 27 32 28 33 29 34
REMARK SMILES IDX 30 35 31 36 32 37 93 38 33 39 92 40 34 41 35 42 36 43 86 44
REMARK SMILES IDX 37 45 91 46 85 47 87 48 38 49 90 50 84 51 83 52 39 54 71 55
REMARK SMILES IDX 51 56 70 57 52 58 55 59 69 60 88 61 53 62 54 63 68 65 89 66
REMARK SMILES IDX 56 67 40 68 41 69 49 70 42 71 43 72 47 73 50 74 44 75 45 76
REMARK SMILES IDX 48 77 46 78 72 79 73 80 81 81 74 82 75 83 79 84 82 85 76 86
REMARK SMILES IDX 77 87 80 88 78 89 57 90 58 91 66 92 59 93 60 94 64 95 67 96
REMARK SMILES IDX 61 97 62 98 65 99 63 100
REMARK H PARENT 15 12 7 22 87 53 55 64
REMARK Flexibility Score: inf
ROOT
ATOM      1  C   UNL     1       0.226  -0.283   6.082  1.00  0.00     0.188 C 
ENDROOT
BRANCH   1   2
ATOM      2  O   UNL     1      -0.827  -0.621   6.971  1.00  0.00    -0.376 OA
BRANCH   2   3
ATOM      3  C   UNL     1      -1.478  -1.884   6.847  1.00  0.00     0.202 C 
BRANCH   3   4
ATOM      4  C   UNL     1      -1.974  -2.358   5.468  1.00  0.00     0.261 C 
BRANCH   4   5
ATOM      5  O   UNL     1      -0.937  -2.479   4.474  1.00  0.00    -0.462 OA
BRANCH   5   6
ATOM      6  C   UNL     1      -1.023  -1.642   3.409  1.00  0.00     0.325 C 
ATOM      7  O   UNL     1      -1.972  -0.899   3.188  1.00  0.00    -0.250 OA
BRANCH   6   8
ATOM      8  C   UNL     1       0.272  -1.583   2.579  1.00  0.00     0.239 C 
BRANCH   8   9
ATOM      9  N   UNL     1       1.255  -2.666   2.652  1.00  0.00    -0.341 N 
ATOM     10  C   UNL     1       1.427  -3.819   1.936  1.00  0.00     0.251 C 
ATOM     11  O   UNL     1       2.457  -4.461   2.140  1.00  0.00    -0.269 OA
ATOM     12  H   UNL     1       1.928  -2.538   3.359  1.00  0.00     0.164 HD
BRANCH  10  13
ATOM     13  C   UNL     1       0.480  -4.279   0.885  1.00  0.00     0.041 A 
ATOM     14  C   UNL     1      -1.506  -3.972  -0.468  1.00  0.00     0.042 A 
ATOM     15  C   UNL     1      -1.147  -5.041  -1.277  1.00  0.00     0.026 A 
ATOM     16  C   UNL     1      -0.770  -3.709   0.680  1.00  0.00     0.040 A 
ATOM     17  C   UNL     1       0.055  -5.710  -1.030  1.00  0.00     0.003 A 
ATOM     18  C   UNL     1       0.887  -5.298   0.016  1.00  0.00     0.014 A 
BRANCH  14  19
ATOM     19  N   UNL     1      -2.580  -3.144  -0.820  1.00  0.00    -0.321 N 
ATOM     20  C   UNL     1      -2.702  -1.763  -0.667  1.00  0.00     0.277 C 
ATOM     21  O   UNL     1      -3.838  -1.288  -0.707  1.00  0.00    -0.267 OA
ATOM     22  H   UNL     1      -3.352  -3.598  -1.229  1.00  0.00     0.170 HD
BRANCH  20  23
ATOM     23  C   UNL     1      -1.494  -0.907  -0.573  1.00  0.00     0.171 A 
ATOM     24  C   UNL     1       2.018   0.223  -0.434  1.00  0.00     0.091 C 
ATOM     25  C   UNL     1       0.576  -0.080  -0.536  1.00  0.00     0.134 A 
ATOM     26  C   UNL     1      -0.156  -1.135  -1.028  1.00  0.00     0.082 A 
ATOM     27  O   UNL     1      -0.272   0.802   0.051  1.00  0.00    -0.361 OA
ATOM     28  N   UNL     1      -1.559   0.303   0.015  1.00  0.00    -0.074 NA
ENDBRANCH  20  23
ENDBRANCH  14  19
ENDBRANCH  10  13
ENDBRANCH   8   9
ENDBRANCH   6   8
ENDBRANCH   5   6
ENDBRANCH   4   5
ENDBRANCH   3   4
ENDBRANCH   2   3
ENDBRANCH   1   2
BRANCH   1  29
ATOM     29  C   UNL     1       1.319  -1.318   5.794  1.00  0.00     0.188 C 
BRANCH  29  30
ATOM     30  O   UNL     1       1.134  -2.580   6.368  1.00  0.00    -0.376 OA
BRANCH  30  31
ATOM     31  C   UNL     1       1.961  -2.978   7.442  1.00  0.00     0.202 C 
BRANCH  31  32
ATOM     32  C   UNL     1       2.534  -1.982   8.475  1.00  0.00     0.261 C 
BRANCH  32  33
ATOM     33  O   UNL     1       2.726  -0.614   8.079  1.00  0.00    -0.460 OA
BRANCH  33  34
ATOM     34  C   UNL     1       3.861  -0.308   7.405  1.00  0.00     0.338 C 
ATOM     35  O   UNL     1       4.760  -1.075   7.094  1.00  0.00    -0.246 OA
BRANCH  34  36
ATOM     36  C   UNL     1       3.711   1.065   6.864  1.00  0.00     0.060 A 
ATOM     37  C   UNL     1       3.722   1.265   5.472  1.00  0.00     0.016 A 
ATOM     38  C   UNL     1       3.540   2.147   7.725  1.00  0.00     0.016 A 
ATOM     39  C   UNL     1       3.593   2.552   4.941  1.00  0.00     0.010 A 
ATOM     40  C   UNL     1       3.443   3.437   7.194  1.00  0.00     0.010 A 
ATOM     41  C   UNL     1       3.503   3.651   5.804  1.00  0.00    -0.014 A 
BRANCH  41  42
ATOM     42  C   UNL     1       3.710   5.032   5.299  1.00  0.00     0.031 A 
ATOM     43  C   UNL     1       5.082   5.632   5.449  1.00  0.00     0.074 A 
ATOM     44  C   UNL     1       2.715   5.757   4.760  1.00  0.00     0.049 A 
ATOM     45  N   UNL     1       5.483   6.862   5.260  1.00  0.00    -0.248 NA
ATOM     46  C   UNL     1       6.144   4.711   5.887  1.00  0.00     0.031 C 
ATOM     47  C   UNL     1       1.361   5.279   4.500  1.00  0.00     0.029 A 
ATOM     48  N   UNL     1       2.694   7.071   4.358  1.00  0.00    -0.354 N 
ATOM     49  C   UNL     1       6.835   6.868   5.579  1.00  0.00     0.074 A 
ATOM     50  C   UNL     1       7.181   5.527   5.995  1.00  0.00     0.031 C 
ATOM     51  C   UNL     1       0.629   6.296   4.009  1.00  0.00     0.029 A 
ATOM     52  C   UNL     1       1.451   7.505   3.965  1.00  0.00     0.049 A 
ATOM     53  H   UNL     1       3.493   7.646   4.352  1.00  0.00     0.167 HD
ATOM     54  C   UNL     1       7.710   7.900   5.531  1.00  0.00     0.037 A 
ATOM     55  C   UNL     1       1.023   8.744   3.648  1.00  0.00     0.037 A 
ATOM     56  C   UNL     1       7.361   9.235   5.121  1.00  0.00     0.049 A 
ATOM     57  C   UNL     1       1.995   9.900   3.687  1.00  0.00     0.074 A 
ATOM     58  C   UNL     1       8.177  10.348   5.026  1.00  0.00     0.029 A 
ATOM     59  N   UNL     1       6.088   9.638   4.747  1.00  0.00    -0.354 N 
ATOM     60  N   UNL     1       3.273   9.902   3.981  1.00  0.00    -0.248 NA
ATOM     61  C   UNL     1       1.461  11.228   3.349  1.00  0.00     0.031 C 
ATOM     62  C   UNL     1       7.385  11.439   4.655  1.00  0.00     0.029 A 
ATOM     63  C   UNL     1       6.091  10.990   4.446  1.00  0.00     0.049 A 
ATOM     64  H   UNL     1       5.299   9.050   4.702  1.00  0.00     0.167 HD
ATOM     65  C   UNL     1       3.702  11.216   3.824  1.00  0.00     0.074 A 
ATOM     66  C   UNL     1       2.549  11.983   3.403  1.00  0.00     0.031 C 
ATOM     67  C   UNL     1       4.940  11.739   4.007  1.00  0.00     0.037 A 
BRANCH  54  68
ATOM     68  C   UNL     1       9.120   7.634   5.971  1.00  0.00     0.064 A 
ATOM     69  C   UNL     1       9.991   6.826   5.224  1.00  0.00     0.173 A 
ATOM     70  C   UNL     1       9.616   8.219   7.147  1.00  0.00     0.173 A 
ATOM     71  F   UNL     1       9.562   6.229   4.101  1.00  0.00    -0.203 F 
ATOM     72  C   UNL     1      11.294   6.588   5.654  1.00  0.00     0.198 A 
ATOM     73  C   UNL     1      10.930   8.008   7.554  1.00  0.00     0.198 A 
ATOM     74  F   UNL     1       8.828   9.002   7.898  1.00  0.00    -0.203 F 
ATOM     75  F   UNL     1      12.089   5.767   4.954  1.00  0.00    -0.200 F 
ATOM     76  C   UNL     1      11.765   7.186   6.813  1.00  0.00     0.200 A 
ATOM     77  F   UNL     1      11.388   8.599   8.667  1.00  0.00    -0.200 F 
ATOM     78  F   UNL     1      13.022   6.963   7.221  1.00  0.00    -0.200 F 
ENDBRANCH  54  68
BRANCH  55  79
ATOM     79  C   UNL     1      -0.403   8.973   3.289  1.00  0.00     0.064 A 
ATOM     80  C   UNL     1      -0.767   9.375   1.995  1.00  0.00     0.173 A 
ATOM     81  C   UNL     1      -1.428   8.834   4.237  1.00  0.00     0.173 A 
ATOM     82  F   UNL     1       0.179   9.556   1.061  1.00  0.00    -0.203 F 
ATOM     83  C   UNL     1      -2.094   9.649   1.671  1.00  0.00     0.198 A 
ATOM     84  C   UNL     1      -2.759   9.076   3.903  1.00  0.00     0.198 A 
ATOM     85  F   UNL     1      -1.135   8.462   5.492  1.00  0.00    -0.203 F 
ATOM     86  F   UNL     1      -2.404  10.091   0.444  1.00  0.00    -0.200 F 
ATOM     87  C   UNL     1      -3.090   9.493   2.623  1.00  0.00     0.200 A 
ATOM     88  F   UNL     1      -3.718   8.918   4.825  1.00  0.00    -0.200 F 
ATOM     89  F   UNL     1      -4.365   9.761   2.312  1.00  0.00    -0.200 F 
ENDBRANCH  55  79
BRANCH  67  90
ATOM     90  C   UNL     1       5.139  13.196   3.691  1.00  0.00     0.064 A 
ATOM     91  C   UNL     1       4.596  14.213   4.489  1.00  0.00     0.173 A 
ATOM     92  C   UNL     1       5.937  13.577   2.599  1.00  0.00     0.173 A 
ATOM     93  F   UNL     1       3.818  13.906   5.538  1.00  0.00    -0.203 F 
ATOM     94  C   UNL     1       4.821  15.556   4.190  1.00  0.00     0.198 A 
ATOM     95  C   UNL     1       6.188  14.918   2.325  1.00  0.00     0.198 A 
ATOM     96  F   UNL     1       6.490  12.645   1.809  1.00  0.00    -0.203 F 
ATOM     97  F   UNL     1       4.251  16.511   4.938  1.00  0.00    -0.200 F 
ATOM     98  C   UNL     1       5.623  15.906   3.115  1.00  0.00     0.200 A 
ATOM     99  F   UNL     1       6.981  15.253   1.297  1.00  0.00    -0.200 F 
ATOM    100  F   UNL     1       5.849  17.198   2.838  1.00  0.00    -0.200 F 
ENDBRANCH  67  90
ENDBRANCH  41  42
ENDBRANCH  34  36
ENDBRANCH  33  34
ENDBRANCH  32  33
ENDBRANCH  31  32
ENDBRANCH  30  31
ENDBRANCH  29  30
ENDBRANCH   1  29
TORSDOF 21
