REMARK SMILES O=C(Cc1ccccc1Nc1c(Cl)cccc1C(F)(F)F)OCCOCCOCCOC(=O)c1ccc(-c2c3nc(c(-c4c(F)c(F)c(F)c(F)c4F)c4ccc([nH]4)c(-c4c(F)c(F)c(F)c(F)c4F)c4nc(c(-c5c(F)c(F)c(F)c(F)c5F)c5ccc2[nH]5)C=C4)C=C3)cc1
REMARK SMILES IDX 26 1 25 2 24 3 23 4 22 5 2 6 1 7 3 8 4 9 5 10 9 11 6 12 8 13
REMARK SMILES IDX 7 14 10 15 11 17 12 18 17 19 13 20 14 21 16 22 15 23 18 24
REMARK SMILES IDX 19 25 20 26 21 27 27 28 28 29 29 30 30 31 31 32 32 33 33 34
REMARK SMILES IDX 34 35 35 36 96 37 36 38 95 39 37 40 38 41 39 42 89 43 40 44
REMARK SMILES IDX 94 45 88 46 90 47 41 48 93 49 87 50 86 51 42 53 74 54 54 55
REMARK SMILES IDX 73 56 55 57 58 58 72 59 91 60 56 61 57 62 71 64 92 65 59 66
REMARK SMILES IDX 43 67 44 68 52 69 45 70 46 71 50 72 53 73 47 74 48 75 51 76
REMARK SMILES IDX 49 77 75 78 76 79 84 80 77 81 78 82 82 83 85 84 79 85 80 86
REMARK SMILES IDX 83 87 81 88 60 89 61 90 69 91 62 92 63 93 67 94 70 95 64 96
REMARK SMILES IDX 65 97 68 98 66 99
REMARK H PARENT 10 16 90 52 58 63
REMARK Flexibility Score: inf
ROOT
ATOM      1  C   UNL     1       3.014   0.836  -1.787  1.00  0.00     0.188 C 
ENDROOT
BRANCH   1   2
ATOM      2  O   UNL     1       4.354   0.410  -1.630  1.00  0.00    -0.376 OA
BRANCH   2   3
ATOM      3  C   UNL     1       4.812   0.185  -0.310  1.00  0.00     0.202 C 
BRANCH   3   4
ATOM      4  C   UNL     1       4.297  -1.135   0.254  1.00  0.00     0.261 C 
BRANCH   4   5
ATOM      5  O   UNL     1       2.864  -1.243   0.430  1.00  0.00    -0.463 OA
BRANCH   5   6
ATOM      6  C   UNL     1       2.071  -0.569   1.287  1.00  0.00     0.310 C 
ATOM      7  O   UNL     1       0.893  -0.905   1.412  1.00  0.00    -0.252 OA
BRANCH   6   8
ATOM      8  C   UNL     1       2.585   0.661   1.990  1.00  0.00     0.160 C 
BRANCH   8   9
ATOM      9  C   UNL     1       3.679   0.491   3.021  1.00  0.00    -0.013 A 
ATOM     10  C   UNL     1       3.834  -0.750   3.667  1.00  0.00     0.006 A 
ATOM     11  C   UNL     1       4.477   1.592   3.429  1.00  0.00     0.042 A 
ATOM     12  C   UNL     1       4.793  -0.925   4.660  1.00  0.00     0.000 A 
ATOM     13  C   UNL     1       5.418   1.393   4.448  1.00  0.00     0.026 A 
ATOM     14  C   UNL     1       5.580   0.147   5.054  1.00  0.00     0.002 A 
BRANCH  11  15
ATOM     15  N   UNL     1       4.346   2.849   2.791  1.00  0.00    -0.354 N 
ATOM     16  H   UNL     1       3.643   2.890   2.103  1.00  0.00     0.167 HD
BRANCH  15  17
ATOM     17  C   UNL     1       5.061   4.059   2.981  1.00  0.00     0.070 A 
ATOM     18  C   UNL     1       4.353   5.178   3.486  1.00  0.00     0.065 A 
ATOM     19  C   UNL     1       6.442   4.200   2.744  1.00  0.00     0.080 A 
ATOM     20  Cl  UNL     1       2.675   5.034   3.891  1.00  0.00    -0.082 Cl
ATOM     21  C   UNL     1       4.973   6.407   3.715  1.00  0.00     0.023 A 
ATOM     22  C   UNL     1       7.061   5.444   3.017  1.00  0.00     0.015 A 
ATOM     23  C   UNL     1       6.334   6.539   3.483  1.00  0.00     0.002 A 
BRANCH  19  24
ATOM     24  C   UNL     1       7.319   3.095   2.204  1.00  0.00     0.418 C 
ATOM     25  F   UNL     1       8.365   3.583   1.468  1.00  0.00    -0.166 F 
ATOM     26  F   UNL     1       7.901   2.360   3.192  1.00  0.00    -0.166 F 
ATOM     27  F   UNL     1       6.696   2.212   1.377  1.00  0.00    -0.166 F 
ENDBRANCH  19  24
ENDBRANCH  15  17
ENDBRANCH  11  15
ENDBRANCH   8   9
ENDBRANCH   6   8
ENDBRANCH   5   6
ENDBRANCH   4   5
ENDBRANCH   3   4
ENDBRANCH   2   3
ENDBRANCH   1   2
BRANCH   1  28
ATOM     28  C   UNL     1       2.281   0.101  -2.922  1.00  0.00     0.188 C 
BRANCH  28  29
ATOM     29  O   UNL     1       3.014  -0.715  -3.828  1.00  0.00    -0.376 OA
BRANCH  29  30
ATOM     30  C   UNL     1       4.269  -0.268  -4.324  1.00  0.00     0.202 C 
BRANCH  30  31
ATOM     31  C   UNL     1       4.304   1.063  -5.084  1.00  0.00     0.261 C 
BRANCH  31  32
ATOM     32  O   UNL     1       3.910   2.206  -4.297  1.00  0.00    -0.460 OA
BRANCH  32  33
ATOM     33  C   UNL     1       2.827   2.878  -4.759  1.00  0.00     0.338 C 
ATOM     34  O   UNL     1       2.170   2.629  -5.754  1.00  0.00    -0.246 OA
BRANCH  33  35
ATOM     35  C   UNL     1       2.420   3.938  -3.813  1.00  0.00     0.060 A 
ATOM     36  C   UNL     1       1.133   3.868  -3.265  1.00  0.00     0.016 A 
ATOM     37  C   UNL     1       3.223   5.056  -3.580  1.00  0.00     0.016 A 
ATOM     38  C   UNL     1       0.624   4.938  -2.526  1.00  0.00     0.010 A 
ATOM     39  C   UNL     1       2.705   6.136  -2.849  1.00  0.00     0.010 A 
ATOM     40  C   UNL     1       1.388   6.100  -2.352  1.00  0.00    -0.014 A 
BRANCH  40  41
ATOM     41  C   UNL     1       0.749   7.324  -1.800  1.00  0.00     0.031 A 
ATOM     42  C   UNL     1       0.237   8.379  -2.745  1.00  0.00     0.074 A 
ATOM     43  C   UNL     1       0.558   7.487  -0.479  1.00  0.00     0.049 A 
ATOM     44  N   UNL     1      -0.336   9.527  -2.477  1.00  0.00    -0.248 NA
ATOM     45  C   UNL     1       0.371   8.094  -4.181  1.00  0.00     0.031 C 
ATOM     46  C   UNL     1       0.913   6.516   0.551  1.00  0.00     0.029 A 
ATOM     47  N   UNL     1       0.011   8.538   0.219  1.00  0.00    -0.354 N 
ATOM     48  C   UNL     1      -0.653  10.087  -3.706  1.00  0.00     0.074 A 
ATOM     49  C   UNL     1      -0.166   9.178  -4.723  1.00  0.00     0.031 C 
ATOM     50  C   UNL     1       0.594   7.030   1.751  1.00  0.00     0.029 A 
ATOM     51  C   UNL     1       0.066   8.379   1.580  1.00  0.00     0.049 A 
ATOM     52  H   UNL     1      -0.382   9.329  -0.217  1.00  0.00     0.167 HD
ATOM     53  C   UNL     1      -1.310  11.242  -3.968  1.00  0.00     0.037 A 
ATOM     54  C   UNL     1      -0.239   9.226   2.582  1.00  0.00     0.037 A 
ATOM     55  C   UNL     1      -1.792  12.162  -2.970  1.00  0.00     0.049 A 
ATOM     56  C   UNL     1      -0.833  10.572   2.267  1.00  0.00     0.074 A 
ATOM     57  C   UNL     1      -2.475  13.354  -3.154  1.00  0.00     0.029 A 
ATOM     58  N   UNL     1      -1.637  12.000  -1.603  1.00  0.00    -0.354 N 
ATOM     59  N   UNL     1      -1.133  11.089   1.103  1.00  0.00    -0.248 NA
ATOM     60  C   UNL     1      -1.148  11.443   3.409  1.00  0.00     0.031 C 
ATOM     61  C   UNL     1      -2.692  13.935  -1.900  1.00  0.00     0.029 A 
ATOM     62  C   UNL     1      -2.187  13.083  -0.932  1.00  0.00     0.049 A 
ATOM     63  H   UNL     1      -1.201  11.230  -1.171  1.00  0.00     0.167 HD
ATOM     64  C   UNL     1      -1.708  12.324   1.371  1.00  0.00     0.074 A 
ATOM     65  C   UNL     1      -1.716  12.479   2.810  1.00  0.00     0.031 C 
ATOM     66  C   UNL     1      -2.196  13.239   0.499  1.00  0.00     0.037 A 
BRANCH  53  67
ATOM     67  C   UNL     1      -1.547  11.587  -5.407  1.00  0.00     0.064 A 
ATOM     68  C   UNL     1      -2.515  10.914  -6.169  1.00  0.00     0.173 A 
ATOM     69  C   UNL     1      -0.840  12.634  -6.014  1.00  0.00     0.173 A 
ATOM     70  F   UNL     1      -3.207   9.897  -5.635  1.00  0.00    -0.203 F 
ATOM     71  C   UNL     1      -2.756  11.271  -7.493  1.00  0.00     0.198 A 
ATOM     72  C   UNL     1      -1.100  13.003  -7.331  1.00  0.00     0.198 A 
ATOM     73  F   UNL     1       0.093  13.309  -5.325  1.00  0.00    -0.203 F 
ATOM     74  F   UNL     1      -3.662  10.595  -8.213  1.00  0.00    -0.200 F 
ATOM     75  C   UNL     1      -2.054  12.319  -8.070  1.00  0.00     0.200 A 
ATOM     76  F   UNL     1      -0.430  14.023  -7.884  1.00  0.00    -0.200 F 
ATOM     77  F   UNL     1      -2.296  12.669  -9.341  1.00  0.00    -0.200 F 
ENDBRANCH  53  67
BRANCH  54  78
ATOM     78  C   UNL     1       0.059   8.850   3.988  1.00  0.00     0.064 A 
ATOM     79  C   UNL     1      -0.962   8.597   4.913  1.00  0.00     0.173 A 
ATOM     80  C   UNL     1       1.385   8.786   4.444  1.00  0.00     0.173 A 
ATOM     81  F   UNL     1      -2.245   8.678   4.532  1.00  0.00    -0.203 F 
ATOM     82  C   UNL     1      -0.668   8.318   6.247  1.00  0.00     0.198 A 
ATOM     83  C   UNL     1       1.677   8.481   5.771  1.00  0.00     0.198 A 
ATOM     84  F   UNL     1       2.400   9.027   3.600  1.00  0.00    -0.203 F 
ATOM     85  F   UNL     1      -1.664   8.137   7.125  1.00  0.00    -0.200 F 
ATOM     86  C   UNL     1       0.650   8.257   6.674  1.00  0.00     0.200 A 
ATOM     87  F   UNL     1       2.954   8.420   6.174  1.00  0.00    -0.200 F 
ATOM     88  F   UNL     1       0.931   8.001   7.959  1.00  0.00    -0.200 F 
ENDBRANCH  54  78
BRANCH  66  89
ATOM     89  C   UNL     1      -2.821  14.475   1.078  1.00  0.00     0.064 A 
ATOM     90  C   UNL     1      -2.050  15.477   1.687  1.00  0.00     0.173 A 
ATOM     91  C   UNL     1      -4.210  14.663   1.017  1.00  0.00     0.173 A 
ATOM     92  F   UNL     1      -0.719  15.337   1.787  1.00  0.00    -0.203 F 
ATOM     93  C   UNL     1      -2.650  16.605   2.241  1.00  0.00     0.198 A 
ATOM     94  C   UNL     1      -4.804  15.805   1.547  1.00  0.00     0.198 A 
ATOM     95  F   UNL     1      -4.993  13.738   0.443  1.00  0.00    -0.203 F 
ATOM     96  F   UNL     1      -1.899  17.521   2.868  1.00  0.00    -0.200 F 
ATOM     97  C   UNL     1      -4.025  16.770   2.167  1.00  0.00     0.200 A 
ATOM     98  F   UNL     1      -6.132  15.968   1.466  1.00  0.00    -0.200 F 
ATOM     99  F   UNL     1      -4.601  17.855   2.704  1.00  0.00    -0.200 F 
ENDBRANCH  66  89
ENDBRANCH  40  41
ENDBRANCH  33  35
ENDBRANCH  32  33
ENDBRANCH  31  32
ENDBRANCH  30  31
ENDBRANCH  29  30
ENDBRANCH  28  29
ENDBRANCH   1  28
TORSDOF 21
