REMARK SMILES C[C@@H](CCCO)Nc1ccc(Cl)cc1C(=O)OCCOCCOCCOC(=O)c1ccc(-c2c3nc(c(-c4c(F)c(F)c(F)c(F)c4F)c4ccc([nH]4)c(-c4c(F)c(F)c(F)c(F)c4F)c4nc(c(-c5c(F)c(F)c(F)c(F)c5F)c5ccc2[nH]5)C=C4)C=C3)cc1
REMARK SMILES IDX 19 1 18 2 17 3 15 4 16 5 14 6 8 7 9 8 10 9 13 10 11 11 12 12
REMARK SMILES IDX 7 13 2 15 1 16 3 17 4 18 5 19 6 20 20 22 21 23 22 24 23 25
REMARK SMILES IDX 24 26 25 27 26 28 27 29 28 30 29 31 30 32 91 33 31 34 90 35
REMARK SMILES IDX 32 36 33 37 34 38 84 39 35 40 89 41 83 42 85 43 36 44 88 45
REMARK SMILES IDX 82 46 81 47 37 49 69 50 49 51 68 52 50 53 53 54 67 55 86 56
REMARK SMILES IDX 51 57 52 58 66 60 87 61 54 62 38 63 39 64 47 65 40 66 41 67
REMARK SMILES IDX 45 68 48 69 42 70 43 71 46 72 44 73 70 74 71 75 79 76 72 77
REMARK SMILES IDX 73 78 77 79 80 80 74 81 75 82 78 83 76 84 55 85 56 86 64 87
REMARK SMILES IDX 57 88 58 89 62 90 65 91 59 92 60 93 63 94 61 95
REMARK H PARENT 7 14 6 21 85 48 53 59
REMARK Flexibility Score: inf
ROOT
ATOM      1  C   UNL     1      -3.724  -0.885   2.374  1.00  0.00     0.202 C 
ENDROOT
BRANCH   1   2
ATOM      2  C   UNL     1      -3.788  -1.097   0.852  1.00  0.00     0.261 C 
BRANCH   2   3
ATOM      3  O   UNL     1      -3.087  -0.106   0.076  1.00  0.00    -0.460 OA
BRANCH   3   4
ATOM      4  C   UNL     1      -3.861   0.683  -0.715  1.00  0.00     0.340 C 
ATOM      5  O   UNL     1      -5.066   0.566  -0.877  1.00  0.00    -0.246 OA
BRANCH   4   6
ATOM      6  C   UNL     1      -3.108   1.865  -1.236  1.00  0.00     0.084 A 
ATOM      7  C   UNL     1      -1.733   1.865  -1.583  1.00  0.00     0.049 A 
ATOM      8  C   UNL     1      -1.227   3.033  -2.178  1.00  0.00     0.028 A 
ATOM      9  C   UNL     1      -1.987   4.204  -2.265  1.00  0.00     0.022 A 
ATOM     10  C   UNL     1      -3.864   3.050  -1.311  1.00  0.00     0.038 A 
ATOM     11  C   UNL     1      -3.290   4.218  -1.791  1.00  0.00     0.042 A 
ATOM     12  Cl  UNL     1      -4.189   5.682  -1.783  1.00  0.00    -0.084 Cl
BRANCH   7  13
ATOM     13  N   UNL     1      -0.934   0.750  -1.374  1.00  0.00    -0.382 N 
ATOM     14  H   UNL     1      -1.396  -0.090  -1.149  1.00  0.00     0.160 HD
BRANCH  13  15
ATOM     15  C   UNL     1       0.526   0.694  -1.454  1.00  0.00     0.076 C 
ATOM     16  C   UNL     1       1.094   0.157  -0.139  1.00  0.00     0.031 C 
BRANCH  15  17
ATOM     17  C   UNL     1       0.966  -0.141  -2.664  1.00  0.00     0.027 C 
BRANCH  17  18
ATOM     18  C   UNL     1       0.554  -1.621  -2.680  1.00  0.00     0.030 C 
BRANCH  18  19
ATOM     19  C   UNL     1      -0.942  -1.910  -2.762  1.00  0.00     0.156 C 
BRANCH  19  20
ATOM     20  O   UNL     1      -1.582  -1.071  -3.710  1.00  0.00    -0.396 OA
ATOM     21  H   UNL     1      -1.474  -0.144  -3.446  1.00  0.00     0.210 HD
ENDBRANCH  19  20
ENDBRANCH  18  19
ENDBRANCH  17  18
ENDBRANCH  15  17
ENDBRANCH  13  15
ENDBRANCH   7  13
ENDBRANCH   4   6
ENDBRANCH   3   4
ENDBRANCH   2   3
ENDBRANCH   1   2
BRANCH   1  22
ATOM     22  O   UNL     1      -4.084   0.381   2.916  1.00  0.00    -0.376 OA
BRANCH  22  23
ATOM     23  C   UNL     1      -3.473   1.565   2.418  1.00  0.00     0.188 C 
BRANCH  23  24
ATOM     24  C   UNL     1      -1.953   1.594   2.153  1.00  0.00     0.188 C 
BRANCH  24  25
ATOM     25  O   UNL     1      -1.299   0.381   2.457  1.00  0.00    -0.376 OA
BRANCH  25  26
ATOM     26  C   UNL     1      -0.434   0.380   3.580  1.00  0.00     0.202 C 
BRANCH  26  27
ATOM     27  C   UNL     1      -0.960   0.852   4.949  1.00  0.00     0.261 C 
BRANCH  27  28
ATOM     28  O   UNL     1      -1.830   1.996   4.965  1.00  0.00    -0.460 OA
BRANCH  28  29
ATOM     29  C   UNL     1      -1.268   3.220   4.882  1.00  0.00     0.338 C 
ATOM     30  O   UNL     1      -0.078   3.477   4.754  1.00  0.00    -0.246 OA
BRANCH  29  31
ATOM     31  C   UNL     1      -2.357   4.215   4.781  1.00  0.00     0.060 A 
ATOM     32  C   UNL     1      -2.508   4.954   3.599  1.00  0.00     0.016 A 
ATOM     33  C   UNL     1      -3.236   4.410   5.849  1.00  0.00     0.016 A 
ATOM     34  C   UNL     1      -3.527   5.904   3.490  1.00  0.00     0.010 A 
ATOM     35  C   UNL     1      -4.242   5.376   5.746  1.00  0.00     0.010 A 
ATOM     36  C   UNL     1      -4.378   6.147   4.577  1.00  0.00    -0.014 A 
BRANCH  36  37
ATOM     37  C   UNL     1      -5.304   7.308   4.561  1.00  0.00     0.031 A 
ATOM     38  C   UNL     1      -4.899   8.563   5.285  1.00  0.00     0.074 A 
ATOM     39  C   UNL     1      -6.489   7.253   3.928  1.00  0.00     0.049 A 
ATOM     40  N   UNL     1      -5.568   9.671   5.475  1.00  0.00    -0.248 NA
ATOM     41  C   UNL     1      -3.555   8.560   5.883  1.00  0.00     0.031 C 
ATOM     42  C   UNL     1      -6.986   6.110   3.167  1.00  0.00     0.029 A 
ATOM     43  N   UNL     1      -7.498   8.181   3.844  1.00  0.00    -0.354 N 
ATOM     44  C   UNL     1      -4.734  10.491   6.225  1.00  0.00     0.074 A 
ATOM     45  C   UNL     1      -3.523   9.741   6.481  1.00  0.00     0.031 C 
ATOM     46  C   UNL     1      -8.217   6.396   2.708  1.00  0.00     0.029 A 
ATOM     47  C   UNL     1      -8.607   7.727   3.173  1.00  0.00     0.049 A 
ATOM     48  H   UNL     1      -7.432   9.086   4.227  1.00  0.00     0.167 HD
ATOM     49  C   UNL     1      -4.957  11.755   6.658  1.00  0.00     0.037 A 
ATOM     50  C   UNL     1      -9.809   8.308   2.984  1.00  0.00     0.037 A 
ATOM     51  C   UNL     1      -6.165  12.496   6.404  1.00  0.00     0.049 A 
ATOM     52  C   UNL     1     -10.059   9.692   3.529  1.00  0.00     0.074 A 
ATOM     53  C   UNL     1      -6.471  13.796   6.767  1.00  0.00     0.029 A 
ATOM     54  N   UNL     1      -7.274  11.996   5.736  1.00  0.00    -0.354 N 
ATOM     55  N   UNL     1      -9.254  10.478   4.202  1.00  0.00    -0.248 NA
ATOM     56  C   UNL     1     -11.388  10.273   3.282  1.00  0.00     0.031 C 
ATOM     57  C   UNL     1      -7.790  14.059   6.381  1.00  0.00     0.029 A 
ATOM     58  C   UNL     1      -8.280  12.950   5.710  1.00  0.00     0.049 A 
ATOM     59  H   UNL     1      -7.337  11.098   5.339  1.00  0.00     0.167 HD
ATOM     60  C   UNL     1      -9.963  11.651   4.433  1.00  0.00     0.074 A 
ATOM     61  C   UNL     1     -11.261  11.479   3.817  1.00  0.00     0.031 C 
ATOM     62  C   UNL     1      -9.571  12.770   5.092  1.00  0.00     0.037 A 
BRANCH  49  63
ATOM     63  C   UNL     1      -3.885  12.401   7.489  1.00  0.00     0.064 A 
ATOM     64  C   UNL     1      -2.644  12.769   6.947  1.00  0.00     0.173 A 
ATOM     65  C   UNL     1      -4.113  12.674   8.847  1.00  0.00     0.173 A 
ATOM     66  F   UNL     1      -2.368  12.519   5.658  1.00  0.00    -0.203 F 
ATOM     67  C   UNL     1      -1.659  13.352   7.742  1.00  0.00     0.198 A 
ATOM     68  C   UNL     1      -3.140  13.290   9.629  1.00  0.00     0.198 A 
ATOM     69  F   UNL     1      -5.284  12.349   9.416  1.00  0.00    -0.203 F 
ATOM     70  F   UNL     1      -0.460  13.639   7.217  1.00  0.00    -0.200 F 
ATOM     71  C   UNL     1      -1.910  13.618   9.079  1.00  0.00     0.200 A 
ATOM     72  F   UNL     1      -3.390  13.559  10.918  1.00  0.00    -0.200 F 
ATOM     73  F   UNL     1      -0.964  14.183   9.841  1.00  0.00    -0.200 F 
ENDBRANCH  49  63
BRANCH  50  74
ATOM     74  C   UNL     1     -10.877   7.573   2.255  1.00  0.00     0.064 A 
ATOM     75  C   UNL     1     -11.322   7.997   0.995  1.00  0.00     0.173 A 
ATOM     76  C   UNL     1     -11.482   6.435   2.810  1.00  0.00     0.173 A 
ATOM     77  F   UNL     1     -10.798   9.098   0.436  1.00  0.00    -0.203 F 
ATOM     78  C   UNL     1     -12.338   7.319   0.324  1.00  0.00     0.198 A 
ATOM     79  C   UNL     1     -12.476   5.740   2.125  1.00  0.00     0.198 A 
ATOM     80  F   UNL     1     -11.100   5.992   4.017  1.00  0.00    -0.203 F 
ATOM     81  F   UNL     1     -12.776   7.773  -0.858  1.00  0.00    -0.200 F 
ATOM     82  C   UNL     1     -12.908   6.186   0.885  1.00  0.00     0.200 A 
ATOM     83  F   UNL     1     -13.018   4.641   2.667  1.00  0.00    -0.200 F 
ATOM     84  F   UNL     1     -13.881   5.531   0.237  1.00  0.00    -0.200 F 
ENDBRANCH  50  74
BRANCH  62  85
ATOM     85  C   UNL     1     -10.540  13.919   5.151  1.00  0.00     0.064 A 
ATOM     86  C   UNL     1     -11.710  13.865   5.923  1.00  0.00     0.173 A 
ATOM     87  C   UNL     1     -10.267  15.111   4.461  1.00  0.00     0.173 A 
ATOM     88  F   UNL     1     -12.026  12.746   6.593  1.00  0.00    -0.203 F 
ATOM     89  C   UNL     1     -12.583  14.949   5.979  1.00  0.00     0.198 A 
ATOM     90  C   UNL     1     -11.123  16.205   4.548  1.00  0.00     0.198 A 
ATOM     91  F   UNL     1      -9.157  15.223   3.716  1.00  0.00    -0.203 F 
ATOM     92  F   UNL     1     -13.720  14.855   6.682  1.00  0.00    -0.200 F 
ATOM     93  C   UNL     1     -12.285  16.120   5.299  1.00  0.00     0.200 A 
ATOM     94  F   UNL     1     -10.823  17.342   3.905  1.00  0.00    -0.200 F 
ATOM     95  F   UNL     1     -13.121  17.166   5.363  1.00  0.00    -0.200 F 
ENDBRANCH  62  85
ENDBRANCH  36  37
ENDBRANCH  29  31
ENDBRANCH  28  29
ENDBRANCH  27  28
ENDBRANCH  26  27
ENDBRANCH  25  26
ENDBRANCH  24  25
ENDBRANCH  23  24
ENDBRANCH  22  23
ENDBRANCH   1  22
TORSDOF 23
