REMARK SMILES C[C@H](C[N@H+]1[C@@H]2CC[C@H]1C[C@H](CC(=O)OCCOCCOCCOC(=O)c1ccc(-c3c4nc(c(-c5c(F)c(F)c(F)c(F)c5F)c5ccc([nH]5)c(-c5c(F)c(F)c(F)c(F)c5F)c5nc(c(-c6c(F)c(F)c(F)c(F)c6F)c6ccc3[nH]6)C=C5)C=C4)cc1)C2)c1ccccc1
REMARK SMILES IDX 18 1 17 2 16 3 15 4 14 5 12 6 13 7 11 8 10 9 4 10 5 11 8 12
REMARK SMILES IDX 6 14 89 15 7 16 9 17 3 18 2 19 1 20 90 21 91 22 95 23 92 24
REMARK SMILES IDX 94 25 93 26 19 27 20 28 21 29 22 30 23 31 24 32 25 33 26 34
REMARK SMILES IDX 27 35 88 36 28 37 87 38 29 39 30 40 31 41 81 42 32 43 86 44
REMARK SMILES IDX 80 45 82 46 33 47 85 48 79 49 78 50 34 52 66 53 46 54 65 55
REMARK SMILES IDX 47 56 50 57 64 58 83 59 48 60 49 61 63 63 84 64 51 65 35 66
REMARK SMILES IDX 36 67 44 68 37 69 38 70 42 71 45 72 39 73 40 74 43 75 41 76
REMARK SMILES IDX 67 77 68 78 76 79 69 80 70 81 74 82 77 83 71 84 72 85 75 86
REMARK SMILES IDX 73 87 52 88 53 89 61 90 54 91 55 92 59 93 62 94 56 95 57 96
REMARK SMILES IDX 60 97 58 98
REMARK H PARENT 4 13 82 51 50 62
REMARK Flexibility Score: inf
ROOT
ATOM      1  C   UNL     1       2.447  -7.668  -0.357  1.00  0.00     0.188 C 
ENDROOT
BRANCH   1   2
ATOM      2  O   UNL     1       3.806  -8.074  -0.477  1.00  0.00    -0.376 OA
BRANCH   2   3
ATOM      3  C   UNL     1       4.799  -7.161   0.006  1.00  0.00     0.202 C 
BRANCH   3   4
ATOM      4  C   UNL     1       4.792  -5.751  -0.607  1.00  0.00     0.261 C 
BRANCH   4   5
ATOM      5  O   UNL     1       3.580  -5.040  -0.292  1.00  0.00    -0.463 OA
BRANCH   5   6
ATOM      6  C   UNL     1       2.995  -4.392  -1.328  1.00  0.00     0.306 C 
ATOM      7  O   UNL     1       3.524  -4.171  -2.411  1.00  0.00    -0.252 OA
BRANCH   6   8
ATOM      8  C   UNL     1       1.526  -4.136  -1.078  1.00  0.00     0.126 C 
BRANCH   8   9
ATOM      9  C   UNL     1       1.088  -3.479   0.241  1.00  0.00     0.012 C 
ATOM     10  N   UNL     1       0.343  -0.733   0.971  1.00  0.00    -0.330 N 
ATOM     11  C   UNL     1      -0.721  -1.713   0.914  1.00  0.00     0.184 C 
ATOM     12  C   UNL     1       1.432  -1.381   1.686  1.00  0.00     0.184 C 
ATOM     13  H   UNL     1      -0.080   0.076   1.426  1.00  0.00     0.348 HD
ATOM     14  C   UNL     1      -0.776  -2.112   2.392  1.00  0.00     0.071 C 
ATOM     15  C   UNL     1      -0.351  -2.929   0.055  1.00  0.00     0.069 C 
ATOM     16  C   UNL     1       0.676  -2.017   2.865  1.00  0.00     0.071 C 
ATOM     17  C   UNL     1       2.081  -2.426   0.768  1.00  0.00     0.069 C 
BRANCH  10  18
ATOM     18  C   UNL     1       0.671   0.240  -0.062  1.00  0.00     0.270 C 
BRANCH  18  19
ATOM     19  C   UNL     1       0.186   0.231  -1.553  1.00  0.00     0.071 C 
ATOM     20  C   UNL     1       1.081  -0.627  -2.456  1.00  0.00     0.019 C 
BRANCH  19  21
ATOM     21  C   UNL     1      -1.319   0.061  -1.718  1.00  0.00    -0.040 A 
ATOM     22  C   UNL     1      -2.168   1.004  -1.115  1.00  0.00     0.004 A 
ATOM     23  C   UNL     1      -1.914  -1.028  -2.375  1.00  0.00     0.004 A 
ATOM     24  C   UNL     1      -3.548   0.809  -1.073  1.00  0.00     0.000 A 
ATOM     25  C   UNL     1      -3.294  -1.240  -2.309  1.00  0.00     0.000 A 
ATOM     26  C   UNL     1      -4.109  -0.330  -1.644  1.00  0.00     0.000 A 
ENDBRANCH  19  21
ENDBRANCH  18  19
ENDBRANCH  10  18
ENDBRANCH   8   9
ENDBRANCH   6   8
ENDBRANCH   5   6
ENDBRANCH   4   5
ENDBRANCH   3   4
ENDBRANCH   2   3
ENDBRANCH   1   2
BRANCH   1  27
ATOM     27  C   UNL     1       1.924  -7.410   1.064  1.00  0.00     0.188 C 
BRANCH  27  28
ATOM     28  O   UNL     1       2.776  -6.600   1.865  1.00  0.00    -0.376 OA
BRANCH  28  29
ATOM     29  C   UNL     1       2.271  -6.173   3.131  1.00  0.00     0.202 C 
BRANCH  29  30
ATOM     30  C   UNL     1       1.719  -7.287   4.034  1.00  0.00     0.261 C 
BRANCH  30  31
ATOM     31  O   UNL     1       0.538  -7.916   3.499  1.00  0.00    -0.460 OA
BRANCH  31  32
ATOM     32  C   UNL     1      -0.519  -7.110   3.249  1.00  0.00     0.338 C 
ATOM     33  O   UNL     1      -0.675  -5.967   3.646  1.00  0.00    -0.246 OA
BRANCH  32  34
ATOM     34  C   UNL     1      -1.368  -7.754   2.215  1.00  0.00     0.060 A 
ATOM     35  C   UNL     1      -2.057  -6.928   1.318  1.00  0.00     0.016 A 
ATOM     36  C   UNL     1      -1.452  -9.146   2.086  1.00  0.00     0.016 A 
ATOM     37  C   UNL     1      -2.882  -7.487   0.341  1.00  0.00     0.010 A 
ATOM     38  C   UNL     1      -2.272  -9.706   1.103  1.00  0.00     0.010 A 
ATOM     39  C   UNL     1      -3.029  -8.878   0.258  1.00  0.00    -0.014 A 
BRANCH  39  40
ATOM     40  C   UNL     1      -4.134  -9.451  -0.551  1.00  0.00     0.031 A 
ATOM     41  C   UNL     1      -5.407  -9.834   0.155  1.00  0.00     0.074 A 
ATOM     42  C   UNL     1      -4.037  -9.596  -1.885  1.00  0.00     0.049 A 
ATOM     43  N   UNL     1      -6.517 -10.324  -0.334  1.00  0.00    -0.248 NA
ATOM     44  C   UNL     1      -5.428  -9.638   1.614  1.00  0.00     0.031 C 
ATOM     45  C   UNL     1      -2.871  -9.251  -2.693  1.00  0.00     0.029 A 
ATOM     46  N   UNL     1      -4.949 -10.078  -2.793  1.00  0.00    -0.354 N 
ATOM     47  C   UNL     1      -7.366 -10.488   0.752  1.00  0.00     0.074 A 
ATOM     48  C   UNL     1      -6.630 -10.093   1.932  1.00  0.00     0.031 C 
ATOM     49  C   UNL     1      -3.137  -9.535  -3.981  1.00  0.00     0.029 A 
ATOM     50  C   UNL     1      -4.484 -10.098  -4.084  1.00  0.00     0.049 A 
ATOM     51  H   UNL     1      -5.851 -10.380  -2.541  1.00  0.00     0.167 HD
ATOM     52  C   UNL     1      -8.652 -10.911   0.768  1.00  0.00     0.037 A 
ATOM     53  C   UNL     1      -5.076 -10.530  -5.215  1.00  0.00     0.037 A 
ATOM     54  C   UNL     1      -9.391 -11.308  -0.399  1.00  0.00     0.049 A 
ATOM     55  C   UNL     1      -6.490 -11.058  -5.164  1.00  0.00     0.074 A 
ATOM     56  C   UNL     1     -10.705 -11.732  -0.484  1.00  0.00     0.029 A 
ATOM     57  N   UNL     1      -8.875 -11.340  -1.685  1.00  0.00    -0.354 N 
ATOM     58  N   UNL     1      -7.301 -11.161  -4.140  1.00  0.00    -0.248 NA
ATOM     59  C   UNL     1      -7.072 -11.521  -6.434  1.00  0.00     0.031 C 
ATOM     60  C   UNL     1     -10.970 -12.070  -1.815  1.00  0.00     0.029 A 
ATOM     61  C   UNL     1      -9.838 -11.802  -2.568  1.00  0.00     0.049 A 
ATOM     62  H   UNL     1      -7.960 -11.075  -1.935  1.00  0.00     0.167 HD
ATOM     63  C   UNL     1      -8.494 -11.666  -4.644  1.00  0.00     0.074 A 
ATOM     64  C   UNL     1      -8.306 -11.840  -6.069  1.00  0.00     0.031 C 
ATOM     65  C   UNL     1      -9.644 -11.958  -3.986  1.00  0.00     0.037 A 
BRANCH  52  66
ATOM     66  C   UNL     1      -9.337 -10.978   2.100  1.00  0.00     0.064 A 
ATOM     67  C   UNL     1      -9.703  -9.817   2.798  1.00  0.00     0.173 A 
ATOM     68  C   UNL     1      -9.652 -12.218   2.675  1.00  0.00     0.173 A 
ATOM     69  F   UNL     1      -9.407  -8.607   2.299  1.00  0.00    -0.203 F 
ATOM     70  C   UNL     1     -10.336  -9.896   4.035  1.00  0.00     0.198 A 
ATOM     71  C   UNL     1     -10.312 -12.293   3.898  1.00  0.00     0.198 A 
ATOM     72  F   UNL     1      -9.323 -13.357   2.048  1.00  0.00    -0.203 F 
ATOM     73  F   UNL     1     -10.631  -8.775   4.707  1.00  0.00    -0.200 F 
ATOM     74  C   UNL     1     -10.646 -11.133   4.580  1.00  0.00     0.200 A 
ATOM     75  F   UNL     1     -10.620 -13.488   4.419  1.00  0.00    -0.200 F 
ATOM     76  F   UNL     1     -11.261 -11.207   5.769  1.00  0.00    -0.200 F 
ENDBRANCH  52  66
BRANCH  53  77
ATOM     77  C   UNL     1      -4.339 -10.484  -6.506  1.00  0.00     0.064 A 
ATOM     78  C   UNL     1      -4.729  -9.614  -7.533  1.00  0.00     0.173 A 
ATOM     79  C   UNL     1      -3.253 -11.337  -6.750  1.00  0.00     0.173 A 
ATOM     80  F   UNL     1      -5.781  -8.800  -7.358  1.00  0.00    -0.203 F 
ATOM     81  C   UNL     1      -4.074  -9.613  -8.763  1.00  0.00     0.198 A 
ATOM     82  C   UNL     1      -2.580 -11.315  -7.971  1.00  0.00     0.198 A 
ATOM     83  F   UNL     1      -2.844 -12.193  -5.802  1.00  0.00    -0.203 F 
ATOM     84  F   UNL     1      -4.501  -8.808  -9.746  1.00  0.00    -0.200 F 
ATOM     85  C   UNL     1      -2.997 -10.459  -8.979  1.00  0.00     0.200 A 
ATOM     86  F   UNL     1      -1.536 -12.130  -8.172  1.00  0.00    -0.200 F 
ATOM     87  F   UNL     1      -2.369 -10.460 -10.163  1.00  0.00    -0.200 F 
ENDBRANCH  53  77
BRANCH  65  88
ATOM     88  C   UNL     1     -10.807 -12.455  -4.797  1.00  0.00     0.064 A 
ATOM     89  C   UNL     1     -10.823 -13.741  -5.355  1.00  0.00     0.173 A 
ATOM     90  C   UNL     1     -11.945 -11.651  -4.970  1.00  0.00     0.173 A 
ATOM     91  F   UNL     1      -9.756 -14.545  -5.229  1.00  0.00    -0.203 F 
ATOM     92  C   UNL     1     -11.925 -14.196  -6.075  1.00  0.00     0.198 A 
ATOM     93  C   UNL     1     -13.057 -12.120  -5.664  1.00  0.00     0.198 A 
ATOM     94  F   UNL     1     -11.986 -10.416  -4.448  1.00  0.00    -0.203 F 
ATOM     95  F   UNL     1     -11.901 -15.413  -6.636  1.00  0.00    -0.200 F 
ATOM     96  C   UNL     1     -13.044 -13.389  -6.222  1.00  0.00     0.200 A 
ATOM     97  F   UNL     1     -14.143 -11.345  -5.790  1.00  0.00    -0.200 F 
ATOM     98  F   UNL     1     -14.108 -13.833  -6.905  1.00  0.00    -0.200 F 
ENDBRANCH  65  88
ENDBRANCH  39  40
ENDBRANCH  32  34
ENDBRANCH  31  32
ENDBRANCH  30  31
ENDBRANCH  29  30
ENDBRANCH  28  29
ENDBRANCH  27  28
ENDBRANCH   1  27
TORSDOF 21
