REMARK SMILES O=C(C[C@@H]1CSCC[NH2+]1)NC[C@H]1CC[C@@H](C(=O)OCCOCCOCCOC(=O)c2ccc(-c3c4nc(c(-c5c(F)c(F)c(F)c(F)c5F)c5ccc([nH]5)c(-c5c(F)c(F)c(F)c(F)c5F)c5nc(c(-c6c(F)c(F)c(F)c(F)c6F)c6ccc3[nH]6)C=C5)C=C4)cc2)O1
REMARK SMILES IDX 22 1 21 2 20 3 19 4 18 5 16 6 17 7 15 8 12 9 13 10 93 11
REMARK SMILES IDX 14 12 11 13 10 14 1 15 2 16 3 18 4 19 5 20 9 21 6 22 8 23
REMARK SMILES IDX 7 26 23 27 24 28 25 29 26 30 27 31 28 32 29 33 30 34 31 35
REMARK SMILES IDX 92 36 32 37 91 38 33 39 34 40 35 41 85 42 36 43 90 44 84 45
REMARK SMILES IDX 86 46 37 47 89 48 83 49 82 50 38 52 70 53 50 54 69 55 51 56
REMARK SMILES IDX 54 57 68 58 87 59 52 60 53 61 67 63 88 64 55 65 39 66 40 67
REMARK SMILES IDX 48 68 41 69 42 70 46 71 49 72 43 73 44 74 47 75 45 76 71 77
REMARK SMILES IDX 72 78 80 79 73 80 74 81 78 82 81 83 75 84 76 85 79 86 77 87
REMARK SMILES IDX 56 88 57 89 65 90 58 91 59 92 63 93 66 94 60 95 61 96 64 97
REMARK SMILES IDX 62 98
REMARK H PARENT 10 17 9 24 9 25 86 51 54 62
REMARK Flexibility Score: inf
ROOT
ATOM      1  C   UNL     1       0.049  -4.026  -7.019  1.00  0.00     0.188 C 
ENDROOT
BRANCH   1   2
ATOM      2  O   UNL     1       0.444  -4.359  -8.344  1.00  0.00    -0.376 OA
BRANCH   2   3
ATOM      3  C   UNL     1       1.826  -4.418  -8.677  1.00  0.00     0.202 C 
BRANCH   3   4
ATOM      4  C   UNL     1       2.765  -3.261  -8.297  1.00  0.00     0.261 C 
BRANCH   4   5
ATOM      5  O   UNL     1       2.587  -2.783  -6.959  1.00  0.00    -0.461 OA
BRANCH   5   6
ATOM      6  C   UNL     1       2.258  -1.471  -6.808  1.00  0.00     0.335 C 
ATOM      7  O   UNL     1       2.258  -0.633  -7.701  1.00  0.00    -0.249 OA
BRANCH   6   8
ATOM      8  C   UNL     1       1.770  -1.180  -5.380  1.00  0.00     0.228 C 
ATOM      9  C   UNL     1       2.742  -1.682  -3.301  1.00  0.00     0.138 C 
ATOM     10  C   UNL     1       2.497  -0.182  -3.354  1.00  0.00     0.037 C 
ATOM     11  O   UNL     1       2.045  -2.205  -4.424  1.00  0.00    -0.361 OA
ATOM     12  C   UNL     1       2.363   0.102  -4.830  1.00  0.00     0.047 C 
BRANCH   9  13
ATOM     13  C   UNL     1       4.216  -2.113  -3.376  1.00  0.00     0.147 C 
BRANCH  13  14
ATOM     14  N   UNL     1       4.903  -1.716  -2.169  1.00  0.00    -0.353 N 
ATOM     15  O   UNL     1       5.898  -3.702  -1.607  1.00  0.00    -0.275 OA
ATOM     16  C   UNL     1       5.634  -2.534  -1.349  1.00  0.00     0.226 C 
ATOM     17  H   UNL     1       4.840  -0.767  -1.912  1.00  0.00     0.163 HD
BRANCH  16  18
ATOM     18  C   UNL     1       5.979  -1.887  -0.017  1.00  0.00     0.165 C 
BRANCH  18  19
ATOM     19  C   UNL     1       6.827  -0.596  -0.083  1.00  0.00     0.201 C 
ATOM     20  C   UNL     1       7.158  -0.083   1.339  1.00  0.00     0.135 C 
ATOM     21  N   UNL     1       6.312   0.513  -0.913  1.00  0.00    -0.342 N 
ATOM     22  S   UNL     1       5.721   0.629   2.220  1.00  0.00    -0.150 SA
ATOM     23  C   UNL     1       5.068   1.119  -0.433  1.00  0.00     0.271 C 
ATOM     24  H   UNL     1       6.147   0.155  -1.853  1.00  0.00     0.346 HD
ATOM     25  H   UNL     1       7.019   1.248  -0.877  1.00  0.00     0.346 HD
ATOM     26  C   UNL     1       5.196   1.801   0.928  1.00  0.00     0.131 C 
ENDBRANCH  18  19
ENDBRANCH  16  18
ENDBRANCH  13  14
ENDBRANCH   9  13
ENDBRANCH   6   8
ENDBRANCH   5   6
ENDBRANCH   4   5
ENDBRANCH   3   4
ENDBRANCH   2   3
ENDBRANCH   1   2
BRANCH   1  27
ATOM     27  C   UNL     1       0.693  -4.732  -5.809  1.00  0.00     0.188 C 
BRANCH  27  28
ATOM     28  O   UNL     1       1.770  -5.577  -6.105  1.00  0.00    -0.376 OA
BRANCH  28  29
ATOM     29  C   UNL     1       1.545  -6.968  -6.234  1.00  0.00     0.202 C 
BRANCH  29  30
ATOM     30  C   UNL     1       0.166  -7.632  -6.450  1.00  0.00     0.261 C 
BRANCH  30  31
ATOM     31  O   UNL     1      -1.009  -6.809  -6.453  1.00  0.00    -0.460 OA
BRANCH  31  32
ATOM     32  C   UNL     1      -1.754  -6.804  -5.321  1.00  0.00     0.338 C 
ATOM     33  O   UNL     1      -1.529  -7.405  -4.279  1.00  0.00    -0.246 OA
BRANCH  32  34
ATOM     34  C   UNL     1      -2.824  -5.796  -5.466  1.00  0.00     0.060 A 
ATOM     35  C   UNL     1      -2.754  -4.600  -4.736  1.00  0.00     0.016 A 
ATOM     36  C   UNL     1      -3.898  -6.037  -6.321  1.00  0.00     0.016 A 
ATOM     37  C   UNL     1      -3.754  -3.632  -4.873  1.00  0.00     0.010 A 
ATOM     38  C   UNL     1      -4.912  -5.081  -6.434  1.00  0.00     0.010 A 
ATOM     39  C   UNL     1      -4.853  -3.877  -5.706  1.00  0.00    -0.014 A 
BRANCH  39  40
ATOM     40  C   UNL     1      -6.013  -2.950  -5.744  1.00  0.00     0.031 A 
ATOM     41  C   UNL     1      -7.236  -3.291  -4.940  1.00  0.00     0.074 A 
ATOM     42  C   UNL     1      -6.005  -1.858  -6.530  1.00  0.00     0.049 A 
ATOM     43  N   UNL     1      -8.423  -2.742  -4.959  1.00  0.00    -0.248 NA
ATOM     44  C   UNL     1      -7.103  -4.410  -3.993  1.00  0.00     0.031 C 
ATOM     45  C   UNL     1      -4.870  -1.395  -7.324  1.00  0.00     0.029 A 
ATOM     46  N   UNL     1      -7.006  -0.959  -6.816  1.00  0.00    -0.354 N 
ATOM     47  C   UNL     1      -9.187  -3.465  -4.052  1.00  0.00     0.074 A 
ATOM     48  C   UNL     1      -8.331  -4.492  -3.499  1.00  0.00     0.031 C 
ATOM     49  C   UNL     1      -5.249  -0.320  -8.040  1.00  0.00     0.029 A 
ATOM     50  C   UNL     1      -6.665  -0.051  -7.790  1.00  0.00     0.049 A 
ATOM     51  H   UNL     1      -7.882  -0.965  -6.367  1.00  0.00     0.167 HD
ATOM     52  C   UNL     1     -10.487  -3.290  -3.720  1.00  0.00     0.037 A 
ATOM     53  C   UNL     1      -7.422   0.855  -8.442  1.00  0.00     0.037 A 
ATOM     54  C   UNL     1     -11.332  -2.259  -4.263  1.00  0.00     0.049 A 
ATOM     55  C   UNL     1      -8.889   0.978  -8.102  1.00  0.00     0.074 A 
ATOM     56  C   UNL     1     -12.646  -1.967  -3.942  1.00  0.00     0.029 A 
ATOM     57  N   UNL     1     -10.953  -1.363  -5.249  1.00  0.00    -0.354 N 
ATOM     58  N   UNL     1      -9.593   0.326  -7.208  1.00  0.00    -0.248 NA
ATOM     59  C   UNL     1      -9.670   1.962  -8.868  1.00  0.00     0.031 C 
ATOM     60  C   UNL     1     -13.085  -0.943  -4.785  1.00  0.00     0.029 A 
ATOM     61  C   UNL     1     -12.023  -0.548  -5.581  1.00  0.00     0.049 A 
ATOM     62  H   UNL     1     -10.056  -1.313  -5.654  1.00  0.00     0.167 HD
ATOM     63  C   UNL     1     -10.883   0.840  -7.284  1.00  0.00     0.074 A 
ATOM     64  C   UNL     1     -10.862   1.873  -8.297  1.00  0.00     0.031 C 
ATOM     65  C   UNL     1     -11.987   0.487  -6.582  1.00  0.00     0.037 A 
BRANCH  52  66
ATOM     66  C   UNL     1     -11.105  -4.255  -2.752  1.00  0.00     0.064 A 
ATOM     67  C   UNL     1     -10.803  -4.230  -1.384  1.00  0.00     0.173 A 
ATOM     68  C   UNL     1     -12.084  -5.160  -3.194  1.00  0.00     0.173 A 
ATOM     69  F   UNL     1      -9.867  -3.392  -0.913  1.00  0.00    -0.203 F 
ATOM     70  C   UNL     1     -11.451  -5.083  -0.493  1.00  0.00     0.198 A 
ATOM     71  C   UNL     1     -12.750  -5.989  -2.297  1.00  0.00     0.198 A 
ATOM     72  F   UNL     1     -12.412  -5.219  -4.493  1.00  0.00    -0.203 F 
ATOM     73  F   UNL     1     -11.129  -5.062   0.807  1.00  0.00    -0.200 F 
ATOM     74  C   UNL     1     -12.432  -5.952  -0.949  1.00  0.00     0.200 A 
ATOM     75  F   UNL     1     -13.708  -6.816  -2.738  1.00  0.00    -0.200 F 
ATOM     76  F   UNL     1     -13.072  -6.755  -0.087  1.00  0.00    -0.200 F 
ENDBRANCH  52  66
BRANCH  53  77
ATOM     77  C   UNL     1      -6.838   1.687  -9.530  1.00  0.00     0.064 A 
ATOM     78  C   UNL     1      -6.759   3.083  -9.414  1.00  0.00     0.173 A 
ATOM     79  C   UNL     1      -6.415   1.113 -10.739  1.00  0.00     0.173 A 
ATOM     80  F   UNL     1      -7.180   3.685  -8.292  1.00  0.00    -0.203 F 
ATOM     81  C   UNL     1      -6.317   3.872 -10.475  1.00  0.00     0.198 A 
ATOM     82  C   UNL     1      -5.937   1.900 -11.785  1.00  0.00     0.198 A 
ATOM     83  F   UNL     1      -6.474  -0.216 -10.909  1.00  0.00    -0.203 F 
ATOM     84  F   UNL     1      -6.326   5.207 -10.361  1.00  0.00    -0.200 F 
ATOM     85  C   UNL     1      -5.903   3.280 -11.658  1.00  0.00     0.200 A 
ATOM     86  F   UNL     1      -5.528   1.323 -12.923  1.00  0.00    -0.200 F 
ATOM     87  F   UNL     1      -5.487   4.040 -12.680  1.00  0.00    -0.200 F 
ENDBRANCH  53  77
BRANCH  65  88
ATOM     88  C   UNL     1     -13.257   1.246  -6.848  1.00  0.00     0.064 A 
ATOM     89  C   UNL     1     -13.971   1.096  -8.046  1.00  0.00     0.173 A 
ATOM     90  C   UNL     1     -13.794   2.095  -5.867  1.00  0.00     0.173 A 
ATOM     91  F   UNL     1     -13.495   0.308  -9.021  1.00  0.00    -0.203 F 
ATOM     92  C   UNL     1     -15.161   1.787  -8.262  1.00  0.00     0.198 A 
ATOM     93  C   UNL     1     -15.002   2.757  -6.073  1.00  0.00     0.198 A 
ATOM     94  F   UNL     1     -13.158   2.268  -4.699  1.00  0.00    -0.203 F 
ATOM     95  F   UNL     1     -15.799   1.667  -9.434  1.00  0.00    -0.200 F 
ATOM     96  C   UNL     1     -15.680   2.609  -7.273  1.00  0.00     0.200 A 
ATOM     97  F   UNL     1     -15.511   3.535  -5.108  1.00  0.00    -0.200 F 
ATOM     98  F   UNL     1     -16.831   3.263  -7.478  1.00  0.00    -0.200 F 
ENDBRANCH  65  88
ENDBRANCH  39  40
ENDBRANCH  32  34
ENDBRANCH  31  32
ENDBRANCH  30  31
ENDBRANCH  29  30
ENDBRANCH  28  29
ENDBRANCH  27  28
ENDBRANCH   1  27
TORSDOF 21
