REMARK SMILES Cc1ccc(C(=O)NC2CC2)cc1NC(=O)[C@@H]1[C@@H](C(=O)OCCOCCOCCOC(=O)c2ccc(-c3c4nc(c(-c5c(F)c(F)c(F)c(F)c5F)c5ccc([nH]5)c(-c5c(F)c(F)c(F)c(F)c5F)c5nc(c(-c6c(F)c(F)c(F)c(F)c6F)c6ccc3[nH]6)C=C5)C=C4)cc2)[C@H]2C=C[C@@H]1C2
REMARK SMILES IDX 25 1 24 2 23 3 22 4 21 5 19 6 20 7 18 8 17 9 99 10 96 11
REMARK SMILES IDX 98 12 100 13 97 14 15 15 14 16 16 18 13 19 1 20 2 21 3 22
REMARK SMILES IDX 4 23 12 24 5 25 6 26 7 27 8 28 9 30 10 31 11 32 26 33 27 34
REMARK SMILES IDX 28 35 29 36 30 37 31 38 32 39 33 40 34 41 95 42 35 43 94 44
REMARK SMILES IDX 36 45 37 46 38 47 88 48 39 49 93 50 87 51 89 52 40 53 92 54
REMARK SMILES IDX 86 55 85 56 41 58 73 59 53 60 72 61 54 62 57 63 71 64 90 65
REMARK SMILES IDX 55 66 56 67 70 69 91 70 58 71 42 72 43 73 51 74 44 75 45 76
REMARK SMILES IDX 49 77 52 78 46 79 47 80 50 81 48 82 74 83 75 84 83 85 76 86
REMARK SMILES IDX 77 87 81 88 84 89 78 90 79 91 82 92 80 93 59 94 60 95 68 96
REMARK SMILES IDX 61 97 62 98 66 99 69 100 63 101 64 102 67 103 65 104
REMARK H PARENT 14 17 8 29 89 57 57 68
REMARK Flexibility Score: inf
ROOT
ATOM      1  C   UNL     1      -0.999   6.696  -5.324  1.00  0.00     0.188 C 
ENDROOT
BRANCH   1   2
ATOM      2  O   UNL     1      -2.342   7.115  -5.475  1.00  0.00    -0.376 OA
BRANCH   2   3
ATOM      3  C   UNL     1      -3.190   6.610  -4.450  1.00  0.00     0.202 C 
BRANCH   3   4
ATOM      4  C   UNL     1      -2.684   6.710  -2.984  1.00  0.00     0.261 C 
BRANCH   4   5
ATOM      5  O   UNL     1      -1.789   5.538  -2.421  1.00  0.00    -0.463 OA
BRANCH   5   6
ATOM      6  C   UNL     1      -1.252   4.639  -1.547  1.00  0.00     0.310 C 
ATOM      7  O   UNL     1      -0.775   3.674  -2.167  1.00  0.00    -0.252 OA
BRANCH   6   8
ATOM      8  C   UNL     1      -1.045   4.557   0.042  1.00  0.00     0.119 C 
ATOM      9  C   UNL     1      -0.534   3.113   0.471  1.00  0.00     0.100 C 
ATOM     10  C   UNL     1      -0.576   3.100   2.036  1.00  0.00     0.025 C 
ATOM     11  C   UNL     1      -1.814   4.857   1.420  1.00  0.00     0.027 C 
ATOM     12  C   UNL     1      -1.977   2.816   2.484  1.00  0.00    -0.027 C 
ATOM     13  C   UNL     1      -0.620   4.583   2.381  1.00  0.00     0.017 C 
ATOM     14  C   UNL     1      -2.725   3.834   2.048  1.00  0.00    -0.027 C 
BRANCH   9  15
ATOM     15  C   UNL     1       0.848   2.777  -0.008  1.00  0.00     0.228 C 
ATOM     16  N   UNL     1       1.259   1.487  -0.174  1.00  0.00    -0.326 N 
ATOM     17  H   UNL     1       2.207   1.431  -0.434  1.00  0.00     0.169 HD
ATOM     18  O   UNL     1       1.688   3.672  -0.144  1.00  0.00    -0.274 OA
BRANCH  16  19
ATOM     19  C   UNL     1       0.659   0.209  -0.064  1.00  0.00     0.044 A 
ATOM     20  C   UNL     1       3.004  -0.829   0.177  1.00  0.00     0.046 C 
ATOM     21  C   UNL     1       1.499  -0.902   0.152  1.00  0.00    -0.027 A 
ATOM     22  C   UNL     1       0.933  -2.182   0.303  1.00  0.00     0.006 A 
ATOM     23  C   UNL     1      -0.446  -2.373   0.274  1.00  0.00     0.014 A 
ATOM     24  C   UNL     1      -0.718  -0.036  -0.195  1.00  0.00     0.040 A 
ATOM     25  C   UNL     1      -1.296  -1.297   0.032  1.00  0.00     0.041 A 
BRANCH  25  26
ATOM     26  C   UNL     1      -2.763  -1.604  -0.021  1.00  0.00     0.251 C 
ATOM     27  O   UNL     1      -3.133  -2.740  -0.319  1.00  0.00    -0.269 OA
ATOM     28  N   UNL     1      -3.725  -0.677   0.313  1.00  0.00    -0.349 N 
ATOM     29  H   UNL     1      -4.650  -1.014   0.337  1.00  0.00     0.164 HD
BRANCH  28  30
ATOM     30  C   UNL     1      -3.564   0.694   0.625  1.00  0.00     0.082 C 
ATOM     31  C   UNL     1      -3.710   1.651  -0.510  1.00  0.00     0.027 C 
ATOM     32  C   UNL     1      -4.698   1.677   0.585  1.00  0.00     0.027 C 
ENDBRANCH  28  30
ENDBRANCH  25  26
ENDBRANCH  16  19
ENDBRANCH   9  15
ENDBRANCH   6   8
ENDBRANCH   5   6
ENDBRANCH   4   5
ENDBRANCH   3   4
ENDBRANCH   2   3
ENDBRANCH   1   2
BRANCH   1  33
ATOM     33  C   UNL     1      -0.140   7.773  -4.654  1.00  0.00     0.188 C 
BRANCH  33  34
ATOM     34  O   UNL     1      -0.855   8.630  -3.781  1.00  0.00    -0.376 OA
BRANCH  34  35
ATOM     35  C   UNL     1      -1.478   9.779  -4.350  1.00  0.00     0.202 C 
BRANCH  35  36
ATOM     36  C   UNL     1      -0.624  10.985  -3.959  1.00  0.00     0.261 C 
BRANCH  36  37
ATOM     37  O   UNL     1      -0.798  11.246  -2.547  1.00  0.00    -0.460 OA
BRANCH  37  38
ATOM     38  C   UNL     1      -0.151  10.371  -1.741  1.00  0.00     0.338 C 
ATOM     39  O   UNL     1       1.045  10.094  -1.805  1.00  0.00    -0.246 OA
BRANCH  38  40
ATOM     40  C   UNL     1      -1.155   9.592  -0.955  1.00  0.00     0.060 A 
ATOM     41  C   UNL     1      -0.710   8.450  -0.346  1.00  0.00     0.016 A 
ATOM     42  C   UNL     1      -2.542   9.794  -0.998  1.00  0.00     0.016 A 
ATOM     43  C   UNL     1      -1.646   7.475   0.027  1.00  0.00     0.010 A 
ATOM     44  C   UNL     1      -3.459   8.747  -0.676  1.00  0.00     0.010 A 
ATOM     45  C   UNL     1      -3.024   7.472  -0.271  1.00  0.00    -0.014 A 
BRANCH  45  46
ATOM     46  C   UNL     1      -4.067   6.281  -0.258  1.00  0.00     0.031 A 
ATOM     47  C   UNL     1      -4.935   6.162   0.957  1.00  0.00     0.074 A 
ATOM     48  C   UNL     1      -4.491   5.306  -1.178  1.00  0.00     0.049 A 
ATOM     49  N   UNL     1      -5.784   5.193   1.148  1.00  0.00    -0.248 NA
ATOM     50  C   UNL     1      -4.824   7.050   2.111  1.00  0.00     0.031 C 
ATOM     51  C   UNL     1      -5.938   5.182  -1.480  1.00  0.00     0.029 A 
ATOM     52  N   UNL     1      -4.002   4.494  -2.230  1.00  0.00    -0.354 N 
ATOM     53  C   UNL     1      -6.602   5.609   2.151  1.00  0.00     0.074 A 
ATOM     54  C   UNL     1      -5.787   6.542   2.891  1.00  0.00     0.031 C 
ATOM     55  C   UNL     1      -6.163   4.267  -2.432  1.00  0.00     0.029 A 
ATOM     56  C   UNL     1      -4.921   3.646  -2.833  1.00  0.00     0.049 A 
ATOM     57  H   UNL     1      -3.062   4.528  -2.518  1.00  0.00     0.167 HD
ATOM     58  C   UNL     1      -7.940   5.359   2.076  1.00  0.00     0.037 A 
ATOM     59  C   UNL     1      -4.755   2.469  -3.523  1.00  0.00     0.037 A 
ATOM     60  C   UNL     1      -8.327   4.416   1.002  1.00  0.00     0.049 A 
ATOM     61  C   UNL     1      -5.809   1.451  -3.058  1.00  0.00     0.074 A 
ATOM     62  C   UNL     1      -9.113   4.545  -0.133  1.00  0.00     0.029 A 
ATOM     63  N   UNL     1      -7.798   3.126   0.937  1.00  0.00    -0.354 N 
ATOM     64  N   UNL     1      -6.880   1.798  -2.393  1.00  0.00    -0.248 NA
ATOM     65  C   UNL     1      -5.654  -0.008  -3.065  1.00  0.00     0.031 C 
ATOM     66  C   UNL     1      -9.079   3.320  -0.856  1.00  0.00     0.029 A 
ATOM     67  C   UNL     1      -8.286   2.420  -0.167  1.00  0.00     0.049 A 
ATOM     68  H   UNL     1      -7.158   2.758   1.588  1.00  0.00     0.167 HD
ATOM     69  C   UNL     1      -7.272   0.757  -1.589  1.00  0.00     0.074 A 
ATOM     70  C   UNL     1      -6.602  -0.388  -2.183  1.00  0.00     0.031 C 
ATOM     71  C   UNL     1      -7.933   1.001  -0.403  1.00  0.00     0.037 A 
BRANCH  58  72
ATOM     72  C   UNL     1      -8.975   6.171   2.846  1.00  0.00     0.064 A 
ATOM     73  C   UNL     1     -10.321   5.749   2.872  1.00  0.00     0.173 A 
ATOM     74  C   UNL     1      -8.744   7.409   3.493  1.00  0.00     0.173 A 
ATOM     75  F   UNL     1     -10.700   4.610   2.276  1.00  0.00    -0.203 F 
ATOM     76  C   UNL     1     -11.331   6.490   3.498  1.00  0.00     0.198 A 
ATOM     77  C   UNL     1      -9.735   8.105   4.187  1.00  0.00     0.198 A 
ATOM     78  F   UNL     1      -7.578   8.057   3.423  1.00  0.00    -0.203 F 
ATOM     79  F   UNL     1     -12.602   6.074   3.428  1.00  0.00    -0.200 F 
ATOM     80  C   UNL     1     -11.033   7.654   4.178  1.00  0.00     0.200 A 
ATOM     81  F   UNL     1      -9.417   9.238   4.831  1.00  0.00    -0.200 F 
ATOM     82  F   UNL     1     -11.993   8.354   4.795  1.00  0.00    -0.200 F 
ENDBRANCH  58  72
BRANCH  59  83
ATOM     83  C   UNL     1      -3.402   2.170  -4.132  1.00  0.00     0.064 A 
ATOM     84  C   UNL     1      -3.023   2.929  -5.256  1.00  0.00     0.173 A 
ATOM     85  C   UNL     1      -2.381   1.359  -3.604  1.00  0.00     0.173 A 
ATOM     86  F   UNL     1      -3.958   3.607  -5.939  1.00  0.00    -0.203 F 
ATOM     87  C   UNL     1      -1.692   3.031  -5.685  1.00  0.00     0.198 A 
ATOM     88  C   UNL     1      -1.039   1.487  -4.003  1.00  0.00     0.198 A 
ATOM     89  F   UNL     1      -2.647   0.409  -2.703  1.00  0.00    -0.203 F 
ATOM     90  F   UNL     1      -1.381   3.819  -6.725  1.00  0.00    -0.200 F 
ATOM     91  C   UNL     1      -0.688   2.362  -5.013  1.00  0.00     0.200 A 
ATOM     92  F   UNL     1      -0.083   0.795  -3.364  1.00  0.00    -0.200 F 
ATOM     93  F   UNL     1       0.598   2.554  -5.341  1.00  0.00    -0.200 F 
ENDBRANCH  59  83
BRANCH  71  94
ATOM     94  C   UNL     1      -8.240  -0.006   0.707  1.00  0.00     0.064 A 
ATOM     95  C   UNL     1      -7.590  -1.236   0.915  1.00  0.00     0.173 A 
ATOM     96  C   UNL     1      -9.190   0.329   1.709  1.00  0.00     0.173 A 
ATOM     97  F   UNL     1      -6.553  -1.616   0.161  1.00  0.00    -0.203 F 
ATOM     98  C   UNL     1      -7.925  -2.094   1.974  1.00  0.00     0.198 A 
ATOM     99  C   UNL     1      -9.464  -0.489   2.806  1.00  0.00     0.198 A 
ATOM    100  F   UNL     1      -9.870   1.484   1.669  1.00  0.00    -0.203 F 
ATOM    101  F   UNL     1      -7.313  -3.281   2.087  1.00  0.00    -0.200 F 
ATOM    102  C   UNL     1      -8.854  -1.716   2.924  1.00  0.00     0.200 A 
ATOM    103  F   UNL     1     -10.311  -0.066   3.755  1.00  0.00    -0.200 F 
ATOM    104  F   UNL     1      -9.139  -2.518   3.959  1.00  0.00    -0.200 F 
ENDBRANCH  71  94
ENDBRANCH  45  46
ENDBRANCH  38  40
ENDBRANCH  37  38
ENDBRANCH  36  37
ENDBRANCH  35  36
ENDBRANCH  34  35
ENDBRANCH  33  34
ENDBRANCH   1  33
TORSDOF 21
