REMARK SMILES O=C(OCCOCCOCCOC(=O)[C@@H]1C=C[C@H](NC(=O)N2CCO[C@@H]3CCC[C@@H]32)C1)c1ccc(-c2c3nc(c(-c4c(F)c(F)c(F)c(F)c4F)c4ccc([nH]4)c(-c4c(F)c(F)c(F)c(F)c4F)c4nc(c(-c5c(F)c(F)c(F)c(F)c5F)c5ccc2[nH]5)C=C4)C=C3)cc1
REMARK SMILES IDX 7 1 6 2 5 3 4 4 3 5 2 6 1 7 32 8 33 9 94 10 34 11 93 12
REMARK SMILES IDX 35 13 36 14 37 15 87 16 38 17 92 18 86 19 88 20 39 21 91 22
REMARK SMILES IDX 85 23 84 24 40 26 72 27 52 28 71 29 53 30 56 31 70 32 89 33
REMARK SMILES IDX 54 34 55 35 69 37 90 38 57 39 41 40 42 41 50 42 43 43 44 44
REMARK SMILES IDX 48 45 51 46 45 47 46 48 49 49 47 50 73 51 74 52 82 53 75 54
REMARK SMILES IDX 76 55 80 56 83 57 77 58 78 59 81 60 79 61 58 62 59 63 67 64
REMARK SMILES IDX 60 65 61 66 65 67 68 68 62 69 63 70 66 71 64 72 8 73 9 74
REMARK SMILES IDX 10 75 11 76 12 77 13 78 14 79 15 80 16 81 31 82 17 83 18 84
REMARK SMILES IDX 19 85 20 86 21 88 22 89 23 90 30 91 24 92 26 93 29 94 25 95
REMARK SMILES IDX 27 96 28 97
REMARK H PARENT 88 25 56 36 19 87
REMARK Flexibility Score: inf
ROOT
ATOM      1  C   UNL     1      -0.890   5.784   0.487  1.00  0.00     0.188 C 
ENDROOT
BRANCH   1   2
ATOM      2  O   UNL     1      -0.862   5.981   1.909  1.00  0.00    -0.376 OA
BRANCH   2   3
ATOM      3  C   UNL     1      -1.924   6.815   2.388  1.00  0.00     0.202 C 
BRANCH   3   4
ATOM      4  C   UNL     1      -1.800   8.314   2.079  1.00  0.00     0.261 C 
BRANCH   4   5
ATOM      5  O   UNL     1      -1.033   8.608   0.904  1.00  0.00    -0.460 OA
BRANCH   5   6
ATOM      6  C   UNL     1       0.303   8.753   0.752  1.00  0.00     0.338 C 
ATOM      7  O   UNL     1       0.718   9.021  -0.376  1.00  0.00    -0.246 OA
BRANCH   6   8
ATOM      8  C   UNL     1       1.328   8.594   1.840  1.00  0.00     0.060 A 
ATOM      9  C   UNL     1       1.122   8.076   3.121  1.00  0.00     0.016 A 
ATOM     10  C   UNL     1       2.641   8.991   1.507  1.00  0.00     0.016 A 
ATOM     11  C   UNL     1       2.163   8.007   4.055  1.00  0.00     0.010 A 
ATOM     12  C   UNL     1       3.688   8.927   2.431  1.00  0.00     0.010 A 
ATOM     13  C   UNL     1       3.440   8.467   3.724  1.00  0.00    -0.014 A 
BRANCH  13  14
ATOM     14  C   UNL     1       4.427   8.679   4.808  1.00  0.00     0.031 A 
ATOM     15  C   UNL     1       4.279   9.942   5.600  1.00  0.00     0.074 A 
ATOM     16  C   UNL     1       5.395   7.776   5.056  1.00  0.00     0.049 A 
ATOM     17  N   UNL     1       4.839  10.290   6.724  1.00  0.00    -0.248 NA
ATOM     18  C   UNL     1       3.384  10.969   5.032  1.00  0.00     0.031 C 
ATOM     19  C   UNL     1       5.606   6.579   4.253  1.00  0.00     0.029 A 
ATOM     20  N   UNL     1       6.336   7.672   6.057  1.00  0.00    -0.354 N 
ATOM     21  C   UNL     1       4.444  11.604   6.944  1.00  0.00     0.074 A 
ATOM     22  C   UNL     1       3.534  11.969   5.886  1.00  0.00     0.031 C 
ATOM     23  C   UNL     1       6.520   5.800   4.855  1.00  0.00     0.029 A 
ATOM     24  C   UNL     1       6.981   6.441   6.088  1.00  0.00     0.049 A 
ATOM     25  H   UNL     1       6.532   8.400   6.691  1.00  0.00     0.167 HD
ATOM     26  C   UNL     1       4.880  12.441   7.912  1.00  0.00     0.037 A 
ATOM     27  C   UNL     1       7.729   5.887   7.080  1.00  0.00     0.037 A 
ATOM     28  C   UNL     1       5.790  12.019   8.940  1.00  0.00     0.049 A 
ATOM     29  C   UNL     1       7.957   6.787   8.293  1.00  0.00     0.074 A 
ATOM     30  C   UNL     1       6.371  12.759   9.950  1.00  0.00     0.029 A 
ATOM     31  N   UNL     1       6.251  10.715   9.073  1.00  0.00    -0.354 N 
ATOM     32  N   UNL     1       7.373   7.922   8.616  1.00  0.00    -0.248 NA
ATOM     33  C   UNL     1       8.918   6.314   9.299  1.00  0.00     0.031 C 
ATOM     34  C   UNL     1       7.230  11.912  10.660  1.00  0.00     0.029 A 
ATOM     35  C   UNL     1       7.140  10.635  10.126  1.00  0.00     0.049 A 
ATOM     36  H   UNL     1       5.984   9.960   8.500  1.00  0.00     0.167 HD
ATOM     37  C   UNL     1       7.875   8.265   9.866  1.00  0.00     0.074 A 
ATOM     38  C   UNL     1       8.659   7.131  10.309  1.00  0.00     0.031 C 
ATOM     39  C   UNL     1       7.811   9.435  10.554  1.00  0.00     0.037 A 
BRANCH  26  40
ATOM     40  C   UNL     1       4.511  13.890   7.793  1.00  0.00     0.064 A 
ATOM     41  C   UNL     1       3.212  14.369   8.015  1.00  0.00     0.173 A 
ATOM     42  C   UNL     1       5.491  14.818   7.402  1.00  0.00     0.173 A 
ATOM     43  F   UNL     1       2.229  13.522   8.354  1.00  0.00    -0.203 F 
ATOM     44  C   UNL     1       2.904  15.716   7.827  1.00  0.00     0.198 A 
ATOM     45  C   UNL     1       5.186  16.166   7.242  1.00  0.00     0.198 A 
ATOM     46  F   UNL     1       6.746  14.412   7.158  1.00  0.00    -0.203 F 
ATOM     47  F   UNL     1       1.643  16.142   7.985  1.00  0.00    -0.200 F 
ATOM     48  C   UNL     1       3.891  16.614   7.446  1.00  0.00     0.200 A 
ATOM     49  F   UNL     1       6.144  17.029   6.875  1.00  0.00    -0.200 F 
ATOM     50  F   UNL     1       3.591  17.906   7.260  1.00  0.00    -0.200 F 
ENDBRANCH  26  40
BRANCH  27  51
ATOM     51  C   UNL     1       8.113   4.410   7.114  1.00  0.00     0.064 A 
ATOM     52  C   UNL     1       7.961   3.636   8.288  1.00  0.00     0.173 A 
ATOM     53  C   UNL     1       8.561   3.683   5.999  1.00  0.00     0.173 A 
ATOM     54  F   UNL     1       7.491   4.193   9.413  1.00  0.00    -0.203 F 
ATOM     55  C   UNL     1       8.186   2.254   8.336  1.00  0.00     0.198 A 
ATOM     56  C   UNL     1       8.687   2.285   6.015  1.00  0.00     0.198 A 
ATOM     57  F   UNL     1       8.872   4.313   4.857  1.00  0.00    -0.203 F 
ATOM     58  F   UNL     1       8.021   1.594   9.491  1.00  0.00    -0.200 F 
ATOM     59  C   UNL     1       8.498   1.570   7.184  1.00  0.00     0.200 A 
ATOM     60  F   UNL     1       8.970   1.631   4.880  1.00  0.00    -0.200 F 
ATOM     61  F   UNL     1       8.603   0.234   7.195  1.00  0.00    -0.200 F 
ENDBRANCH  27  51
BRANCH  39  62
ATOM     62  C   UNL     1       8.622   9.523  11.820  1.00  0.00     0.064 A 
ATOM     63  C   UNL     1      10.024   9.433  11.781  1.00  0.00     0.173 A 
ATOM     64  C   UNL     1       8.015   9.755  13.062  1.00  0.00     0.173 A 
ATOM     65  F   UNL     1      10.658   9.231  10.615  1.00  0.00    -0.203 F 
ATOM     66  C   UNL     1      10.781   9.496  12.944  1.00  0.00     0.198 A 
ATOM     67  C   UNL     1       8.782   9.872  14.219  1.00  0.00     0.198 A 
ATOM     68  F   UNL     1       6.683   9.886  13.153  1.00  0.00    -0.203 F 
ATOM     69  F   UNL     1      12.108   9.320  12.885  1.00  0.00    -0.200 F 
ATOM     70  C   UNL     1      10.160   9.724  14.161  1.00  0.00     0.200 A 
ATOM     71  F   UNL     1       8.187  10.126  15.392  1.00  0.00    -0.200 F 
ATOM     72  F   UNL     1      10.892   9.798  15.281  1.00  0.00    -0.200 F 
ENDBRANCH  39  62
ENDBRANCH  13  14
ENDBRANCH   6   8
ENDBRANCH   5   6
ENDBRANCH   4   5
ENDBRANCH   3   4
ENDBRANCH   2   3
ENDBRANCH   1   2
BRANCH   1  73
ATOM     73  C   UNL     1      -0.692   4.329   0.062  1.00  0.00     0.188 C 
BRANCH  73  74
ATOM     74  O   UNL     1      -1.731   3.398   0.354  1.00  0.00    -0.376 OA
BRANCH  74  75
ATOM     75  C   UNL     1      -2.265   3.368   1.670  1.00  0.00     0.202 C 
BRANCH  75  76
ATOM     76  C   UNL     1      -1.375   2.851   2.808  1.00  0.00     0.261 C 
BRANCH  76  77
ATOM     77  O   UNL     1      -0.010   3.270   2.717  1.00  0.00    -0.463 OA
BRANCH  77  78
ATOM     78  C   UNL     1       0.833   2.353   2.172  1.00  0.00     0.312 C 
ATOM     79  O   UNL     1       0.498   1.231   1.792  1.00  0.00    -0.252 OA
BRANCH  78  80
ATOM     80  C   UNL     1       2.259   2.878   2.031  1.00  0.00     0.124 C 
ATOM     81  C   UNL     1       3.125   1.909   2.768  1.00  0.00    -0.014 C 
ATOM     82  C   UNL     1       2.611   4.197   2.737  1.00  0.00     0.048 C 
ATOM     83  C   UNL     1       3.461   2.392   3.967  1.00  0.00    -0.006 C 
ATOM     84  C   UNL     1       2.985   3.799   4.178  1.00  0.00     0.107 C 
BRANCH  84  85
ATOM     85  N   UNL     1       1.815   3.862   5.034  1.00  0.00    -0.332 N 
ATOM     86  C   UNL     1       1.524   3.465   6.286  1.00  0.00     0.318 C 
ATOM     87  H   UNL     1       1.052   4.300   4.593  1.00  0.00     0.165 HD
ATOM     88  O   UNL     1       0.336   3.493   6.616  1.00  0.00    -0.249 OA
BRANCH  86  89
ATOM     89  N   UNL     1       2.484   2.970   7.116  1.00  0.00    -0.317 N 
ATOM     90  C   UNL     1       2.191   1.670   7.718  1.00  0.00     0.150 C 
ATOM     91  C   UNL     1       3.866   3.420   7.176  1.00  0.00     0.116 C 
ATOM     92  C   UNL     1       2.969   1.367   8.994  1.00  0.00     0.182 C 
ATOM     93  C   UNL     1       4.607   2.964   8.438  1.00  0.00     0.141 C 
ATOM     94  C   UNL     1       4.032   4.932   7.264  1.00  0.00     0.028 C 
ATOM     95  O   UNL     1       4.362   1.628   8.840  1.00  0.00    -0.374 OA
ATOM     96  C   UNL     1       4.359   4.031   9.502  1.00  0.00     0.034 C 
ATOM     97  C   UNL     1       4.006   5.301   8.738  1.00  0.00     0.005 C 
ENDBRANCH  86  89
ENDBRANCH  84  85
ENDBRANCH  78  80
ENDBRANCH  77  78
ENDBRANCH  76  77
ENDBRANCH  75  76
ENDBRANCH  74  75
ENDBRANCH  73  74
ENDBRANCH   1  73
TORSDOF 19
