REMARK SMILES C[C@H]1CC[C@H]([NH2+]Cc2c(C(=O)OCCOCCOCCOC(=O)c3ccc(-c4c5nc(c(-c6c(F)c(F)c(F)c(F)c6F)c6ccc([nH]6)c(-c6c(F)c(F)c(F)c(F)c6F)c6nc(c(-c7c(F)c(F)c(F)c(F)c7F)c7ccc4[nH]7)C=C6)C=C5)cc3)n(Cc3ccccc3F)c3ccccc23)CC1
REMARK SMILES IDX 16 1 15 2 14 3 13 4 12 5 10 6 11 7 9 8 8 9 101 10 87 11
REMARK SMILES IDX 96 12 100 13 97 14 99 15 98 16 7 17 6 18 5 21 1 22 2 23 3 24
REMARK SMILES IDX 103 25 4 26 102 27 88 28 89 29 90 30 94 31 91 32 93 33 95 34
REMARK SMILES IDX 92 35 17 36 18 37 19 38 20 39 21 40 22 41 23 42 24 43 25 44
REMARK SMILES IDX 86 45 26 46 85 47 27 48 28 49 29 50 79 51 30 52 84 53 78 54
REMARK SMILES IDX 80 55 31 56 83 57 77 58 76 59 32 61 64 62 44 63 63 64 45 65
REMARK SMILES IDX 48 66 62 67 81 68 46 69 47 70 61 72 82 73 49 74 33 75 34 76
REMARK SMILES IDX 42 77 35 78 36 79 40 80 43 81 37 82 38 83 41 84 39 85 65 86
REMARK SMILES IDX 66 87 74 88 67 89 68 90 72 91 75 92 69 93 70 94 73 95 71 96
REMARK SMILES IDX 50 97 51 98 59 99 52 100 53 101 57 102 60 103 54 104 55 105
REMARK SMILES IDX 58 106 56 107
REMARK H PARENT 6 19 6 20 80 60 48 71
REMARK Flexibility Score: inf
ROOT
ATOM      1  C   UNL     1      -1.647  -0.114   4.317  1.00  0.00     0.188 C 
ENDROOT
BRANCH   1   2
ATOM      2  O   UNL     1      -1.677   1.252   3.960  1.00  0.00    -0.376 OA
BRANCH   2   3
ATOM      3  C   UNL     1      -1.116   1.450   2.704  1.00  0.00     0.202 C 
BRANCH   3   4
ATOM      4  C   UNL     1      -2.112   1.158   1.602  1.00  0.00     0.261 C 
BRANCH   4   5
ATOM      5  O   UNL     1      -3.148   0.147   1.626  1.00  0.00    -0.459 OA
BRANCH   5   6
ATOM      6  C   UNL     1      -2.763  -1.153   1.482  1.00  0.00     0.355 C 
ATOM      7  O   UNL     1      -1.677  -1.550   1.850  1.00  0.00    -0.244 OA
BRANCH   6   8
ATOM      8  C   UNL     1      -3.764  -1.986   0.837  1.00  0.00     0.137 A 
ATOM      9  C   UNL     1      -4.422  -1.747  -0.378  1.00  0.00     0.047 A 
ATOM     10  C   UNL     1      -5.297  -2.889  -0.582  1.00  0.00     0.009 A 
ATOM     11  N   UNL     1      -4.073  -3.312   1.222  1.00  0.00    -0.330 N 
ATOM     12  C   UNL     1      -4.893  -3.900   0.286  1.00  0.00     0.050 A 
ATOM     13  C   UNL     1      -6.295  -3.211  -1.529  1.00  0.00     0.011 A 
ATOM     14  C   UNL     1      -5.272  -5.243   0.091  1.00  0.00     0.027 A 
ATOM     15  C   UNL     1      -6.777  -4.526  -1.633  1.00  0.00     0.001 A 
ATOM     16  C   UNL     1      -6.221  -5.544  -0.875  1.00  0.00     0.002 A 
BRANCH   9  17
ATOM     17  C   UNL     1      -4.271  -0.645  -1.435  1.00  0.00     0.300 C 
BRANCH  17  18
ATOM     18  N   UNL     1      -3.372   0.476  -1.165  1.00  0.00    -0.340 N 
ATOM     19  H   UNL     1      -3.878   1.319  -1.438  1.00  0.00     0.346 HD
ATOM     20  H   UNL     1      -3.140   0.329  -0.182  1.00  0.00     0.346 HD
BRANCH  18  21
ATOM     21  C   UNL     1      -2.029   0.582  -1.785  1.00  0.00     0.182 C 
ATOM     22  C   UNL     1       2.364   0.900  -0.768  1.00  0.00     0.007 C 
ATOM     23  C   UNL     1       0.836   0.779  -0.775  1.00  0.00    -0.014 C 
ATOM     24  C   UNL     1       0.374  -0.401  -1.619  1.00  0.00     0.009 C 
ATOM     25  C   UNL     1       0.163   2.042  -1.313  1.00  0.00     0.009 C 
ATOM     26  C   UNL     1      -1.128  -0.618  -1.496  1.00  0.00     0.065 C 
ATOM     27  C   UNL     1      -1.373   1.964  -1.460  1.00  0.00     0.065 C 
ENDBRANCH  18  21
ENDBRANCH  17  18
ENDBRANCH   9  17
BRANCH  11  28
ATOM     28  C   UNL     1      -3.367  -4.087   2.250  1.00  0.00     0.161 C 
BRANCH  28  29
ATOM     29  C   UNL     1      -4.069  -5.118   3.124  1.00  0.00     0.008 A 
ATOM     30  C   UNL     1      -3.852  -6.504   2.923  1.00  0.00     0.008 A 
ATOM     31  C   UNL     1      -4.657  -4.734   4.329  1.00  0.00     0.128 A 
ATOM     32  C   UNL     1      -4.195  -7.450   3.897  1.00  0.00     0.001 A 
ATOM     33  C   UNL     1      -4.956  -5.670   5.325  1.00  0.00     0.039 A 
ATOM     34  F   UNL     1      -4.775  -3.432   4.619  1.00  0.00    -0.207 F 
ATOM     35  C   UNL     1      -4.720  -7.028   5.113  1.00  0.00     0.003 A 
ENDBRANCH  28  29
ENDBRANCH  11  28
ENDBRANCH   6   8
ENDBRANCH   5   6
ENDBRANCH   4   5
ENDBRANCH   3   4
ENDBRANCH   2   3
ENDBRANCH   1   2
BRANCH   1  36
ATOM     36  C   UNL     1      -3.048  -0.655   4.636  1.00  0.00     0.188 C 
BRANCH  36  37
ATOM     37  O   UNL     1      -3.966   0.292   5.162  1.00  0.00    -0.376 OA
BRANCH  37  38
ATOM     38  C   UNL     1      -3.452   1.120   6.201  1.00  0.00     0.202 C 
BRANCH  38  39
ATOM     39  C   UNL     1      -2.809   0.367   7.394  1.00  0.00     0.261 C 
BRANCH  39  40
ATOM     40  O   UNL     1      -1.574  -0.341   7.049  1.00  0.00    -0.460 OA
BRANCH  40  41
ATOM     41  C   UNL     1      -1.437  -1.649   7.411  1.00  0.00     0.338 C 
ATOM     42  O   UNL     1      -2.034  -2.164   8.345  1.00  0.00    -0.246 OA
BRANCH  41  43
ATOM     43  C   UNL     1      -0.786  -2.485   6.311  1.00  0.00     0.060 A 
ATOM     44  C   UNL     1       0.376  -2.222   5.558  1.00  0.00     0.016 A 
ATOM     45  C   UNL     1      -1.553  -3.560   5.888  1.00  0.00     0.016 A 
ATOM     46  C   UNL     1       0.680  -2.947   4.338  1.00  0.00     0.010 A 
ATOM     47  C   UNL     1      -1.243  -4.244   4.700  1.00  0.00     0.010 A 
ATOM     48  C   UNL     1      -0.170  -3.946   3.840  1.00  0.00    -0.014 A 
BRANCH  48  49
ATOM     49  C   UNL     1       0.048  -4.881   2.644  1.00  0.00     0.031 A 
ATOM     50  C   UNL     1       0.432  -6.255   3.055  1.00  0.00     0.074 A 
ATOM     51  C   UNL     1      -0.167  -4.804   1.281  1.00  0.00     0.049 A 
ATOM     52  N   UNL     1       1.576  -6.780   2.770  1.00  0.00    -0.248 NA
ATOM     53  C   UNL     1      -0.441  -7.133   3.842  1.00  0.00     0.031 C 
ATOM     54  C   UNL     1      -0.581  -3.652   0.502  1.00  0.00     0.029 A 
ATOM     55  N   UNL     1      -0.214  -5.796   0.281  1.00  0.00    -0.354 N 
ATOM     56  C   UNL     1       1.492  -8.100   3.160  1.00  0.00     0.074 A 
ATOM     57  C   UNL     1       0.304  -8.232   3.953  1.00  0.00     0.031 C 
ATOM     58  C   UNL     1      -1.160  -4.018  -0.667  1.00  0.00     0.029 A 
ATOM     59  C   UNL     1      -0.893  -5.422  -0.907  1.00  0.00     0.049 A 
ATOM     60  H   UNL     1       0.195  -6.684   0.398  1.00  0.00     0.167 HD
ATOM     61  C   UNL     1       2.275  -9.036   2.575  1.00  0.00     0.037 A 
ATOM     62  C   UNL     1      -1.070  -6.049  -2.118  1.00  0.00     0.037 A 
ATOM     63  C   UNL     1       3.292  -8.443   1.751  1.00  0.00     0.049 A 
ATOM     64  C   UNL     1       0.145  -6.849  -2.316  1.00  0.00     0.074 A 
ATOM     65  C   UNL     1       4.407  -7.672   1.986  1.00  0.00     0.029 A 
ATOM     66  N   UNL     1       2.955  -8.277   0.435  1.00  0.00    -0.354 N 
ATOM     67  N   UNL     1       1.276  -6.319  -2.680  1.00  0.00    -0.248 NA
ATOM     68  C   UNL     1       0.185  -8.272  -2.015  1.00  0.00     0.031 C 
ATOM     69  C   UNL     1       4.610  -6.891   0.814  1.00  0.00     0.029 A 
ATOM     70  C   UNL     1       3.658  -7.242  -0.138  1.00  0.00     0.049 A 
ATOM     71  H   UNL     1       2.293  -8.829  -0.041  1.00  0.00     0.167 HD
ATOM     72  C   UNL     1       2.195  -7.151  -2.107  1.00  0.00     0.074 A 
ATOM     73  C   UNL     1       1.511  -8.433  -1.999  1.00  0.00     0.031 C 
ATOM     74  C   UNL     1       3.202  -6.608  -1.366  1.00  0.00     0.037 A 
BRANCH  61  75
ATOM     75  C   UNL     1       1.889 -10.473   2.461  1.00  0.00     0.064 A 
ATOM     76  C   UNL     1       2.887 -11.447   2.316  1.00  0.00     0.173 A 
ATOM     77  C   UNL     1       0.559 -10.897   2.260  1.00  0.00     0.173 A 
ATOM     78  F   UNL     1       4.180 -11.113   2.430  1.00  0.00    -0.203 F 
ATOM     79  C   UNL     1       2.572 -12.767   1.994  1.00  0.00     0.198 A 
ATOM     80  C   UNL     1       0.243 -12.225   1.992  1.00  0.00     0.198 A 
ATOM     81  F   UNL     1      -0.457 -10.020   2.225  1.00  0.00    -0.203 F 
ATOM     82  F   UNL     1       3.554 -13.653   1.787  1.00  0.00    -0.200 F 
ATOM     83  C   UNL     1       1.251 -13.157   1.843  1.00  0.00     0.200 A 
ATOM     84  F   UNL     1      -1.038 -12.579   1.820  1.00  0.00    -0.200 F 
ATOM     85  F   UNL     1       0.951 -14.419   1.512  1.00  0.00    -0.200 F 
ENDBRANCH  61  75
BRANCH  62  86
ATOM     86  C   UNL     1      -1.956  -5.879  -3.332  1.00  0.00     0.064 A 
ATOM     87  C   UNL     1      -1.653  -6.486  -4.577  1.00  0.00     0.173 A 
ATOM     88  C   UNL     1      -3.255  -5.373  -3.236  1.00  0.00     0.173 A 
ATOM     89  F   UNL     1      -0.428  -6.964  -4.832  1.00  0.00    -0.203 F 
ATOM     90  C   UNL     1      -2.611  -6.681  -5.581  1.00  0.00     0.198 A 
ATOM     91  C   UNL     1      -4.226  -5.584  -4.232  1.00  0.00     0.198 A 
ATOM     92  F   UNL     1      -3.603  -4.691  -2.148  1.00  0.00    -0.203 F 
ATOM     93  F   UNL     1      -2.278  -7.324  -6.710  1.00  0.00    -0.200 F 
ATOM     94  C   UNL     1      -3.911  -6.271  -5.388  1.00  0.00     0.200 A 
ATOM     95  F   UNL     1      -5.485  -5.163  -4.063  1.00  0.00    -0.200 F 
ATOM     96  F   UNL     1      -4.857  -6.548  -6.297  1.00  0.00    -0.200 F 
ENDBRANCH  62  86
BRANCH  74  97
ATOM     97  C   UNL     1       3.710  -5.218  -1.726  1.00  0.00     0.064 A 
ATOM     98  C   UNL     1       2.935  -4.059  -1.945  1.00  0.00     0.173 A 
ATOM     99  C   UNL     1       5.103  -5.041  -1.807  1.00  0.00     0.173 A 
ATOM    100  F   UNL     1       1.602  -4.053  -1.837  1.00  0.00    -0.203 F 
ATOM    101  C   UNL     1       3.523  -2.828  -2.249  1.00  0.00     0.198 A 
ATOM    102  C   UNL     1       5.685  -3.791  -2.015  1.00  0.00     0.198 A 
ATOM    103  F   UNL     1       5.927  -6.091  -1.660  1.00  0.00    -0.203 F 
ATOM    104  F   UNL     1       2.757  -1.769  -2.539  1.00  0.00    -0.200 F 
ATOM    105  C   UNL     1       4.894  -2.685  -2.246  1.00  0.00     0.200 A 
ATOM    106  F   UNL     1       7.018  -3.663  -1.982  1.00  0.00    -0.200 F 
ATOM    107  F   UNL     1       5.447  -1.483  -2.458  1.00  0.00    -0.200 F 
ENDBRANCH  74  97
ENDBRANCH  48  49
ENDBRANCH  41  43
ENDBRANCH  40  41
ENDBRANCH  39  40
ENDBRANCH  38  39
ENDBRANCH  37  38
ENDBRANCH  36  37
ENDBRANCH   1  36
TORSDOF 22
