REMARK SMILES Cc1nc(-c2ccc3c(c2)CCN3S(=O)(=O)c2ccc(F)c(C(=O)OCCOCCOCCOC(=O)c3ccc(-c4c5nc(c(-c6c(F)c(F)c(F)c(F)c6F)c6ccc([nH]6)c(-c6c(F)c(F)c(F)c(F)c6F)c6nc(c(-c7c(F)c(F)c(F)c(F)c7F)c7ccc4[nH]7)C=C6)C=C5)cc3)c2)cs1
REMARK SMILES IDX 29 1 28 2 27 3 26 4 25 5 23 6 24 7 22 8 17 9 18 10 100 11
REMARK SMILES IDX 19 12 20 13 21 14 14 15 15 16 16 17 13 18 5 19 6 20 10 21
REMARK SMILES IDX 7 22 9 23 8 24 11 25 12 26 4 27 1 28 2 29 3 30 102 31 101 32
REMARK SMILES IDX 30 33 31 34 32 35 33 36 34 37 35 38 36 39 37 40 38 41 99 42
REMARK SMILES IDX 39 43 98 44 40 45 41 46 42 47 92 48 43 49 97 50 91 51 93 52
REMARK SMILES IDX 44 53 96 54 90 55 89 56 45 58 77 59 57 60 76 61 58 62 61 63
REMARK SMILES IDX 75 64 94 65 59 66 60 67 74 69 95 70 62 71 46 72 47 73 55 74
REMARK SMILES IDX 48 75 49 76 53 77 56 78 50 79 51 80 54 81 52 82 78 83 79 84
REMARK SMILES IDX 87 85 80 86 81 87 85 88 88 89 82 90 83 91 86 92 84 93 63 94
REMARK SMILES IDX 64 95 72 96 65 97 66 98 70 99 73 100 67 101 68 102 71 103
REMARK SMILES IDX 69 104
REMARK H PARENT 93 57 61 68
REMARK Flexibility Score: inf
ROOT
ATOM      1  C   UNL     1       1.508 -10.983  -3.941  1.00  0.00     0.188 C 
ENDROOT
BRANCH   1   2
ATOM      2  O   UNL     1       0.296 -11.729  -3.921  1.00  0.00    -0.376 OA
BRANCH   2   3
ATOM      3  C   UNL     1      -0.906 -11.136  -4.406  1.00  0.00     0.202 C 
BRANCH   3   4
ATOM      4  C   UNL     1      -1.347  -9.782  -3.837  1.00  0.00     0.261 C 
BRANCH   4   5
ATOM      5  O   UNL     1      -0.353  -8.760  -3.998  1.00  0.00    -0.460 OA
BRANCH   5   6
ATOM      6  C   UNL     1       0.055  -8.138  -2.865  1.00  0.00     0.341 C 
ATOM      7  O   UNL     1      -0.380  -8.281  -1.743  1.00  0.00    -0.246 OA
BRANCH   6   8
ATOM      8  C   UNL     1       1.303  -7.401  -3.145  1.00  0.00     0.097 A 
ATOM      9  C   UNL     1       3.548  -6.818  -2.477  1.00  0.00     0.089 A 
ATOM     10  C   UNL     1       3.703  -6.057  -3.646  1.00  0.00     0.025 A 
ATOM     11  C   UNL     1       2.369  -7.532  -2.238  1.00  0.00     0.041 A 
ATOM     12  C   UNL     1       2.642  -5.944  -4.543  1.00  0.00     0.041 A 
ATOM     13  C   UNL     1       1.440  -6.599  -4.279  1.00  0.00     0.137 A 
ATOM     14  F   UNL     1       0.421  -6.426  -5.132  1.00  0.00    -0.206 F 
BRANCH   9  15
ATOM     15  S   UNL     1       4.823  -6.763  -1.241  1.00  0.00     0.264 S 
ATOM     16  O   UNL     1       5.932  -6.025  -1.812  1.00  0.00    -0.201 OA
ATOM     17  O   UNL     1       5.016  -8.127  -0.789  1.00  0.00    -0.201 OA
BRANCH  15  18
ATOM     18  N   UNL     1       4.202  -5.858   0.067  1.00  0.00    -0.266 N 
ATOM     19  C   UNL     1       2.063  -2.224   0.109  1.00  0.00     0.001 A 
ATOM     20  C   UNL     1       1.713  -3.182  -0.850  1.00  0.00     0.012 A 
ATOM     21  C   UNL     1       3.124  -2.485   0.986  1.00  0.00     0.016 A 
ATOM     22  C   UNL     1       2.402  -4.386  -0.944  1.00  0.00     0.028 A 
ATOM     23  C   UNL     1       3.805  -3.700   0.868  1.00  0.00    -0.021 A 
ATOM     24  C   UNL     1       3.483  -4.629  -0.121  1.00  0.00     0.055 A 
ATOM     25  C   UNL     1       4.807  -4.270   1.822  1.00  0.00     0.060 C 
ATOM     26  C   UNL     1       5.258  -5.554   1.106  1.00  0.00     0.140 C 
BRANCH  19  27
ATOM     27  C   UNL     1       1.207  -1.057   0.208  1.00  0.00     0.081 A 
ATOM     28  C   UNL     1      -2.229   0.152   0.039  1.00  0.00     0.079 C 
ATOM     29  C   UNL     1      -0.756  -0.035   0.139  1.00  0.00     0.090 A 
ATOM     30  N   UNL     1      -0.166  -1.207   0.096  1.00  0.00    -0.242 NA
ATOM     31  S   UNL     1       0.299   1.311   0.299  1.00  0.00    -0.127 S 
ATOM     32  C   UNL     1       1.648   0.243   0.321  1.00  0.00     0.095 A 
ENDBRANCH  19  27
ENDBRANCH  15  18
ENDBRANCH   9  15
ENDBRANCH   6   8
ENDBRANCH   5   6
ENDBRANCH   4   5
ENDBRANCH   3   4
ENDBRANCH   2   3
ENDBRANCH   1   2
BRANCH   1  33
ATOM     33  C   UNL     1       1.937 -10.245  -5.227  1.00  0.00     0.188 C 
BRANCH  33  34
ATOM     34  O   UNL     1       1.043 -10.362  -6.303  1.00  0.00    -0.376 OA
BRANCH  34  35
ATOM     35  C   UNL     1       1.241 -11.347  -7.299  1.00  0.00     0.202 C 
BRANCH  35  36
ATOM     36  C   UNL     1       2.025 -12.661  -7.107  1.00  0.00     0.261 C 
BRANCH  36  37
ATOM     37  O   UNL     1       2.834 -12.809  -5.938  1.00  0.00    -0.460 OA
BRANCH  37  38
ATOM     38  C   UNL     1       4.146 -12.503  -6.067  1.00  0.00     0.338 C 
ATOM     39  O   UNL     1       4.710 -12.056  -7.050  1.00  0.00    -0.246 OA
BRANCH  38  40
ATOM     40  C   UNL     1       4.782 -12.637  -4.742  1.00  0.00     0.060 A 
ATOM     41  C   UNL     1       5.292 -11.492  -4.117  1.00  0.00     0.016 A 
ATOM     42  C   UNL     1       4.890 -13.889  -4.131  1.00  0.00     0.016 A 
ATOM     43  C   UNL     1       5.941 -11.601  -2.886  1.00  0.00     0.010 A 
ATOM     44  C   UNL     1       5.560 -13.999  -2.910  1.00  0.00     0.010 A 
ATOM     45  C   UNL     1       6.115 -12.861  -2.297  1.00  0.00    -0.014 A 
BRANCH  45  46
ATOM     46  C   UNL     1       7.015 -13.015  -1.128  1.00  0.00     0.031 A 
ATOM     47  C   UNL     1       8.430 -13.466  -1.361  1.00  0.00     0.074 A 
ATOM     48  C   UNL     1       6.591 -12.744   0.119  1.00  0.00     0.049 A 
ATOM     49  N   UNL     1       9.376 -13.722  -0.494  1.00  0.00    -0.248 NA
ATOM     50  C   UNL     1       8.834 -13.653  -2.765  1.00  0.00     0.031 C 
ATOM     51  C   UNL     1       5.263 -12.248   0.469  1.00  0.00     0.029 A 
ATOM     52  N   UNL     1       7.241 -12.853   1.324  1.00  0.00    -0.354 N 
ATOM     53  C   UNL     1      10.483 -14.094  -1.244  1.00  0.00     0.074 A 
ATOM     54  C   UNL     1      10.086 -14.066  -2.635  1.00  0.00     0.031 C 
ATOM     55  C   UNL     1       5.192 -12.102   1.804  1.00  0.00     0.029 A 
ATOM     56  C   UNL     1       6.458 -12.524   2.402  1.00  0.00     0.049 A 
ATOM     57  H   UNL     1       8.179 -13.140   1.406  1.00  0.00     0.167 HD
ATOM     58  C   UNL     1      11.724 -14.417  -0.811  1.00  0.00     0.037 A 
ATOM     59  C   UNL     1       6.730 -12.573   3.722  1.00  0.00     0.037 A 
ATOM     60  C   UNL     1      12.119 -14.442   0.572  1.00  0.00     0.049 A 
ATOM     61  C   UNL     1       8.093 -13.023   4.184  1.00  0.00     0.074 A 
ATOM     62  C   UNL     1      13.357 -14.751   1.107  1.00  0.00     0.029 A 
ATOM     63  N   UNL     1      11.283 -14.149   1.639  1.00  0.00    -0.354 N 
ATOM     64  N   UNL     1       9.138 -13.365   3.470  1.00  0.00    -0.248 NA
ATOM     65  C   UNL     1       8.315 -13.090   5.636  1.00  0.00     0.031 C 
ATOM     66  C   UNL     1      13.258 -14.695   2.499  1.00  0.00     0.029 A 
ATOM     67  C   UNL     1      11.973 -14.295   2.831  1.00  0.00     0.049 A 
ATOM     68  H   UNL     1      10.340 -13.877   1.560  1.00  0.00     0.167 HD
ATOM     69  C   UNL     1      10.145 -13.660   4.380  1.00  0.00     0.074 A 
ATOM     70  C   UNL     1       9.591 -13.447   5.700  1.00  0.00     0.031 C 
ATOM     71  C   UNL     1      11.415 -14.069   4.140  1.00  0.00     0.037 A 
BRANCH  58  72
ATOM     72  C   UNL     1      12.752 -14.782  -1.839  1.00  0.00     0.064 A 
ATOM     73  C   UNL     1      13.216 -16.102  -1.942  1.00  0.00     0.173 A 
ATOM     74  C   UNL     1      13.334 -13.813  -2.670  1.00  0.00     0.173 A 
ATOM     75  F   UNL     1      12.695 -17.065  -1.167  1.00  0.00    -0.203 F 
ATOM     76  C   UNL     1      14.240 -16.433  -2.825  1.00  0.00     0.198 A 
ATOM     77  C   UNL     1      14.338 -14.153  -3.571  1.00  0.00     0.198 A 
ATOM     78  F   UNL     1      12.914 -12.539  -2.618  1.00  0.00    -0.203 F 
ATOM     79  F   UNL     1      14.693 -17.694  -2.880  1.00  0.00    -0.200 F 
ATOM     80  C   UNL     1      14.798 -15.460  -3.640  1.00  0.00     0.200 A 
ATOM     81  F   UNL     1      14.862 -13.217  -4.374  1.00  0.00    -0.200 F 
ATOM     82  F   UNL     1      15.781 -15.782  -4.493  1.00  0.00    -0.200 F 
ENDBRANCH  58  72
BRANCH  59  83
ATOM     83  C   UNL     1       5.685 -12.184   4.704  1.00  0.00     0.064 A 
ATOM     84  C   UNL     1       4.537 -12.968   4.896  1.00  0.00     0.173 A 
ATOM     85  C   UNL     1       5.815 -11.019   5.472  1.00  0.00     0.173 A 
ATOM     86  F   UNL     1       4.370 -14.098   4.193  1.00  0.00    -0.203 F 
ATOM     87  C   UNL     1       3.551 -12.590   5.805  1.00  0.00     0.198 A 
ATOM     88  C   UNL     1       4.840 -10.657   6.400  1.00  0.00     0.198 A 
ATOM     89  F   UNL     1       6.908 -10.252   5.347  1.00  0.00    -0.203 F 
ATOM     90  F   UNL     1       2.453 -13.345   5.951  1.00  0.00    -0.200 F 
ATOM     91  C   UNL     1       3.705 -11.438   6.560  1.00  0.00     0.200 A 
ATOM     92  F   UNL     1       5.008  -9.558   7.149  1.00  0.00    -0.200 F 
ATOM     93  F   UNL     1       2.766 -11.085   7.448  1.00  0.00    -0.200 F 
ENDBRANCH  59  83
BRANCH  71  94
ATOM     94  C   UNL     1      12.319 -14.288   5.319  1.00  0.00     0.064 A 
ATOM     95  C   UNL     1      13.405 -13.428   5.550  1.00  0.00     0.173 A 
ATOM     96  C   UNL     1      12.167 -15.395   6.166  1.00  0.00     0.173 A 
ATOM     97  F   UNL     1      13.601 -12.360   4.762  1.00  0.00    -0.203 F 
ATOM     98  C   UNL     1      14.316 -13.681   6.572  1.00  0.00     0.198 A 
ATOM     99  C   UNL     1      13.063 -15.628   7.206  1.00  0.00     0.198 A 
ATOM    100  F   UNL     1      11.140 -16.240   5.994  1.00  0.00    -0.203 F 
ATOM    101  F   UNL     1      15.367 -12.869   6.747  1.00  0.00    -0.200 F 
ATOM    102  C   UNL     1      14.142 -14.778   7.401  1.00  0.00     0.200 A 
ATOM    103  F   UNL     1      12.882 -16.676   8.021  1.00  0.00    -0.200 F 
ATOM    104  F   UNL     1      15.015 -15.017   8.389  1.00  0.00    -0.200 F 
ENDBRANCH  71  94
ENDBRANCH  45  46
ENDBRANCH  38  40
ENDBRANCH  37  38
ENDBRANCH  36  37
ENDBRANCH  35  36
ENDBRANCH  34  35
ENDBRANCH  33  34
ENDBRANCH   1  33
TORSDOF 20
