REMARK SMILES Cc1cc(F)c([C@@](C)(C(=O)OCCOCCOCCOC(=O)c2ccc(-c3c4nc(c(-c5c(F)c(F)c(F)c(F)c5F)c5ccc([nH]5)c(-c5c(F)c(F)c(F)c(F)c5F)c5nc(c(-c6c(F)c(F)c(F)c(F)c6F)c6ccc3[nH]6)C=C5)C=C4)cc2)[NH+]2CC[NH2+]CC2)cc1F
REMARK SMILES IDX 16 1 15 2 14 3 13 4 12 5 11 6 9 7 10 8 7 9 8 10 6 11 1 12
REMARK SMILES IDX 2 13 3 14 93 15 4 16 92 17 94 18 5 19 86 20 87 21 91 22
REMARK SMILES IDX 88 24 90 25 89 26 17 29 18 30 19 31 20 32 21 33 22 34 23 35
REMARK SMILES IDX 24 36 85 37 25 38 84 39 26 40 27 41 28 42 78 43 29 44 83 45
REMARK SMILES IDX 77 46 79 47 30 48 82 49 76 50 75 51 31 53 63 54 43 55 62 56
REMARK SMILES IDX 44 57 47 58 61 59 80 60 45 61 46 62 60 64 81 65 48 66 32 67
REMARK SMILES IDX 33 68 41 69 34 70 35 71 39 72 42 73 36 74 37 75 40 76 38 77
REMARK SMILES IDX 64 78 65 79 73 80 66 81 67 82 71 83 74 84 68 85 69 86 72 87
REMARK SMILES IDX 70 88 49 89 50 90 58 91 51 92 52 93 56 94 59 95 53 96 54 97
REMARK SMILES IDX 57 98 55 99
REMARK H PARENT 86 23 89 27 89 28 79 52 47 63
REMARK Flexibility Score: inf
ROOT
ATOM      1  C   UNL     1       1.972  -1.266   5.611  1.00  0.00     0.188 C 
ENDROOT
BRANCH   1   2
ATOM      2  C   UNL     1       1.736  -1.489   7.115  1.00  0.00     0.188 C 
BRANCH   2   3
ATOM      3  O   UNL     1       2.081  -2.730   7.700  1.00  0.00    -0.376 OA
BRANCH   3   4
ATOM      4  C   UNL     1       1.628  -3.930   7.083  1.00  0.00     0.202 C 
BRANCH   4   5
ATOM      5  C   UNL     1       0.134  -4.059   6.792  1.00  0.00     0.261 C 
BRANCH   5   6
ATOM      6  O   UNL     1      -0.283  -3.271   5.654  1.00  0.00    -0.458 OA
BRANCH   6   7
ATOM      7  C   UNL     1      -1.309  -2.399   5.866  1.00  0.00     0.372 C 
ATOM      8  O   UNL     1      -1.803  -2.219   6.980  1.00  0.00    -0.244 OA
BRANCH   7   9
ATOM      9  C   UNL     1      -1.861  -1.707   4.561  1.00  0.00     0.221 C 
ATOM     10  C   UNL     1      -2.991  -2.692   4.144  1.00  0.00     0.098 C 
BRANCH   9  11
ATOM     11  C   UNL     1      -0.867  -1.556   3.373  1.00  0.00     0.062 A 
ATOM     12  C   UNL     1       1.399  -0.980  -0.323  1.00  0.00     0.047 C 
ATOM     13  C   UNL     1       0.669  -1.204   0.965  1.00  0.00    -0.012 A 
ATOM     14  C   UNL     1       0.328  -2.478   1.423  1.00  0.00     0.046 A 
ATOM     15  C   UNL     1       0.332  -0.126   1.766  1.00  0.00     0.126 A 
ATOM     16  C   UNL     1      -0.422  -2.643   2.603  1.00  0.00     0.133 A 
ATOM     17  C   UNL     1      -0.406  -0.300   2.935  1.00  0.00     0.053 A 
ATOM     18  F   UNL     1       0.676   1.119   1.404  1.00  0.00    -0.207 F 
ATOM     19  F   UNL     1      -0.733  -3.897   2.957  1.00  0.00    -0.206 F 
ENDBRANCH   9  11
BRANCH   9  20
ATOM     20  N   UNL     1      -2.478  -0.404   4.970  1.00  0.00    -0.308 N 
ATOM     21  C   UNL     1      -1.763   0.552   5.810  1.00  0.00     0.325 C 
ATOM     22  C   UNL     1      -3.650   0.155   4.322  1.00  0.00     0.325 C 
ATOM     23  H   UNL     1      -2.872  -1.121   5.578  1.00  0.00     0.349 HD
ATOM     24  C   UNL     1      -1.696   2.016   5.276  1.00  0.00     0.322 C 
ATOM     25  C   UNL     1      -3.324   1.429   3.528  1.00  0.00     0.322 C 
ATOM     26  N   UNL     1      -2.711   2.494   4.330  1.00  0.00    -0.337 N 
ATOM     27  H   UNL     1      -2.271   3.161   3.695  1.00  0.00     0.346 HD
ATOM     28  H   UNL     1      -3.457   2.915   4.883  1.00  0.00     0.346 HD
ENDBRANCH   9  20
ENDBRANCH   7   9
ENDBRANCH   6   7
ENDBRANCH   5   6
ENDBRANCH   4   5
ENDBRANCH   3   4
ENDBRANCH   2   3
ENDBRANCH   1   2
BRANCH   1  29
ATOM     29  O   UNL     1       2.833  -2.103   4.865  1.00  0.00    -0.376 OA
BRANCH  29  30
ATOM     30  C   UNL     1       4.153  -2.317   5.340  1.00  0.00     0.202 C 
BRANCH  30  31
ATOM     31  C   UNL     1       5.047  -1.098   5.588  1.00  0.00     0.261 C 
BRANCH  31  32
ATOM     32  O   UNL     1       4.462  -0.130   6.476  1.00  0.00    -0.460 OA
BRANCH  32  33
ATOM     33  C   UNL     1       4.316   1.115   5.954  1.00  0.00     0.338 C 
ATOM     34  O   UNL     1       4.693   1.517   4.870  1.00  0.00    -0.246 OA
BRANCH  33  35
ATOM     35  C   UNL     1       3.433   1.909   6.830  1.00  0.00     0.060 A 
ATOM     36  C   UNL     1       3.859   2.344   8.084  1.00  0.00     0.016 A 
ATOM     37  C   UNL     1       2.181   2.293   6.332  1.00  0.00     0.016 A 
ATOM     38  C   UNL     1       3.031   3.191   8.832  1.00  0.00     0.010 A 
ATOM     39  C   UNL     1       1.354   3.124   7.085  1.00  0.00     0.010 A 
ATOM     40  C   UNL     1       1.779   3.599   8.330  1.00  0.00    -0.014 A 
BRANCH  40  41
ATOM     41  C   UNL     1       1.030   4.705   8.974  1.00  0.00     0.031 A 
ATOM     42  C   UNL     1      -0.219   4.486   9.770  1.00  0.00     0.074 A 
ATOM     43  C   UNL     1       1.465   5.959   8.746  1.00  0.00     0.049 A 
ATOM     44  N   UNL     1      -0.875   5.343  10.513  1.00  0.00    -0.248 NA
ATOM     45  C   UNL     1      -0.836   3.155   9.701  1.00  0.00     0.031 C 
ATOM     46  C   UNL     1       2.576   6.306   7.859  1.00  0.00     0.029 A 
ATOM     47  N   UNL     1       1.037   7.165   9.236  1.00  0.00    -0.354 N 
ATOM     48  C   UNL     1      -1.961   4.651  11.027  1.00  0.00     0.074 A 
ATOM     49  C   UNL     1      -1.919   3.321  10.454  1.00  0.00     0.031 C 
ATOM     50  C   UNL     1       2.778   7.630   7.909  1.00  0.00     0.029 A 
ATOM     51  C   UNL     1       1.819   8.221   8.838  1.00  0.00     0.049 A 
ATOM     52  H   UNL     1       0.247   7.265   9.816  1.00  0.00     0.167 HD
ATOM     53  C   UNL     1      -2.882   5.086  11.922  1.00  0.00     0.037 A 
ATOM     54  C   UNL     1       1.801   9.511   9.218  1.00  0.00     0.037 A 
ATOM     55  C   UNL     1      -2.909   6.419  12.474  1.00  0.00     0.049 A 
ATOM     56  C   UNL     1       0.813   9.956  10.257  1.00  0.00     0.074 A 
ATOM     57  C   UNL     1      -3.740   6.929  13.458  1.00  0.00     0.029 A 
ATOM     58  N   UNL     1      -2.076   7.456  12.080  1.00  0.00    -0.354 N 
ATOM     59  N   UNL     1      -0.102   9.253  10.879  1.00  0.00    -0.248 NA
ATOM     60  C   UNL     1       0.868  11.366  10.667  1.00  0.00     0.031 C 
ATOM     61  C   UNL     1      -3.440   8.284  13.627  1.00  0.00     0.029 A 
ATOM     62  C   UNL     1      -2.389   8.607  12.785  1.00  0.00     0.049 A 
ATOM     63  H   UNL     1      -1.369   7.385  11.399  1.00  0.00     0.167 HD
ATOM     64  C   UNL     1      -0.710  10.123  11.771  1.00  0.00     0.074 A 
ATOM     65  C   UNL     1      -0.054  11.406  11.620  1.00  0.00     0.031 C 
ATOM     66  C   UNL     1      -1.721   9.876  12.638  1.00  0.00     0.037 A 
BRANCH  53  67
ATOM     67  C   UNL     1      -3.906   4.109  12.427  1.00  0.00     0.064 A 
ATOM     68  C   UNL     1      -3.538   3.060  13.283  1.00  0.00     0.173 A 
ATOM     69  C   UNL     1      -5.275   4.299  12.178  1.00  0.00     0.173 A 
ATOM     70  F   UNL     1      -2.244   2.839  13.560  1.00  0.00    -0.203 F 
ATOM     71  C   UNL     1      -4.497   2.235  13.864  1.00  0.00     0.198 A 
ATOM     72  C   UNL     1      -6.234   3.489  12.783  1.00  0.00     0.198 A 
ATOM     73  F   UNL     1      -5.686   5.298  11.382  1.00  0.00    -0.203 F 
ATOM     74  F   UNL     1      -4.117   1.233  14.669  1.00  0.00    -0.200 F 
ATOM     75  C   UNL     1      -5.844   2.458  13.625  1.00  0.00     0.200 A 
ATOM     76  F   UNL     1      -7.537   3.720  12.569  1.00  0.00    -0.200 F 
ATOM     77  F   UNL     1      -6.767   1.684  14.211  1.00  0.00    -0.200 F 
ENDBRANCH  53  67
BRANCH  54  78
ATOM     78  C   UNL     1       2.849  10.428   8.705  1.00  0.00     0.064 A 
ATOM     79  C   UNL     1       3.900  10.835   9.539  1.00  0.00     0.173 A 
ATOM     80  C   UNL     1       2.863  10.861   7.373  1.00  0.00     0.173 A 
ATOM     81  F   UNL     1       3.923  10.447  10.823  1.00  0.00    -0.203 F 
ATOM     82  C   UNL     1       4.921  11.650   9.062  1.00  0.00     0.198 A 
ATOM     83  C   UNL     1       3.899  11.657   6.889  1.00  0.00     0.198 A 
ATOM     84  F   UNL     1       1.889  10.482   6.533  1.00  0.00    -0.203 F 
ATOM     85  F   UNL     1       5.901  12.044   9.886  1.00  0.00    -0.200 F 
ATOM     86  C   UNL     1       4.925  12.054   7.735  1.00  0.00     0.200 A 
ATOM     87  F   UNL     1       3.911  12.029   5.602  1.00  0.00    -0.200 F 
ATOM     88  F   UNL     1       5.917  12.826   7.272  1.00  0.00    -0.200 F 
ENDBRANCH  54  78
BRANCH  66  89
ATOM     89  C   UNL     1      -2.184  11.001  13.514  1.00  0.00     0.064 A 
ATOM     90  C   UNL     1      -2.962  12.051  13.005  1.00  0.00     0.173 A 
ATOM     91  C   UNL     1      -1.937  10.973  14.895  1.00  0.00     0.173 A 
ATOM     92  F   UNL     1      -3.214  12.127  11.689  1.00  0.00    -0.203 F 
ATOM     93  C   UNL     1      -3.475  13.033  13.847  1.00  0.00     0.198 A 
ATOM     94  C   UNL     1      -2.473  11.943  15.737  1.00  0.00     0.198 A 
ATOM     95  F   UNL     1      -1.204   9.986  15.431  1.00  0.00    -0.203 F 
ATOM     96  F   UNL     1      -4.201  14.038  13.337  1.00  0.00    -0.200 F 
ATOM     97  C   UNL     1      -3.241  12.972  15.213  1.00  0.00     0.200 A 
ATOM     98  F   UNL     1      -2.258  11.874  17.059  1.00  0.00    -0.200 F 
ATOM     99  F   UNL     1      -3.759  13.904  16.025  1.00  0.00    -0.200 F 
ENDBRANCH  66  89
ENDBRANCH  40  41
ENDBRANCH  33  35
ENDBRANCH  32  33
ENDBRANCH  31  32
ENDBRANCH  30  31
ENDBRANCH  29  30
ENDBRANCH   1  29
TORSDOF 19
