REMARK SMILES CCc1cccc(C)c1Nc1ccccc1CC(=O)OCCOCCOCCOC(=O)c1ccc(-c2c3nc(c(-c4c(F)c(F)c(F)c(F)c4F)c4ccc([nH]4)c(-c4c(F)c(F)c(F)c(F)c4F)c4nc(c(-c5c(F)c(F)c(F)c(F)c5F)c5ccc2[nH]5)C=C4)C=C3)cc1
REMARK SMILES IDX 24 1 23 2 22 3 21 4 20 5 18 6 19 7 17 8 16 9 11 10 12 11
REMARK SMILES IDX 13 12 15 13 14 14 10 15 9 17 3 18 4 19 5 20 7 21 6 22 8 23
REMARK SMILES IDX 2 24 1 25 25 26 26 27 27 28 28 29 29 30 30 31 31 32 32 33
REMARK SMILES IDX 33 34 94 35 34 36 93 37 35 38 36 39 37 40 87 41 38 42 92 43
REMARK SMILES IDX 86 44 88 45 39 46 91 47 85 48 84 49 40 51 72 52 52 53 71 54
REMARK SMILES IDX 53 55 56 56 70 57 89 58 54 59 55 60 69 62 90 63 57 64 41 65
REMARK SMILES IDX 42 66 50 67 43 68 44 69 48 70 51 71 45 72 46 73 49 74 47 75
REMARK SMILES IDX 73 76 74 77 82 78 75 79 76 80 80 81 83 82 77 83 78 84 81 85
REMARK SMILES IDX 79 86 58 87 59 88 67 89 60 90 61 91 65 92 68 93 62 94 63 95
REMARK SMILES IDX 66 96 64 97
REMARK H PARENT 10 16 88 50 56 61
REMARK Flexibility Score: inf
ROOT
ATOM      1  C   UNL     1       1.132   3.645  -5.897  1.00  0.00     0.188 C 
ENDROOT
BRANCH   1   2
ATOM      2  O   UNL     1      -0.227   4.111  -5.412  1.00  0.00    -0.376 OA
BRANCH   2   3
ATOM      3  C   UNL     1      -0.673   5.410  -4.841  1.00  0.00     0.202 C 
BRANCH   3   4
ATOM      4  C   UNL     1      -1.754   5.644  -3.461  1.00  0.00     0.261 C 
BRANCH   4   5
ATOM      5  O   UNL     1      -1.581   5.559  -1.757  1.00  0.00    -0.463 OA
BRANCH   5   6
ATOM      6  C   UNL     1      -1.838   6.137  -0.380  1.00  0.00     0.310 C 
ATOM      7  O   UNL     1      -2.046   7.335  -0.153  1.00  0.00    -0.252 OA
BRANCH   6   8
ATOM      8  C   UNL     1      -1.998   5.130   0.890  1.00  0.00     0.160 C 
BRANCH   8   9
ATOM      9  C   UNL     1      -0.617   4.833   1.433  1.00  0.00    -0.013 A 
ATOM     10  C   UNL     1       0.296   3.667   1.258  1.00  0.00     0.042 A 
ATOM     11  C   UNL     1       1.381   3.858   2.326  1.00  0.00     0.026 A 
ATOM     12  C   UNL     1       1.759   5.093   2.928  1.00  0.00     0.002 A 
ATOM     13  C   UNL     1      -0.191   6.053   2.098  1.00  0.00     0.006 A 
ATOM     14  C   UNL     1       1.018   6.221   2.720  1.00  0.00     0.000 A 
BRANCH  10  15
ATOM     15  N   UNL     1       0.594   2.488  -0.405  1.00  0.00    -0.355 N 
ATOM     16  H   UNL     1       1.428   2.024  -0.166  1.00  0.00     0.167 HD
BRANCH  15  17
ATOM     17  C   UNL     1       0.299   1.882  -1.817  1.00  0.00     0.045 A 
ATOM     18  C   UNL     1       0.449   0.450  -2.072  1.00  0.00    -0.024 A 
ATOM     19  C   UNL     1      -0.005  -0.065  -3.316  1.00  0.00     0.006 A 
ATOM     20  C   UNL     1      -0.672   0.724  -4.212  1.00  0.00     0.001 A 
ATOM     21  C   UNL     1      -0.016   2.675  -2.906  1.00  0.00    -0.027 A 
ATOM     22  C   UNL     1      -0.723   2.078  -3.960  1.00  0.00     0.005 A 
ATOM     23  C   UNL     1       0.718   3.978  -3.020  1.00  0.00     0.046 C 
BRANCH  18  24
ATOM     24  C   UNL     1       1.270  -0.622  -1.355  1.00  0.00     0.034 C 
ATOM     25  C   UNL     1       1.081  -1.037   0.083  1.00  0.00     0.009 C 
ENDBRANCH  18  24
ENDBRANCH  15  17
ENDBRANCH  10  15
ENDBRANCH   8   9
ENDBRANCH   6   8
ENDBRANCH   5   6
ENDBRANCH   4   5
ENDBRANCH   3   4
ENDBRANCH   2   3
ENDBRANCH   1   2
BRANCH   1  26
ATOM     26  C   UNL     1       2.393   2.991  -4.974  1.00  0.00     0.188 C 
BRANCH  26  27
ATOM     27  O   UNL     1       3.185   3.978  -4.274  1.00  0.00    -0.376 OA
BRANCH  27  28
ATOM     28  C   UNL     1       4.396   3.572  -3.598  1.00  0.00     0.202 C 
BRANCH  28  29
ATOM     29  C   UNL     1       4.430   2.507  -2.430  1.00  0.00     0.261 C 
BRANCH  29  30
ATOM     30  O   UNL     1       3.786   2.916  -1.188  1.00  0.00    -0.460 OA
BRANCH  30  31
ATOM     31  C   UNL     1       3.475   2.026  -0.168  1.00  0.00     0.338 C 
ATOM     32  O   UNL     1       3.910   0.896  -0.057  1.00  0.00    -0.246 OA
BRANCH  31  33
ATOM     33  C   UNL     1       2.285   2.596   0.642  1.00  0.00     0.060 A 
ATOM     34  C   UNL     1       0.857   1.569   1.339  1.00  0.00     0.016 A 
ATOM     35  C   UNL     1       1.854   4.093  -0.252  1.00  0.00     0.016 A 
ATOM     36  C   UNL     1      -0.907   1.888   0.758  1.00  0.00     0.010 A 
ATOM     37  C   UNL     1       0.139   4.403  -0.740  1.00  0.00     0.010 A 
ATOM     38  C   UNL     1      -1.316   3.268  -0.412  1.00  0.00    -0.014 A 
BRANCH  38  39
ATOM     39  C   UNL     1      -2.901   3.493  -1.284  1.00  0.00     0.031 A 
ATOM     40  C   UNL     1      -4.070   4.859  -1.478  1.00  0.00     0.074 A 
ATOM     41  C   UNL     1      -3.305   2.557  -2.188  1.00  0.00     0.049 A 
ATOM     42  N   UNL     1      -5.411   4.805  -1.537  1.00  0.00    -0.248 NA
ATOM     43  C   UNL     1      -3.836   6.345  -1.645  1.00  0.00     0.031 C 
ATOM     44  C   UNL     1      -4.064   2.906  -3.409  1.00  0.00     0.029 A 
ATOM     45  N   UNL     1      -3.057   1.202  -2.367  1.00  0.00    -0.354 N 
ATOM     46  C   UNL     1      -5.837   6.176  -1.697  1.00  0.00     0.074 A 
ATOM     47  C   UNL     1      -4.859   6.879  -0.997  1.00  0.00     0.031 C 
ATOM     48  C   UNL     1      -4.198   1.832  -4.190  1.00  0.00     0.029 A 
ATOM     49  C   UNL     1      -3.856   0.683  -3.390  1.00  0.00     0.049 A 
ATOM     50  H   UNL     1      -2.407   0.679  -1.845  1.00  0.00     0.167 HD
ATOM     51  C   UNL     1      -6.483   6.776  -2.775  1.00  0.00     0.037 A 
ATOM     52  C   UNL     1      -4.644  -0.423  -3.357  1.00  0.00     0.037 A 
ATOM     53  C   UNL     1      -6.968   5.733  -3.639  1.00  0.00     0.049 A 
ATOM     54  C   UNL     1      -6.125  -0.056  -3.437  1.00  0.00     0.074 A 
ATOM     55  C   UNL     1      -6.708   5.295  -4.920  1.00  0.00     0.029 A 
ATOM     56  N   UNL     1      -7.672   4.734  -3.012  1.00  0.00    -0.354 N 
ATOM     57  N   UNL     1      -6.544   1.175  -3.608  1.00  0.00    -0.248 NA
ATOM     58  C   UNL     1      -7.255  -0.968  -3.277  1.00  0.00     0.031 C 
ATOM     59  C   UNL     1      -7.188   3.947  -4.998  1.00  0.00     0.029 A 
ATOM     60  C   UNL     1      -7.807   3.624  -3.798  1.00  0.00     0.049 A 
ATOM     61  H   UNL     1      -8.038   4.809  -2.101  1.00  0.00     0.167 HD
ATOM     62  C   UNL     1      -7.885   1.266  -3.385  1.00  0.00     0.074 A 
ATOM     63  C   UNL     1      -8.296  -0.113  -3.248  1.00  0.00     0.031 C 
ATOM     64  C   UNL     1      -8.501   2.476  -3.224  1.00  0.00     0.037 A 
BRANCH  51  65
ATOM     65  C   UNL     1      -6.533   8.333  -3.162  1.00  0.00     0.064 A 
ATOM     66  C   UNL     1      -7.443   8.790  -4.151  1.00  0.00     0.173 A 
ATOM     67  C   UNL     1      -5.739   9.410  -2.652  1.00  0.00     0.173 A 
ATOM     68  F   UNL     1      -8.245   7.926  -4.788  1.00  0.00    -0.203 F 
ATOM     69  C   UNL     1      -7.570  10.150  -4.539  1.00  0.00     0.198 A 
ATOM     70  C   UNL     1      -5.904  10.768  -2.998  1.00  0.00     0.198 A 
ATOM     71  F   UNL     1      -4.684   9.238  -1.854  1.00  0.00    -0.203 F 
ATOM     72  F   UNL     1      -8.435  10.494  -5.505  1.00  0.00    -0.200 F 
ATOM     73  C   UNL     1      -6.818  11.142  -3.945  1.00  0.00     0.200 A 
ATOM     74  F   UNL     1      -5.133  11.701  -2.414  1.00  0.00    -0.200 F 
ATOM     75  F   UNL     1      -6.946  12.429  -4.299  1.00  0.00    -0.200 F 
ENDBRANCH  51  65
BRANCH  52  76
ATOM     76  C   UNL     1      -3.967  -1.638  -2.857  1.00  0.00     0.064 A 
ATOM     77  C   UNL     1      -3.227  -2.386  -3.796  1.00  0.00     0.173 A 
ATOM     78  C   UNL     1      -3.610  -1.770  -1.510  1.00  0.00     0.173 A 
ATOM     79  F   UNL     1      -3.513  -2.291  -5.105  1.00  0.00    -0.203 F 
ATOM     80  C   UNL     1      -2.109  -3.131  -3.417  1.00  0.00     0.198 A 
ATOM     81  C   UNL     1      -2.476  -2.497  -1.136  1.00  0.00     0.198 A 
ATOM     82  F   UNL     1      -4.252  -1.058  -0.574  1.00  0.00    -0.203 F 
ATOM     83  F   UNL     1      -1.350  -3.728  -4.349  1.00  0.00    -0.200 F 
ATOM     84  C   UNL     1      -1.713  -3.154  -2.091  1.00  0.00     0.200 A 
ATOM     85  F   UNL     1      -2.057  -2.467   0.137  1.00  0.00    -0.200 F 
ATOM     86  F   UNL     1      -0.560  -3.746  -1.743  1.00  0.00    -0.200 F 
ENDBRANCH  52  76
BRANCH  64  87
ATOM     87  C   UNL     1      -9.788   2.695  -2.430  1.00  0.00     0.064 A 
ATOM     88  C   UNL     1     -10.262   1.784  -1.471  1.00  0.00     0.173 A 
ATOM     89  C   UNL     1     -10.499   3.926  -2.474  1.00  0.00     0.173 A 
ATOM     90  F   UNL     1      -9.592   0.663  -1.175  1.00  0.00    -0.203 F 
ATOM     91  C   UNL     1     -11.420   2.020  -0.724  1.00  0.00     0.198 A 
ATOM     92  C   UNL     1     -11.588   4.202  -1.646  1.00  0.00     0.198 A 
ATOM     93  F   UNL     1     -10.141   4.925  -3.294  1.00  0.00    -0.203 F 
ATOM     94  F   UNL     1     -11.878   1.066   0.097  1.00  0.00    -0.200 F 
ATOM     95  C   UNL     1     -12.079   3.230  -0.805  1.00  0.00     0.200 A 
ATOM     96  F   UNL     1     -12.147   5.421  -1.662  1.00  0.00    -0.200 F 
ATOM     97  F   UNL     1     -13.169   3.462  -0.064  1.00  0.00    -0.200 F 
ENDBRANCH  64  87
ENDBRANCH  38  39
ENDBRANCH  31  33
ENDBRANCH  30  31
ENDBRANCH  29  30
ENDBRANCH  28  29
ENDBRANCH  27  28
ENDBRANCH  26  27
ENDBRANCH   1  26
TORSDOF 21
