REMARK SMILES COc1cc2c(c(OC)c1)[C@H](C)C[C@H](CC(=O)OCCOCCOCCOC(=O)c1ccc(-c3c4nc(c(-c5c(F)c(F)c(F)c(F)c5F)c5ccc([nH]5)c(-c5c(F)c(F)c(F)c(F)c5F)c5nc(c(-c6c(F)c(F)c(F)c(F)c6F)c6ccc3[nH]6)C=C5)C=C4)cc1)C2
REMARK SMILES IDX 22 1 21 2 20 3 19 4 18 5 16 6 17 7 15 8 14 9 3 10 4 11 10 12
REMARK SMILES IDX 5 13 7 14 6 15 93 16 11 17 12 18 13 19 2 20 1 21 8 22 9 23
REMARK SMILES IDX 23 24 24 25 25 26 26 27 27 28 28 29 29 30 30 31 31 32 92 33
REMARK SMILES IDX 32 34 91 35 33 36 34 37 35 38 85 39 36 40 90 41 84 42 86 43
REMARK SMILES IDX 37 44 89 45 83 46 82 47 38 49 70 50 50 51 69 52 51 53 54 54
REMARK SMILES IDX 68 55 87 56 52 57 53 58 67 60 88 61 55 62 39 63 40 64 48 65
REMARK SMILES IDX 41 66 42 67 46 68 49 69 43 70 44 71 47 72 45 73 71 74 72 75
REMARK SMILES IDX 80 76 73 77 74 78 78 79 81 80 75 81 76 82 79 83 77 84 56 85
REMARK SMILES IDX 57 86 65 87 58 88 59 89 63 90 66 91 60 92 61 93 64 94 62 95
REMARK H PARENT 86 48 54 59
REMARK Flexibility Score: inf
ROOT
ATOM      1  C   UNL     1      -0.091   3.179  10.356  1.00  0.00     0.188 C 
ENDROOT
BRANCH   1   2
ATOM      2  O   UNL     1       0.036   2.931  11.751  1.00  0.00    -0.376 OA
BRANCH   2   3
ATOM      3  C   UNL     1       0.758   1.756  12.123  1.00  0.00     0.202 C 
BRANCH   3   4
ATOM      4  C   UNL     1       0.162   0.419  11.659  1.00  0.00     0.261 C 
BRANCH   4   5
ATOM      5  O   UNL     1      -0.050   0.341  10.233  1.00  0.00    -0.463 OA
BRANCH   5   6
ATOM      6  C   UNL     1      -1.318   0.071   9.828  1.00  0.00     0.306 C 
ATOM      7  O   UNL     1      -2.256  -0.163  10.582  1.00  0.00    -0.252 OA
BRANCH   6   8
ATOM      8  C   UNL     1      -1.534   0.193   8.329  1.00  0.00     0.126 C 
BRANCH   8   9
ATOM      9  C   UNL     1      -0.330   0.257   7.372  1.00  0.00     0.005 C 
ATOM     10  C   UNL     1       0.857   0.502   2.541  1.00  0.00     0.122 A 
ATOM     11  C   UNL     1      -0.082   0.590   3.565  1.00  0.00     0.050 A 
ATOM     12  C   UNL     1       2.144   0.077   2.839  1.00  0.00     0.093 A 
ATOM     13  C   UNL     1       0.230   0.183   4.878  1.00  0.00    -0.037 A 
ATOM     14  C   UNL     1       2.473  -0.322   4.142  1.00  0.00     0.126 A 
ATOM     15  C   UNL     1       1.502  -0.353   5.168  1.00  0.00     0.000 A 
ATOM     16  C   UNL     1      -0.856   0.272   5.922  1.00  0.00     0.040 C 
ATOM     17  C   UNL     1       1.798  -0.910   6.554  1.00  0.00     0.020 C 
ATOM     18  C   UNL     1       2.369  -2.337   6.530  1.00  0.00     0.013 C 
ATOM     19  C   UNL     1       0.589  -0.950   7.515  1.00  0.00     0.012 C 
BRANCH  10  20
ATOM     20  O   UNL     1       0.439   0.904   1.301  1.00  0.00    -0.497 OA
ATOM     21  C   UNL     1       0.973   0.140   0.221  1.00  0.00     0.278 C 
ENDBRANCH  10  20
BRANCH  14  22
ATOM     22  O   UNL     1       3.769  -0.751   4.281  1.00  0.00    -0.496 OA
ATOM     23  C   UNL     1       4.529  -0.010   5.233  1.00  0.00     0.278 C 
ENDBRANCH  14  22
ENDBRANCH   8   9
ENDBRANCH   6   8
ENDBRANCH   5   6
ENDBRANCH   4   5
ENDBRANCH   3   4
ENDBRANCH   2   3
ENDBRANCH   1   2
BRANCH   1  24
ATOM     24  C   UNL     1       1.216   3.318   9.577  1.00  0.00     0.188 C 
BRANCH  24  25
ATOM     25  O   UNL     1       2.198   2.316   9.795  1.00  0.00    -0.376 OA
BRANCH  25  26
ATOM     26  C   UNL     1       3.455   2.511   9.138  1.00  0.00     0.202 C 
BRANCH  26  27
ATOM     27  C   UNL     1       4.136   3.892   9.293  1.00  0.00     0.261 C 
BRANCH  27  28
ATOM     28  O   UNL     1       3.379   5.041   8.843  1.00  0.00    -0.460 OA
BRANCH  28  29
ATOM     29  C   UNL     1       2.850   5.011   7.598  1.00  0.00     0.338 C 
ATOM     30  O   UNL     1       3.141   4.224   6.712  1.00  0.00    -0.246 OA
BRANCH  29  31
ATOM     31  C   UNL     1       1.652   5.904   7.562  1.00  0.00     0.060 A 
ATOM     32  C   UNL     1       0.517   5.463   6.864  1.00  0.00     0.016 A 
ATOM     33  C   UNL     1       1.596   7.114   8.262  1.00  0.00     0.016 A 
ATOM     34  C   UNL     1      -0.650   6.236   6.833  1.00  0.00     0.010 A 
ATOM     35  C   UNL     1       0.432   7.899   8.215  1.00  0.00     0.010 A 
ATOM     36  C   UNL     1      -0.690   7.480   7.475  1.00  0.00    -0.014 A 
BRANCH  36  37
ATOM     37  C   UNL     1      -1.818   8.419   7.214  1.00  0.00     0.031 A 
ATOM     38  C   UNL     1      -1.621   9.505   6.187  1.00  0.00     0.074 A 
ATOM     39  C   UNL     1      -3.005   8.317   7.842  1.00  0.00     0.049 A 
ATOM     40  N   UNL     1      -2.426  10.472   5.825  1.00  0.00    -0.248 NA
ATOM     41  C   UNL     1      -0.335   9.497   5.471  1.00  0.00     0.031 C 
ATOM     42  C   UNL     1      -3.361   7.296   8.824  1.00  0.00     0.029 A 
ATOM     43  N   UNL     1      -4.135   9.100   7.749  1.00  0.00    -0.354 N 
ATOM     44  C   UNL     1      -1.742  11.190   4.852  1.00  0.00     0.074 A 
ATOM     45  C   UNL     1      -0.448  10.564   4.695  1.00  0.00     0.031 C 
ATOM     46  C   UNL     1      -4.614   7.525   9.258  1.00  0.00     0.029 A 
ATOM     47  C   UNL     1      -5.139   8.729   8.611  1.00  0.00     0.049 A 
ATOM     48  H   UNL     1      -4.215   9.855   7.123  1.00  0.00     0.167 HD
ATOM     49  C   UNL     1      -2.155  12.270   4.146  1.00  0.00     0.037 A 
ATOM     50  C   UNL     1      -6.330   9.309   8.871  1.00  0.00     0.037 A 
ATOM     51  C   UNL     1      -3.444  12.894   4.285  1.00  0.00     0.049 A 
ATOM     52  C   UNL     1      -6.737  10.559   8.122  1.00  0.00     0.074 A 
ATOM     53  C   UNL     1      -3.957  13.973   3.586  1.00  0.00     0.029 A 
ATOM     54  N   UNL     1      -4.420  12.505   5.190  1.00  0.00    -0.354 N 
ATOM     55  N   UNL     1      -6.097  11.209   7.181  1.00  0.00    -0.248 NA
ATOM     56  C   UNL     1      -8.037  11.154   8.474  1.00  0.00     0.031 C 
ATOM     57  C   UNL     1      -5.216  14.279   4.111  1.00  0.00     0.029 A 
ATOM     58  C   UNL     1      -5.517  13.346   5.090  1.00  0.00     0.049 A 
ATOM     59  H   UNL     1      -4.344  11.745   5.810  1.00  0.00     0.167 HD
ATOM     60  C   UNL     1      -6.927  12.262   6.808  1.00  0.00     0.074 A 
ATOM     61  C   UNL     1      -8.124  12.156   7.612  1.00  0.00     0.031 C 
ATOM     62  C   UNL     1      -6.714  13.229   5.882  1.00  0.00     0.037 A 
BRANCH  49  63
ATOM     63  C   UNL     1      -1.190  12.876   3.169  1.00  0.00     0.064 A 
ATOM     64  C   UNL     1      -0.859  12.240   1.963  1.00  0.00     0.173 A 
ATOM     65  C   UNL     1      -0.641  14.144   3.416  1.00  0.00     0.173 A 
ATOM     66  F   UNL     1      -1.347  11.022   1.686  1.00  0.00    -0.203 F 
ATOM     67  C   UNL     1       0.000  12.845   1.049  1.00  0.00     0.198 A 
ATOM     68  C   UNL     1       0.192  14.758   2.486  1.00  0.00     0.198 A 
ATOM     69  F   UNL     1      -0.930  14.796   4.552  1.00  0.00    -0.203 F 
ATOM     70  F   UNL     1       0.334  12.203  -0.079  1.00  0.00    -0.200 F 
ATOM     71  C   UNL     1       0.516  14.107   1.306  1.00  0.00     0.200 A 
ATOM     72  F   UNL     1       0.676  15.984   2.729  1.00  0.00    -0.200 F 
ATOM     73  F   UNL     1       1.329  14.694   0.417  1.00  0.00    -0.200 F 
ENDBRANCH  49  63
BRANCH  50  74
ATOM     74  C   UNL     1      -7.229   8.748   9.920  1.00  0.00     0.064 A 
ATOM     75  C   UNL     1      -8.488   8.222   9.597  1.00  0.00     0.173 A 
ATOM     76  C   UNL     1      -6.872   8.791  11.276  1.00  0.00     0.173 A 
ATOM     77  F   UNL     1      -8.894   8.192   8.319  1.00  0.00    -0.203 F 
ATOM     78  C   UNL     1      -9.366   7.788  10.591  1.00  0.00     0.198 A 
ATOM     79  C   UNL     1      -7.736   8.324  12.266  1.00  0.00     0.198 A 
ATOM     80  F   UNL     1      -5.686   9.296  11.644  1.00  0.00    -0.203 F 
ATOM     81  F   UNL     1     -10.590   7.356  10.258  1.00  0.00    -0.200 F 
ATOM     82  C   UNL     1      -8.987   7.834  11.923  1.00  0.00     0.200 A 
ATOM     83  F   UNL     1      -7.362   8.365  13.552  1.00  0.00    -0.200 F 
ATOM     84  F   UNL     1      -9.833   7.424  12.878  1.00  0.00    -0.200 F 
ENDBRANCH  50  74
BRANCH  62  85
ATOM     85  C   UNL     1      -7.812  14.230   5.646  1.00  0.00     0.064 A 
ATOM     86  C   UNL     1      -8.144  15.206   6.598  1.00  0.00     0.173 A 
ATOM     87  C   UNL     1      -8.511  14.242   4.428  1.00  0.00     0.173 A 
ATOM     88  F   UNL     1      -7.516  15.234   7.783  1.00  0.00    -0.203 F 
ATOM     89  C   UNL     1      -9.152  16.136   6.351  1.00  0.00     0.198 A 
ATOM     90  C   UNL     1      -9.493  15.195   4.171  1.00  0.00     0.198 A 
ATOM     91  F   UNL     1      -8.228  13.339   3.477  1.00  0.00    -0.203 F 
ATOM     92  F   UNL     1      -9.486  17.026   7.296  1.00  0.00    -0.200 F 
ATOM     93  C   UNL     1      -9.819  16.135   5.135  1.00  0.00     0.200 A 
ATOM     94  F   UNL     1     -10.123  15.203   2.988  1.00  0.00    -0.200 F 
ATOM     95  F   UNL     1     -10.781  17.037   4.896  1.00  0.00    -0.200 F 
ENDBRANCH  62  85
ENDBRANCH  36  37
ENDBRANCH  29  31
ENDBRANCH  28  29
ENDBRANCH  27  28
ENDBRANCH  26  27
ENDBRANCH  25  26
ENDBRANCH  24  25
ENDBRANCH   1  24
TORSDOF 20
