REMARK SMILES N#C[C@@]1([C@@H](O)C(=O)OCCOCCOCCOC(=O)c2ccc(-c3c4nc(c(-c5c(F)c(F)c(F)c(F)c5F)c5ccc([nH]5)c(-c5c(F)c(F)c(F)c(F)c5F)c5nc(c(-c6c(F)c(F)c(F)c(F)c6F)c6ccc3[nH]6)C=C5)C=C4)cc2)CCCc2ccccc21
REMARK SMILES IDX 12 1 11 2 10 3 9 4 8 5 6 6 7 7 4 8 3 9 83 10 91 11 84 12
REMARK SMILES IDX 86 13 90 14 85 15 87 16 89 17 88 18 2 19 1 20 5 21 13 23
REMARK SMILES IDX 14 24 15 25 16 26 17 27 18 28 19 29 20 30 21 31 82 32 22 33
REMARK SMILES IDX 81 34 23 35 24 36 25 37 75 38 26 39 80 40 74 41 76 42 27 43
REMARK SMILES IDX 79 44 73 45 72 46 28 48 60 49 40 50 59 51 41 52 44 53 58 54
REMARK SMILES IDX 77 55 42 56 43 57 57 59 78 60 45 61 29 62 30 63 38 64 31 65
REMARK SMILES IDX 32 66 36 67 39 68 33 69 34 70 37 71 35 72 61 73 62 74 70 75
REMARK SMILES IDX 63 76 64 77 68 78 71 79 65 80 66 81 69 82 67 83 46 84 47 85
REMARK SMILES IDX 55 86 48 87 49 88 53 89 56 90 50 91 51 92 54 93 52 94
REMARK H PARENT 5 22 76 47 44 58
REMARK Flexibility Score: inf
ROOT
ATOM      1  C   UNL     1       1.378  -2.352   3.022  1.00  0.00     0.188 C 
ENDROOT
BRANCH   1   2
ATOM      2  O   UNL     1       0.712  -3.523   2.589  1.00  0.00    -0.376 OA
BRANCH   2   3
ATOM      3  C   UNL     1       1.098  -4.130   1.363  1.00  0.00     0.202 C 
BRANCH   3   4
ATOM      4  C   UNL     1       0.912  -3.317   0.076  1.00  0.00     0.261 C 
BRANCH   4   5
ATOM      5  O   UNL     1       1.925  -2.308  -0.181  1.00  0.00    -0.461 OA
BRANCH   5   6
ATOM      6  C   UNL     1       1.514  -1.016  -0.131  1.00  0.00     0.337 C 
ATOM      7  O   UNL     1       0.411  -0.675   0.298  1.00  0.00    -0.249 OA
BRANCH   6   8
ATOM      8  C   UNL     1       2.424   0.012  -0.819  1.00  0.00     0.248 C 
BRANCH   8   9
ATOM      9  C   UNL     1       3.992   0.087  -0.720  1.00  0.00     0.119 C 
ATOM     10  C   UNL     1       4.756  -1.217  -1.083  1.00  0.00     0.031 C 
ATOM     11  C   UNL     1       4.487   0.725   0.599  1.00  0.00    -0.021 A 
ATOM     12  C   UNL     1       5.165  -2.081   0.096  1.00  0.00     0.007 C 
ATOM     13  C   UNL     1       5.424   0.085   1.428  1.00  0.00    -0.043 A 
ATOM     14  C   UNL     1       4.117   2.056   0.922  1.00  0.00     0.006 A 
ATOM     15  C   UNL     1       5.925  -1.312   1.171  1.00  0.00     0.036 C 
ATOM     16  C   UNL     1       5.997   0.792   2.506  1.00  0.00     0.004 A 
ATOM     17  C   UNL     1       4.684   2.740   2.000  1.00  0.00     0.000 A 
ATOM     18  C   UNL     1       5.634   2.110   2.788  1.00  0.00     0.000 A 
BRANCH   9  19
ATOM     19  C   UNL     1       4.398   1.056  -1.806  1.00  0.00     0.077 C 
ATOM     20  N   UNL     1       4.692   1.825  -2.630  1.00  0.00    -0.197 NA
ENDBRANCH   9  19
ENDBRANCH   8   9
BRANCH   8  21
ATOM     21  O   UNL     1       2.000  -0.013  -2.201  1.00  0.00    -0.380 OA
ATOM     22  H   UNL     1       2.215  -0.876  -2.589  1.00  0.00     0.211 HD
ENDBRANCH   8  21
ENDBRANCH   6   8
ENDBRANCH   5   6
ENDBRANCH   4   5
ENDBRANCH   3   4
ENDBRANCH   2   3
ENDBRANCH   1   2
BRANCH   1  23
ATOM     23  C   UNL     1       2.876  -2.221   2.765  1.00  0.00     0.188 C 
BRANCH  23  24
ATOM     24  O   UNL     1       3.669  -3.385   2.613  1.00  0.00    -0.376 OA
BRANCH  24  25
ATOM     25  C   UNL     1       3.713  -4.298   3.703  1.00  0.00     0.202 C 
BRANCH  25  26
ATOM     26  C   UNL     1       4.620  -3.850   4.848  1.00  0.00     0.261 C 
BRANCH  26  27
ATOM     27  O   UNL     1       4.043  -2.728   5.533  1.00  0.00    -0.460 OA
BRANCH  27  28
ATOM     28  C   UNL     1       4.750  -1.574   5.471  1.00  0.00     0.338 C 
ATOM     29  O   UNL     1       5.864  -1.398   5.013  1.00  0.00    -0.246 OA
BRANCH  28  30
ATOM     30  C   UNL     1       3.847  -0.483   5.874  1.00  0.00     0.060 A 
ATOM     31  C   UNL     1       3.324  -0.442   7.159  1.00  0.00     0.016 A 
ATOM     32  C   UNL     1       3.517   0.505   4.938  1.00  0.00     0.016 A 
ATOM     33  C   UNL     1       2.493   0.618   7.507  1.00  0.00     0.010 A 
ATOM     34  C   UNL     1       2.715   1.581   5.289  1.00  0.00     0.010 A 
ATOM     35  C   UNL     1       2.213   1.650   6.586  1.00  0.00    -0.014 A 
BRANCH  35  36
ATOM     36  C   UNL     1       1.515   2.861   7.055  1.00  0.00     0.031 A 
ATOM     37  C   UNL     1       0.116   3.169   6.636  1.00  0.00     0.074 A 
ATOM     38  C   UNL     1       2.181   3.654   7.914  1.00  0.00     0.049 A 
ATOM     39  N   UNL     1      -0.706   4.053   7.137  1.00  0.00    -0.248 NA
ATOM     40  C   UNL     1      -0.432   2.402   5.508  1.00  0.00     0.031 C 
ATOM     41  C   UNL     1       3.582   3.468   8.301  1.00  0.00     0.029 A 
ATOM     42  N   UNL     1       1.769   4.731   8.650  1.00  0.00    -0.354 N 
ATOM     43  C   UNL     1      -1.881   3.924   6.413  1.00  0.00     0.074 A 
ATOM     44  C   UNL     1      -1.642   2.933   5.386  1.00  0.00     0.031 C 
ATOM     45  C   UNL     1       3.885   4.339   9.272  1.00  0.00     0.029 A 
ATOM     46  C   UNL     1       2.715   5.166   9.545  1.00  0.00     0.049 A 
ATOM     47  H   UNL     1       0.884   5.151   8.548  1.00  0.00     0.167 HD
ATOM     48  C   UNL     1      -3.058   4.560   6.621  1.00  0.00     0.037 A 
ATOM     49  C   UNL     1       2.633   6.108  10.501  1.00  0.00     0.037 A 
ATOM     50  C   UNL     1      -3.255   5.557   7.643  1.00  0.00     0.049 A 
ATOM     51  C   UNL     1       1.321   6.811  10.697  1.00  0.00     0.074 A 
ATOM     52  C   UNL     1      -4.410   6.243   7.968  1.00  0.00     0.029 A 
ATOM     53  N   UNL     1      -2.260   6.020   8.497  1.00  0.00    -0.354 N 
ATOM     54  N   UNL     1       0.179   6.613  10.082  1.00  0.00    -0.248 NA
ATOM     55  C   UNL     1       1.280   7.862  11.720  1.00  0.00     0.031 C 
ATOM     56  C   UNL     1      -4.100   7.166   8.970  1.00  0.00     0.029 A 
ATOM     57  C   UNL     1      -2.768   7.010   9.323  1.00  0.00     0.049 A 
ATOM     58  H   UNL     1      -1.332   5.693   8.512  1.00  0.00     0.167 HD
ATOM     59  C   UNL     1      -0.720   7.504  10.648  1.00  0.00     0.074 A 
ATOM     60  C   UNL     1       0.005   8.223  11.679  1.00  0.00     0.031 C 
ATOM     61  C   UNL     1      -2.023   7.716  10.338  1.00  0.00     0.037 A 
BRANCH  48  62
ATOM     62  C   UNL     1      -4.220   4.192   5.744  1.00  0.00     0.064 A 
ATOM     63  C   UNL     1      -4.826   2.927   5.823  1.00  0.00     0.173 A 
ATOM     64  C   UNL     1      -4.779   5.128   4.861  1.00  0.00     0.173 A 
ATOM     65  F   UNL     1      -4.330   1.991   6.646  1.00  0.00    -0.203 F 
ATOM     66  C   UNL     1      -5.931   2.608   5.037  1.00  0.00     0.198 A 
ATOM     67  C   UNL     1      -5.904   4.817   4.100  1.00  0.00     0.198 A 
ATOM     68  F   UNL     1      -4.245   6.354   4.748  1.00  0.00    -0.203 F 
ATOM     69  F   UNL     1      -6.465   1.381   5.102  1.00  0.00    -0.200 F 
ATOM     70  C   UNL     1      -6.474   3.556   4.184  1.00  0.00     0.200 A 
ATOM     71  F   UNL     1      -6.439   5.740   3.290  1.00  0.00    -0.200 F 
ATOM     72  F   UNL     1      -7.548   3.254   3.441  1.00  0.00    -0.200 F 
ENDBRANCH  48  62
BRANCH  49  73
ATOM     73  C   UNL     1       3.813   6.380  11.362  1.00  0.00     0.064 A 
ATOM     74  C   UNL     1       3.809   6.049  12.723  1.00  0.00     0.173 A 
ATOM     75  C   UNL     1       4.993   6.920  10.826  1.00  0.00     0.173 A 
ATOM     76  F   UNL     1       2.704   5.538  13.286  1.00  0.00    -0.203 F 
ATOM     77  C   UNL     1       4.937   6.255  13.517  1.00  0.00     0.198 A 
ATOM     78  C   UNL     1       6.129   7.093  11.611  1.00  0.00     0.198 A 
ATOM     79  F   UNL     1       5.053   7.240   9.525  1.00  0.00    -0.203 F 
ATOM     80  F   UNL     1       4.897   5.957  14.822  1.00  0.00    -0.200 F 
ATOM     81  C   UNL     1       6.099   6.766  12.958  1.00  0.00     0.200 A 
ATOM     82  F   UNL     1       7.256   7.563  11.060  1.00  0.00    -0.200 F 
ATOM     83  F   UNL     1       7.189   6.942  13.716  1.00  0.00    -0.200 F 
ENDBRANCH  49  73
BRANCH  61  84
ATOM     84  C   UNL     1      -2.754   8.770  11.118  1.00  0.00     0.064 A 
ATOM     85  C   UNL     1      -2.471  10.133  10.949  1.00  0.00     0.173 A 
ATOM     86  C   UNL     1      -3.802   8.418  11.982  1.00  0.00     0.173 A 
ATOM     87  F   UNL     1      -1.470  10.521  10.144  1.00  0.00    -0.203 F 
ATOM     88  C   UNL     1      -3.199  11.104  11.630  1.00  0.00     0.198 A 
ATOM     89  C   UNL     1      -4.553   9.393  12.632  1.00  0.00     0.198 A 
ATOM     90  F   UNL     1      -4.119   7.128  12.172  1.00  0.00    -0.203 F 
ATOM     91  F   UNL     1      -2.883  12.399  11.486  1.00  0.00    -0.200 F 
ATOM     92  C   UNL     1      -4.247  10.735  12.460  1.00  0.00     0.200 A 
ATOM     93  F   UNL     1      -5.578   9.035  13.416  1.00  0.00    -0.200 F 
ATOM     94  F   UNL     1      -4.961  11.673  13.097  1.00  0.00    -0.200 F 
ENDBRANCH  61  84
ENDBRANCH  35  36
ENDBRANCH  28  30
ENDBRANCH  27  28
ENDBRANCH  26  27
ENDBRANCH  25  26
ENDBRANCH  24  25
ENDBRANCH  23  24
ENDBRANCH   1  23
TORSDOF 20
