REMARK SMILES Cc1nn([C@H]2CCS(=O)(=O)C2)c(C)c1/C=C(\CC(=O)OCCOCCOCCOC(=O)c1ccc(-c2c3nc(c(-c4c(F)c(F)c(F)c(F)c4F)c4ccc([nH]4)c(-c4c(F)c(F)c(F)c(F)c4F)c4nc(c(-c5c(F)c(F)c(F)c(F)c5F)c5ccc2[nH]5)C=C4)C=C3)cc1)c1nc2ccccc2s1
REMARK SMILES IDX 24 1 23 2 22 3 21 4 20 5 18 6 19 7 17 8 16 9 15 10 14 11
REMARK SMILES IDX 1 12 2 13 3 14 4 15 12 16 13 17 5 18 6 19 11 20 7 21 8 22
REMARK SMILES IDX 9 23 10 24 95 25 96 26 103 27 97 28 102 29 98 30 101 31
REMARK SMILES IDX 99 32 100 33 25 34 26 35 27 36 28 37 29 38 30 39 31 40 32 41
REMARK SMILES IDX 33 42 94 43 34 44 93 45 35 46 36 47 37 48 87 49 38 50 92 51
REMARK SMILES IDX 86 52 88 53 39 54 91 55 85 56 84 57 40 59 72 60 52 61 71 62
REMARK SMILES IDX 53 63 56 64 70 65 89 66 54 67 55 68 69 70 90 71 57 72 41 73
REMARK SMILES IDX 42 74 50 75 43 76 44 77 48 78 51 79 45 80 46 81 49 82 47 83
REMARK SMILES IDX 73 84 74 85 82 86 75 87 76 88 80 89 83 90 77 91 78 92 81 93
REMARK SMILES IDX 79 94 58 95 59 96 67 97 60 98 61 99 65 100 68 101 62 102
REMARK SMILES IDX 63 103 66 104 64 105
REMARK H PARENT 88 58 56 69
REMARK Flexibility Score: inf
ROOT
ATOM      1  C   UNL     1       5.299  -4.196   9.386  1.00  0.00     0.188 C 
ENDROOT
BRANCH   1   2
ATOM      2  O   UNL     1       4.648  -4.510  10.603  1.00  0.00    -0.376 OA
BRANCH   2   3
ATOM      3  C   UNL     1       3.425  -5.244  10.578  1.00  0.00     0.202 C 
BRANCH   3   4
ATOM      4  C   UNL     1       2.313  -4.886   9.575  1.00  0.00     0.261 C 
BRANCH   4   5
ATOM      5  O   UNL     1       2.594  -5.258   8.197  1.00  0.00    -0.463 OA
BRANCH   5   6
ATOM      6  C   UNL     1       2.894  -4.228   7.391  1.00  0.00     0.310 C 
ATOM      7  O   UNL     1       2.752  -3.047   7.732  1.00  0.00    -0.252 OA
BRANCH   6   8
ATOM      8  C   UNL     1       3.339  -4.489   5.949  1.00  0.00     0.161 C 
BRANCH   8   9
ATOM      9  C   UNL     1       3.692  -5.504   4.843  1.00  0.00    -0.000 C 
ATOM     10  C   UNL     1       2.944  -5.432   3.695  1.00  0.00     0.019 C 
BRANCH  10  11
ATOM     11  C   UNL     1       1.748  -4.661   3.508  1.00  0.00     0.019 A 
ATOM     12  C   UNL     1       0.105  -6.493   2.646  1.00  0.00     0.069 C 
ATOM     13  C   UNL     1       0.471  -5.151   3.160  1.00  0.00     0.067 A 
ATOM     14  N   UNL     1      -0.471  -4.232   3.408  1.00  0.00    -0.177 NA
ATOM     15  N   UNL     1       0.214  -3.170   3.882  1.00  0.00    -0.265 N 
ATOM     16  C   UNL     1       1.572  -3.296   3.689  1.00  0.00     0.043 A 
ATOM     17  C   UNL     1       2.546  -2.181   3.861  1.00  0.00     0.067 C 
BRANCH  15  18
ATOM     18  C   UNL     1      -0.498  -2.066   4.504  1.00  0.00     0.123 C 
ATOM     19  C   UNL     1      -1.992  -2.338   4.789  1.00  0.00     0.044 C 
ATOM     20  C   UNL     1       0.044  -1.658   5.879  1.00  0.00     0.164 C 
ATOM     21  C   UNL     1      -2.525  -1.099   5.500  1.00  0.00     0.139 C 
ATOM     22  S   UNL     1      -1.153  -0.475   6.454  1.00  0.00     0.152 S 
ATOM     23  O   UNL     1      -0.784   0.822   5.918  1.00  0.00    -0.229 OA
ATOM     24  O   UNL     1      -1.405  -0.690   7.859  1.00  0.00    -0.229 OA
ENDBRANCH  15  18
ENDBRANCH  10  11
BRANCH   9  25
ATOM     25  C   UNL     1       4.935  -6.291   4.764  1.00  0.00     0.121 A 
ATOM     26  N   UNL     1       6.022  -6.121   5.498  1.00  0.00    -0.236 NA
ATOM     27  S   UNL     1       5.159  -7.565   3.571  1.00  0.00    -0.114 S 
ATOM     28  C   UNL     1       7.051  -6.996   5.133  1.00  0.00     0.082 A 
ATOM     29  C   UNL     1       6.781  -7.824   4.053  1.00  0.00     0.055 A 
ATOM     30  C   UNL     1       8.315  -7.122   5.747  1.00  0.00     0.030 A 
ATOM     31  C   UNL     1       7.744  -8.717   3.535  1.00  0.00     0.021 A 
ATOM     32  C   UNL     1       9.270  -8.029   5.278  1.00  0.00     0.002 A 
ATOM     33  C   UNL     1       8.989  -8.810   4.169  1.00  0.00     0.002 A 
ENDBRANCH   9  25
ENDBRANCH   8   9
ENDBRANCH   6   8
ENDBRANCH   5   6
ENDBRANCH   4   5
ENDBRANCH   3   4
ENDBRANCH   2   3
ENDBRANCH   1   2
BRANCH   1  34
ATOM     34  C   UNL     1       5.569  -5.318   8.372  1.00  0.00     0.188 C 
BRANCH  34  35
ATOM     35  O   UNL     1       4.742  -6.465   8.479  1.00  0.00    -0.376 OA
BRANCH  35  36
ATOM     36  C   UNL     1       5.394  -7.701   8.750  1.00  0.00     0.202 C 
BRANCH  36  37
ATOM     37  C   UNL     1       5.952  -7.812  10.179  1.00  0.00     0.261 C 
BRANCH  37  38
ATOM     38  O   UNL     1       6.874  -6.763  10.488  1.00  0.00    -0.460 OA
BRANCH  38  39
ATOM     39  C   UNL     1       7.996  -6.852   9.756  1.00  0.00     0.338 C 
ATOM     40  O   UNL     1       8.340  -7.773   9.032  1.00  0.00    -0.246 OA
BRANCH  39  41
ATOM     41  C   UNL     1       8.774  -5.606   9.884  1.00  0.00     0.060 A 
ATOM     42  C   UNL     1       9.167  -5.065   8.649  1.00  0.00     0.016 A 
ATOM     43  C   UNL     1       9.661  -5.706  10.947  1.00  0.00     0.016 A 
ATOM     44  C   UNL     1      10.497  -5.126   8.315  1.00  0.00     0.010 A 
ATOM     45  C   UNL     1      10.999  -5.699  10.637  1.00  0.00     0.010 A 
ATOM     46  C   UNL     1      11.381  -5.564   9.292  1.00  0.00    -0.014 A 
BRANCH  46  47
ATOM     47  C   UNL     1      12.755  -5.838   8.904  1.00  0.00     0.031 A 
ATOM     48  C   UNL     1      13.541  -4.630   8.538  1.00  0.00     0.074 A 
ATOM     49  C   UNL     1      13.241  -7.080   9.111  1.00  0.00     0.049 A 
ATOM     50  N   UNL     1      14.505  -4.507   7.683  1.00  0.00    -0.248 NA
ATOM     51  C   UNL     1      13.143  -3.357   9.176  1.00  0.00     0.031 C 
ATOM     52  C   UNL     1      12.510  -8.230   9.665  1.00  0.00     0.029 A 
ATOM     53  N   UNL     1      14.529  -7.524   9.083  1.00  0.00    -0.354 N 
ATOM     54  C   UNL     1      14.947  -3.191   7.814  1.00  0.00     0.074 A 
ATOM     55  C   UNL     1      13.990  -2.495   8.625  1.00  0.00     0.031 C 
ATOM     56  C   UNL     1      13.395  -9.098  10.194  1.00  0.00     0.029 A 
ATOM     57  C   UNL     1      14.736  -8.605   9.935  1.00  0.00     0.049 A 
ATOM     58  H   UNL     1      15.234  -7.126   8.522  1.00  0.00     0.167 HD
ATOM     59  C   UNL     1      16.213  -2.829   7.486  1.00  0.00     0.037 A 
ATOM     60  C   UNL     1      15.906  -8.974  10.511  1.00  0.00     0.037 A 
ATOM     61  C   UNL     1      16.765  -3.673   6.466  1.00  0.00     0.049 A 
ATOM     62  C   UNL     1      17.004  -8.276   9.800  1.00  0.00     0.074 A 
ATOM     63  C   UNL     1      16.397  -3.986   5.172  1.00  0.00     0.029 A 
ATOM     64  N   UNL     1      17.724  -4.590   6.811  1.00  0.00    -0.354 N 
ATOM     65  N   UNL     1      17.392  -8.542   8.586  1.00  0.00    -0.248 NA
ATOM     66  C   UNL     1      17.437  -6.988  10.325  1.00  0.00     0.031 C 
ATOM     67  C   UNL     1      16.816  -5.332   4.973  1.00  0.00     0.029 A 
ATOM     68  C   UNL     1      17.426  -5.755   6.153  1.00  0.00     0.049 A 
ATOM     69  H   UNL     1      18.485  -4.440   7.417  1.00  0.00     0.167 HD
ATOM     70  C   UNL     1      17.748  -7.312   8.054  1.00  0.00     0.074 A 
ATOM     71  C   UNL     1      17.871  -6.419   9.199  1.00  0.00     0.031 C 
ATOM     72  C   UNL     1      17.626  -7.065   6.719  1.00  0.00     0.037 A 
BRANCH  59  73
ATOM     73  C   UNL     1      17.047  -1.940   8.376  1.00  0.00     0.064 A 
ATOM     74  C   UNL     1      18.295  -1.484   7.916  1.00  0.00     0.173 A 
ATOM     75  C   UNL     1      16.807  -1.764   9.760  1.00  0.00     0.173 A 
ATOM     76  F   UNL     1      18.640  -1.627   6.628  1.00  0.00    -0.203 F 
ATOM     77  C   UNL     1      19.255  -0.963   8.787  1.00  0.00     0.198 A 
ATOM     78  C   UNL     1      17.743  -1.188  10.614  1.00  0.00     0.198 A 
ATOM     79  F   UNL     1      15.711  -2.239  10.365  1.00  0.00    -0.203 F 
ATOM     80  F   UNL     1      20.477  -0.666   8.326  1.00  0.00    -0.200 F 
ATOM     81  C   UNL     1      18.980  -0.819  10.135  1.00  0.00     0.200 A 
ATOM     82  F   UNL     1      17.461  -1.075  11.920  1.00  0.00    -0.200 F 
ATOM     83  F   UNL     1      19.920  -0.378  10.980  1.00  0.00    -0.200 F 
ENDBRANCH  59  73
BRANCH  60  84
ATOM     84  C   UNL     1      16.114  -9.639  11.822  1.00  0.00     0.064 A 
ATOM     85  C   UNL     1      17.329 -10.276  12.118  1.00  0.00     0.173 A 
ATOM     86  C   UNL     1      15.220  -9.471  12.899  1.00  0.00     0.173 A 
ATOM     87  F   UNL     1      18.261 -10.425  11.166  1.00  0.00    -0.203 F 
ATOM     88  C   UNL     1      17.631 -10.716  13.411  1.00  0.00     0.198 A 
ATOM     89  C   UNL     1      15.513  -9.930  14.183  1.00  0.00     0.198 A 
ATOM     90  F   UNL     1      14.081  -8.778  12.753  1.00  0.00    -0.203 F 
ATOM     91  F   UNL     1      18.826 -11.266  13.666  1.00  0.00    -0.200 F 
ATOM     92  C   UNL     1      16.723 -10.542  14.442  1.00  0.00     0.200 A 
ATOM     93  F   UNL     1      14.638  -9.723  15.178  1.00  0.00    -0.200 F 
ATOM     94  F   UNL     1      17.030 -10.925  15.690  1.00  0.00    -0.200 F 
ENDBRANCH  60  84
BRANCH  72  95
ATOM     95  C   UNL     1      17.394  -8.239   5.814  1.00  0.00     0.064 A 
ATOM     96  C   UNL     1      16.243  -9.043   5.865  1.00  0.00     0.173 A 
ATOM     97  C   UNL     1      18.303  -8.473   4.775  1.00  0.00     0.173 A 
ATOM     98  F   UNL     1      15.276  -8.806   6.760  1.00  0.00    -0.203 F 
ATOM     99  C   UNL     1      16.041 -10.071   4.948  1.00  0.00     0.198 A 
ATOM    100  C   UNL     1      18.080  -9.477   3.837  1.00  0.00     0.198 A 
ATOM    101  F   UNL     1      19.388  -7.694   4.641  1.00  0.00    -0.203 F 
ATOM    102  F   UNL     1      14.941 -10.835   5.026  1.00  0.00    -0.200 F 
ATOM    103  C   UNL     1      16.957 -10.284   3.931  1.00  0.00     0.200 A 
ATOM    104  F   UNL     1      18.941  -9.645   2.824  1.00  0.00    -0.200 F 
ATOM    105  F   UNL     1      16.742 -11.246   3.024  1.00  0.00    -0.200 F 
ENDBRANCH  72  95
ENDBRANCH  46  47
ENDBRANCH  39  41
ENDBRANCH  38  39
ENDBRANCH  37  38
ENDBRANCH  36  37
ENDBRANCH  35  36
ENDBRANCH  34  35
ENDBRANCH   1  34
TORSDOF 21
