REMARK SMILES O=C(OCCOCCOCCOC(=O)[C@@H]1[C@@H](C(=O)Nc2nc(-c3ccc(F)cc3)cs2)[C@H]2C=C[C@@H]1O2)c1ccc(-c2c3nc(c(-c4c(F)c(F)c(F)c(F)c4F)c4ccc([nH]4)c(-c4c(F)c(F)c(F)c(F)c4F)c4nc(c(-c5c(F)c(F)c(F)c(F)c5F)c5ccc2[nH]5)C=C4)C=C3)cc1
REMARK SMILES IDX 8 1 7 2 6 3 5 4 4 5 3 6 2 7 1 8 37 9 38 10 99 11 39 12 98 13
REMARK SMILES IDX 40 14 41 15 42 16 92 17 43 18 97 19 91 20 93 21 44 22 96 23
REMARK SMILES IDX 90 24 89 25 45 27 77 28 57 29 76 30 58 31 61 32 75 33 94 34
REMARK SMILES IDX 59 35 60 36 74 38 95 39 62 40 46 41 47 42 55 43 48 44 49 45
REMARK SMILES IDX 53 46 56 47 50 48 51 49 54 50 52 51 78 52 79 53 87 54 80 55
REMARK SMILES IDX 81 56 85 57 88 58 82 59 83 60 86 61 84 62 63 63 64 64 72 65
REMARK SMILES IDX 65 66 66 67 70 68 73 69 67 70 68 71 71 72 69 73 9 74 10 75
REMARK SMILES IDX 11 76 12 77 13 78 14 79 15 80 16 81 35 82 32 83 34 84 36 85
REMARK SMILES IDX 33 86 17 87 18 88 19 89 20 91 21 92 31 93 22 94 30 95 23 96
REMARK SMILES IDX 24 97 29 98 25 99 28 100 26 101 27 102
REMARK H PARENT 93 26 61 37 19 90
REMARK Flexibility Score: inf
ROOT
ATOM      1  C   UNL     1       1.533  -2.876  -0.456  1.00  0.00     0.188 C 
ENDROOT
BRANCH   1   2
ATOM      2  C   UNL     1       2.017  -1.536   0.093  1.00  0.00     0.188 C 
BRANCH   2   3
ATOM      3  O   UNL     1       3.342  -1.202  -0.329  1.00  0.00    -0.376 OA
BRANCH   3   4
ATOM      4  C   UNL     1       4.213  -0.885   0.755  1.00  0.00     0.202 C 
BRANCH   4   5
ATOM      5  C   UNL     1       3.994   0.471   1.436  1.00  0.00     0.261 C 
BRANCH   5   6
ATOM      6  O   UNL     1       2.666   0.989   1.298  1.00  0.00    -0.460 OA
BRANCH   6   7
ATOM      7  C   UNL     1       2.123   1.721   0.299  1.00  0.00     0.338 C 
ATOM      8  O   UNL     1       0.958   2.095   0.434  1.00  0.00    -0.246 OA
BRANCH   7   9
ATOM      9  C   UNL     1       2.830   2.123  -0.963  1.00  0.00     0.060 A 
ATOM     10  C   UNL     1       4.014   1.578  -1.458  1.00  0.00     0.016 A 
ATOM     11  C   UNL     1       2.200   3.113  -1.745  1.00  0.00     0.016 A 
ATOM     12  C   UNL     1       4.566   2.011  -2.662  1.00  0.00     0.010 A 
ATOM     13  C   UNL     1       2.740   3.545  -2.963  1.00  0.00     0.010 A 
ATOM     14  C   UNL     1       3.938   2.996  -3.419  1.00  0.00    -0.014 A 
BRANCH  14  15
ATOM     15  C   UNL     1       4.651   3.540  -4.592  1.00  0.00     0.031 A 
ATOM     16  C   UNL     1       5.498   4.734  -4.381  1.00  0.00     0.074 A 
ATOM     17  C   UNL     1       4.619   2.924  -5.785  1.00  0.00     0.049 A 
ATOM     18  N   UNL     1       6.142   5.435  -5.266  1.00  0.00    -0.248 NA
ATOM     19  C   UNL     1       5.635   5.206  -2.995  1.00  0.00     0.031 C 
ATOM     20  C   UNL     1       3.882   1.706  -6.009  1.00  0.00     0.029 A 
ATOM     21  N   UNL     1       5.196   3.174  -7.000  1.00  0.00    -0.354 N 
ATOM     22  C   UNL     1       6.698   6.482  -4.558  1.00  0.00     0.074 A 
ATOM     23  C   UNL     1       6.368   6.293  -3.163  1.00  0.00     0.031 C 
ATOM     24  C   UNL     1       4.070   1.267  -7.257  1.00  0.00     0.029 A 
ATOM     25  C   UNL     1       4.886   2.233  -7.960  1.00  0.00     0.049 A 
ATOM     26  H   UNL     1       5.777   3.950  -7.173  1.00  0.00     0.167 HD
ATOM     27  C   UNL     1       7.368   7.533  -5.072  1.00  0.00     0.037 A 
ATOM     28  C   UNL     1       5.182   2.177  -9.273  1.00  0.00     0.037 A 
ATOM     29  C   UNL     1       7.629   7.673  -6.478  1.00  0.00     0.049 A 
ATOM     30  C   UNL     1       5.915   3.359  -9.826  1.00  0.00     0.074 A 
ATOM     31  C   UNL     1       8.236   8.719  -7.140  1.00  0.00     0.029 A 
ATOM     32  N   UNL     1       7.277   6.731  -7.444  1.00  0.00    -0.354 N 
ATOM     33  N   UNL     1       6.371   4.401  -9.171  1.00  0.00    -0.248 NA
ATOM     34  C   UNL     1       6.123   3.412 -11.275  1.00  0.00     0.031 C 
ATOM     35  C   UNL     1       8.194   8.441  -8.509  1.00  0.00     0.029 A 
ATOM     36  C   UNL     1       7.633   7.184  -8.701  1.00  0.00     0.049 A 
ATOM     37  H   UNL     1       6.839   5.869  -7.258  1.00  0.00     0.167 HD
ATOM     38  C   UNL     1       6.902   5.249 -10.122  1.00  0.00     0.074 A 
ATOM     39  C   UNL     1       6.741   4.582 -11.403  1.00  0.00     0.031 C 
ATOM     40  C   UNL     1       7.452   6.475  -9.949  1.00  0.00     0.037 A 
BRANCH  27  41
ATOM     41  C   UNL     1       7.699   8.639  -4.119  1.00  0.00     0.064 A 
ATOM     42  C   UNL     1       6.983   9.843  -4.186  1.00  0.00     0.173 A 
ATOM     43  C   UNL     1       8.642   8.491  -3.091  1.00  0.00     0.173 A 
ATOM     44  F   UNL     1       6.050  10.024  -5.133  1.00  0.00    -0.203 F 
ATOM     45  C   UNL     1       7.198  10.858  -3.260  1.00  0.00     0.198 A 
ATOM     46  C   UNL     1       8.829   9.495  -2.145  1.00  0.00     0.198 A 
ATOM     47  F   UNL     1       9.315   7.338  -2.953  1.00  0.00    -0.203 F 
ATOM     48  F   UNL     1       6.500  11.999  -3.346  1.00  0.00    -0.200 F 
ATOM     49  C   UNL     1       8.111  10.679  -2.233  1.00  0.00     0.200 A 
ATOM     50  F   UNL     1       9.673   9.299  -1.122  1.00  0.00    -0.200 F 
ATOM     51  F   UNL     1       8.284  11.639  -1.314  1.00  0.00    -0.200 F 
ENDBRANCH  27  41
BRANCH  28  52
ATOM     52  C   UNL     1       4.747   1.013 -10.099  1.00  0.00     0.064 A 
ATOM     53  C   UNL     1       3.386   0.702 -10.278  1.00  0.00     0.173 A 
ATOM     54  C   UNL     1       5.681   0.119 -10.640  1.00  0.00     0.173 A 
ATOM     55  F   UNL     1       2.443   1.521  -9.789  1.00  0.00    -0.203 F 
ATOM     56  C   UNL     1       2.983  -0.477 -10.906  1.00  0.00     0.198 A 
ATOM     57  C   UNL     1       5.276  -1.044 -11.300  1.00  0.00     0.198 A 
ATOM     58  F   UNL     1       6.993   0.372 -10.523  1.00  0.00    -0.203 F 
ATOM     59  F   UNL     1       1.679  -0.773 -10.997  1.00  0.00    -0.200 F 
ATOM     60  C   UNL     1       3.928  -1.350 -11.416  1.00  0.00     0.200 A 
ATOM     61  F   UNL     1       6.194  -1.873 -11.817  1.00  0.00    -0.200 F 
ATOM     62  F   UNL     1       3.542  -2.483 -12.021  1.00  0.00    -0.200 F 
ENDBRANCH  28  52
BRANCH  40  63
ATOM     63  C   UNL     1       7.941   7.174 -11.175  1.00  0.00     0.064 A 
ATOM     64  C   UNL     1       9.318   7.338 -11.378  1.00  0.00     0.173 A 
ATOM     65  C   UNL     1       7.054   7.807 -12.055  1.00  0.00     0.173 A 
ATOM     66  F   UNL     1      10.197   6.752 -10.551  1.00  0.00    -0.203 F 
ATOM     67  C   UNL     1       9.792   8.155 -12.396  1.00  0.00     0.198 A 
ATOM     68  C   UNL     1       7.533   8.599 -13.092  1.00  0.00     0.198 A 
ATOM     69  F   UNL     1       5.729   7.660 -11.903  1.00  0.00    -0.203 F 
ATOM     70  F   UNL     1      11.110   8.353 -12.533  1.00  0.00    -0.200 F 
ATOM     71  C   UNL     1       8.899   8.787 -13.249  1.00  0.00     0.200 A 
ATOM     72  F   UNL     1       6.673   9.195 -13.929  1.00  0.00    -0.200 F 
ATOM     73  F   UNL     1       9.357   9.588 -14.221  1.00  0.00    -0.200 F 
ENDBRANCH  40  63
ENDBRANCH  14  15
ENDBRANCH   7   9
ENDBRANCH   6   7
ENDBRANCH   5   6
ENDBRANCH   4   5
ENDBRANCH   3   4
ENDBRANCH   2   3
ENDBRANCH   1   2
BRANCH   1  74
ATOM     74  O   UNL     1       2.141  -4.036   0.111  1.00  0.00    -0.376 OA
BRANCH  74  75
ATOM     75  C   UNL     1       3.506  -4.287  -0.219  1.00  0.00     0.202 C 
BRANCH  75  76
ATOM     76  C   UNL     1       3.779  -4.801  -1.634  1.00  0.00     0.261 C 
BRANCH  76  77
ATOM     77  O   UNL     1       3.551  -3.800  -2.627  1.00  0.00    -0.463 OA
BRANCH  77  78
ATOM     78  C   UNL     1       2.543  -4.030  -3.502  1.00  0.00     0.312 C 
ATOM     79  O   UNL     1       1.862  -5.041  -3.546  1.00  0.00    -0.252 OA
BRANCH  78  80
ATOM     80  C   UNL     1       2.350  -2.886  -4.452  1.00  0.00     0.147 C 
ATOM     81  C   UNL     1       3.203  -1.616  -4.153  1.00  0.00     0.129 C 
ATOM     82  C   UNL     1       0.907  -2.369  -4.312  1.00  0.00     0.157 C 
ATOM     83  C   UNL     1       2.079  -0.552  -4.132  1.00  0.00     0.155 C 
ATOM     84  C   UNL     1       0.556  -1.544  -5.510  1.00  0.00     0.004 C 
ATOM     85  O   UNL     1       1.093  -1.289  -3.355  1.00  0.00    -0.365 OA
ATOM     86  C   UNL     1       1.282  -0.426  -5.406  1.00  0.00     0.004 C 
BRANCH  81  87
ATOM     87  C   UNL     1       4.278  -1.429  -5.211  1.00  0.00     0.233 C 
ATOM     88  O   UNL     1       4.031  -1.646  -6.404  1.00  0.00    -0.274 OA
ATOM     89  N   UNL     1       5.511  -0.922  -4.928  1.00  0.00    -0.302 N 
ATOM     90  H   UNL     1       5.917  -0.374  -5.638  1.00  0.00     0.172 HD
BRANCH  89  91
ATOM     91  C   UNL     1       6.262  -1.066  -3.797  1.00  0.00     0.189 A 
ATOM     92  N   UNL     1       6.084  -1.829  -2.752  1.00  0.00    -0.220 NA
ATOM     93  S   UNL     1       7.724  -0.170  -3.831  1.00  0.00    -0.105 S 
ATOM     94  C   UNL     1       7.194  -1.734  -1.913  1.00  0.00     0.084 A 
ATOM     95  C   UNL     1       8.141  -0.803  -2.289  1.00  0.00     0.097 A 
BRANCH  94  96
ATOM     96  C   UNL     1       7.322  -2.597  -0.750  1.00  0.00     0.001 A 
ATOM     97  C   UNL     1       7.236  -3.984  -0.932  1.00  0.00     0.013 A 
ATOM     98  C   UNL     1       7.420  -2.082   0.550  1.00  0.00     0.013 A 
ATOM     99  C   UNL     1       7.131  -4.837   0.167  1.00  0.00     0.040 A 
ATOM    100  C   UNL     1       7.280  -2.934   1.650  1.00  0.00     0.040 A 
ATOM    101  C   UNL     1       7.113  -4.300   1.447  1.00  0.00     0.123 A 
ATOM    102  F   UNL     1       6.906  -5.104   2.497  1.00  0.00    -0.207 F 
ENDBRANCH  94  96
ENDBRANCH  89  91
ENDBRANCH  81  87
ENDBRANCH  78  80
ENDBRANCH  77  78
ENDBRANCH  76  77
ENDBRANCH  75  76
ENDBRANCH  74  75
ENDBRANCH   1  74
TORSDOF 20
