REMARK SMILES CCCCN(c1ccccc1C(=O)OCCOCCOCCOC(=O)c1ccc(-c2c3nc(c(-c4c(F)c(F)c(F)c(F)c4F)c4ccc([nH]4)c(-c4c(F)c(F)c(F)c(F)c4F)c4nc(c(-c5c(F)c(F)c(F)c(F)c5F)c5ccc2[nH]5)C=C4)C=C3)cc1)S(=O)(=O)c1ccc2c(c1)oc(=O)n2C
REMARK SMILES IDX 18 1 17 2 16 3 15 4 14 5 12 6 13 7 11 8 6 9 7 10 8 11 10 12
REMARK SMILES IDX 9 13 5 14 4 15 3 16 2 17 1 18 89 19 90 20 91 21 92 22 93 23
REMARK SMILES IDX 97 24 94 25 96 26 95 27 98 28 101 29 99 30 102 31 100 32
REMARK SMILES IDX 19 33 20 34 21 35 22 36 23 37 24 38 25 39 26 40 27 41 88 42
REMARK SMILES IDX 28 43 87 44 29 45 30 46 31 47 81 48 32 49 86 50 80 51 82 52
REMARK SMILES IDX 33 53 85 54 79 55 78 56 34 58 66 59 46 60 65 61 47 62 50 63
REMARK SMILES IDX 64 64 83 65 48 66 49 67 63 69 84 70 51 71 35 72 36 73 44 74
REMARK SMILES IDX 37 75 38 76 42 77 45 78 39 79 40 80 43 81 41 82 67 83 68 84
REMARK SMILES IDX 76 85 69 86 70 87 74 88 77 89 71 90 72 91 75 92 73 93 52 94
REMARK SMILES IDX 53 95 61 96 54 97 55 98 59 99 62 100 56 101 57 102 60 103
REMARK SMILES IDX 58 104
REMARK H PARENT 82 57 50 68
REMARK Flexibility Score: inf
ROOT
ATOM      1  C   UNL     1      -0.307   3.095  -6.055  1.00  0.00     0.188 C 
ENDROOT
BRANCH   1   2
ATOM      2  O   UNL     1       1.027   2.850  -6.492  1.00  0.00    -0.376 OA
BRANCH   2   3
ATOM      3  C   UNL     1       2.007   2.432  -5.547  1.00  0.00     0.202 C 
BRANCH   3   4
ATOM      4  C   UNL     1       2.145   3.217  -4.238  1.00  0.00     0.261 C 
BRANCH   4   5
ATOM      5  O   UNL     1       0.898   3.399  -3.544  1.00  0.00    -0.460 OA
BRANCH   5   6
ATOM      6  C   UNL     1       0.522   4.674  -3.317  1.00  0.00     0.340 C 
ATOM      7  O   UNL     1       1.161   5.667  -3.638  1.00  0.00    -0.246 OA
BRANCH   6   8
ATOM      8  C   UNL     1      -0.838   4.809  -2.724  1.00  0.00     0.084 A 
ATOM      9  C   UNL     1      -1.357   4.140  -1.589  1.00  0.00     0.066 A 
ATOM     10  C   UNL     1      -2.378   4.807  -0.902  1.00  0.00     0.028 A 
ATOM     11  C   UNL     1      -3.088   5.869  -1.485  1.00  0.00     0.002 A 
ATOM     12  C   UNL     1      -1.577   5.855  -3.324  1.00  0.00     0.018 A 
ATOM     13  C   UNL     1      -2.737   6.340  -2.739  1.00  0.00     0.001 A 
BRANCH   9  14
ATOM     14  N   UNL     1      -0.936   2.809  -1.155  1.00  0.00    -0.265 N 
BRANCH  14  15
ATOM     15  C   UNL     1       0.542   2.604  -0.893  1.00  0.00     0.136 C 
BRANCH  15  16
ATOM     16  C   UNL     1       1.018   2.388   0.549  1.00  0.00     0.022 C 
BRANCH  16  17
ATOM     17  C   UNL     1       1.020   0.973   1.143  1.00  0.00    -0.002 C 
ATOM     18  C   UNL     1       1.593  -0.120   0.248  1.00  0.00     0.004 C 
ENDBRANCH  16  17
ENDBRANCH  15  16
ENDBRANCH  14  15
BRANCH  14  19
ATOM     19  S   UNL     1      -1.962   1.720  -0.311  1.00  0.00     0.264 S 
ATOM     20  O   UNL     1      -1.337   0.420  -0.472  1.00  0.00    -0.201 OA
ATOM     21  O   UNL     1      -2.183   2.261   1.016  1.00  0.00    -0.201 OA
BRANCH  19  22
ATOM     22  C   UNL     1      -3.618   1.442  -0.981  1.00  0.00     0.091 A 
ATOM     23  C   UNL     1      -4.557   2.466  -1.209  1.00  0.00     0.025 A 
ATOM     24  C   UNL     1      -4.080   0.108  -0.905  1.00  0.00     0.071 A 
ATOM     25  C   UNL     1      -5.934   2.198  -1.323  1.00  0.00     0.032 A 
ATOM     26  C   UNL     1      -5.439  -0.127  -0.990  1.00  0.00     0.157 A 
ATOM     27  C   UNL     1      -6.343   0.894  -1.175  1.00  0.00     0.090 A 
ATOM     28  O   UNL     1      -6.051  -1.358  -0.806  1.00  0.00    -0.408 OA
ATOM     29  N   UNL     1      -7.588   0.317  -1.100  1.00  0.00    -0.277 N 
ATOM     30  C   UNL     1      -7.412  -1.033  -0.873  1.00  0.00     0.419 A 
ATOM     31  C   UNL     1      -8.858   0.971  -1.211  1.00  0.00     0.157 C 
ATOM     32  O   UNL     1      -8.306  -1.863  -0.739  1.00  0.00    -0.223 OA
ENDBRANCH  19  22
ENDBRANCH  14  19
ENDBRANCH   9  14
ENDBRANCH   6   8
ENDBRANCH   5   6
ENDBRANCH   4   5
ENDBRANCH   3   4
ENDBRANCH   2   3
ENDBRANCH   1   2
BRANCH   1  33
ATOM     33  C   UNL     1      -1.013   2.076  -5.127  1.00  0.00     0.188 C 
BRANCH  33  34
ATOM     34  O   UNL     1      -0.200   0.979  -4.782  1.00  0.00    -0.376 OA
BRANCH  34  35
ATOM     35  C   UNL     1      -0.453  -0.262  -5.416  1.00  0.00     0.202 C 
BRANCH  35  36
ATOM     36  C   UNL     1      -0.701  -0.358  -6.936  1.00  0.00     0.261 C 
BRANCH  36  37
ATOM     37  O   UNL     1      -1.335   0.753  -7.590  1.00  0.00    -0.460 OA
BRANCH  37  38
ATOM     38  C   UNL     1      -2.688   0.802  -7.606  1.00  0.00     0.338 C 
ATOM     39  O   UNL     1      -3.460   0.018  -7.090  1.00  0.00    -0.246 OA
BRANCH  38  40
ATOM     40  C   UNL     1      -3.078   2.110  -8.189  1.00  0.00     0.060 A 
ATOM     41  C   UNL     1      -3.700   3.066  -7.371  1.00  0.00     0.016 A 
ATOM     42  C   UNL     1      -2.775   2.415  -9.517  1.00  0.00     0.016 A 
ATOM     43  C   UNL     1      -4.007   4.333  -7.878  1.00  0.00     0.010 A 
ATOM     44  C   UNL     1      -3.110   3.674 -10.031  1.00  0.00     0.010 A 
ATOM     45  C   UNL     1      -3.732   4.639  -9.218  1.00  0.00    -0.014 A 
BRANCH  45  46
ATOM     46  C   UNL     1      -4.183   5.923  -9.815  1.00  0.00     0.031 A 
ATOM     47  C   UNL     1      -5.457   5.948 -10.609  1.00  0.00     0.074 A 
ATOM     48  C   UNL     1      -3.454   7.046  -9.682  1.00  0.00     0.049 A 
ATOM     49  N   UNL     1      -5.980   6.918 -11.316  1.00  0.00    -0.248 NA
ATOM     50  C   UNL     1      -6.249   4.709 -10.607  1.00  0.00     0.031 C 
ATOM     51  C   UNL     1      -2.221   7.167  -8.908  1.00  0.00     0.029 A 
ATOM     52  N   UNL     1      -3.636   8.298 -10.222  1.00  0.00    -0.354 N 
ATOM     53  C   UNL     1      -7.153   6.404 -11.852  1.00  0.00     0.074 A 
ATOM     54  C   UNL     1      -7.257   5.032 -11.404  1.00  0.00     0.031 C 
ATOM     55  C   UNL     1      -1.741   8.415  -9.045  1.00  0.00     0.029 A 
ATOM     56  C   UNL     1      -2.607   9.168  -9.951  1.00  0.00     0.049 A 
ATOM     57  H   UNL     1      -4.427   8.546 -10.752  1.00  0.00     0.167 HD
ATOM     58  C   UNL     1      -8.060   7.022 -12.646  1.00  0.00     0.037 A 
ATOM     59  C   UNL     1      -2.371  10.412 -10.417  1.00  0.00     0.037 A 
ATOM     60  C   UNL     1      -7.950   8.385 -13.098  1.00  0.00     0.049 A 
ATOM     61  C   UNL     1      -3.346  11.044 -11.381  1.00  0.00     0.074 A 
ATOM     62  C   UNL     1      -8.839   9.110 -13.871  1.00  0.00     0.029 A 
ATOM     63  N   UNL     1      -6.876   9.221 -12.833  1.00  0.00    -0.354 N 
ATOM     64  N   UNL     1      -4.476  10.570 -11.847  1.00  0.00    -0.248 NA
ATOM     65  C   UNL     1      -3.007  12.382 -11.889  1.00  0.00     0.031 C 
ATOM     66  C   UNL     1      -8.273  10.362 -14.131  1.00  0.00     0.029 A 
ATOM     67  C   UNL     1      -7.059  10.440 -13.468  1.00  0.00     0.049 A 
ATOM     68  H   UNL     1      -6.099   8.985 -12.277  1.00  0.00     0.167 HD
ATOM     69  C   UNL     1      -4.989  11.553 -12.686  1.00  0.00     0.074 A 
ATOM     70  C   UNL     1      -4.059  12.661 -12.647  1.00  0.00     0.031 C 
ATOM     71  C   UNL     1      -6.125  11.536 -13.426  1.00  0.00     0.037 A 
BRANCH  58  72
ATOM     72  C   UNL     1      -9.240   6.219 -13.111  1.00  0.00     0.064 A 
ATOM     73  C   UNL     1     -10.269   5.842 -12.236  1.00  0.00     0.173 A 
ATOM     74  C   UNL     1      -9.366   5.866 -14.464  1.00  0.00     0.173 A 
ATOM     75  F   UNL     1     -10.191   6.145 -10.931  1.00  0.00    -0.203 F 
ATOM     76  C   UNL     1     -11.369   5.120 -12.694  1.00  0.00     0.198 A 
ATOM     77  C   UNL     1     -10.481   5.171 -14.923  1.00  0.00     0.198 A 
ATOM     78  F   UNL     1      -8.412   6.207 -15.344  1.00  0.00    -0.203 F 
ATOM     79  F   UNL     1     -12.319   4.733 -11.831  1.00  0.00    -0.200 F 
ATOM     80  C   UNL     1     -11.478   4.793 -14.037  1.00  0.00     0.200 A 
ATOM     81  F   UNL     1     -10.591   4.869 -16.224  1.00  0.00    -0.200 F 
ATOM     82  F   UNL     1     -12.543   4.108 -14.477  1.00  0.00    -0.200 F 
ENDBRANCH  58  72
BRANCH  59  83
ATOM     83  C   UNL     1      -1.134  11.136 -10.018  1.00  0.00     0.064 A 
ATOM     84  C   UNL     1      -1.194  12.300  -9.239  1.00  0.00     0.173 A 
ATOM     85  C   UNL     1       0.133  10.699 -10.436  1.00  0.00     0.173 A 
ATOM     86  F   UNL     1      -2.382  12.778  -8.842  1.00  0.00    -0.203 F 
ATOM     87  C   UNL     1      -0.039  13.009  -8.911  1.00  0.00     0.198 A 
ATOM     88  C   UNL     1       1.289  11.390 -10.080  1.00  0.00     0.198 A 
ATOM     89  F   UNL     1       0.247   9.597 -11.192  1.00  0.00    -0.203 F 
ATOM     90  F   UNL     1      -0.132  14.148  -8.212  1.00  0.00    -0.200 F 
ATOM     91  C   UNL     1       1.202  12.549  -9.325  1.00  0.00     0.200 A 
ATOM     92  F   UNL     1       2.486  10.937 -10.476  1.00  0.00    -0.200 F 
ATOM     93  F   UNL     1       2.311  13.230  -9.008  1.00  0.00    -0.200 F 
ENDBRANCH  59  83
BRANCH  71  94
ATOM     94  C   UNL     1      -6.440  12.755 -14.248  1.00  0.00     0.064 A 
ATOM     95  C   UNL     1      -5.704  13.073 -15.399  1.00  0.00     0.173 A 
ATOM     96  C   UNL     1      -7.526  13.579 -13.916  1.00  0.00     0.173 A 
ATOM     97  F   UNL     1      -4.647  12.326 -15.753  1.00  0.00    -0.203 F 
ATOM     98  C   UNL     1      -6.033  14.181 -16.177  1.00  0.00     0.198 A 
ATOM     99  C   UNL     1      -7.872  14.668 -14.713  1.00  0.00     0.198 A 
ATOM    100  F   UNL     1      -8.268  13.316 -12.830  1.00  0.00    -0.203 F 
ATOM    101  F   UNL     1      -5.290  14.489 -17.249  1.00  0.00    -0.200 F 
ATOM    102  C   UNL     1      -7.122  14.971 -15.839  1.00  0.00     0.200 A 
ATOM    103  F   UNL     1      -8.934  15.420 -14.394  1.00  0.00    -0.200 F 
ATOM    104  F   UNL     1      -7.445  16.028 -16.596  1.00  0.00    -0.200 F 
ENDBRANCH  71  94
ENDBRANCH  45  46
ENDBRANCH  38  40
ENDBRANCH  37  38
ENDBRANCH  36  37
ENDBRANCH  35  36
ENDBRANCH  34  35
ENDBRANCH  33  34
ENDBRANCH   1  33
TORSDOF 23
