REMARK SMILES CC[C@H]1CN(C(=O)N(CC(=O)OCCOCCOCCOC(=O)c2ccc(-c3c4nc(c(-c5c(F)c(F)c(F)c(F)c5F)c5ccc([nH]5)c(-c5c(F)c(F)c(F)c(F)c5F)c5nc(c(-c6c(F)c(F)c(F)c(F)c6F)c6ccc3[nH]6)C=C5)C=C4)cc2)C(C)(C)C)CC[N@@H+]1C
REMARK SMILES IDX 16 1 15 2 14 3 13 4 12 5 10 6 11 7 9 8 8 9 6 10 7 11 5 12
REMARK SMILES IDX 3 13 4 14 93 15 92 16 94 17 91 19 2 20 1 21 87 22 88 23
REMARK SMILES IDX 89 24 90 25 17 26 18 27 19 28 20 29 21 30 22 31 23 32 24 33
REMARK SMILES IDX 25 34 86 35 26 36 85 37 27 38 28 39 29 40 79 41 30 42 84 43
REMARK SMILES IDX 78 44 80 45 31 46 83 47 77 48 76 49 32 51 64 52 44 53 63 54
REMARK SMILES IDX 45 55 48 56 62 57 81 58 46 59 47 60 61 62 82 63 49 64 33 65
REMARK SMILES IDX 34 66 42 67 35 68 36 69 40 70 43 71 37 72 38 73 41 74 39 75
REMARK SMILES IDX 65 76 66 77 74 78 67 79 68 80 72 81 75 82 69 83 70 84 73 85
REMARK SMILES IDX 71 86 50 87 51 88 59 89 52 90 53 91 57 92 60 93 54 94 55 95
REMARK SMILES IDX 58 96 56 97
REMARK H PARENT 93 18 80 50 48 61
REMARK Flexibility Score: inf
ROOT
ATOM      1  C   UNL     1       5.983  -7.956  -1.620  1.00  0.00     0.188 C 
ENDROOT
BRANCH   1   2
ATOM      2  O   UNL     1       6.995  -7.109  -1.083  1.00  0.00    -0.376 OA
BRANCH   2   3
ATOM      3  C   UNL     1       6.955  -6.808   0.305  1.00  0.00     0.202 C 
BRANCH   3   4
ATOM      4  C   UNL     1       5.988  -5.691   0.706  1.00  0.00     0.261 C 
BRANCH   4   5
ATOM      5  O   UNL     1       4.594  -5.972   0.450  1.00  0.00    -0.462 OA
BRANCH   5   6
ATOM      6  C   UNL     1       4.092  -5.374  -0.660  1.00  0.00     0.325 C 
ATOM      7  O   UNL     1       4.773  -4.803  -1.509  1.00  0.00    -0.250 OA
BRANCH   6   8
ATOM      8  C   UNL     1       2.576  -5.208  -0.646  1.00  0.00     0.244 C 
BRANCH   8   9
ATOM      9  N   UNL     1       1.576  -6.126  -0.065  1.00  0.00    -0.309 N 
BRANCH   9  10
ATOM     10  C   UNL     1       0.956  -5.865   1.149  1.00  0.00     0.321 C 
ATOM     11  O   UNL     1       0.755  -6.767   1.964  1.00  0.00    -0.248 OA
BRANCH  10  12
ATOM     12  N   UNL     1       0.445  -4.597   1.361  1.00  0.00    -0.313 N 
ATOM     13  C   UNL     1       0.565  -2.145   0.917  1.00  0.00     0.203 C 
ATOM     14  C   UNL     1       0.218  -3.552   0.364  1.00  0.00     0.186 C 
ATOM     15  N   UNL     1      -0.171  -1.818   2.164  1.00  0.00    -0.332 N 
ATOM     16  C   UNL     1      -0.122  -2.928   3.147  1.00  0.00     0.284 C 
ATOM     17  C   UNL     1      -1.565  -1.472   1.863  1.00  0.00     0.333 C 
ATOM     18  H   UNL     1       0.292  -1.013   2.585  1.00  0.00     0.348 HD
ATOM     19  C   UNL     1      -0.299  -4.358   2.600  1.00  0.00     0.183 C 
BRANCH  13  20
ATOM     20  C   UNL     1       2.089  -1.853   1.019  1.00  0.00     0.063 C 
ATOM     21  C   UNL     1       2.923  -2.569   2.076  1.00  0.00     0.010 C 
ENDBRANCH  13  20
ENDBRANCH  10  12
ENDBRANCH   9  10
BRANCH   9  22
ATOM     22  C   UNL     1       1.187  -7.384  -0.778  1.00  0.00     0.037 C 
ATOM     23  C   UNL     1       1.614  -8.651  -0.008  1.00  0.00     0.034 C 
ATOM     24  C   UNL     1      -0.351  -7.421  -0.968  1.00  0.00     0.034 C 
ATOM     25  C   UNL     1       1.774  -7.452  -2.197  1.00  0.00     0.034 C 
ENDBRANCH   9  22
ENDBRANCH   8   9
ENDBRANCH   6   8
ENDBRANCH   5   6
ENDBRANCH   4   5
ENDBRANCH   3   4
ENDBRANCH   2   3
ENDBRANCH   1   2
BRANCH   1  26
ATOM     26  C   UNL     1       5.215  -8.875  -0.669  1.00  0.00     0.188 C 
BRANCH  26  27
ATOM     27  O   UNL     1       6.083  -9.854  -0.101  1.00  0.00    -0.376 OA
BRANCH  27  28
ATOM     28  C   UNL     1       5.404 -11.084   0.154  1.00  0.00     0.202 C 
BRANCH  28  29
ATOM     29  C   UNL     1       5.697 -12.079  -0.970  1.00  0.00     0.261 C 
BRANCH  29  30
ATOM     30  O   UNL     1       5.478 -11.526  -2.286  1.00  0.00    -0.460 OA
BRANCH  30  31
ATOM     31  C   UNL     1       4.243 -11.670  -2.794  1.00  0.00     0.338 C 
ATOM     32  O   UNL     1       3.267 -12.179  -2.247  1.00  0.00    -0.246 OA
BRANCH  31  33
ATOM     33  C   UNL     1       4.176 -11.022  -4.112  1.00  0.00     0.060 A 
ATOM     34  C   UNL     1       3.611  -9.751  -4.199  1.00  0.00     0.016 A 
ATOM     35  C   UNL     1       4.547 -11.699  -5.271  1.00  0.00     0.016 A 
ATOM     36  C   UNL     1       3.341  -9.171  -5.440  1.00  0.00     0.010 A 
ATOM     37  C   UNL     1       4.311 -11.104  -6.517  1.00  0.00     0.010 A 
ATOM     38  C   UNL     1       3.670  -9.852  -6.617  1.00  0.00    -0.014 A 
BRANCH  38  39
ATOM     39  C   UNL     1       3.246  -9.341  -7.952  1.00  0.00     0.031 A 
ATOM     40  C   UNL     1       2.259 -10.143  -8.758  1.00  0.00     0.074 A 
ATOM     41  C   UNL     1       3.712  -8.183  -8.455  1.00  0.00     0.049 A 
ATOM     42  N   UNL     1       1.962 -10.066 -10.030  1.00  0.00    -0.248 NA
ATOM     43  C   UNL     1       1.510 -11.176  -8.026  1.00  0.00     0.031 C 
ATOM     44  C   UNL     1       4.583  -7.240  -7.757  1.00  0.00     0.029 A 
ATOM     45  N   UNL     1       3.520  -7.609  -9.690  1.00  0.00    -0.354 N 
ATOM     46  C   UNL     1       1.045 -11.084 -10.265  1.00  0.00     0.074 A 
ATOM     47  C   UNL     1       0.818 -11.750  -9.000  1.00  0.00     0.031 C 
ATOM     48  C   UNL     1       4.850  -6.206  -8.572  1.00  0.00     0.029 A 
ATOM     49  C   UNL     1       4.241  -6.454  -9.876  1.00  0.00     0.049 A 
ATOM     50  H   UNL     1       2.923  -7.988 -10.375  1.00  0.00     0.167 HD
ATOM     51  C   UNL     1       0.460 -11.437 -11.434  1.00  0.00     0.037 A 
ATOM     52  C   UNL     1       4.440  -5.716 -10.986  1.00  0.00     0.037 A 
ATOM     53  C   UNL     1       0.647 -10.739 -12.679  1.00  0.00     0.049 A 
ATOM     54  C   UNL     1       3.834  -6.159 -12.291  1.00  0.00     0.074 A 
ATOM     55  C   UNL     1       0.112 -11.026 -13.922  1.00  0.00     0.029 A 
ATOM     56  N   UNL     1       1.418  -9.596 -12.829  1.00  0.00    -0.354 N 
ATOM     57  N   UNL     1       3.057  -7.185 -12.537  1.00  0.00    -0.248 NA
ATOM     58  C   UNL     1       4.160  -5.357 -13.481  1.00  0.00     0.031 C 
ATOM     59  C   UNL     1       0.581 -10.070 -14.832  1.00  0.00     0.029 A 
ATOM     60  C   UNL     1       1.379  -9.170 -14.146  1.00  0.00     0.049 A 
ATOM     61  H   UNL     1       1.919  -9.153 -12.106  1.00  0.00     0.167 HD
ATOM     62  C   UNL     1       2.797  -7.151 -13.901  1.00  0.00     0.074 A 
ATOM     63  C   UNL     1       3.483  -5.990 -14.429  1.00  0.00     0.031 C 
ATOM     64  C   UNL     1       2.064  -8.009 -14.651  1.00  0.00     0.037 A 
BRANCH  51  65
ATOM     65  C   UNL     1      -0.397 -12.668 -11.435  1.00  0.00     0.064 A 
ATOM     66  C   UNL     1      -1.682 -12.680 -10.876  1.00  0.00     0.173 A 
ATOM     67  C   UNL     1       0.074 -13.848 -12.031  1.00  0.00     0.173 A 
ATOM     68  F   UNL     1      -2.169 -11.582 -10.280  1.00  0.00    -0.203 F 
ATOM     69  C   UNL     1      -2.457 -13.838 -10.895  1.00  0.00     0.198 A 
ATOM     70  C   UNL     1      -0.712 -14.996 -12.069  1.00  0.00     0.198 A 
ATOM     71  F   UNL     1       1.297 -13.886 -12.582  1.00  0.00    -0.203 F 
ATOM     72  F   UNL     1      -3.667 -13.841 -10.318  1.00  0.00    -0.200 F 
ATOM     73  C   UNL     1      -1.974 -14.992 -11.495  1.00  0.00     0.200 A 
ATOM     74  F   UNL     1      -0.247 -16.107 -12.657  1.00  0.00    -0.200 F 
ATOM     75  F   UNL     1      -2.723 -16.103 -11.514  1.00  0.00    -0.200 F 
ENDBRANCH  51  65
BRANCH  52  76
ATOM     76  C   UNL     1       5.314  -4.513 -10.929  1.00  0.00     0.064 A 
ATOM     77  C   UNL     1       4.781  -3.227 -11.083  1.00  0.00     0.173 A 
ATOM     78  C   UNL     1       6.697  -4.627 -10.727  1.00  0.00     0.173 A 
ATOM     79  F   UNL     1       3.469  -3.068 -11.314  1.00  0.00    -0.203 F 
ATOM     80  C   UNL     1       5.600  -2.100 -11.041  1.00  0.00     0.198 A 
ATOM     81  C   UNL     1       7.511  -3.499 -10.657  1.00  0.00     0.198 A 
ATOM     82  F   UNL     1       7.258  -5.838 -10.586  1.00  0.00    -0.203 F 
ATOM     83  F   UNL     1       5.072  -0.883 -11.230  1.00  0.00    -0.200 F 
ATOM     84  C   UNL     1       6.962  -2.236 -10.819  1.00  0.00     0.200 A 
ATOM     85  F   UNL     1       8.825  -3.636 -10.435  1.00  0.00    -0.200 F 
ATOM     86  F   UNL     1       7.748  -1.151 -10.770  1.00  0.00    -0.200 F 
ENDBRANCH  52  76
BRANCH  64  87
ATOM     87  C   UNL     1       1.946  -7.714 -16.116  1.00  0.00     0.064 A 
ATOM     88  C   UNL     1       3.000  -7.975 -17.001  1.00  0.00     0.173 A 
ATOM     89  C   UNL     1       0.749  -7.207 -16.645  1.00  0.00     0.173 A 
ATOM     90  F   UNL     1       4.168  -8.446 -16.539  1.00  0.00    -0.203 F 
ATOM     91  C   UNL     1       2.866  -7.726 -18.365  1.00  0.00     0.198 A 
ATOM     92  C   UNL     1       0.612  -6.979 -18.011  1.00  0.00     0.198 A 
ATOM     93  F   UNL     1      -0.289  -6.946 -15.837  1.00  0.00    -0.203 F 
ATOM     94  F   UNL     1       3.898  -7.952 -19.190  1.00  0.00    -0.200 F 
ATOM     95  C   UNL     1       1.671  -7.234 -18.869  1.00  0.00     0.200 A 
ATOM     96  F   UNL     1      -0.546  -6.511 -18.498  1.00  0.00    -0.200 F 
ATOM     97  F   UNL     1       1.542  -7.000 -20.182  1.00  0.00    -0.200 F 
ENDBRANCH  64  87
ENDBRANCH  38  39
ENDBRANCH  31  33
ENDBRANCH  30  31
ENDBRANCH  29  30
ENDBRANCH  28  29
ENDBRANCH  27  28
ENDBRANCH  26  27
ENDBRANCH   1  26
TORSDOF 22
