REMARK SMILES CCc1ccc(C(=O)[C@@H](Br)CC(=O)OCCOCCOCCOC(=O)c2ccc(-c3c4nc(c(-c5c(F)c(F)c(F)c(F)c5F)c5ccc([nH]5)c(-c5c(F)c(F)c(F)c(F)c5F)c5nc(c(-c6c(F)c(F)c(F)c(F)c6F)c6ccc3[nH]6)C=C5)C=C4)cc2)cc1
REMARK SMILES IDX 18 1 17 2 16 3 15 4 14 5 12 6 13 7 11 8 9 9 10 10 7 11 8 12
REMARK SMILES IDX 6 13 3 14 4 15 90 16 5 17 89 18 2 19 1 20 19 21 20 22 21 23
REMARK SMILES IDX 22 24 23 25 24 26 25 27 26 28 27 29 88 30 28 31 87 32 29 33
REMARK SMILES IDX 30 34 31 35 81 36 32 37 86 38 80 39 82 40 33 41 85 42 79 43
REMARK SMILES IDX 78 44 34 46 66 47 46 48 65 49 47 50 50 51 64 52 83 53 48 54
REMARK SMILES IDX 49 55 63 57 84 58 51 59 35 60 36 61 44 62 37 63 38 64 42 65
REMARK SMILES IDX 45 66 39 67 40 68 43 69 41 70 67 71 68 72 76 73 69 74 70 75
REMARK SMILES IDX 74 76 77 77 71 78 72 79 75 80 73 81 52 82 53 83 61 84 54 85
REMARK SMILES IDX 55 86 59 87 62 88 56 89 57 90 60 91 58 92
REMARK H PARENT 82 45 50 56
REMARK Flexibility Score: inf
ROOT
ATOM      1  C   UNL     1       5.536  -8.187  -0.388  1.00  0.00     0.188 C 
ENDROOT
BRANCH   1   2
ATOM      2  O   UNL     1       5.436  -8.167   1.030  1.00  0.00    -0.376 OA
BRANCH   2   3
ATOM      3  C   UNL     1       4.202  -7.696   1.579  1.00  0.00     0.202 C 
BRANCH   3   4
ATOM      4  C   UNL     1       3.795  -6.255   1.220  1.00  0.00     0.261 C 
BRANCH   4   5
ATOM      5  O   UNL     1       3.747  -6.001  -0.202  1.00  0.00    -0.463 OA
BRANCH   5   6
ATOM      6  C   UNL     1       4.462  -4.934  -0.640  1.00  0.00     0.307 C 
ATOM      7  O   UNL     1       4.995  -4.099   0.082  1.00  0.00    -0.252 OA
BRANCH   6   8
ATOM      8  C   UNL     1       4.711  -4.955  -2.131  1.00  0.00     0.146 C 
BRANCH   8   9
ATOM      9  C   UNL     1       3.644  -5.576  -3.008  1.00  0.00     0.140 C 
ATOM     10  Br  UNL     1       4.011  -5.155  -4.893  1.00  0.00    -0.080 Br
BRANCH   9  11
ATOM     11  C   UNL     1       2.174  -5.282  -2.772  1.00  0.00     0.177 C 
ATOM     12  O   UNL     1       1.339  -6.182  -2.904  1.00  0.00    -0.293 OA
BRANCH  11  13
ATOM     13  C   UNL     1       1.685  -3.924  -2.397  1.00  0.00     0.019 A 
ATOM     14  C   UNL     1       0.652  -1.434  -1.593  1.00  0.00    -0.048 A 
ATOM     15  C   UNL     1      -0.089  -2.602  -1.393  1.00  0.00     0.004 A 
ATOM     16  C   UNL     1       1.902  -1.519  -2.214  1.00  0.00     0.004 A 
ATOM     17  C   UNL     1       0.424  -3.837  -1.793  1.00  0.00     0.012 A 
ATOM     18  C   UNL     1       2.408  -2.752  -2.630  1.00  0.00     0.012 A 
BRANCH  14  19
ATOM     19  C   UNL     1       0.133  -0.101  -1.121  1.00  0.00     0.032 C 
ATOM     20  C   UNL     1       0.713   0.269   0.235  1.00  0.00     0.009 C 
ENDBRANCH  14  19
ENDBRANCH  11  13
ENDBRANCH   9  11
ENDBRANCH   8   9
ENDBRANCH   6   8
ENDBRANCH   5   6
ENDBRANCH   4   5
ENDBRANCH   3   4
ENDBRANCH   2   3
ENDBRANCH   1   2
BRANCH   1  21
ATOM     21  C   UNL     1       4.477  -8.998  -1.138  1.00  0.00     0.188 C 
BRANCH  21  22
ATOM     22  O   UNL     1       3.138  -8.800  -0.715  1.00  0.00    -0.376 OA
BRANCH  22  23
ATOM     23  C   UNL     1       2.137  -9.599  -1.356  1.00  0.00     0.202 C 
BRANCH  23  24
ATOM     24  C   UNL     1       2.391 -11.123  -1.383  1.00  0.00     0.261 C 
BRANCH  24  25
ATOM     25  O   UNL     1       3.581 -11.544  -2.091  1.00  0.00    -0.460 OA
BRANCH  25  26
ATOM     26  C   UNL     1       3.757 -11.090  -3.353  1.00  0.00     0.338 C 
ATOM     27  O   UNL     1       2.909 -10.580  -4.066  1.00  0.00    -0.246 OA
BRANCH  26  28
ATOM     28  C   UNL     1       5.216 -11.056  -3.651  1.00  0.00     0.060 A 
ATOM     29  C   UNL     1       5.720  -9.951  -4.354  1.00  0.00     0.016 A 
ATOM     30  C   UNL     1       6.096 -12.045  -3.200  1.00  0.00     0.016 A 
ATOM     31  C   UNL     1       7.085  -9.853  -4.644  1.00  0.00     0.010 A 
ATOM     32  C   UNL     1       7.462 -11.955  -3.506  1.00  0.00     0.010 A 
ATOM     33  C   UNL     1       7.961 -10.877  -4.260  1.00  0.00    -0.014 A 
BRANCH  33  34
ATOM     34  C   UNL     1       9.339 -10.927  -4.822  1.00  0.00     0.031 A 
ATOM     35  C   UNL     1       9.588 -11.819  -6.012  1.00  0.00     0.074 A 
ATOM     36  C   UNL     1      10.352 -10.197  -4.317  1.00  0.00     0.049 A 
ATOM     37  N   UNL     1      10.707 -12.083  -6.638  1.00  0.00    -0.248 NA
ATOM     38  C   UNL     1       8.412 -12.507  -6.569  1.00  0.00     0.031 C 
ATOM     39  C   UNL     1      10.252  -9.264  -3.198  1.00  0.00     0.029 A 
ATOM     40  N   UNL     1      11.679 -10.144  -4.681  1.00  0.00    -0.354 N 
ATOM     41  C   UNL     1      10.373 -12.979  -7.646  1.00  0.00     0.074 A 
ATOM     42  C   UNL     1       8.952 -13.227  -7.541  1.00  0.00     0.031 C 
ATOM     43  C   UNL     1      11.470  -8.747  -2.951  1.00  0.00     0.029 A 
ATOM     44  C   UNL     1      12.444  -9.338  -3.870  1.00  0.00     0.049 A 
ATOM     45  H   UNL     1      12.047 -10.637  -5.449  1.00  0.00     0.167 HD
ATOM     46  C   UNL     1      11.175 -13.543  -8.578  1.00  0.00     0.037 A 
ATOM     47  C   UNL     1      13.777  -9.128  -3.853  1.00  0.00     0.037 A 
ATOM     48  C   UNL     1      12.585 -13.285  -8.706  1.00  0.00     0.049 A 
ATOM     49  C   UNL     1      14.658  -9.819  -4.870  1.00  0.00     0.074 A 
ATOM     50  C   UNL     1      13.465 -13.777  -9.654  1.00  0.00     0.029 A 
ATOM     51  N   UNL     1      13.322 -12.476  -7.857  1.00  0.00    -0.354 N 
ATOM     52  N   UNL     1      14.325 -10.627  -5.847  1.00  0.00    -0.248 NA
ATOM     53  C   UNL     1      16.106  -9.566  -4.780  1.00  0.00     0.031 C 
ATOM     54  C   UNL     1      14.748 -13.320  -9.339  1.00  0.00     0.029 A 
ATOM     55  C   UNL     1      14.654 -12.486  -8.238  1.00  0.00     0.049 A 
ATOM     56  H   UNL     1      12.954 -11.970  -7.097  1.00  0.00     0.167 HD
ATOM     57  C   UNL     1      15.509 -10.944  -6.505  1.00  0.00     0.074 A 
ATOM     58  C   UNL     1      16.569 -10.231  -5.829  1.00  0.00     0.031 C 
ATOM     59  C   UNL     1      15.701 -11.755  -7.574  1.00  0.00     0.037 A 
BRANCH  46  60
ATOM     60  C   UNL     1      10.565 -14.527  -9.531  1.00  0.00     0.064 A 
ATOM     61  C   UNL     1       9.721 -14.123 -10.575  1.00  0.00     0.173 A 
ATOM     62  C   UNL     1      10.905 -15.886  -9.447  1.00  0.00     0.173 A 
ATOM     63  F   UNL     1       9.356 -12.837 -10.689  1.00  0.00    -0.203 F 
ATOM     64  C   UNL     1       9.233 -15.046 -11.496  1.00  0.00     0.198 A 
ATOM     65  C   UNL     1      10.439 -16.801 -10.387  1.00  0.00     0.198 A 
ATOM     66  F   UNL     1      11.712 -16.322  -8.468  1.00  0.00    -0.203 F 
ATOM     67  F   UNL     1       8.406 -14.644 -12.471  1.00  0.00    -0.200 F 
ATOM     68  C   UNL     1       9.602 -16.381 -11.409  1.00  0.00     0.200 A 
ATOM     69  F   UNL     1      10.811 -18.086 -10.309  1.00  0.00    -0.200 F 
ATOM     70  F   UNL     1       9.152 -17.263 -12.312  1.00  0.00    -0.200 F 
ENDBRANCH  46  60
BRANCH  47  71
ATOM     71  C   UNL     1      14.395  -8.258  -2.811  1.00  0.00     0.064 A 
ATOM     72  C   UNL     1      15.067  -7.075  -3.151  1.00  0.00     0.173 A 
ATOM     73  C   UNL     1      14.400  -8.641  -1.461  1.00  0.00     0.173 A 
ATOM     74  F   UNL     1      15.122  -6.680  -4.432  1.00  0.00    -0.203 F 
ATOM     75  C   UNL     1      15.752  -6.332  -2.190  1.00  0.00     0.198 A 
ATOM     76  C   UNL     1      15.054  -7.877  -0.495  1.00  0.00     0.198 A 
ATOM     77  F   UNL     1      13.781  -9.768  -1.079  1.00  0.00    -0.203 F 
ATOM     78  F   UNL     1      16.453  -5.250  -2.558  1.00  0.00    -0.200 F 
ATOM     79  C   UNL     1      15.742  -6.732  -0.863  1.00  0.00     0.200 A 
ATOM     80  F   UNL     1      15.034  -8.264   0.787  1.00  0.00    -0.200 F 
ATOM     81  F   UNL     1      16.412  -6.025   0.058  1.00  0.00    -0.200 F 
ENDBRANCH  47  71
BRANCH  59  82
ATOM     82  C   UNL     1      17.096 -11.879  -8.123  1.00  0.00     0.064 A 
ATOM     83  C   UNL     1      18.110 -12.553  -7.428  1.00  0.00     0.173 A 
ATOM     84  C   UNL     1      17.407 -11.357  -9.389  1.00  0.00     0.173 A 
ATOM     85  F   UNL     1      17.871 -13.062  -6.210  1.00  0.00    -0.203 F 
ATOM     86  C   UNL     1      19.389 -12.676  -7.966  1.00  0.00     0.198 A 
ATOM     87  C   UNL     1      18.677 -11.512  -9.939  1.00  0.00     0.198 A 
ATOM     88  F   UNL     1      16.472 -10.712 -10.104  1.00  0.00    -0.203 F 
ATOM     89  F   UNL     1      20.356 -13.281  -7.261  1.00  0.00    -0.200 F 
ATOM     90  C   UNL     1      19.669 -12.163  -9.224  1.00  0.00     0.200 A 
ATOM     91  F   UNL     1      18.938 -11.033 -11.163  1.00  0.00    -0.200 F 
ATOM     92  F   UNL     1      20.897 -12.292  -9.745  1.00  0.00    -0.200 F 
ENDBRANCH  59  82
ENDBRANCH  33  34
ENDBRANCH  26  28
ENDBRANCH  25  26
ENDBRANCH  24  25
ENDBRANCH  23  24
ENDBRANCH  22  23
ENDBRANCH  21  22
ENDBRANCH   1  21
TORSDOF 21
