REMARK SMILES O=C(/C=C/c1ccc(NC(=O)c2cc(C(F)(F)F)cc(C(F)(F)F)c2)cc1)OCCOCCOCCOC(=O)c1ccc(-c2c3nc(c(-c4c(F)c(F)c(F)c(F)c4F)c4ccc([nH]4)c(-c4c(F)c(F)c(F)c(F)c4F)c4nc(c(-c5c(F)c(F)c(F)c(F)c5F)c5ccc2[nH]5)C=C4)C=C3)cc1
REMARK SMILES IDX 32 1 31 2 30 3 29 4 28 5 2 6 1 7 3 8 4 9 5 10 6 11 27 12
REMARK SMILES IDX 7 13 26 14 8 15 9 16 10 17 11 19 12 20 13 21 25 22 14 23
REMARK SMILES IDX 20 24 19 25 15 26 16 27 17 28 18 29 21 30 22 31 23 32 24 33
REMARK SMILES IDX 33 34 34 35 35 36 36 37 37 38 38 39 39 40 40 41 41 42 102 43
REMARK SMILES IDX 42 44 101 45 43 46 44 47 45 48 95 49 46 50 100 51 94 52
REMARK SMILES IDX 96 53 47 54 99 55 93 56 92 57 48 59 80 60 60 61 79 62 61 63
REMARK SMILES IDX 64 64 78 65 97 66 62 67 63 68 77 70 98 71 65 72 49 73 50 74
REMARK SMILES IDX 58 75 51 76 52 77 56 78 59 79 53 80 54 81 57 82 55 83 81 84
REMARK SMILES IDX 82 85 90 86 83 87 84 88 88 89 91 90 85 91 86 92 89 93 87 94
REMARK SMILES IDX 66 95 67 96 75 97 68 98 69 99 73 100 76 101 70 102 71 103
REMARK SMILES IDX 74 104 72 105
REMARK H PARENT 9 18 96 58 64 69
REMARK Flexibility Score: inf
ROOT
ATOM      1  C   UNL     1       3.029  -1.685   0.330  1.00  0.00     0.188 C 
ENDROOT
BRANCH   1   2
ATOM      2  O   UNL     1       4.368  -1.239   0.292  1.00  0.00    -0.376 OA
BRANCH   2   3
ATOM      3  C   UNL     1       4.805  -0.097   0.999  1.00  0.00     0.202 C 
BRANCH   3   4
ATOM      4  C   UNL     1       3.896   1.113   1.235  1.00  0.00     0.261 C 
BRANCH   4   5
ATOM      5  O   UNL     1       2.666   1.155   0.505  1.00  0.00    -0.460 OA
BRANCH   5   6
ATOM      6  C   UNL     1       2.608   1.820  -0.673  1.00  0.00     0.330 C 
ATOM      7  O   UNL     1       1.804   2.713  -0.899  1.00  0.00    -0.247 OA
BRANCH   6   8
ATOM      8  C   UNL     1       3.277   1.098  -1.766  1.00  0.00     0.094 C 
ATOM      9  C   UNL     1       4.582   1.246  -2.026  1.00  0.00     0.015 C 
BRANCH   9  10
ATOM     10  C   UNL     1       5.267   0.448  -3.047  1.00  0.00    -0.025 A 
ATOM     11  C   UNL     1       6.477  -0.169  -2.719  1.00  0.00     0.010 A 
ATOM     12  C   UNL     1       4.775   0.311  -4.348  1.00  0.00     0.010 A 
ATOM     13  C   UNL     1       7.180  -0.920  -3.668  1.00  0.00     0.027 A 
ATOM     14  C   UNL     1       5.473  -0.454  -5.291  1.00  0.00     0.027 A 
ATOM     15  C   UNL     1       6.670  -1.098  -4.953  1.00  0.00     0.041 A 
BRANCH  15  16
ATOM     16  N   UNL     1       7.307  -1.836  -5.968  1.00  0.00    -0.322 N 
ATOM     17  C   UNL     1       8.362  -2.721  -5.963  1.00  0.00     0.255 C 
ATOM     18  H   UNL     1       6.921  -1.691  -6.861  1.00  0.00     0.170 HD
ATOM     19  O   UNL     1       8.928  -2.996  -7.020  1.00  0.00    -0.269 OA
BRANCH  17  20
ATOM     20  C   UNL     1       8.808  -3.422  -4.738  1.00  0.00     0.041 A 
ATOM     21  C   UNL     1      10.182  -3.578  -4.518  1.00  0.00     0.027 A 
ATOM     22  C   UNL     1       7.890  -3.976  -3.839  1.00  0.00     0.027 A 
ATOM     23  C   UNL     1      10.652  -4.236  -3.370  1.00  0.00     0.057 A 
ATOM     24  C   UNL     1       8.337  -4.596  -2.662  1.00  0.00     0.057 A 
ATOM     25  C   UNL     1       9.719  -4.728  -2.443  1.00  0.00     0.026 A 
BRANCH  23  26
ATOM     26  C   UNL     1      12.139  -4.389  -3.143  1.00  0.00     0.416 C 
ATOM     27  F   UNL     1      12.757  -5.056  -4.154  1.00  0.00    -0.166 F 
ATOM     28  F   UNL     1      12.770  -3.188  -3.038  1.00  0.00    -0.166 F 
ATOM     29  F   UNL     1      12.441  -5.070  -2.003  1.00  0.00    -0.166 F 
ENDBRANCH  23  26
BRANCH  24  30
ATOM     30  C   UNL     1       7.354  -5.102  -1.635  1.00  0.00     0.416 C 
ATOM     31  F   UNL     1       7.333  -6.459  -1.553  1.00  0.00    -0.166 F 
ATOM     32  F   UNL     1       7.634  -4.652  -0.381  1.00  0.00    -0.166 F 
ATOM     33  F   UNL     1       6.074  -4.722  -1.890  1.00  0.00    -0.166 F 
ENDBRANCH  24  30
ENDBRANCH  17  20
ENDBRANCH  15  16
ENDBRANCH   9  10
ENDBRANCH   6   8
ENDBRANCH   5   6
ENDBRANCH   4   5
ENDBRANCH   3   4
ENDBRANCH   2   3
ENDBRANCH   1   2
BRANCH   1  34
ATOM     34  C   UNL     1       2.361  -2.088   1.650  1.00  0.00     0.188 C 
BRANCH  34  35
ATOM     35  O   UNL     1       3.139  -2.420   2.786  1.00  0.00    -0.376 OA
BRANCH  35  36
ATOM     36  C   UNL     1       4.307  -3.214   2.644  1.00  0.00     0.202 C 
BRANCH  36  37
ATOM     37  C   UNL     1       4.174  -4.628   2.074  1.00  0.00     0.261 C 
BRANCH  37  38
ATOM     38  O   UNL     1       3.845  -4.644   0.675  1.00  0.00    -0.460 OA
BRANCH  38  39
ATOM     39  C   UNL     1       2.692  -5.277   0.355  1.00  0.00     0.338 C 
ATOM     40  O   UNL     1       1.893  -5.798   1.112  1.00  0.00    -0.246 OA
BRANCH  39  41
ATOM     41  C   UNL     1       2.450  -5.173  -1.095  1.00  0.00     0.060 A 
ATOM     42  C   UNL     1       1.271  -4.557  -1.532  1.00  0.00     0.016 A 
ATOM     43  C   UNL     1       3.317  -5.773  -2.008  1.00  0.00     0.016 A 
ATOM     44  C   UNL     1       0.939  -4.571  -2.887  1.00  0.00     0.010 A 
ATOM     45  C   UNL     1       2.986  -5.786  -3.365  1.00  0.00     0.010 A 
ATOM     46  C   UNL     1       1.776  -5.220  -3.805  1.00  0.00    -0.014 A 
BRANCH  46  47
ATOM     47  C   UNL     1       1.316  -5.474  -5.191  1.00  0.00     0.031 A 
ATOM     48  C   UNL     1       0.752  -6.827  -5.525  1.00  0.00     0.074 A 
ATOM     49  C   UNL     1       1.417  -4.531  -6.143  1.00  0.00     0.049 A 
ATOM     50  N   UNL     1       0.389  -7.316  -6.684  1.00  0.00    -0.248 NA
ATOM     51  C   UNL     1       0.584  -7.759  -4.399  1.00  0.00     0.031 C 
ATOM     52  C   UNL     1       1.915  -3.174  -5.938  1.00  0.00     0.029 A 
ATOM     53  N   UNL     1       1.121  -4.587  -7.482  1.00  0.00    -0.354 N 
ATOM     54  C   UNL     1      -0.032  -8.614  -6.428  1.00  0.00     0.074 A 
ATOM     55  C   UNL     1       0.138  -8.846  -5.010  1.00  0.00     0.031 C 
ATOM     56  C   UNL     1       1.914  -2.530  -7.117  1.00  0.00     0.029 A 
ATOM     57  C   UNL     1       1.451  -3.442  -8.164  1.00  0.00     0.049 A 
ATOM     58  H   UNL     1       0.711  -5.372  -7.913  1.00  0.00     0.167 HD
ATOM     59  C   UNL     1      -0.519  -9.530  -7.298  1.00  0.00     0.037 A 
ATOM     60  C   UNL     1       1.417  -3.177  -9.485  1.00  0.00     0.037 A 
ATOM     61  C   UNL     1      -0.699  -9.297  -8.705  1.00  0.00     0.049 A 
ATOM     62  C   UNL     1       0.923  -4.231 -10.444  1.00  0.00     0.074 A 
ATOM     63  C   UNL     1      -1.226 -10.147  -9.661  1.00  0.00     0.029 A 
ATOM     64  N   UNL     1      -0.345  -8.127  -9.360  1.00  0.00    -0.354 N 
ATOM     65  N   UNL     1       0.493  -5.443 -10.191  1.00  0.00    -0.248 NA
ATOM     66  C   UNL     1       0.912  -3.880 -11.872  1.00  0.00     0.031 C 
ATOM     67  C   UNL     1      -1.146  -9.510 -10.904  1.00  0.00     0.029 A 
ATOM     68  C   UNL     1      -0.613  -8.245 -10.714  1.00  0.00     0.049 A 
ATOM     69  H   UNL     1       0.041  -7.331  -8.927  1.00  0.00     0.167 HD
ATOM     70  C   UNL     1       0.138  -5.989 -11.419  1.00  0.00     0.074 A 
ATOM     71  C   UNL     1       0.397  -4.973 -12.418  1.00  0.00     0.031 C 
ATOM     72  C   UNL     1      -0.358  -7.220 -11.694  1.00  0.00     0.037 A 
BRANCH  59  73
ATOM     73  C   UNL     1      -0.864 -10.883  -6.752  1.00  0.00     0.064 A 
ATOM     74  C   UNL     1      -1.989 -11.088  -5.941  1.00  0.00     0.173 A 
ATOM     75  C   UNL     1      -0.065 -11.994  -7.062  1.00  0.00     0.173 A 
ATOM     76  F   UNL     1      -2.776 -10.055  -5.604  1.00  0.00    -0.203 F 
ATOM     77  C   UNL     1      -2.287 -12.351  -5.436  1.00  0.00     0.198 A 
ATOM     78  C   UNL     1      -0.380 -13.260  -6.577  1.00  0.00     0.198 A 
ATOM     79  F   UNL     1       1.021 -11.851  -7.837  1.00  0.00    -0.203 F 
ATOM     80  F   UNL     1      -3.340 -12.516  -4.624  1.00  0.00    -0.200 F 
ATOM     81  C   UNL     1      -1.485 -13.437  -5.759  1.00  0.00     0.200 A 
ATOM     82  F   UNL     1       0.390 -14.309  -6.898  1.00  0.00    -0.200 F 
ATOM     83  F   UNL     1      -1.774 -14.652  -5.274  1.00  0.00    -0.200 F 
ENDBRANCH  59  73
BRANCH  60  84
ATOM     84  C   UNL     1       1.895  -1.861  -9.981  1.00  0.00     0.064 A 
ATOM     85  C   UNL     1       1.005  -0.922 -10.518  1.00  0.00     0.173 A 
ATOM     86  C   UNL     1       3.253  -1.515  -9.923  1.00  0.00     0.173 A 
ATOM     87  F   UNL     1      -0.300  -1.215 -10.613  1.00  0.00    -0.203 F 
ATOM     88  C   UNL     1       1.457   0.309 -10.991  1.00  0.00     0.198 A 
ATOM     89  C   UNL     1       3.700  -0.274 -10.370  1.00  0.00     0.198 A 
ATOM     90  F   UNL     1       4.146  -2.373  -9.407  1.00  0.00    -0.203 F 
ATOM     91  F   UNL     1       0.590   1.176 -11.531  1.00  0.00    -0.200 F 
ATOM     92  C   UNL     1       2.803   0.634 -10.911  1.00  0.00     0.200 A 
ATOM     93  F   UNL     1       4.998   0.043 -10.269  1.00  0.00    -0.200 F 
ATOM     94  F   UNL     1       3.236   1.822 -11.354  1.00  0.00    -0.200 F 
ENDBRANCH  60  84
BRANCH  72  95
ATOM     95  C   UNL     1      -0.687  -7.536 -13.124  1.00  0.00     0.064 A 
ATOM     96  C   UNL     1       0.316  -7.806 -14.065  1.00  0.00     0.173 A 
ATOM     97  C   UNL     1      -2.024  -7.640 -13.538  1.00  0.00     0.173 A 
ATOM     98  F   UNL     1       1.609  -7.706 -13.721  1.00  0.00    -0.203 F 
ATOM     99  C   UNL     1      -0.007  -8.159 -15.373  1.00  0.00     0.198 A 
ATOM    100  C   UNL     1      -2.344  -8.017 -14.839  1.00  0.00     0.198 A 
ATOM    101  F   UNL     1      -3.020  -7.398 -12.673  1.00  0.00    -0.203 F 
ATOM    102  F   UNL     1       0.967  -8.384 -16.265  1.00  0.00    -0.200 F 
ATOM    103  C   UNL     1      -1.336  -8.273 -15.756  1.00  0.00     0.200 A 
ATOM    104  F   UNL     1      -3.628  -8.139 -15.204  1.00  0.00    -0.200 F 
ATOM    105  F   UNL     1      -1.645  -8.626 -17.012  1.00  0.00    -0.200 F 
ENDBRANCH  72  95
ENDBRANCH  46  47
ENDBRANCH  39  41
ENDBRANCH  38  39
ENDBRANCH  37  38
ENDBRANCH  36  37
ENDBRANCH  35  36
ENDBRANCH  34  35
ENDBRANCH   1  34
TORSDOF 22
