REMARK SMILES Cc1cc(OCC(=O)OCCOCCOCCOC(=O)c2ccc(-c3c4nc(c(-c5c(F)c(F)c(F)c(F)c5F)c5ccc([nH]5)c(-c5c(F)c(F)c(F)c(F)c5F)c5nc(c(-c6c(F)c(F)c(F)c(F)c6F)c6ccc3[nH]6)C=C5)C=C4)cc2)ccc1NC(=O)c1ccc(N2C(=O)[C@@H]3[C@H](C2=O)[C@H]2C=C[C@@H]3C2)cc1
REMARK SMILES IDX 12 1 11 2 10 3 9 4 7 5 8 6 6 7 5 8 4 9 1 10 2 11 3 12 86 13
REMARK SMILES IDX 85 14 84 15 87 16 88 17 89 19 90 20 91 21 107 22 92 23
REMARK SMILES IDX 106 24 93 25 94 26 95 27 99 28 96 29 97 30 98 31 100 32
REMARK SMILES IDX 104 33 101 34 103 35 105 36 102 37 13 38 14 39 15 40 16 41
REMARK SMILES IDX 17 42 18 43 19 44 20 45 21 46 22 47 83 48 23 49 82 50 24 51
REMARK SMILES IDX 25 52 26 53 76 54 27 55 81 56 75 57 77 58 28 59 80 60 74 61
REMARK SMILES IDX 73 62 29 64 61 65 41 66 60 67 42 68 45 69 59 70 78 71 43 72
REMARK SMILES IDX 44 73 58 75 79 76 46 77 30 78 31 79 39 80 32 81 33 82 37 83
REMARK SMILES IDX 40 84 34 85 35 86 38 87 36 88 62 89 63 90 71 91 64 92 65 93
REMARK SMILES IDX 69 94 72 95 66 96 67 97 70 98 68 99 47 100 48 101 56 102
REMARK SMILES IDX 49 103 50 104 54 105 57 106 51 107 52 108 55 109 53 110
REMARK H PARENT 87 18 77 63 45 74
REMARK Flexibility Score: inf
ROOT
ATOM      1  O   UNL     1      -4.058  -0.233   3.545  1.00  0.00    -0.376 OA
ENDROOT
BRANCH   1   2
ATOM      2  C   UNL     1      -3.702  -1.249   4.510  1.00  0.00     0.202 C 
BRANCH   2   3
ATOM      3  C   UNL     1      -3.299  -2.894   3.973  1.00  0.00     0.261 C 
BRANCH   3   4
ATOM      4  O   UNL     1      -2.336  -3.381   2.543  1.00  0.00    -0.461 OA
BRANCH   4   5
ATOM      5  C   UNL     1      -2.369  -3.909   1.106  1.00  0.00     0.344 C 
ATOM      6  O   UNL     1      -3.282  -4.417   0.433  1.00  0.00    -0.248 OA
BRANCH   5   7
ATOM      7  C   UNL     1      -1.180  -3.676   0.278  1.00  0.00     0.351 C 
BRANCH   7   8
ATOM      8  O   UNL     1      -0.639  -2.550   0.872  1.00  0.00    -0.482 OA
BRANCH   8   9
ATOM      9  C   UNL     1      -1.026  -1.365   0.183  1.00  0.00     0.120 A 
ATOM     10  C   UNL     1       2.419   0.576  -1.252  1.00  0.00     0.047 C 
ATOM     11  C   UNL     1       0.890   0.522  -1.226  1.00  0.00    -0.024 A 
ATOM     12  C   UNL     1       0.429  -1.127  -0.823  1.00  0.00     0.052 A 
ATOM     13  C   UNL     1      -0.083   1.972  -0.806  1.00  0.00     0.044 A 
ATOM     14  C   UNL     1      -1.554   1.880   0.114  1.00  0.00     0.030 A 
ATOM     15  C   UNL     1      -2.080   0.288   0.709  1.00  0.00     0.048 A 
BRANCH  13  16
ATOM     16  N   UNL     1       0.507   3.252  -0.967  1.00  0.00    -0.322 N 
ATOM     17  C   UNL     1       0.266   4.484  -0.348  1.00  0.00     0.255 C 
ATOM     18  H   UNL     1       1.222   3.280  -1.644  1.00  0.00     0.170 HD
ATOM     19  O   UNL     1       0.987   5.441  -0.640  1.00  0.00    -0.269 OA
BRANCH  17  20
ATOM     20  C   UNL     1      -0.791   4.741   0.685  1.00  0.00     0.040 A 
ATOM     21  C   UNL     1      -2.035   5.254   0.322  1.00  0.00     0.016 A 
ATOM     22  C   UNL     1      -0.545   4.612   2.053  1.00  0.00     0.016 A 
ATOM     23  C   UNL     1      -3.073   5.419   1.284  1.00  0.00     0.027 A 
ATOM     24  C   UNL     1      -1.582   4.804   3.012  1.00  0.00     0.027 A 
ATOM     25  C   UNL     1      -2.909   5.107   2.647  1.00  0.00     0.052 A 
BRANCH  25  26
ATOM     26  N   UNL     1      -4.024   5.083   3.596  1.00  0.00    -0.250 N 
ATOM     27  C   UNL     1      -5.349   5.335   3.269  1.00  0.00     0.238 C 
ATOM     28  C   UNL     1      -3.929   4.691   4.923  1.00  0.00     0.238 C 
ATOM     29  O   UNL     1      -5.836   5.567   2.171  1.00  0.00    -0.274 OA
ATOM     30  C   UNL     1      -6.221   5.292   4.506  1.00  0.00     0.099 C 
ATOM     31  C   UNL     1      -5.256   4.884   5.622  1.00  0.00     0.099 C 
ATOM     32  O   UNL     1      -2.969   4.218   5.515  1.00  0.00    -0.274 OA
ATOM     33  C   UNL     1      -7.323   4.199   4.562  1.00  0.00     0.025 C 
ATOM     34  C   UNL     1      -5.909   3.606   6.197  1.00  0.00     0.025 C 
ATOM     35  C   UNL     1      -8.065   4.359   5.874  1.00  0.00    -0.027 C 
ATOM     36  C   UNL     1      -6.530   2.954   4.954  1.00  0.00     0.017 C 
ATOM     37  C   UNL     1      -7.214   4.017   6.857  1.00  0.00    -0.027 C 
ENDBRANCH  25  26
ENDBRANCH  17  20
ENDBRANCH  13  16
ENDBRANCH   8   9
ENDBRANCH   7   8
ENDBRANCH   5   7
ENDBRANCH   4   5
ENDBRANCH   3   4
ENDBRANCH   2   3
ENDBRANCH   1   2
BRANCH   1  38
ATOM     38  C   UNL     1      -3.735   1.155   3.763  1.00  0.00     0.188 C 
BRANCH  38  39
ATOM     39  C   UNL     1      -2.262   1.514   3.811  1.00  0.00     0.188 C 
BRANCH  39  40
ATOM     40  O   UNL     1      -1.651   1.321   5.066  1.00  0.00    -0.376 OA
BRANCH  40  41
ATOM     41  C   UNL     1      -0.308   0.808   4.991  1.00  0.00     0.202 C 
BRANCH  41  42
ATOM     42  C   UNL     1       0.700   1.551   4.039  1.00  0.00     0.261 C 
BRANCH  42  43
ATOM     43  O   UNL     1       1.078   0.770   2.849  1.00  0.00    -0.460 OA
BRANCH  43  44
ATOM     44  C   UNL     1       0.906   1.260   1.556  1.00  0.00     0.338 C 
ATOM     45  O   UNL     1       1.447   2.311   1.280  1.00  0.00    -0.246 OA
BRANCH  44  46
ATOM     46  C   UNL     1      -0.187   0.286   0.702  1.00  0.00     0.060 A 
ATOM     47  C   UNL     1      -1.339   0.068  -0.963  1.00  0.00     0.016 A 
ATOM     48  C   UNL     1      -0.696  -0.554   2.123  1.00  0.00     0.016 A 
ATOM     49  C   UNL     1      -2.901  -0.942  -0.764  1.00  0.00     0.010 A 
ATOM     50  C   UNL     1      -2.186  -1.273   2.136  1.00  0.00     0.010 A 
ATOM     51  C   UNL     1      -3.344  -1.609   0.845  1.00  0.00    -0.014 A 
BRANCH  51  52
ATOM     52  C   UNL     1      -4.704  -2.536   1.491  1.00  0.00     0.031 A 
ATOM     53  C   UNL     1      -4.804  -4.243   2.126  1.00  0.00     0.074 A 
ATOM     54  C   UNL     1      -5.689  -1.735   1.983  1.00  0.00     0.049 A 
ATOM     55  N   UNL     1      -5.877  -5.002   2.258  1.00  0.00    -0.248 NA
ATOM     56  C   UNL     1      -3.662  -5.269   2.602  1.00  0.00     0.031 C 
ATOM     57  C   UNL     1      -6.513  -1.981   3.181  1.00  0.00     0.029 A 
ATOM     58  N   UNL     1      -6.051  -0.414   1.642  1.00  0.00    -0.354 N 
ATOM     59  C   UNL     1      -5.409  -6.181   2.940  1.00  0.00     0.074 A 
ATOM     60  C   UNL     1      -4.149  -6.483   2.424  1.00  0.00     0.031 C 
ATOM     61  C   UNL     1      -7.420  -0.996   3.335  1.00  0.00     0.029 A 
ATOM     62  C   UNL     1      -7.382  -0.230   2.109  1.00  0.00     0.049 A 
ATOM     63  H   UNL     1      -5.492   0.248   1.174  1.00  0.00     0.167 HD
ATOM     64  C   UNL     1      -5.721  -6.460   4.258  1.00  0.00     0.037 A 
ATOM     65  C   UNL     1      -8.415  -0.192   1.211  1.00  0.00     0.037 A 
ATOM     66  C   UNL     1      -6.894  -5.699   4.588  1.00  0.00     0.049 A 
ATOM     67  C   UNL     1      -9.283  -1.439   1.332  1.00  0.00     0.074 A 
ATOM     68  C   UNL     1      -7.270  -4.740   5.500  1.00  0.00     0.029 A 
ATOM     69  N   UNL     1      -7.861  -5.712   3.611  1.00  0.00    -0.354 N 
ATOM     70  N   UNL     1      -8.864  -2.546   1.896  1.00  0.00    -0.248 NA
ATOM     71  C   UNL     1     -10.698  -1.524   0.979  1.00  0.00     0.031 C 
ATOM     72  C   UNL     1      -8.443  -4.101   4.958  1.00  0.00     0.029 A 
ATOM     73  C   UNL     1      -8.767  -4.707   3.750  1.00  0.00     0.049 A 
ATOM     74  H   UNL     1      -7.895  -6.378   2.886  1.00  0.00     0.167 HD
ATOM     75  C   UNL     1      -9.893  -3.423   2.049  1.00  0.00     0.074 A 
ATOM     76  C   UNL     1     -11.014  -2.757   1.423  1.00  0.00     0.031 C 
ATOM     77  C   UNL     1      -9.773  -4.617   2.701  1.00  0.00     0.037 A 
BRANCH  64  78
ATOM     78  C   UNL     1      -4.895  -7.301   5.284  1.00  0.00     0.064 A 
ATOM     79  C   UNL     1      -5.549  -7.777   6.440  1.00  0.00     0.173 A 
ATOM     80  C   UNL     1      -3.507  -7.638   5.260  1.00  0.00     0.173 A 
ATOM     81  F   UNL     1      -6.842  -7.500   6.649  1.00  0.00    -0.203 F 
ATOM     82  C   UNL     1      -4.909  -8.546   7.432  1.00  0.00     0.198 A 
ATOM     83  C   UNL     1      -2.882  -8.455   6.222  1.00  0.00     0.198 A 
ATOM     84  F   UNL     1      -2.649  -7.146   4.359  1.00  0.00    -0.203 F 
ATOM     85  F   UNL     1      -5.594  -8.929   8.519  1.00  0.00    -0.200 F 
ATOM     86  C   UNL     1      -3.584  -8.910   7.311  1.00  0.00     0.200 A 
ATOM     87  F   UNL     1      -1.582  -8.767   6.093  1.00  0.00    -0.200 F 
ATOM     88  F   UNL     1      -2.984  -9.662   8.244  1.00  0.00    -0.200 F 
ENDBRANCH  64  78
BRANCH  65  89
ATOM     89  C   UNL     1      -7.997   0.599   0.007  1.00  0.00     0.064 A 
ATOM     90  C   UNL     1      -7.695   1.961   0.258  1.00  0.00     0.173 A 
ATOM     91  C   UNL     1      -7.310  -0.019  -1.049  1.00  0.00     0.173 A 
ATOM     92  F   UNL     1      -8.332   2.614   1.245  1.00  0.00    -0.203 F 
ATOM     93  C   UNL     1      -6.603   2.585  -0.347  1.00  0.00     0.198 A 
ATOM     94  C   UNL     1      -6.232   0.626  -1.672  1.00  0.00     0.198 A 
ATOM     95  F   UNL     1      -7.562  -1.298  -1.360  1.00  0.00    -0.203 F 
ATOM     96  F   UNL     1      -6.217   3.804   0.053  1.00  0.00    -0.200 F 
ATOM     97  C   UNL     1      -5.842   1.898  -1.275  1.00  0.00     0.200 A 
ATOM     98  F   UNL     1      -5.504  -0.022  -2.592  1.00  0.00    -0.200 F 
ATOM     99  F   UNL     1      -4.710   2.443  -1.748  1.00  0.00    -0.200 F 
ENDBRANCH  65  89
BRANCH  77 100
ATOM    100  C   UNL     1     -10.518  -5.885   2.282  1.00  0.00     0.064 A 
ATOM    101  C   UNL     1     -11.224  -6.002   1.074  1.00  0.00     0.173 A 
ATOM    102  C   UNL     1     -10.366  -7.110   2.995  1.00  0.00     0.173 A 
ATOM    103  F   UNL     1     -11.320  -4.985   0.209  1.00  0.00    -0.203 F 
ATOM    104  C   UNL     1     -11.820  -7.199   0.672  1.00  0.00     0.198 A 
ATOM    105  C   UNL     1     -10.857  -8.326   2.527  1.00  0.00     0.198 A 
ATOM    106  F   UNL     1      -9.701  -7.189   4.157  1.00  0.00    -0.203 F 
ATOM    107  F   UNL     1     -12.570  -7.219  -0.437  1.00  0.00    -0.200 F 
ATOM    108  C   UNL     1     -11.625  -8.363   1.388  1.00  0.00     0.200 A 
ATOM    109  F   UNL     1     -10.567  -9.459   3.184  1.00  0.00    -0.200 F 
ATOM    110  F   UNL     1     -12.168  -9.515   0.977  1.00  0.00    -0.200 F 
ENDBRANCH  77 100
ENDBRANCH  51  52
ENDBRANCH  44  46
ENDBRANCH  43  44
ENDBRANCH  42  43
ENDBRANCH  41  42
ENDBRANCH  40  41
ENDBRANCH  39  40
ENDBRANCH  38  39
ENDBRANCH   1  38
TORSDOF 22
