REMARK SMILES Cc1ccccc1NC(=O)CSc1nc(C(=O)OCCOCCOCCOC(=O)c2ccc(-c3c4nc(c(-c5c(F)c(F)c(F)c(F)c5F)c5ccc([nH]5)c(-c5c(F)c(F)c(F)c(F)c5F)c5nc(c(-c6c(F)c(F)c(F)c(F)c6F)c6ccc3[nH]6)C=C5)C=C4)cc2)c2ccccc2n1
REMARK SMILES IDX 22 1 21 2 20 3 19 4 18 5 16 6 17 7 15 8 13 9 14 10 99 11
REMARK SMILES IDX 98 12 93 13 97 14 94 15 96 16 95 17 12 18 11 19 9 20 8 21
REMARK SMILES IDX 10 23 7 24 1 25 2 26 3 27 4 28 6 29 5 30 23 31 24 32 25 33
REMARK SMILES IDX 26 34 27 35 28 36 29 37 30 38 31 39 92 40 32 41 91 42 33 43
REMARK SMILES IDX 34 44 35 45 85 46 36 47 90 48 84 49 86 50 37 51 89 52 83 53
REMARK SMILES IDX 82 54 38 56 70 57 50 58 69 59 51 60 54 61 68 62 87 63 52 64
REMARK SMILES IDX 53 65 67 67 88 68 55 69 39 70 40 71 48 72 41 73 42 74 46 75
REMARK SMILES IDX 49 76 43 77 44 78 47 79 45 80 71 81 72 82 80 83 73 84 74 85
REMARK SMILES IDX 78 86 81 87 75 88 76 89 79 90 77 91 56 92 57 93 65 94 58 95
REMARK SMILES IDX 59 96 63 97 66 98 60 99 61 100 64 101 62 102
REMARK H PARENT 8 22 86 55 54 66
REMARK Flexibility Score: inf
ROOT
ATOM      1  C   UNL     1      -4.271  10.048  -5.347  1.00  0.00     0.188 C 
ENDROOT
BRANCH   1   2
ATOM      2  O   UNL     1      -2.949  10.073  -5.939  1.00  0.00    -0.376 OA
BRANCH   2   3
ATOM      3  C   UNL     1      -2.652   9.727  -7.303  1.00  0.00     0.202 C 
BRANCH   3   4
ATOM      4  C   UNL     1      -1.798   8.353  -7.891  1.00  0.00     0.261 C 
BRANCH   4   5
ATOM      5  O   UNL     1      -1.728   6.786  -7.362  1.00  0.00    -0.458 OA
BRANCH   5   6
ATOM      6  C   UNL     1      -0.974   5.978  -6.472  1.00  0.00     0.357 C 
ATOM      7  O   UNL     1       0.131   6.196  -5.985  1.00  0.00    -0.244 OA
BRANCH   6   8
ATOM      8  C   UNL     1      -1.351   4.593  -6.038  1.00  0.00     0.160 A 
ATOM      9  C   UNL     1      -1.256   3.207  -4.160  1.00  0.00     0.189 A 
ATOM     10  N   UNL     1      -1.604   4.395  -4.688  1.00  0.00    -0.215 NA
ATOM     11  N   UNL     1      -0.720   2.214  -4.885  1.00  0.00    -0.222 NA
ATOM     12  C   UNL     1      -0.456   2.432  -6.177  1.00  0.00     0.076 A 
ATOM     13  C   UNL     1      -0.746   3.629  -6.831  1.00  0.00     0.034 A 
ATOM     14  C   UNL     1       0.188   1.446  -6.906  1.00  0.00     0.029 A 
ATOM     15  C   UNL     1      -0.314   3.857  -8.160  1.00  0.00     0.013 A 
ATOM     16  C   UNL     1       0.596   1.651  -8.229  1.00  0.00     0.002 A 
ATOM     17  C   UNL     1       0.364   2.870  -8.850  1.00  0.00     0.001 A 
BRANCH   9  18
ATOM     18  S   UNL     1      -1.833   2.657  -2.555  1.00  0.00    -0.076 SA
BRANCH  18  19
ATOM     19  C   UNL     1      -1.155   3.781  -1.296  1.00  0.00     0.178 C 
BRANCH  19  20
ATOM     20  C   UNL     1       0.236   3.493  -0.750  1.00  0.00     0.234 C 
ATOM     21  N   UNL     1       0.688   2.317  -0.232  1.00  0.00    -0.325 N 
ATOM     22  H   UNL     1       1.632   2.368   0.044  1.00  0.00     0.169 HD
ATOM     23  O   UNL     1       1.056   4.426  -0.698  1.00  0.00    -0.274 OA
BRANCH  21  24
ATOM     24  C   UNL     1       0.131   1.050   0.004  1.00  0.00     0.044 A 
ATOM     25  C   UNL     1       2.474  -0.051  -0.170  1.00  0.00     0.046 C 
ATOM     26  C   UNL     1       0.976  -0.086   0.002  1.00  0.00    -0.027 A 
ATOM     27  C   UNL     1       0.403  -1.369   0.112  1.00  0.00     0.005 A 
ATOM     28  C   UNL     1      -0.966  -1.530   0.293  1.00  0.00     0.000 A 
ATOM     29  C   UNL     1      -1.230   0.873   0.270  1.00  0.00     0.026 A 
ATOM     30  C   UNL     1      -1.776  -0.408   0.407  1.00  0.00     0.002 A 
ENDBRANCH  21  24
ENDBRANCH  19  20
ENDBRANCH  18  19
ENDBRANCH   9  18
ENDBRANCH   6   8
ENDBRANCH   5   6
ENDBRANCH   4   5
ENDBRANCH   3   4
ENDBRANCH   2   3
ENDBRANCH   1   2
BRANCH   1  31
ATOM     31  C   UNL     1      -5.554   9.710  -6.113  1.00  0.00     0.188 C 
BRANCH  31  32
ATOM     32  O   UNL     1      -5.331   8.687  -7.065  1.00  0.00    -0.376 OA
BRANCH  32  33
ATOM     33  C   UNL     1      -6.510   8.172  -7.680  1.00  0.00     0.202 C 
BRANCH  33  34
ATOM     34  C   UNL     1      -7.309   7.182  -6.794  1.00  0.00     0.261 C 
BRANCH  34  35
ATOM     35  O   UNL     1      -6.464   6.103  -6.314  1.00  0.00    -0.460 OA
BRANCH  35  36
ATOM     36  C   UNL     1      -6.270   5.977  -4.958  1.00  0.00     0.338 C 
ATOM     37  O   UNL     1      -7.170   5.968  -4.128  1.00  0.00    -0.246 OA
BRANCH  36  38
ATOM     38  C   UNL     1      -4.804   6.110  -4.627  1.00  0.00     0.060 A 
ATOM     39  C   UNL     1      -4.171   6.190  -3.373  1.00  0.00     0.016 A 
ATOM     40  C   UNL     1      -4.044   6.538  -5.654  1.00  0.00     0.016 A 
ATOM     41  C   UNL     1      -2.838   6.814  -3.196  1.00  0.00     0.010 A 
ATOM     42  C   UNL     1      -2.954   7.347  -5.340  1.00  0.00     0.010 A 
ATOM     43  C   UNL     1      -2.171   7.483  -4.222  1.00  0.00    -0.014 A 
BRANCH  43  44
ATOM     44  C   UNL     1      -0.968   8.495  -4.256  1.00  0.00     0.031 A 
ATOM     45  C   UNL     1       0.464   8.498  -4.948  1.00  0.00     0.074 A 
ATOM     46  C   UNL     1      -1.177   9.660  -3.606  1.00  0.00     0.049 A 
ATOM     47  N   UNL     1       1.608   8.675  -4.317  1.00  0.00    -0.248 NA
ATOM     48  C   UNL     1       0.766   8.413  -6.397  1.00  0.00     0.031 C 
ATOM     49  C   UNL     1      -0.272  10.802  -3.472  1.00  0.00     0.029 A 
ATOM     50  N   UNL     1      -2.243   9.972  -2.754  1.00  0.00    -0.354 N 
ATOM     51  C   UNL     1       2.649   8.728  -5.261  1.00  0.00     0.074 A 
ATOM     52  C   UNL     1       2.087   8.392  -6.508  1.00  0.00     0.031 C 
ATOM     53  C   UNL     1      -0.598  11.452  -2.342  1.00  0.00     0.029 A 
ATOM     54  C   UNL     1      -1.678  10.714  -1.707  1.00  0.00     0.049 A 
ATOM     55  H   UNL     1      -3.188   9.723  -2.867  1.00  0.00     0.167 HD
ATOM     56  C   UNL     1       3.909   9.206  -5.064  1.00  0.00     0.037 A 
ATOM     57  C   UNL     1      -1.710  10.208  -0.445  1.00  0.00     0.037 A 
ATOM     58  C   UNL     1       3.950   9.919  -3.822  1.00  0.00     0.049 A 
ATOM     59  C   UNL     1      -0.327   9.951   0.104  1.00  0.00     0.074 A 
ATOM     60  C   UNL     1       3.699  11.249  -3.537  1.00  0.00     0.029 A 
ATOM     61  N   UNL     1       3.784   9.208  -2.650  1.00  0.00    -0.354 N 
ATOM     62  N   UNL     1       0.770  10.015  -0.602  1.00  0.00    -0.248 NA
ATOM     63  C   UNL     1      -0.070   9.585   1.493  1.00  0.00     0.031 C 
ATOM     64  C   UNL     1       3.262  11.318  -2.192  1.00  0.00     0.029 A 
ATOM     65  C   UNL     1       3.329  10.046  -1.652  1.00  0.00     0.049 A 
ATOM     66  H   UNL     1       3.963   8.246  -2.542  1.00  0.00     0.167 HD
ATOM     67  C   UNL     1       1.836   9.641   0.172  1.00  0.00     0.074 A 
ATOM     68  C   UNL     1       1.264   9.428   1.486  1.00  0.00     0.031 C 
ATOM     69  C   UNL     1       3.099   9.508  -0.327  1.00  0.00     0.037 A 
BRANCH  56  70
ATOM     70  C   UNL     1       4.900   9.322  -6.214  1.00  0.00     0.064 A 
ATOM     71  C   UNL     1       5.594  10.513  -6.491  1.00  0.00     0.173 A 
ATOM     72  C   UNL     1       5.116   8.275  -7.140  1.00  0.00     0.173 A 
ATOM     73  F   UNL     1       5.558  11.548  -5.643  1.00  0.00    -0.203 F 
ATOM     74  C   UNL     1       6.322  10.693  -7.676  1.00  0.00     0.198 A 
ATOM     75  C   UNL     1       5.799   8.471  -8.349  1.00  0.00     0.198 A 
ATOM     76  F   UNL     1       4.615   7.050  -6.913  1.00  0.00    -0.203 F 
ATOM     77  F   UNL     1       6.932  11.864  -7.912  1.00  0.00    -0.200 F 
ATOM     78  C   UNL     1       6.383   9.691  -8.626  1.00  0.00     0.200 A 
ATOM     79  F   UNL     1       5.846   7.489  -9.262  1.00  0.00    -0.200 F 
ATOM     80  F   UNL     1       6.998   9.900  -9.799  1.00  0.00    -0.200 F 
ENDBRANCH  56  70
BRANCH  57  81
ATOM     81  C   UNL     1      -2.970   9.447  -0.158  1.00  0.00     0.064 A 
ATOM     82  C   UNL     1      -4.202  10.099  -0.414  1.00  0.00     0.173 A 
ATOM     83  C   UNL     1      -3.025   8.064   0.032  1.00  0.00     0.173 A 
ATOM     84  F   UNL     1      -4.230  11.431  -0.592  1.00  0.00    -0.203 F 
ATOM     85  C   UNL     1      -5.388   9.394  -0.613  1.00  0.00     0.198 A 
ATOM     86  C   UNL     1      -4.230   7.361  -0.126  1.00  0.00     0.198 A 
ATOM     87  F   UNL     1      -1.905   7.357   0.239  1.00  0.00    -0.203 F 
ATOM     88  F   UNL     1      -6.498  10.044  -0.993  1.00  0.00    -0.200 F 
ATOM     89  C   UNL     1      -5.397   8.020  -0.490  1.00  0.00     0.200 A 
ATOM     90  F   UNL     1      -4.233   6.021  -0.043  1.00  0.00    -0.200 F 
ATOM     91  F   UNL     1      -6.510   7.326  -0.767  1.00  0.00    -0.200 F 
ENDBRANCH  57  81
BRANCH  69  92
ATOM     92  C   UNL     1       4.272   8.884   0.383  1.00  0.00     0.064 A 
ATOM     93  C   UNL     1       4.154   7.840   1.311  1.00  0.00     0.173 A 
ATOM     94  C   UNL     1       5.595   9.221  -0.002  1.00  0.00     0.173 A 
ATOM     95  F   UNL     1       2.958   7.360   1.673  1.00  0.00    -0.203 F 
ATOM     96  C   UNL     1       5.277   7.218   1.859  1.00  0.00     0.198 A 
ATOM     97  C   UNL     1       6.708   8.549   0.492  1.00  0.00     0.198 A 
ATOM     98  F   UNL     1       5.842  10.194  -0.893  1.00  0.00    -0.203 F 
ATOM     99  F   UNL     1       5.118   6.262   2.785  1.00  0.00    -0.200 F 
ATOM    100  C   UNL     1       6.550   7.559   1.439  1.00  0.00     0.200 A 
ATOM    101  F   UNL     1       7.931   8.853   0.033  1.00  0.00    -0.200 F 
ATOM    102  F   UNL     1       7.621   6.925   1.935  1.00  0.00    -0.200 F 
ENDBRANCH  69  92
ENDBRANCH  43  44
ENDBRANCH  36  38
ENDBRANCH  35  36
ENDBRANCH  34  35
ENDBRANCH  33  34
ENDBRANCH  32  33
ENDBRANCH  31  32
ENDBRANCH   1  31
TORSDOF 21
