REMARK SMILES CC[C@@H]1CCCN1C(=O)N1CC[C@@H](C(=O)OCCOCCOCCOC(=O)c2ccc(-c3c4nc(c(-c5c(F)c(F)c(F)c(F)c5F)c5ccc([nH]5)c(-c5c(F)c(F)c(F)c(F)c5F)c5nc(c(-c6c(F)c(F)c(F)c(F)c6F)c6ccc3[nH]6)C=C5)C=C4)cc2)[C@@H]1C
REMARK SMILES IDX 20 1 19 2 18 3 17 4 16 5 14 6 15 7 13 8 10 9 11 10 91 11
REMARK SMILES IDX 12 12 92 13 8 14 9 15 7 16 3 17 4 18 5 19 6 20 2 21 1 22
REMARK SMILES IDX 21 23 22 24 23 25 24 26 25 27 26 28 27 29 28 30 29 31 90 32
REMARK SMILES IDX 30 33 89 34 31 35 32 36 33 37 83 38 34 39 88 40 82 41 84 42
REMARK SMILES IDX 35 43 87 44 81 45 80 46 36 48 68 49 48 50 67 51 49 52 52 53
REMARK SMILES IDX 66 54 85 55 50 56 51 57 65 59 86 60 53 61 37 62 38 63 46 64
REMARK SMILES IDX 39 65 40 66 44 67 47 68 41 69 42 70 45 71 43 72 69 73 70 74
REMARK SMILES IDX 78 75 71 76 72 77 76 78 79 79 73 80 74 81 77 82 75 83 54 84
REMARK SMILES IDX 55 85 63 86 56 87 57 88 61 89 64 90 58 91 59 92 62 93 60 94
REMARK H PARENT 84 47 52 58
REMARK Flexibility Score: inf
ROOT
ATOM      1  C   UNL     1       1.134   1.031  -5.309  1.00  0.00     0.188 C 
ENDROOT
BRANCH   1   2
ATOM      2  O   UNL     1       1.012   0.156  -6.426  1.00  0.00    -0.376 OA
BRANCH   2   3
ATOM      3  C   UNL     1       0.212  -1.010  -6.320  1.00  0.00     0.202 C 
BRANCH   3   4
ATOM      4  C   UNL     1       0.656  -2.071  -5.311  1.00  0.00     0.261 C 
BRANCH   4   5
ATOM      5  O   UNL     1       0.750  -1.617  -3.949  1.00  0.00    -0.463 OA
BRANCH   5   6
ATOM      6  C   UNL     1       1.985  -1.482  -3.396  1.00  0.00     0.311 C 
ATOM      7  O   UNL     1       3.040  -1.609  -4.004  1.00  0.00    -0.252 OA
BRANCH   6   8
ATOM      8  C   UNL     1       1.928  -1.143  -1.913  1.00  0.00     0.123 C 
ATOM      9  N   UNL     1       1.297   0.633  -0.486  1.00  0.00    -0.321 N 
ATOM     10  C   UNL     1       0.081  -0.109  -0.722  1.00  0.00     0.122 C 
ATOM     11  C   UNL     1       2.219   0.341  -1.587  1.00  0.00     0.098 C 
ATOM     12  C   UNL     1       0.572  -1.448  -1.236  1.00  0.00     0.039 C 
ATOM     13  C   UNL     1       3.676   0.625  -1.229  1.00  0.00     0.032 C 
BRANCH   9  14
ATOM     14  C   UNL     1       1.229   1.870   0.099  1.00  0.00     0.320 C 
ATOM     15  O   UNL     1       1.478   2.881  -0.560  1.00  0.00    -0.248 OA
BRANCH  14  16
ATOM     16  N   UNL     1       0.855   1.926   1.428  1.00  0.00    -0.322 N 
ATOM     17  C   UNL     1       1.101   0.987   2.546  1.00  0.00     0.086 C 
ATOM     18  C   UNL     1       0.255   1.617   3.666  1.00  0.00     0.027 C 
ATOM     19  C   UNL     1       0.510   3.099   3.484  1.00  0.00     0.024 C 
ATOM     20  C   UNL     1       0.586   3.258   1.972  1.00  0.00     0.122 C 
BRANCH  17  21
ATOM     21  C   UNL     1       0.774  -0.508   2.474  1.00  0.00     0.022 C 
ATOM     22  C   UNL     1       1.933  -1.360   1.978  1.00  0.00     0.006 C 
ENDBRANCH  17  21
ENDBRANCH  14  16
ENDBRANCH   9  14
ENDBRANCH   6   8
ENDBRANCH   5   6
ENDBRANCH   4   5
ENDBRANCH   3   4
ENDBRANCH   2   3
ENDBRANCH   1   2
BRANCH   1  23
ATOM     23  C   UNL     1      -0.046   1.194  -4.332  1.00  0.00     0.188 C 
BRANCH  23  24
ATOM     24  O   UNL     1      -1.293   0.895  -4.927  1.00  0.00    -0.376 OA
BRANCH  24  25
ATOM     25  C   UNL     1      -2.258   1.925  -4.926  1.00  0.00     0.202 C 
BRANCH  25  26
ATOM     26  C   UNL     1      -1.942   3.125  -5.829  1.00  0.00     0.261 C 
BRANCH  26  27
ATOM     27  O   UNL     1      -0.575   3.579  -5.823  1.00  0.00    -0.460 OA
BRANCH  27  28
ATOM     28  C   UNL     1      -0.202   4.425  -4.832  1.00  0.00     0.338 C 
ATOM     29  O   UNL     1      -0.899   4.844  -3.935  1.00  0.00    -0.246 OA
BRANCH  28  30
ATOM     30  C   UNL     1       1.266   4.645  -4.942  1.00  0.00     0.060 A 
ATOM     31  C   UNL     1       2.101   4.268  -3.882  1.00  0.00     0.016 A 
ATOM     32  C   UNL     1       1.814   5.227  -6.087  1.00  0.00     0.016 A 
ATOM     33  C   UNL     1       3.482   4.501  -3.952  1.00  0.00     0.010 A 
ATOM     34  C   UNL     1       3.191   5.477  -6.148  1.00  0.00     0.010 A 
ATOM     35  C   UNL     1       4.033   5.143  -5.070  1.00  0.00    -0.014 A 
BRANCH  35  36
ATOM     36  C   UNL     1       5.438   5.638  -5.057  1.00  0.00     0.031 A 
ATOM     37  C   UNL     1       5.684   7.094  -4.763  1.00  0.00     0.074 A 
ATOM     38  C   UNL     1       6.483   4.834  -5.327  1.00  0.00     0.049 A 
ATOM     39  N   UNL     1       6.795   7.786  -4.823  1.00  0.00    -0.248 NA
ATOM     40  C   UNL     1       4.509   7.877  -4.352  1.00  0.00     0.031 C 
ATOM     41  C   UNL     1       6.403   3.401  -5.586  1.00  0.00     0.029 A 
ATOM     42  N   UNL     1       7.823   5.126  -5.452  1.00  0.00    -0.354 N 
ATOM     43  C   UNL     1       6.447   9.087  -4.481  1.00  0.00     0.074 A 
ATOM     44  C   UNL     1       5.021   9.092  -4.235  1.00  0.00     0.031 C 
ATOM     45  C   UNL     1       7.636   2.939  -5.864  1.00  0.00     0.029 A 
ATOM     46  C   UNL     1       8.585   4.053  -5.845  1.00  0.00     0.049 A 
ATOM     47  H   UNL     1       8.199   6.019  -5.276  1.00  0.00     0.167 HD
ATOM     48  C   UNL     1       7.243  10.180  -4.380  1.00  0.00     0.037 A 
ATOM     49  C   UNL     1       9.889   3.984  -6.187  1.00  0.00     0.037 A 
ATOM     50  C   UNL     1       8.663  10.177  -4.620  1.00  0.00     0.049 A 
ATOM     51  C   UNL     1      10.745   5.227  -6.137  1.00  0.00     0.074 A 
ATOM     52  C   UNL     1       9.557  11.228  -4.510  1.00  0.00     0.029 A 
ATOM     53  N   UNL     1       9.394   9.073  -5.034  1.00  0.00    -0.354 N 
ATOM     54  N   UNL     1      10.418   6.448  -5.789  1.00  0.00    -0.248 NA
ATOM     55  C   UNL     1      12.156   5.081  -6.529  1.00  0.00     0.031 C 
ATOM     56  C   UNL     1      10.815  10.779  -4.925  1.00  0.00     0.029 A 
ATOM     57  C   UNL     1      10.722   9.428  -5.220  1.00  0.00     0.049 A 
ATOM     58  H   UNL     1       9.025   8.172  -5.174  1.00  0.00     0.167 HD
ATOM     59  C   UNL     1      11.581   7.204  -5.890  1.00  0.00     0.074 A 
ATOM     60  C   UNL     1      12.627   6.303  -6.321  1.00  0.00     0.031 C 
ATOM     61  C   UNL     1      11.763   8.526  -5.644  1.00  0.00     0.037 A 
BRANCH  48  62
ATOM     62  C   UNL     1       6.585  11.486  -4.038  1.00  0.00     0.064 A 
ATOM     63  C   UNL     1       6.036  11.736  -2.771  1.00  0.00     0.173 A 
ATOM     64  C   UNL     1       6.524  12.515  -4.992  1.00  0.00     0.173 A 
ATOM     65  F   UNL     1       6.059  10.785  -1.825  1.00  0.00    -0.203 F 
ATOM     66  C   UNL     1       5.418  12.952  -2.485  1.00  0.00     0.198 A 
ATOM     67  C   UNL     1       5.939  13.741  -4.690  1.00  0.00     0.198 A 
ATOM     68  F   UNL     1       7.041  12.335  -6.216  1.00  0.00    -0.203 F 
ATOM     69  F   UNL     1       4.849  13.146  -1.287  1.00  0.00    -0.200 F 
ATOM     70  C   UNL     1       5.376  13.955  -3.441  1.00  0.00     0.200 A 
ATOM     71  F   UNL     1       5.915  14.715  -5.610  1.00  0.00    -0.200 F 
ATOM     72  F   UNL     1       4.787  15.125  -3.162  1.00  0.00    -0.200 F 
ENDBRANCH  48  62
BRANCH  49  73
ATOM     73  C   UNL     1      10.469   2.690  -6.642  1.00  0.00     0.064 A 
ATOM     74  C   UNL     1      11.438   2.019  -5.883  1.00  0.00     0.173 A 
ATOM     75  C   UNL     1      10.082   2.110  -7.860  1.00  0.00     0.173 A 
ATOM     76  F   UNL     1      11.870   2.549  -4.729  1.00  0.00    -0.203 F 
ATOM     77  C   UNL     1      12.008   0.828  -6.330  1.00  0.00     0.198 A 
ATOM     78  C   UNL     1      10.627   0.902  -8.290  1.00  0.00     0.198 A 
ATOM     79  F   UNL     1       9.168   2.716  -8.632  1.00  0.00    -0.203 F 
ATOM     80  F   UNL     1      12.971   0.236  -5.611  1.00  0.00    -0.200 F 
ATOM     81  C   UNL     1      11.596   0.266  -7.529  1.00  0.00     0.200 A 
ATOM     82  F   UNL     1      10.221   0.359  -9.446  1.00  0.00    -0.200 F 
ATOM     83  F   UNL     1      12.140  -0.881  -7.957  1.00  0.00    -0.200 F 
ENDBRANCH  49  73
BRANCH  61  84
ATOM     84  C   UNL     1      13.154   9.081  -5.788  1.00  0.00     0.064 A 
ATOM     85  C   UNL     1      13.771   9.227  -7.040  1.00  0.00     0.173 A 
ATOM     86  C   UNL     1      13.859   9.527  -4.658  1.00  0.00     0.173 A 
ATOM     87  F   UNL     1      13.149   8.808  -8.152  1.00  0.00    -0.203 F 
ATOM     88  C   UNL     1      15.048   9.772  -7.152  1.00  0.00     0.198 A 
ATOM     89  C   UNL     1      15.121  10.103  -4.777  1.00  0.00     0.198 A 
ATOM     90  F   UNL     1      13.315   9.421  -3.436  1.00  0.00    -0.203 F 
ATOM     91  F   UNL     1      15.636   9.857  -8.353  1.00  0.00    -0.200 F 
ATOM     92  C   UNL     1      15.718  10.218  -6.022  1.00  0.00     0.200 A 
ATOM     93  F   UNL     1      15.758  10.551  -3.685  1.00  0.00    -0.200 F 
ATOM     94  F   UNL     1      16.942  10.754  -6.133  1.00  0.00    -0.200 F 
ENDBRANCH  61  84
ENDBRANCH  35  36
ENDBRANCH  28  30
ENDBRANCH  27  28
ENDBRANCH  26  27
ENDBRANCH  25  26
ENDBRANCH  24  25
ENDBRANCH  23  24
ENDBRANCH   1  23
TORSDOF 20
