REMARK SMILES O=C(OCCOCCOCCOC(=O)c1cc([C@@H]2C=NN=C2c2ccc(F)cc2)c2c(ccc3ccccc32)n1)c1ccc(-c2c3nc(c(-c4c(F)c(F)c(F)c(F)c4F)c4ccc([nH]4)c(-c4c(F)c(F)c(F)c(F)c4F)c4nc(c(-c5c(F)c(F)c(F)c(F)c5F)c5ccc2[nH]5)C=C4)C=C3)cc1
REMARK SMILES IDX 7 1 6 2 5 3 4 4 3 5 2 6 1 7 41 8 42 9 103 10 43 11 102 12
REMARK SMILES IDX 44 13 45 14 46 15 96 16 47 17 101 18 95 19 97 20 48 21
REMARK SMILES IDX 100 22 94 23 93 24 49 26 81 27 61 28 80 29 62 30 65 31 79 32
REMARK SMILES IDX 98 33 63 34 64 35 78 37 99 38 66 39 50 40 51 41 59 42 52 43
REMARK SMILES IDX 53 44 57 45 60 46 54 47 55 48 58 49 56 50 82 51 83 52 91 53
REMARK SMILES IDX 84 54 85 55 89 56 92 57 86 58 87 59 90 60 88 61 67 62 68 63
REMARK SMILES IDX 76 64 69 65 70 66 74 67 77 68 71 69 72 70 75 71 73 72 8 73
REMARK SMILES IDX 9 74 10 75 11 76 12 77 13 78 14 79 15 80 16 81 40 82 17 83
REMARK SMILES IDX 31 84 30 85 32 86 39 87 33 88 34 89 38 90 35 91 37 92 36 93
REMARK SMILES IDX 18 94 19 95 22 96 20 97 21 98 23 99 24 100 29 101 25 102
REMARK SMILES IDX 28 103 26 104 27 105
REMARK H PARENT 97 25 65 36
REMARK Flexibility Score: inf
ROOT
ATOM      1  C   UNL     1       3.352   1.684  -0.103  1.00  0.00     0.188 C 
ENDROOT
BRANCH   1   2
ATOM      2  O   UNL     1       4.659   1.520  -0.626  1.00  0.00    -0.376 OA
BRANCH   2   3
ATOM      3  C   UNL     1       5.205   0.217  -0.567  1.00  0.00     0.202 C 
BRANCH   3   4
ATOM      4  C   UNL     1       4.593  -0.785  -1.550  1.00  0.00     0.261 C 
BRANCH   4   5
ATOM      5  O   UNL     1       3.173  -0.667  -1.739  1.00  0.00    -0.460 OA
BRANCH   5   6
ATOM      6  C   UNL     1       2.198  -1.392  -1.156  1.00  0.00     0.338 C 
ATOM      7  O   UNL     1       1.183  -1.697  -1.773  1.00  0.00    -0.246 OA
BRANCH   6   8
ATOM      8  C   UNL     1       2.203  -1.571   0.315  1.00  0.00     0.060 A 
ATOM      9  C   UNL     1       3.302  -2.034   1.039  1.00  0.00     0.016 A 
ATOM     10  C   UNL     1       0.979  -1.343   0.972  1.00  0.00     0.016 A 
ATOM     11  C   UNL     1       3.158  -2.369   2.376  1.00  0.00     0.010 A 
ATOM     12  C   UNL     1       0.826  -1.688   2.307  1.00  0.00     0.010 A 
ATOM     13  C   UNL     1       1.897  -2.293   2.967  1.00  0.00    -0.014 A 
BRANCH  13  14
ATOM     14  C   UNL     1       1.688  -3.136   4.139  1.00  0.00     0.031 A 
ATOM     15  C   UNL     1       2.255  -2.716   5.448  1.00  0.00     0.074 A 
ATOM     16  C   UNL     1       0.972  -4.272   3.994  1.00  0.00     0.049 A 
ATOM     17  N   UNL     1       2.998  -3.398   6.265  1.00  0.00    -0.248 NA
ATOM     18  C   UNL     1       1.964  -1.349   5.901  1.00  0.00     0.031 C 
ATOM     19  C   UNL     1       0.174  -4.689   2.833  1.00  0.00     0.029 A 
ATOM     20  N   UNL     1       0.719  -5.248   4.907  1.00  0.00    -0.354 N 
ATOM     21  C   UNL     1       3.147  -2.607   7.402  1.00  0.00     0.074 A 
ATOM     22  C   UNL     1       2.552  -1.328   7.097  1.00  0.00     0.031 C 
ATOM     23  C   UNL     1      -0.653  -5.689   3.198  1.00  0.00     0.029 A 
ATOM     24  C   UNL     1      -0.348  -6.061   4.566  1.00  0.00     0.049 A 
ATOM     25  H   UNL     1       1.244  -5.365   5.731  1.00  0.00     0.167 HD
ATOM     26  C   UNL     1       3.601  -3.088   8.593  1.00  0.00     0.037 A 
ATOM     27  C   UNL     1      -1.014  -6.898   5.393  1.00  0.00     0.037 A 
ATOM     28  C   UNL     1       4.356  -4.297   8.461  1.00  0.00     0.049 A 
ATOM     29  C   UNL     1      -0.124  -7.199   6.540  1.00  0.00     0.074 A 
ATOM     30  C   UNL     1       5.553  -4.632   7.858  1.00  0.00     0.029 A 
ATOM     31  N   UNL     1       3.766  -5.492   8.783  1.00  0.00    -0.354 N 
ATOM     32  N   UNL     1       0.985  -7.882   6.452  1.00  0.00    -0.248 NA
ATOM     33  C   UNL     1      -0.267  -6.393   7.742  1.00  0.00     0.031 C 
ATOM     34  C   UNL     1       5.389  -5.978   7.420  1.00  0.00     0.029 A 
ATOM     35  C   UNL     1       4.104  -6.375   7.789  1.00  0.00     0.049 A 
ATOM     36  H   UNL     1       3.209  -5.679   9.573  1.00  0.00     0.167 HD
ATOM     37  C   UNL     1       1.836  -7.303   7.382  1.00  0.00     0.074 A 
ATOM     38  C   UNL     1       0.979  -6.468   8.215  1.00  0.00     0.031 C 
ATOM     39  C   UNL     1       3.191  -7.339   7.222  1.00  0.00     0.037 A 
BRANCH  26  40
ATOM     40  C   UNL     1       3.132  -2.563   9.920  1.00  0.00     0.064 A 
ATOM     41  C   UNL     1       1.827  -2.057  10.104  1.00  0.00     0.173 A 
ATOM     42  C   UNL     1       3.876  -2.787  11.092  1.00  0.00     0.173 A 
ATOM     43  F   UNL     1       0.977  -1.934   9.075  1.00  0.00    -0.203 F 
ATOM     44  C   UNL     1       1.318  -1.752  11.364  1.00  0.00     0.198 A 
ATOM     45  C   UNL     1       3.345  -2.527  12.359  1.00  0.00     0.198 A 
ATOM     46  F   UNL     1       5.105  -3.322  11.028  1.00  0.00    -0.203 F 
ATOM     47  F   UNL     1       0.071  -1.274  11.474  1.00  0.00    -0.200 F 
ATOM     48  C   UNL     1       2.070  -2.004  12.493  1.00  0.00     0.200 A 
ATOM     49  F   UNL     1       4.053  -2.831  13.455  1.00  0.00    -0.200 F 
ATOM     50  F   UNL     1       1.547  -1.786  13.707  1.00  0.00    -0.200 F 
ENDBRANCH  26  40
BRANCH  27  51
ATOM     51  C   UNL     1      -2.482  -7.096   5.416  1.00  0.00     0.064 A 
ATOM     52  C   UNL     1      -3.370  -6.082   4.996  1.00  0.00     0.173 A 
ATOM     53  C   UNL     1      -3.055  -8.191   6.076  1.00  0.00     0.173 A 
ATOM     54  F   UNL     1      -2.916  -4.944   4.452  1.00  0.00    -0.203 F 
ATOM     55  C   UNL     1      -4.745  -6.166   5.208  1.00  0.00     0.198 A 
ATOM     56  C   UNL     1      -4.433  -8.266   6.305  1.00  0.00     0.198 A 
ATOM     57  F   UNL     1      -2.275  -9.169   6.559  1.00  0.00    -0.203 F 
ATOM     58  F   UNL     1      -5.540  -5.160   4.817  1.00  0.00    -0.200 F 
ATOM     59  C   UNL     1      -5.276  -7.253   5.873  1.00  0.00     0.200 A 
ATOM     60  F   UNL     1      -4.941  -9.300   6.991  1.00  0.00    -0.200 F 
ATOM     61  F   UNL     1      -6.589  -7.302   6.136  1.00  0.00    -0.200 F 
ENDBRANCH  27  51
BRANCH  39  62
ATOM     62  C   UNL     1       3.741  -8.227   6.144  1.00  0.00     0.064 A 
ATOM     63  C   UNL     1       4.628  -9.254   6.489  1.00  0.00     0.173 A 
ATOM     64  C   UNL     1       3.552  -7.966   4.776  1.00  0.00     0.173 A 
ATOM     65  F   UNL     1       4.902  -9.499   7.780  1.00  0.00    -0.203 F 
ATOM     66  C   UNL     1       5.291  -9.991   5.511  1.00  0.00     0.198 A 
ATOM     67  C   UNL     1       4.190  -8.727   3.798  1.00  0.00     0.198 A 
ATOM     68  F   UNL     1       2.810  -6.928   4.373  1.00  0.00    -0.203 F 
ATOM     69  F   UNL     1       6.182 -10.927   5.869  1.00  0.00    -0.200 F 
ATOM     70  C   UNL     1       5.066  -9.733   4.167  1.00  0.00     0.200 A 
ATOM     71  F   UNL     1       3.996  -8.452   2.500  1.00  0.00    -0.200 F 
ATOM     72  F   UNL     1       5.723 -10.430   3.228  1.00  0.00    -0.200 F 
ENDBRANCH  39  62
ENDBRANCH  13  14
ENDBRANCH   6   8
ENDBRANCH   5   6
ENDBRANCH   4   5
ENDBRANCH   3   4
ENDBRANCH   2   3
ENDBRANCH   1   2
BRANCH   1  73
ATOM     73  C   UNL     1       2.301   2.182  -1.120  1.00  0.00     0.188 C 
BRANCH  73  74
ATOM     74  O   UNL     1       2.672   2.820  -2.338  1.00  0.00    -0.376 OA
BRANCH  74  75
ATOM     75  C   UNL     1       3.950   3.409  -2.495  1.00  0.00     0.202 C 
BRANCH  75  76
ATOM     76  C   UNL     1       4.237   4.669  -1.673  1.00  0.00     0.261 C 
BRANCH  76  77
ATOM     77  O   UNL     1       4.029   4.527  -0.260  1.00  0.00    -0.459 OA
BRANCH  77  78
ATOM     78  C   UNL     1       2.839   4.996   0.195  1.00  0.00     0.357 C 
ATOM     79  O   UNL     1       1.978   5.577  -0.438  1.00  0.00    -0.244 OA
BRANCH  78  80
ATOM     80  C   UNL     1       2.730   4.738   1.652  1.00  0.00     0.149 A 
ATOM     81  C   UNL     1       3.391   5.591   2.491  1.00  0.00     0.041 A 
ATOM     82  N   UNL     1       1.772   3.893   2.070  1.00  0.00    -0.241 NA
ATOM     83  C   UNL     1       2.941   5.723   3.827  1.00  0.00    -0.021 A 
ATOM     84  C   UNL     1       1.410   3.918   3.358  1.00  0.00     0.072 A 
ATOM     85  C   UNL     1       1.911   4.823   4.346  1.00  0.00     0.012 A 
ATOM     86  C   UNL     1       0.394   3.032   3.644  1.00  0.00     0.029 A 
ATOM     87  C   UNL     1       1.242   4.765   5.668  1.00  0.00    -0.009 A 
ATOM     88  C   UNL     1      -0.236   3.000   4.878  1.00  0.00     0.011 A 
ATOM     89  C   UNL     1       0.158   3.866   5.884  1.00  0.00    -0.018 A 
ATOM     90  C   UNL     1       1.552   5.551   6.802  1.00  0.00     0.009 A 
ATOM     91  C   UNL     1      -0.561   3.828   7.095  1.00  0.00     0.009 A 
ATOM     92  C   UNL     1       0.833   5.524   8.006  1.00  0.00     0.001 A 
ATOM     93  C   UNL     1      -0.237   4.667   8.150  1.00  0.00     0.001 A 
BRANCH  83  94
ATOM     94  C   UNL     1       3.436   7.031   4.410  1.00  0.00     0.115 C 
ATOM     95  C   UNL     1       4.249   7.033   5.644  1.00  0.00     0.123 C 
ATOM     96  C   UNL     1       2.453   8.101   4.771  1.00  0.00     0.083 C 
ATOM     97  N   UNL     1       3.914   7.985   6.455  1.00  0.00    -0.162 NA
ATOM     98  N   UNL     1       2.771   8.667   5.902  1.00  0.00    -0.154 NA
BRANCH  96  99
ATOM     99  C   UNL     1       1.375   8.591   3.872  1.00  0.00    -0.001 A 
ATOM    100  C   UNL     1       1.142   9.971   3.819  1.00  0.00     0.013 A 
ATOM    101  C   UNL     1       0.602   7.747   3.063  1.00  0.00     0.013 A 
ATOM    102  C   UNL     1       0.173  10.491   2.953  1.00  0.00     0.040 A 
ATOM    103  C   UNL     1      -0.364   8.266   2.197  1.00  0.00     0.040 A 
ATOM    104  C   UNL     1      -0.568   9.634   2.148  1.00  0.00     0.123 A 
ATOM    105  F   UNL     1      -1.494  10.133   1.320  1.00  0.00    -0.207 F 
ENDBRANCH  96  99
ENDBRANCH  83  94
ENDBRANCH  78  80
ENDBRANCH  77  78
ENDBRANCH  76  77
ENDBRANCH  75  76
ENDBRANCH  74  75
ENDBRANCH  73  74
ENDBRANCH   1  73
TORSDOF 19
