REMARK SMILES C[C@H](NC(=O)OCc1ccccc1)C(=O)NCC(=O)N1CCC[C@H]1C(=O)OCCOCCOCCOC(=O)c1ccc(-c2c3nc(c(-c4c(F)c(F)c(F)c(F)c4F)c4ccc([nH]4)c(-c4c(F)c(F)c(F)c(F)c4F)c4nc(c(-c5c(F)c(F)c(F)c(F)c5F)c5ccc2[nH]5)C=C4)C=C3)cc1
REMARK SMILES IDX 28 1 27 2 25 3 26 4 24 5 20 6 21 7 22 8 23 9 18 10 19 11
REMARK SMILES IDX 17 12 16 13 14 14 15 15 2 17 1 18 3 19 4 20 5 22 6 23 7 24
REMARK SMILES IDX 8 25 9 26 13 27 10 28 12 29 11 30 29 31 30 32 31 33 32 34
REMARK SMILES IDX 33 35 34 36 35 37 36 38 37 39 38 40 39 41 40 42 101 43 41 44
REMARK SMILES IDX 100 45 42 46 43 47 44 48 94 49 45 50 99 51 93 52 95 53 46 54
REMARK SMILES IDX 98 55 92 56 91 57 47 59 79 60 59 61 78 62 60 63 63 64 77 65
REMARK SMILES IDX 96 66 61 67 62 68 76 70 97 71 64 72 48 73 49 74 57 75 50 76
REMARK SMILES IDX 51 77 55 78 58 79 52 80 53 81 56 82 54 83 80 84 81 85 89 86
REMARK SMILES IDX 82 87 83 88 87 89 90 90 84 91 85 92 88 93 86 94 65 95 66 96
REMARK SMILES IDX 74 97 67 98 68 99 72 100 75 101 69 102 70 103 73 104 71 105
REMARK H PARENT 16 16 3 21 95 58 63 69
REMARK Flexibility Score: inf
ROOT
ATOM      1  C   UNL     1      -3.333   5.679  -2.426  1.00  0.00     0.261 C 
ENDROOT
BRANCH   1   2
ATOM      2  O   UNL     1      -2.200   4.864  -2.130  1.00  0.00    -0.462 OA
BRANCH   2   3
ATOM      3  C   UNL     1      -2.436   3.530  -1.974  1.00  0.00     0.328 C 
ATOM      4  O   UNL     1      -3.530   2.990  -2.098  1.00  0.00    -0.250 OA
BRANCH   3   5
ATOM      5  C   UNL     1      -1.117   2.771  -1.733  1.00  0.00     0.195 C 
ATOM      6  N   UNL     1      -1.335   1.803  -0.666  1.00  0.00    -0.327 N 
ATOM      7  C   UNL     1      -1.639   0.509  -1.262  1.00  0.00     0.120 C 
ATOM      8  C   UNL     1      -0.746   0.478  -2.488  1.00  0.00     0.024 C 
ATOM      9  C   UNL     1      -0.711   1.927  -2.954  1.00  0.00     0.039 C 
BRANCH   6  10
ATOM     10  C   UNL     1      -1.409   2.295   0.616  1.00  0.00     0.242 C 
ATOM     11  O   UNL     1      -1.371   3.518   0.808  1.00  0.00    -0.273 OA
BRANCH  10  12
ATOM     12  C   UNL     1      -1.326   1.387   1.841  1.00  0.00     0.216 C 
BRANCH  12  13
ATOM     13  N   UNL     1      -1.667  -0.009   1.711  1.00  0.00    -0.345 N 
ATOM     14  C   UNL     1      -0.849  -1.098   1.607  1.00  0.00     0.242 C 
ATOM     15  O   UNL     1      -1.386  -2.206   1.540  1.00  0.00    -0.273 OA
ATOM     16  H   UNL     1      -2.631  -0.206   1.694  1.00  0.00     0.164 HD
BRANCH  14  17
ATOM     17  C   UNL     1       0.687  -0.955   1.639  1.00  0.00     0.171 C 
ATOM     18  C   UNL     1       1.153  -0.618   3.054  1.00  0.00     0.042 C 
BRANCH  17  19
ATOM     19  N   UNL     1       1.153   0.002   0.641  1.00  0.00    -0.310 N 
ATOM     20  C   UNL     1       2.438   0.307   0.317  1.00  0.00     0.408 C 
ATOM     21  H   UNL     1       0.454   0.485   0.143  1.00  0.00     0.167 HD
ATOM     22  O   UNL     1       2.686   1.132  -0.546  1.00  0.00    -0.225 OA
BRANCH  20  23
ATOM     23  O   UNL     1       3.339  -0.360   1.073  1.00  0.00    -0.445 OA
BRANCH  23  24
ATOM     24  C   UNL     1       4.695   0.079   0.924  1.00  0.00     0.270 C 
BRANCH  24  25
ATOM     25  C   UNL     1       5.404  -0.558  -0.245  1.00  0.00    -0.011 A 
ATOM     26  C   UNL     1       5.086  -1.850  -0.686  1.00  0.00     0.007 A 
ATOM     27  C   UNL     1       6.448   0.135  -0.875  1.00  0.00     0.007 A 
ATOM     28  C   UNL     1       5.780  -2.423  -1.754  1.00  0.00     0.000 A 
ATOM     29  C   UNL     1       7.144  -0.441  -1.937  1.00  0.00     0.000 A 
ATOM     30  C   UNL     1       6.807  -1.719  -2.378  1.00  0.00     0.000 A 
ENDBRANCH  24  25
ENDBRANCH  23  24
ENDBRANCH  20  23
ENDBRANCH  17  19
ENDBRANCH  14  17
ENDBRANCH  12  13
ENDBRANCH  10  12
ENDBRANCH   6  10
ENDBRANCH   3   5
ENDBRANCH   2   3
ENDBRANCH   1   2
BRANCH   1  31
ATOM     31  C   UNL     1      -3.428   6.257  -3.852  1.00  0.00     0.202 C 
BRANCH  31  32
ATOM     32  O   UNL     1      -2.741   5.765  -4.992  1.00  0.00    -0.376 OA
BRANCH  32  33
ATOM     33  C   UNL     1      -1.783   4.743  -4.864  1.00  0.00     0.188 C 
BRANCH  33  34
ATOM     34  C   UNL     1      -0.395   5.124  -4.303  1.00  0.00     0.188 C 
BRANCH  34  35
ATOM     35  O   UNL     1      -0.140   6.443  -3.879  1.00  0.00    -0.376 OA
BRANCH  35  36
ATOM     36  C   UNL     1      -0.330   7.512  -4.786  1.00  0.00     0.202 C 
BRANCH  36  37
ATOM     37  C   UNL     1      -0.037   7.396  -6.296  1.00  0.00     0.261 C 
BRANCH  37  38
ATOM     38  O   UNL     1      -0.296   6.133  -6.931  1.00  0.00    -0.460 OA
BRANCH  38  39
ATOM     39  C   UNL     1       0.797   5.410  -7.288  1.00  0.00     0.338 C 
ATOM     40  O   UNL     1       1.966   5.716  -7.137  1.00  0.00    -0.246 OA
BRANCH  39  41
ATOM     41  C   UNL     1       0.375   4.064  -7.740  1.00  0.00     0.060 A 
ATOM     42  C   UNL     1       0.739   2.944  -6.976  1.00  0.00     0.016 A 
ATOM     43  C   UNL     1      -0.334   3.900  -8.929  1.00  0.00     0.016 A 
ATOM     44  C   UNL     1       0.405   1.657  -7.407  1.00  0.00     0.010 A 
ATOM     45  C   UNL     1      -0.643   2.608  -9.373  1.00  0.00     0.010 A 
ATOM     46  C   UNL     1      -0.257   1.477  -8.627  1.00  0.00    -0.014 A 
BRANCH  46  47
ATOM     47  C   UNL     1      -0.417   0.115  -9.203  1.00  0.00     0.031 A 
ATOM     48  C   UNL     1       0.538  -0.337 -10.275  1.00  0.00     0.074 A 
ATOM     49  C   UNL     1      -1.391  -0.713  -8.785  1.00  0.00     0.049 A 
ATOM     50  N   UNL     1       0.533  -1.435 -10.989  1.00  0.00    -0.248 NA
ATOM     51  C   UNL     1       1.650   0.576 -10.585  1.00  0.00     0.031 C 
ATOM     52  C   UNL     1      -2.352  -0.422  -7.724  1.00  0.00     0.029 A 
ATOM     53  N   UNL     1      -1.744  -1.968  -9.223  1.00  0.00    -0.354 N 
ATOM     54  C   UNL     1       1.632  -1.342 -11.834  1.00  0.00     0.074 A 
ATOM     55  C   UNL     1       2.264  -0.068 -11.566  1.00  0.00     0.031 C 
ATOM     56  C   UNL     1      -3.199  -1.460  -7.607  1.00  0.00     0.029 A 
ATOM     57  C   UNL     1      -2.867  -2.470  -8.611  1.00  0.00     0.049 A 
ATOM     58  H   UNL     1      -1.238  -2.461  -9.909  1.00  0.00     0.167 HD
ATOM     59  C   UNL     1       2.077  -2.240 -12.745  1.00  0.00     0.037 A 
ATOM     60  C   UNL     1      -3.567  -3.596  -8.860  1.00  0.00     0.037 A 
ATOM     61  C   UNL     1       1.446  -3.506 -13.017  1.00  0.00     0.049 A 
ATOM     62  C   UNL     1      -3.104  -4.534  -9.949  1.00  0.00     0.074 A 
ATOM     63  C   UNL     1       1.830  -4.486 -13.916  1.00  0.00     0.029 A 
ATOM     64  N   UNL     1       0.292  -3.963 -12.398  1.00  0.00    -0.354 N 
ATOM     65  N   UNL     1      -2.053  -4.451 -10.729  1.00  0.00    -0.248 NA
ATOM     66  C   UNL     1      -3.929  -5.728 -10.192  1.00  0.00     0.031 C 
ATOM     67  C   UNL     1       0.876  -5.507 -13.887  1.00  0.00     0.029 A 
ATOM     68  C   UNL     1      -0.065  -5.198 -12.919  1.00  0.00     0.049 A 
ATOM     69  H   UNL     1      -0.200  -3.483 -11.694  1.00  0.00     0.167 HD
ATOM     70  C   UNL     1      -2.072  -5.591 -11.524  1.00  0.00     0.074 A 
ATOM     71  C   UNL     1      -3.228  -6.362 -11.121  1.00  0.00     0.031 C 
ATOM     72  C   UNL     1      -1.210  -5.966 -12.501  1.00  0.00     0.037 A 
BRANCH  59  73
ATOM     73  C   UNL     1       3.299  -1.881 -13.541  1.00  0.00     0.064 A 
ATOM     74  C   UNL     1       4.574  -1.840 -12.958  1.00  0.00     0.173 A 
ATOM     75  C   UNL     1       3.200  -1.635 -14.920  1.00  0.00     0.173 A 
ATOM     76  F   UNL     1       4.722  -2.056 -11.642  1.00  0.00    -0.203 F 
ATOM     77  C   UNL     1       5.702  -1.547 -13.721  1.00  0.00     0.198 A 
ATOM     78  C   UNL     1       4.333  -1.375 -15.685  1.00  0.00     0.198 A 
ATOM     79  F   UNL     1       2.006  -1.669 -15.530  1.00  0.00    -0.203 F 
ATOM     80  F   UNL     1       6.904  -1.473 -13.134  1.00  0.00    -0.200 F 
ATOM     81  C   UNL     1       5.582  -1.325 -15.085  1.00  0.00     0.200 A 
ATOM     82  F   UNL     1       4.217  -1.179 -17.006  1.00  0.00    -0.200 F 
ATOM     83  F   UNL     1       6.670  -1.060 -15.820  1.00  0.00    -0.200 F 
ENDBRANCH  59  73
BRANCH  60  84
ATOM     84  C   UNL     1      -4.808  -3.897  -8.092  1.00  0.00     0.064 A 
ATOM     85  C   UNL     1      -4.890  -5.020  -7.257  1.00  0.00     0.173 A 
ATOM     86  C   UNL     1      -5.957  -3.103  -8.226  1.00  0.00     0.173 A 
ATOM     87  F   UNL     1      -3.830  -5.830  -7.118  1.00  0.00    -0.203 F 
ATOM     88  C   UNL     1      -6.080  -5.356  -6.613  1.00  0.00     0.198 A 
ATOM     89  C   UNL     1      -7.135  -3.418  -7.552  1.00  0.00     0.198 A 
ATOM     90  F   UNL     1      -5.938  -2.020  -9.017  1.00  0.00    -0.203 F 
ATOM     91  F   UNL     1      -6.149  -6.475  -5.879  1.00  0.00    -0.200 F 
ATOM     92  C   UNL     1      -7.200  -4.552  -6.758  1.00  0.00     0.200 A 
ATOM     93  F   UNL     1      -8.212  -2.631  -7.686  1.00  0.00    -0.200 F 
ATOM     94  F   UNL     1      -8.346  -4.878  -6.144  1.00  0.00    -0.200 F 
ENDBRANCH  60  84
BRANCH  72  95
ATOM     95  C   UNL     1      -1.449  -7.290 -13.174  1.00  0.00     0.064 A 
ATOM     96  C   UNL     1      -2.540  -7.502 -14.031  1.00  0.00     0.173 A 
ATOM     97  C   UNL     1      -0.548  -8.352 -12.989  1.00  0.00     0.173 A 
ATOM     98  F   UNL     1      -3.438  -6.526 -14.233  1.00  0.00    -0.203 F 
ATOM     99  C   UNL     1      -2.736  -8.733 -14.652  1.00  0.00     0.198 A 
ATOM    100  C   UNL     1      -0.728  -9.570 -13.641  1.00  0.00     0.198 A 
ATOM    101  F   UNL     1       0.518  -8.204 -12.189  1.00  0.00    -0.203 F 
ATOM    102  F   UNL     1      -3.816  -8.928 -15.422  1.00  0.00    -0.200 F 
ATOM    103  C   UNL     1      -1.827  -9.763 -14.463  1.00  0.00     0.200 A 
ATOM    104  F   UNL     1       0.164 -10.556 -13.472  1.00  0.00    -0.200 F 
ATOM    105  F   UNL     1      -2.013 -10.943 -15.070  1.00  0.00    -0.200 F 
ENDBRANCH  72  95
ENDBRANCH  46  47
ENDBRANCH  39  41
ENDBRANCH  38  39
ENDBRANCH  37  38
ENDBRANCH  36  37
ENDBRANCH  35  36
ENDBRANCH  34  35
ENDBRANCH  33  34
ENDBRANCH  32  33
ENDBRANCH  31  32
ENDBRANCH   1  31
TORSDOF 25
