REMARK SMILES C[C@@H]1CC[C@H](C)[N@H+]1Cc1cc2c(cc1Cl)C=C(C(=O)OCCOCCOCCOC(=O)c1ccc(-c3c4nc(c(-c5c(F)c(F)c(F)c(F)c5F)c5ccc([nH]5)c(-c5c(F)c(F)c(F)c(F)c5F)c5nc(c(-c6c(F)c(F)c(F)c(F)c6F)c6ccc3[nH]6)C=C5)C=C4)cc1)[C@@H](C(F)(F)F)O2
REMARK SMILES IDX 24 1 23 2 22 3 21 4 20 5 18 6 19 7 17 8 9 9 10 10 14 11
REMARK SMILES IDX 11 12 13 13 15 14 12 15 100 16 16 17 95 18 8 19 7 20 6 21
REMARK SMILES IDX 5 22 4 23 3 24 2 25 1 27 96 28 97 29 98 30 99 31 25 32 26 33
REMARK SMILES IDX 27 34 28 35 29 36 30 37 31 38 32 39 33 40 94 41 34 42 93 43
REMARK SMILES IDX 35 44 36 45 37 46 87 47 38 48 92 49 86 50 88 51 39 52 91 53
REMARK SMILES IDX 85 54 84 55 40 57 72 58 52 59 71 60 53 61 56 62 70 63 89 64
REMARK SMILES IDX 54 65 55 66 69 68 90 69 57 70 41 71 42 72 50 73 43 74 44 75
REMARK SMILES IDX 48 76 51 77 45 78 46 79 49 80 47 81 73 82 74 83 82 84 75 85
REMARK SMILES IDX 76 86 80 87 83 88 77 89 78 90 81 91 79 92 58 93 59 94 67 95
REMARK SMILES IDX 60 96 61 97 65 98 68 99 62 100 63 101 66 102 64 103
REMARK H PARENT 7 26 88 56 56 67
REMARK Flexibility Score: inf
ROOT
ATOM      1  C   UNL     1      -7.512  -3.030   4.818  1.00  0.00     0.188 C 
ENDROOT
BRANCH   1   2
ATOM      2  O   UNL     1      -8.823  -3.157   5.322  1.00  0.00    -0.376 OA
BRANCH   2   3
ATOM      3  C   UNL     1      -9.643  -2.026   5.573  1.00  0.00     0.202 C 
BRANCH   3   4
ATOM      4  C   UNL     1      -9.102  -0.637   5.934  1.00  0.00     0.261 C 
BRANCH   4   5
ATOM      5  O   UNL     1      -7.895  -0.251   5.269  1.00  0.00    -0.460 OA
BRANCH   5   6
ATOM      6  C   UNL     1      -6.850  -0.029   6.099  1.00  0.00     0.338 C 
ATOM      7  O   UNL     1      -6.864  -0.074   7.321  1.00  0.00    -0.246 OA
BRANCH   6   8
ATOM      8  C   UNL     1      -5.606   0.114   5.325  1.00  0.00     0.087 C 
ATOM      9  C   UNL     1      -0.734   0.201   4.072  1.00  0.00     0.029 A 
ATOM     10  C   UNL     1      -1.923   0.648   3.445  1.00  0.00     0.058 A 
ATOM     11  C   UNL     1      -0.865  -0.486   5.292  1.00  0.00     0.050 A 
ATOM     12  C   UNL     1      -3.182   0.415   4.014  1.00  0.00     0.128 A 
ATOM     13  C   UNL     1      -2.125  -0.813   5.798  1.00  0.00     0.033 A 
ATOM     14  Cl  UNL     1       0.462  -0.843   6.340  1.00  0.00    -0.084 Cl
ATOM     15  C   UNL     1      -3.279  -0.348   5.174  1.00  0.00     0.019 A 
ATOM     16  O   UNL     1      -4.272   0.967   3.395  1.00  0.00    -0.475 OA
ATOM     17  C   UNL     1      -4.565  -0.582   5.794  1.00  0.00     0.027 C 
ATOM     18  C   UNL     1      -5.529   1.036   4.140  1.00  0.00     0.316 C 
BRANCH   9  19
ATOM     19  C   UNL     1       0.609   0.553   3.449  1.00  0.00     0.301 C 
BRANCH  19  20
ATOM     20  N   UNL     1       1.248  -0.432   2.568  1.00  0.00    -0.327 N 
ATOM     21  C   UNL     1       0.983   0.041   0.162  1.00  0.00     0.075 C 
ATOM     22  C   UNL     1       0.525  -0.803   1.345  1.00  0.00     0.181 C 
ATOM     23  C   UNL     1       0.842  -2.284   1.126  1.00  0.00     0.071 C 
ATOM     24  C   UNL     1       1.083  -2.795   2.530  1.00  0.00     0.071 C 
ATOM     25  C   UNL     1       1.795  -1.632   3.204  1.00  0.00     0.181 C 
ATOM     26  H   UNL     1       2.040   0.142   2.278  1.00  0.00     0.348 HD
ATOM     27  C   UNL     1       3.310  -1.673   2.996  1.00  0.00     0.075 C 
ENDBRANCH  19  20
ENDBRANCH   9  19
BRANCH  18  28
ATOM     28  C   UNL     1      -5.834   2.486   4.544  1.00  0.00     0.430 C 
ATOM     29  F   UNL     1      -5.745   3.327   3.488  1.00  0.00    -0.167 F 
ATOM     30  F   UNL     1      -7.093   2.603   5.031  1.00  0.00    -0.167 F 
ATOM     31  F   UNL     1      -4.989   2.936   5.499  1.00  0.00    -0.167 F 
ENDBRANCH  18  28
ENDBRANCH   6   8
ENDBRANCH   5   6
ENDBRANCH   4   5
ENDBRANCH   3   4
ENDBRANCH   2   3
ENDBRANCH   1   2
BRANCH   1  32
ATOM     32  C   UNL     1      -7.261  -2.478   3.399  1.00  0.00     0.188 C 
BRANCH  32  33
ATOM     33  O   UNL     1      -8.334  -2.062   2.578  1.00  0.00    -0.376 OA
BRANCH  33  34
ATOM     34  C   UNL     1      -9.384  -2.974   2.289  1.00  0.00     0.202 C 
BRANCH  34  35
ATOM     35  C   UNL     1      -9.082  -4.393   1.795  1.00  0.00     0.261 C 
BRANCH  35  36
ATOM     36  O   UNL     1      -8.180  -5.127   2.637  1.00  0.00    -0.460 OA
BRANCH  36  37
ATOM     37  C   UNL     1      -7.003  -5.474   2.059  1.00  0.00     0.338 C 
ATOM     38  O   UNL     1      -6.646  -5.257   0.914  1.00  0.00    -0.246 OA
BRANCH  37  39
ATOM     39  C   UNL     1      -6.092  -5.994   3.096  1.00  0.00     0.060 A 
ATOM     40  C   UNL     1      -6.455  -7.078   3.895  1.00  0.00     0.016 A 
ATOM     41  C   UNL     1      -4.838  -5.385   3.247  1.00  0.00     0.016 A 
ATOM     42  C   UNL     1      -5.539  -7.578   4.823  1.00  0.00     0.010 A 
ATOM     43  C   UNL     1      -3.930  -5.876   4.185  1.00  0.00     0.010 A 
ATOM     44  C   UNL     1      -4.264  -6.996   4.959  1.00  0.00    -0.014 A 
BRANCH  44  45
ATOM     45  C   UNL     1      -3.227  -7.686   5.764  1.00  0.00     0.031 A 
ATOM     46  C   UNL     1      -2.879  -7.256   7.154  1.00  0.00     0.074 A 
ATOM     47  C   UNL     1      -2.599  -8.736   5.201  1.00  0.00     0.049 A 
ATOM     48  N   UNL     1      -2.089  -7.844   8.017  1.00  0.00    -0.248 NA
ATOM     49  C   UNL     1      -3.480  -6.006   7.641  1.00  0.00     0.031 C 
ATOM     50  C   UNL     1      -2.824  -9.209   3.834  1.00  0.00     0.029 A 
ATOM     51  N   UNL     1      -1.659  -9.599   5.703  1.00  0.00    -0.354 N 
ATOM     52  C   UNL     1      -2.121  -7.059   9.160  1.00  0.00     0.074 A 
ATOM     53  C   UNL     1      -2.968  -5.921   8.864  1.00  0.00     0.031 C 
ATOM     54  C   UNL     1      -2.067 -10.295   3.616  1.00  0.00     0.029 A 
ATOM     55  C   UNL     1      -1.295 -10.586   4.821  1.00  0.00     0.049 A 
ATOM     56  H   UNL     1      -1.281  -9.518   6.609  1.00  0.00     0.167 HD
ATOM     57  C   UNL     1      -1.514  -7.289  10.349  1.00  0.00     0.037 A 
ATOM     58  C   UNL     1      -0.448 -11.621   4.969  1.00  0.00     0.037 A 
ATOM     59  C   UNL     1      -0.668  -8.423  10.629  1.00  0.00     0.049 A 
ATOM     60  C   UNL     1       0.228 -11.834   6.295  1.00  0.00     0.074 A 
ATOM     61  C   UNL     1      -0.056  -8.764  11.824  1.00  0.00     0.029 A 
ATOM     62  N   UNL     1      -0.303  -9.390   9.705  1.00  0.00    -0.354 N 
ATOM     63  N   UNL     1       0.105 -11.146   7.402  1.00  0.00    -0.248 NA
ATOM     64  C   UNL     1       1.150 -12.975   6.396  1.00  0.00     0.031 C 
ATOM     65  C   UNL     1       0.719  -9.907  11.611  1.00  0.00     0.029 A 
ATOM     66  C   UNL     1       0.548 -10.310  10.297  1.00  0.00     0.049 A 
ATOM     67  H   UNL     1      -0.604  -9.420   8.768  1.00  0.00     0.167 HD
ATOM     68  C   UNL     1       0.908 -11.783   8.338  1.00  0.00     0.074 A 
ATOM     69  C   UNL     1       1.506 -12.921   7.673  1.00  0.00     0.031 C 
ATOM     70  C   UNL     1       1.128 -11.449   9.632  1.00  0.00     0.037 A 
BRANCH  57  71
ATOM     71  C   UNL     1      -1.756  -6.325  11.473  1.00  0.00     0.064 A 
ATOM     72  C   UNL     1      -2.976  -6.314  12.164  1.00  0.00     0.173 A 
ATOM     73  C   UNL     1      -0.716  -5.518  11.961  1.00  0.00     0.173 A 
ATOM     74  F   UNL     1      -3.999  -7.069  11.738  1.00  0.00    -0.203 F 
ATOM     75  C   UNL     1      -3.145  -5.535  13.306  1.00  0.00     0.198 A 
ATOM     76  C   UNL     1      -0.881  -4.758  13.116  1.00  0.00     0.198 A 
ATOM     77  F   UNL     1       0.475  -5.505  11.344  1.00  0.00    -0.203 F 
ATOM     78  F   UNL     1      -4.320  -5.540  13.950  1.00  0.00    -0.200 F 
ATOM     79  C   UNL     1      -2.094  -4.769  13.788  1.00  0.00     0.200 A 
ATOM     80  F   UNL     1       0.141  -4.034  13.592  1.00  0.00    -0.200 F 
ATOM     81  F   UNL     1      -2.248  -4.047  14.907  1.00  0.00    -0.200 F 
ENDBRANCH  57  71
BRANCH  58  82
ATOM     82  C   UNL     1      -0.236 -12.563   3.841  1.00  0.00     0.064 A 
ATOM     83  C   UNL     1      -0.720 -13.877   3.900  1.00  0.00     0.173 A 
ATOM     84  C   UNL     1       0.439 -12.165   2.678  1.00  0.00     0.173 A 
ATOM     85  F   UNL     1      -1.359 -14.306   4.998  1.00  0.00    -0.203 F 
ATOM     86  C   UNL     1      -0.523 -14.763   2.843  1.00  0.00     0.198 A 
ATOM     87  C   UNL     1       0.610 -13.043   1.611  1.00  0.00     0.198 A 
ATOM     88  F   UNL     1       0.913 -10.915   2.570  1.00  0.00    -0.203 F 
ATOM     89  F   UNL     1      -0.961 -16.025   2.940  1.00  0.00    -0.200 F 
ATOM     90  C   UNL     1       0.136 -14.344   1.697  1.00  0.00     0.200 A 
ATOM     91  F   UNL     1       1.233 -12.629   0.498  1.00  0.00    -0.200 F 
ATOM     92  F   UNL     1       0.319 -15.194   0.678  1.00  0.00    -0.200 F 
ENDBRANCH  58  82
BRANCH  70  93
ATOM     93  C   UNL     1       2.037 -12.330  10.437  1.00  0.00     0.064 A 
ATOM     94  C   UNL     1       3.426 -12.317  10.246  1.00  0.00     0.173 A 
ATOM     95  C   UNL     1       1.522 -13.127  11.471  1.00  0.00     0.173 A 
ATOM     96  F   UNL     1       3.965 -11.582   9.262  1.00  0.00    -0.203 F 
ATOM     97  C   UNL     1       4.266 -13.074  11.059  1.00  0.00     0.198 A 
ATOM     98  C   UNL     1       2.367 -13.862  12.298  1.00  0.00     0.198 A 
ATOM     99  F   UNL     1       0.200 -13.169  11.698  1.00  0.00    -0.203 F 
ATOM    100  F   UNL     1       5.589 -13.066  10.843  1.00  0.00    -0.200 F 
ATOM    101  C   UNL     1       3.737 -13.836  12.091  1.00  0.00     0.200 A 
ATOM    102  F   UNL     1       1.855 -14.585  13.304  1.00  0.00    -0.200 F 
ATOM    103  F   UNL     1       4.550 -14.546  12.886  1.00  0.00    -0.200 F 
ENDBRANCH  70  93
ENDBRANCH  44  45
ENDBRANCH  37  39
ENDBRANCH  36  37
ENDBRANCH  35  36
ENDBRANCH  34  35
ENDBRANCH  33  34
ENDBRANCH  32  33
ENDBRANCH   1  32
TORSDOF 20
