REMARK SMILES NS(=O)(=O)c1ccc(-n2nc(C(F)(F)F)cc2-c2ccc(CC(=O)OCCOCCOCCOC(=O)c3ccc(-c4c5nc(c(-c6c(F)c(F)c(F)c(F)c6F)c6ccc([nH]6)c(-c6c(F)c(F)c(F)c(F)c6F)c6nc(c(-c7c(F)c(F)c(F)c(F)c7F)c7ccc4[nH]7)C=C6)C=C5)cc3)cc2)cc1
REMARK SMILES IDX 28 1 27 2 26 3 25 4 23 5 24 6 22 7 21 8 18 9 19 10 101 11
REMARK SMILES IDX 20 12 100 13 17 14 9 15 10 16 11 17 16 18 8 19 5 20 6 21
REMARK SMILES IDX 103 22 7 23 102 24 2 25 3 26 4 27 1 28 12 31 13 32 14 33
REMARK SMILES IDX 15 34 29 35 30 36 31 37 32 38 33 39 34 40 35 41 36 42 37 43
REMARK SMILES IDX 38 44 99 45 39 46 98 47 40 48 41 49 42 50 92 51 43 52 97 53
REMARK SMILES IDX 91 54 93 55 44 56 96 57 90 58 89 59 45 61 77 62 57 63 76 64
REMARK SMILES IDX 58 65 61 66 75 67 94 68 59 69 60 70 74 72 95 73 62 74 46 75
REMARK SMILES IDX 47 76 55 77 48 78 49 79 53 80 56 81 50 82 51 83 54 84 52 85
REMARK SMILES IDX 78 86 79 87 87 88 80 89 81 90 85 91 88 92 82 93 83 94 86 95
REMARK SMILES IDX 84 96 63 97 64 98 72 99 65 100 66 101 70 102 73 103 67 104
REMARK SMILES IDX 68 105 71 106 69 107
REMARK H PARENT 1 29 1 30 93 60 61 71
REMARK Flexibility Score: inf
ROOT
ATOM      1  O   UNL     1       7.133  -0.321   0.764  1.00  0.00    -0.376 OA
ENDROOT
BRANCH   1   2
ATOM      2  C   UNL     1       6.491  -1.388   1.436  1.00  0.00     0.202 C 
BRANCH   2   3
ATOM      3  C   UNL     1       6.819  -1.639   2.911  1.00  0.00     0.261 C 
BRANCH   3   4
ATOM      4  O   UNL     1       6.622  -0.516   3.795  1.00  0.00    -0.463 OA
BRANCH   4   5
ATOM      5  C   UNL     1       7.723  -0.056   4.439  1.00  0.00     0.310 C 
ATOM      6  O   UNL     1       8.836  -0.566   4.323  1.00  0.00    -0.252 OA
BRANCH   5   7
ATOM      7  C   UNL     1       7.519   1.124   5.373  1.00  0.00     0.158 C 
BRANCH   7   8
ATOM      8  C   UNL     1       6.259   1.970   5.360  1.00  0.00    -0.037 A 
ATOM      9  C   UNL     1       3.960   3.644   5.447  1.00  0.00     0.000 A 
ATOM     10  C   UNL     1       5.084   4.013   4.699  1.00  0.00     0.010 A 
ATOM     11  C   UNL     1       4.001   2.443   6.162  1.00  0.00     0.010 A 
ATOM     12  C   UNL     1       6.227   3.200   4.677  1.00  0.00     0.005 A 
ATOM     13  C   UNL     1       5.127   1.603   6.099  1.00  0.00     0.005 A 
BRANCH   9  14
ATOM     14  C   UNL     1       2.826   4.566   5.562  1.00  0.00     0.075 A 
ATOM     15  N   UNL     1       1.875   4.844   4.582  1.00  0.00    -0.233 N 
ATOM     16  N   UNL     1       1.186   5.984   4.870  1.00  0.00    -0.163 NA
ATOM     17  C   UNL     1       1.506   6.284   6.140  1.00  0.00     0.167 A 
ATOM     18  C   UNL     1       2.559   5.452   6.591  1.00  0.00     0.064 A 
BRANCH  15  19
ATOM     19  C   UNL     1       1.446   4.075   3.465  1.00  0.00     0.065 A 
ATOM     20  C   UNL     1       0.325   2.616   1.359  1.00  0.00     0.082 A 
ATOM     21  C   UNL     1       0.871   1.946   2.460  1.00  0.00     0.024 A 
ATOM     22  C   UNL     1       0.359   4.012   1.293  1.00  0.00     0.024 A 
ATOM     23  C   UNL     1       1.454   2.676   3.504  1.00  0.00     0.030 A 
ATOM     24  C   UNL     1       0.889   4.740   2.359  1.00  0.00     0.030 A 
BRANCH  20  25
ATOM     25  S   UNL     1      -0.323   1.733  -0.030  1.00  0.00     0.238 S 
ATOM     26  O   UNL     1       0.223   2.307  -1.238  1.00  0.00    -0.207 OA
ATOM     27  O   UNL     1      -1.736   1.518   0.170  1.00  0.00    -0.207 OA
BRANCH  25  28
ATOM     28  N   UNL     1       0.383   0.205   0.053  1.00  0.00    -0.225 NA
ATOM     29  H   UNL     1       0.052  -0.365  -0.725  1.00  0.00     0.137 HD
ATOM     30  H   UNL     1       0.128  -0.240   0.934  1.00  0.00     0.137 HD
ENDBRANCH  25  28
ENDBRANCH  20  25
ENDBRANCH  15  19
BRANCH  17  31
ATOM     31  C   UNL     1       0.814   7.375   6.914  1.00  0.00     0.435 C 
ATOM     32  F   UNL     1       0.641   8.516   6.197  1.00  0.00    -0.164 F 
ATOM     33  F   UNL     1      -0.417   6.986   7.345  1.00  0.00    -0.164 F 
ATOM     34  F   UNL     1       1.513   7.724   8.030  1.00  0.00    -0.164 F 
ENDBRANCH  17  31
ENDBRANCH   9  14
ENDBRANCH   7   8
ENDBRANCH   5   7
ENDBRANCH   4   5
ENDBRANCH   3   4
ENDBRANCH   2   3
ENDBRANCH   1   2
BRANCH   1  35
ATOM     35  C   UNL     1       6.875   1.020   1.143  1.00  0.00     0.188 C 
BRANCH  35  36
ATOM     36  C   UNL     1       5.615   1.417   1.924  1.00  0.00     0.188 C 
BRANCH  36  37
ATOM     37  O   UNL     1       4.409   0.683   1.843  1.00  0.00    -0.376 OA
BRANCH  37  38
ATOM     38  C   UNL     1       3.800   0.470   0.584  1.00  0.00     0.202 C 
BRANCH  38  39
ATOM     39  C   UNL     1       3.350   1.706  -0.153  1.00  0.00     0.261 C 
BRANCH  39  40
ATOM     40  O   UNL     1       4.474   2.448  -0.575  1.00  0.00    -0.460 OA
BRANCH  40  41
ATOM     41  C   UNL     1       4.601   3.663  -0.005  1.00  0.00     0.338 C 
ATOM     42  O   UNL     1       4.005   4.120   0.953  1.00  0.00    -0.246 OA
BRANCH  41  43
ATOM     43  C   UNL     1       5.525   4.426  -0.838  1.00  0.00     0.060 A 
ATOM     44  C   UNL     1       5.698   5.761  -0.483  1.00  0.00     0.016 A 
ATOM     45  C   UNL     1       5.925   3.910  -2.083  1.00  0.00     0.016 A 
ATOM     46  C   UNL     1       6.051   6.639  -1.474  1.00  0.00     0.010 A 
ATOM     47  C   UNL     1       6.262   4.790  -3.075  1.00  0.00     0.010 A 
ATOM     48  C   UNL     1       6.226   6.145  -2.772  1.00  0.00    -0.014 A 
BRANCH  48  49
ATOM     49  C   UNL     1       6.338   7.117  -3.826  1.00  0.00     0.031 A 
ATOM     50  C   UNL     1       7.642   7.794  -3.906  1.00  0.00     0.074 A 
ATOM     51  C   UNL     1       5.339   7.337  -4.695  1.00  0.00     0.049 A 
ATOM     52  N   UNL     1       7.885   9.054  -3.776  1.00  0.00    -0.248 NA
ATOM     53  C   UNL     1       8.833   6.948  -4.059  1.00  0.00     0.031 C 
ATOM     54  C   UNL     1       4.122   6.555  -4.915  1.00  0.00     0.029 A 
ATOM     55  N   UNL     1       5.280   8.294  -5.654  1.00  0.00    -0.354 N 
ATOM     56  C   UNL     1       9.250   9.191  -3.977  1.00  0.00     0.074 A 
ATOM     57  C   UNL     1       9.802   7.861  -4.038  1.00  0.00     0.031 C 
ATOM     58  C   UNL     1       3.559   6.947  -6.082  1.00  0.00     0.029 A 
ATOM     59  C   UNL     1       4.311   8.073  -6.613  1.00  0.00     0.049 A 
ATOM     60  H   UNL     1       5.876   9.078  -5.665  1.00  0.00     0.167 HD
ATOM     61  C   UNL     1       9.807  10.393  -4.272  1.00  0.00     0.037 A 
ATOM     62  C   UNL     1       4.219   8.723  -7.797  1.00  0.00     0.037 A 
ATOM     63  C   UNL     1       8.964  11.493  -3.888  1.00  0.00     0.049 A 
ATOM     64  C   UNL     1       4.987   9.992  -7.675  1.00  0.00     0.074 A 
ATOM     65  C   UNL     1       8.422  11.908  -2.685  1.00  0.00     0.029 A 
ATOM     66  N   UNL     1       8.262  12.168  -4.855  1.00  0.00    -0.354 N 
ATOM     67  N   UNL     1       4.612  11.011  -6.952  1.00  0.00    -0.248 NA
ATOM     68  C   UNL     1       6.399   9.975  -8.037  1.00  0.00     0.031 C 
ATOM     69  C   UNL     1       7.128  12.411  -3.010  1.00  0.00     0.029 A 
ATOM     70  C   UNL     1       6.976  12.292  -4.391  1.00  0.00     0.049 A 
ATOM     71  H   UNL     1       8.612  12.498  -5.714  1.00  0.00     0.167 HD
ATOM     72  C   UNL     1       5.788  11.528  -6.428  1.00  0.00     0.074 A 
ATOM     73  C   UNL     1       6.857  10.919  -7.211  1.00  0.00     0.031 C 
ATOM     74  C   UNL     1       5.806  12.182  -5.229  1.00  0.00     0.037 A 
BRANCH  61  75
ATOM     75  C   UNL     1      10.990  10.534  -5.179  1.00  0.00     0.064 A 
ATOM     76  C   UNL     1      11.705  11.742  -5.214  1.00  0.00     0.173 A 
ATOM     77  C   UNL     1      11.283   9.610  -6.207  1.00  0.00     0.173 A 
ATOM     78  F   UNL     1      11.466  12.701  -4.308  1.00  0.00    -0.203 F 
ATOM     79  C   UNL     1      12.624  12.018  -6.229  1.00  0.00     0.198 A 
ATOM     80  C   UNL     1      12.241   9.865  -7.183  1.00  0.00     0.198 A 
ATOM     81  F   UNL     1      10.580   8.480  -6.362  1.00  0.00    -0.203 F 
ATOM     82  F   UNL     1      13.206  13.223  -6.287  1.00  0.00    -0.200 F 
ATOM     83  C   UNL     1      12.893  11.079  -7.210  1.00  0.00     0.200 A 
ATOM     84  F   UNL     1      12.469   8.951  -8.137  1.00  0.00    -0.200 F 
ATOM     85  F   UNL     1      13.739  11.362  -8.208  1.00  0.00    -0.200 F 
ENDBRANCH  61  75
BRANCH  62  86
ATOM     86  C   UNL     1       3.748   8.190  -9.094  1.00  0.00     0.064 A 
ATOM     87  C   UNL     1       3.466   9.055 -10.162  1.00  0.00     0.173 A 
ATOM     88  C   UNL     1       3.803   6.815  -9.400  1.00  0.00     0.173 A 
ATOM     89  F   UNL     1       3.442  10.382  -9.969  1.00  0.00    -0.203 F 
ATOM     90  C   UNL     1       3.273   8.576 -11.461  1.00  0.00     0.198 A 
ATOM     91  C   UNL     1       3.592   6.337 -10.693  1.00  0.00     0.198 A 
ATOM     92  F   UNL     1       4.157   5.912  -8.476  1.00  0.00    -0.203 F 
ATOM     93  F   UNL     1       3.074   9.439 -12.467  1.00  0.00    -0.200 F 
ATOM     94  C   UNL     1       3.342   7.219 -11.726  1.00  0.00     0.200 A 
ATOM     95  F   UNL     1       3.695   5.023 -10.940  1.00  0.00    -0.200 F 
ATOM     96  F   UNL     1       3.210   6.764 -12.980  1.00  0.00    -0.200 F 
ENDBRANCH  62  86
BRANCH  74  97
ATOM     97  C   UNL     1       4.486  12.553  -4.616  1.00  0.00     0.064 A 
ATOM     98  C   UNL     1       3.516  11.611  -4.233  1.00  0.00     0.173 A 
ATOM     99  C   UNL     1       4.249  13.893  -4.281  1.00  0.00     0.173 A 
ATOM    100  F   UNL     1       3.723  10.299  -4.410  1.00  0.00    -0.203 F 
ATOM    101  C   UNL     1       2.336  12.001  -3.604  1.00  0.00     0.198 A 
ATOM    102  C   UNL     1       3.086  14.277  -3.617  1.00  0.00     0.198 A 
ATOM    103  F   UNL     1       5.169  14.830  -4.561  1.00  0.00    -0.203 F 
ATOM    104  F   UNL     1       1.417  11.083  -3.269  1.00  0.00    -0.200 F 
ATOM    105  C   UNL     1       2.124  13.334  -3.292  1.00  0.00     0.200 A 
ATOM    106  F   UNL     1       2.909  15.559  -3.269  1.00  0.00    -0.200 F 
ATOM    107  F   UNL     1       1.006  13.706  -2.654  1.00  0.00    -0.200 F 
ENDBRANCH  74  97
ENDBRANCH  48  49
ENDBRANCH  41  43
ENDBRANCH  40  41
ENDBRANCH  39  40
ENDBRANCH  38  39
ENDBRANCH  37  38
ENDBRANCH  36  37
ENDBRANCH  35  36
ENDBRANCH   1  35
TORSDOF 23
