REMARK SMILES Cc1cc2c(c(C)c1Cl)C=C(C(=O)OCCOCCOCCOC(=O)c1ccc(-c3c4nc(c(-c5c(F)c(F)c(F)c(F)c5F)c5ccc([nH]5)c(-c5c(F)c(F)c(F)c(F)c5F)c5nc(c(-c6c(F)c(F)c(F)c(F)c6F)c6ccc3[nH]6)C=C5)C=C4)cc1)[C@@H](C(F)(F)F)O2
REMARK SMILES IDX 19 1 18 2 17 3 16 4 15 5 14 6 12 7 13 8 11 9 1 10 2 11 3 12
REMARK SMILES IDX 8 13 4 14 6 15 9 16 5 17 94 18 7 19 10 20 89 21 90 22 91 23
REMARK SMILES IDX 92 24 93 25 20 26 21 27 22 28 23 29 24 30 25 31 26 32 27 33
REMARK SMILES IDX 88 34 28 35 87 36 29 37 30 38 31 39 81 40 32 41 86 42 80 43
REMARK SMILES IDX 82 44 33 45 85 46 79 47 78 48 34 50 66 51 46 52 65 53 47 54
REMARK SMILES IDX 50 55 64 56 83 57 48 58 49 59 63 61 84 62 51 63 35 64 36 65
REMARK SMILES IDX 44 66 37 67 38 68 42 69 45 70 39 71 40 72 43 73 41 74 67 75
REMARK SMILES IDX 68 76 76 77 69 78 70 79 74 80 77 81 71 82 72 83 75 84 73 85
REMARK SMILES IDX 52 86 53 87 61 88 54 89 55 90 59 91 62 92 56 93 57 94 60 95
REMARK SMILES IDX 58 96
REMARK H PARENT 82 49 50 60
REMARK Flexibility Score: inf
ROOT
ATOM      1  C   UNL     1      -3.688   1.026  -7.164  1.00  0.00     0.188 C 
ENDROOT
BRANCH   1   2
ATOM      2  C   UNL     1      -3.022   2.147  -7.990  1.00  0.00     0.188 C 
BRANCH   2   3
ATOM      3  O   UNL     1      -3.205   2.186  -9.386  1.00  0.00    -0.376 OA
BRANCH   3   4
ATOM      4  C   UNL     1      -2.653   1.190 -10.229  1.00  0.00     0.202 C 
BRANCH   4   5
ATOM      5  C   UNL     1      -1.460   0.291  -9.861  1.00  0.00     0.261 C 
BRANCH   5   6
ATOM      6  O   UNL     1      -1.301  -0.036  -8.477  1.00  0.00    -0.460 OA
BRANCH   6   7
ATOM      7  C   UNL     1      -0.227   0.526  -7.872  1.00  0.00     0.338 C 
ATOM      8  O   UNL     1       0.598   1.264  -8.385  1.00  0.00    -0.246 OA
BRANCH   7   9
ATOM      9  C   UNL     1      -0.273   0.247  -6.422  1.00  0.00     0.087 C 
ATOM     10  C   UNL     1       0.833  -0.051  -0.063  1.00  0.00     0.046 C 
ATOM     11  C   UNL     1       0.477   0.383  -1.460  1.00  0.00    -0.028 A 
ATOM     12  C   UNL     1       0.058  -0.589  -2.377  1.00  0.00     0.052 A 
ATOM     13  C   UNL     1       0.612   1.716  -1.895  1.00  0.00     0.047 A 
ATOM     14  C   UNL     1      -0.156  -0.264  -3.715  1.00  0.00     0.128 A 
ATOM     15  C   UNL     1       0.371   2.071  -3.244  1.00  0.00    -0.021 A 
ATOM     16  Cl  UNL     1       1.117   2.914  -0.742  1.00  0.00    -0.084 Cl
ATOM     17  C   UNL     1       0.034   1.047  -4.166  1.00  0.00     0.022 A 
ATOM     18  O   UNL     1      -0.545  -1.308  -4.505  1.00  0.00    -0.475 OA
ATOM     19  C   UNL     1       0.472   3.504  -3.717  1.00  0.00     0.047 C 
ATOM     20  C   UNL     1      -0.050   1.286  -5.606  1.00  0.00     0.027 C 
ATOM     21  C   UNL     1      -0.552  -1.148  -5.946  1.00  0.00     0.316 C 
BRANCH  21  22
ATOM     22  C   UNL     1       0.408  -2.178  -6.556  1.00  0.00     0.430 C 
ATOM     23  F   UNL     1       0.176  -3.419  -6.066  1.00  0.00    -0.167 F 
ATOM     24  F   UNL     1       0.266  -2.260  -7.900  1.00  0.00    -0.167 F 
ATOM     25  F   UNL     1       1.701  -1.874  -6.304  1.00  0.00    -0.167 F 
ENDBRANCH  21  22
ENDBRANCH   7   9
ENDBRANCH   6   7
ENDBRANCH   5   6
ENDBRANCH   4   5
ENDBRANCH   3   4
ENDBRANCH   2   3
ENDBRANCH   1   2
BRANCH   1  26
ATOM     26  O   UNL     1      -4.380  -0.017  -7.814  1.00  0.00    -0.376 OA
BRANCH  26  27
ATOM     27  C   UNL     1      -5.530   0.289  -8.587  1.00  0.00     0.202 C 
BRANCH  27  28
ATOM     28  C   UNL     1      -6.514   1.424  -8.238  1.00  0.00     0.261 C 
BRANCH  28  29
ATOM     29  O   UNL     1      -5.939   2.646  -7.752  1.00  0.00    -0.460 OA
BRANCH  29  30
ATOM     30  C   UNL     1      -6.238   2.965  -6.464  1.00  0.00     0.338 C 
ATOM     31  O   UNL     1      -6.944   2.350  -5.692  1.00  0.00    -0.246 OA
BRANCH  30  32
ATOM     32  C   UNL     1      -5.383   4.096  -6.046  1.00  0.00     0.060 A 
ATOM     33  C   UNL     1      -4.357   3.853  -5.121  1.00  0.00     0.016 A 
ATOM     34  C   UNL     1      -5.595   5.381  -6.546  1.00  0.00     0.016 A 
ATOM     35  C   UNL     1      -3.527   4.893  -4.708  1.00  0.00     0.010 A 
ATOM     36  C   UNL     1      -4.784   6.432  -6.100  1.00  0.00     0.010 A 
ATOM     37  C   UNL     1      -3.756   6.195  -5.169  1.00  0.00    -0.014 A 
BRANCH  37  38
ATOM     38  C   UNL     1      -3.063   7.319  -4.495  1.00  0.00     0.031 A 
ATOM     39  C   UNL     1      -3.754   7.976  -3.332  1.00  0.00     0.074 A 
ATOM     40  C   UNL     1      -1.822   7.703  -4.845  1.00  0.00     0.049 A 
ATOM     41  N   UNL     1      -3.351   8.959  -2.571  1.00  0.00    -0.248 NA
ATOM     42  C   UNL     1      -5.078   7.440  -2.975  1.00  0.00     0.031 C 
ATOM     43  C   UNL     1      -1.018   7.104  -5.907  1.00  0.00     0.029 A 
ATOM     44  N   UNL     1      -1.017   8.691  -4.329  1.00  0.00    -0.354 N 
ATOM     45  C   UNL     1      -4.363   9.151  -1.641  1.00  0.00     0.074 A 
ATOM     46  C   UNL     1      -5.418   8.214  -1.956  1.00  0.00     0.031 C 
ATOM     47  C   UNL     1       0.168   7.737  -5.964  1.00  0.00     0.029 A 
ATOM     48  C   UNL     1       0.196   8.806  -4.964  1.00  0.00     0.049 A 
ATOM     49  H   UNL     1      -1.285   9.263  -3.574  1.00  0.00     0.167 HD
ATOM     50  C   UNL     1      -4.402  10.017  -0.603  1.00  0.00     0.037 A 
ATOM     51  C   UNL     1       1.202   9.683  -4.769  1.00  0.00     0.037 A 
ATOM     52  C   UNL     1      -3.357  10.952  -0.289  1.00  0.00     0.049 A 
ATOM     53  C   UNL     1       1.078  10.728  -3.684  1.00  0.00     0.074 A 
ATOM     54  C   UNL     1      -3.308  11.868   0.746  1.00  0.00     0.029 A 
ATOM     55  N   UNL     1      -2.183  11.095  -1.011  1.00  0.00    -0.354 N 
ATOM     56  N   UNL     1       0.130  10.887  -2.793  1.00  0.00    -0.248 NA
ATOM     57  C   UNL     1       2.160  11.721  -3.585  1.00  0.00     0.031 C 
ATOM     58  C   UNL     1      -2.130  12.607   0.615  1.00  0.00     0.029 A 
ATOM     59  C   UNL     1      -1.420  12.116  -0.469  1.00  0.00     0.049 A 
ATOM     60  H   UNL     1      -1.929  10.553  -1.792  1.00  0.00     0.167 HD
ATOM     61  C   UNL     1       0.507  11.980  -2.020  1.00  0.00     0.074 A 
ATOM     62  C   UNL     1       1.782  12.435  -2.532  1.00  0.00     0.031 C 
ATOM     63  C   UNL     1      -0.149  12.557  -0.984  1.00  0.00     0.037 A 
BRANCH  50  64
ATOM     64  C   UNL     1      -5.624  10.006   0.265  1.00  0.00     0.064 A 
ATOM     65  C   UNL     1      -5.885   8.947   1.147  1.00  0.00     0.173 A 
ATOM     66  C   UNL     1      -6.515  11.089   0.252  1.00  0.00     0.173 A 
ATOM     67  F   UNL     1      -5.072   7.881   1.183  1.00  0.00    -0.203 F 
ATOM     68  C   UNL     1      -7.004   8.967   1.975  1.00  0.00     0.198 A 
ATOM     69  C   UNL     1      -7.615  11.119   1.103  1.00  0.00     0.198 A 
ATOM     70  F   UNL     1      -6.307  12.126  -0.573  1.00  0.00    -0.203 F 
ATOM     71  F   UNL     1      -7.256   7.927   2.782  1.00  0.00    -0.200 F 
ATOM     72  C   UNL     1      -7.862  10.057   1.960  1.00  0.00     0.200 A 
ATOM     73  F   UNL     1      -8.435  12.179   1.097  1.00  0.00    -0.200 F 
ATOM     74  F   UNL     1      -8.930  10.082   2.769  1.00  0.00    -0.200 F 
ENDBRANCH  50  64
BRANCH  51  75
ATOM     75  C   UNL     1       2.419   9.626  -5.624  1.00  0.00     0.064 A 
ATOM     76  C   UNL     1       3.667   9.284  -5.084  1.00  0.00     0.173 A 
ATOM     77  C   UNL     1       2.366   9.933  -6.992  1.00  0.00     0.173 A 
ATOM     78  F   UNL     1       3.778   9.015  -3.775  1.00  0.00    -0.203 F 
ATOM     79  C   UNL     1       4.814   9.257  -5.877  1.00  0.00     0.198 A 
ATOM     80  C   UNL     1       3.507   9.878  -7.790  1.00  0.00     0.198 A 
ATOM     81  F   UNL     1       1.201  10.280  -7.558  1.00  0.00    -0.203 F 
ATOM     82  F   UNL     1       6.000   8.969  -5.325  1.00  0.00    -0.200 F 
ATOM     83  C   UNL     1       4.732   9.546  -7.231  1.00  0.00     0.200 A 
ATOM     84  F   UNL     1       3.421  10.151  -9.099  1.00  0.00    -0.200 F 
ATOM     85  F   UNL     1       5.833   9.514  -7.993  1.00  0.00    -0.200 F 
ENDBRANCH  51  75
BRANCH  63  86
ATOM     86  C   UNL     1       0.475  13.754  -0.323  1.00  0.00     0.064 A 
ATOM     87  C   UNL     1       0.488  15.006  -0.953  1.00  0.00     0.173 A 
ATOM     88  C   UNL     1       0.942  13.678   0.999  1.00  0.00     0.173 A 
ATOM     89  F   UNL     1       0.062  15.129  -2.219  1.00  0.00    -0.203 F 
ATOM     90  C   UNL     1       0.942  16.140  -0.283  1.00  0.00     0.198 A 
ATOM     91  C   UNL     1       1.367  14.819   1.675  1.00  0.00     0.198 A 
ATOM     92  F   UNL     1       0.939  12.506   1.652  1.00  0.00    -0.203 F 
ATOM     93  F   UNL     1       0.959  17.324  -0.911  1.00  0.00    -0.200 F 
ATOM     94  C   UNL     1       1.366  16.048   1.034  1.00  0.00     0.200 A 
ATOM     95  F   UNL     1       1.755  14.732   2.955  1.00  0.00    -0.200 F 
ATOM     96  F   UNL     1       1.770  17.147   1.687  1.00  0.00    -0.200 F 
ENDBRANCH  63  86
ENDBRANCH  37  38
ENDBRANCH  30  32
ENDBRANCH  29  30
ENDBRANCH  28  29
ENDBRANCH  27  28
ENDBRANCH  26  27
ENDBRANCH   1  26
TORSDOF 18
