REMARK SMILES O=C(OCCOCCOCCOC(=O)c1ccc([C@H]2CCC[N@@H+](CCN3CCCC3=O)C2)cc1)c1ccc(-c2c3nc(c(-c4c(F)c(F)c(F)c(F)c4F)c4ccc([nH]4)c(-c4c(F)c(F)c(F)c(F)c4F)c4nc(c(-c5c(F)c(F)c(F)c(F)c5F)c5ccc2[nH]5)C=C4)C=C3)cc1
REMARK SMILES IDX 8 1 7 2 6 3 5 4 4 5 3 6 2 7 1 8 35 9 36 10 97 11 37 12 96 13
REMARK SMILES IDX 38 14 39 15 40 16 90 17 41 18 95 19 89 20 91 21 42 22 94 23
REMARK SMILES IDX 88 24 87 25 43 27 75 28 55 29 74 30 56 31 59 32 73 33 92 34
REMARK SMILES IDX 57 35 58 36 72 38 93 39 60 40 44 41 45 42 53 43 46 44 47 45
REMARK SMILES IDX 51 46 54 47 48 48 49 49 52 50 50 51 76 52 77 53 85 54 78 55
REMARK SMILES IDX 79 56 83 57 86 58 80 59 81 60 84 61 82 62 61 63 62 64 70 65
REMARK SMILES IDX 63 66 64 67 68 68 71 69 65 70 66 71 69 72 67 73 9 74 10 75
REMARK SMILES IDX 11 76 12 77 13 78 14 79 15 80 16 81 34 82 17 83 33 84 18 85
REMARK SMILES IDX 19 86 20 87 32 88 21 89 23 90 22 91 24 93 25 94 26 95 27 96
REMARK SMILES IDX 30 97 28 98 29 99 31 100
REMARK H PARENT 91 26 59 37 23 92
REMARK Flexibility Score: inf
ROOT
ATOM      1  C   UNL     1      -6.880  -1.798   6.297  1.00  0.00     0.188 C 
ENDROOT
BRANCH   1   2
ATOM      2  C   UNL     1      -7.434  -0.912   7.412  1.00  0.00     0.188 C 
BRANCH   2   3
ATOM      3  O   UNL     1      -7.093  -1.343   8.726  1.00  0.00    -0.376 OA
BRANCH   3   4
ATOM      4  C   UNL     1      -8.077  -1.105   9.737  1.00  0.00     0.202 C 
BRANCH   4   5
ATOM      5  C   UNL     1      -8.642   0.326   9.871  1.00  0.00     0.261 C 
BRANCH   5   6
ATOM      6  O   UNL     1      -8.262   1.272   8.844  1.00  0.00    -0.460 OA
BRANCH   6   7
ATOM      7  C   UNL     1      -7.192   2.099   8.742  1.00  0.00     0.338 C 
ATOM      8  O   UNL     1      -7.145   2.921   7.831  1.00  0.00    -0.246 OA
BRANCH   7   9
ATOM      9  C   UNL     1      -6.061   2.051   9.700  1.00  0.00     0.060 A 
ATOM     10  C   UNL     1      -5.666   0.884  10.327  1.00  0.00     0.016 A 
ATOM     11  C   UNL     1      -5.301   3.205   9.931  1.00  0.00     0.016 A 
ATOM     12  C   UNL     1      -4.731   0.883  11.337  1.00  0.00     0.010 A 
ATOM     13  C   UNL     1      -4.241   3.183  10.851  1.00  0.00     0.010 A 
ATOM     14  C   UNL     1      -3.995   2.029  11.610  1.00  0.00    -0.014 A 
BRANCH  14  15
ATOM     15  C   UNL     1      -3.111   1.997  12.798  1.00  0.00     0.031 A 
ATOM     16  C   UNL     1      -3.460   2.868  13.969  1.00  0.00     0.074 A 
ATOM     17  C   UNL     1      -2.188   1.025  12.944  1.00  0.00     0.049 A 
ATOM     18  N   UNL     1      -2.828   3.027  15.102  1.00  0.00    -0.248 NA
ATOM     19  C   UNL     1      -4.716   3.633  13.871  1.00  0.00     0.031 C 
ATOM     20  C   UNL     1      -1.919  -0.049  11.983  1.00  0.00     0.029 A 
ATOM     21  N   UNL     1      -1.357   0.732  13.996  1.00  0.00    -0.354 N 
ATOM     22  C   UNL     1      -3.607   3.900  15.845  1.00  0.00     0.074 A 
ATOM     23  C   UNL     1      -4.735   4.279  15.026  1.00  0.00     0.031 C 
ATOM     24  C   UNL     1      -1.061  -0.921  12.534  1.00  0.00     0.029 A 
ATOM     25  C   UNL     1      -0.569  -0.373  13.777  1.00  0.00     0.049 A 
ATOM     26  H   UNL     1      -1.327   1.261  14.825  1.00  0.00     0.167 HD
ATOM     27  C   UNL     1      -3.407   4.326  17.113  1.00  0.00     0.037 A 
ATOM     28  C   UNL     1       0.490  -0.831  14.463  1.00  0.00     0.037 A 
ATOM     29  C   UNL     1      -2.283   3.934  17.918  1.00  0.00     0.049 A 
ATOM     30  C   UNL     1       0.887  -0.101  15.703  1.00  0.00     0.074 A 
ATOM     31  C   UNL     1      -1.934   4.357  19.187  1.00  0.00     0.029 A 
ATOM     32  N   UNL     1      -1.320   3.017  17.521  1.00  0.00    -0.354 N 
ATOM     33  N   UNL     1       0.266   0.866  16.324  1.00  0.00    -0.248 NA
ATOM     34  C   UNL     1       2.138  -0.536  16.336  1.00  0.00     0.031 C 
ATOM     35  C   UNL     1      -0.729   3.739  19.536  1.00  0.00     0.029 A 
ATOM     36  C   UNL     1      -0.361   2.884  18.511  1.00  0.00     0.049 A 
ATOM     37  H   UNL     1      -1.319   2.534  16.664  1.00  0.00     0.167 HD
ATOM     38  C   UNL     1       1.027   1.132  17.445  1.00  0.00     0.074 A 
ATOM     39  C   UNL     1       2.167   0.240  17.406  1.00  0.00     0.031 C 
ATOM     40  C   UNL     1       0.778   2.012  18.441  1.00  0.00     0.037 A 
BRANCH  27  41
ATOM     41  C   UNL     1      -4.396   5.304  17.669  1.00  0.00     0.064 A 
ATOM     42  C   UNL     1      -5.705   4.929  18.007  1.00  0.00     0.173 A 
ATOM     43  C   UNL     1      -4.027   6.644  17.853  1.00  0.00     0.173 A 
ATOM     44  F   UNL     1      -6.117   3.666  17.818  1.00  0.00    -0.203 F 
ATOM     45  C   UNL     1      -6.615   5.867  18.488  1.00  0.00     0.198 A 
ATOM     46  C   UNL     1      -4.930   7.572  18.362  1.00  0.00     0.198 A 
ATOM     47  F   UNL     1      -2.791   7.055  17.533  1.00  0.00    -0.203 F 
ATOM     48  F   UNL     1      -7.877   5.500  18.751  1.00  0.00    -0.200 F 
ATOM     49  C   UNL     1      -6.224   7.185  18.672  1.00  0.00     0.200 A 
ATOM     50  F   UNL     1      -4.549   8.844  18.543  1.00  0.00    -0.200 F 
ATOM     51  F   UNL     1      -7.101   8.086  19.135  1.00  0.00    -0.200 F 
ENDBRANCH  27  41
BRANCH  28  52
ATOM     52  C   UNL     1       1.373  -1.917  13.974  1.00  0.00     0.064 A 
ATOM     53  C   UNL     1       1.214  -3.244  14.387  1.00  0.00     0.173 A 
ATOM     54  C   UNL     1       2.541  -1.581  13.272  1.00  0.00     0.173 A 
ATOM     55  F   UNL     1       0.156  -3.595  15.130  1.00  0.00    -0.203 F 
ATOM     56  C   UNL     1       2.194  -4.199  14.109  1.00  0.00     0.198 A 
ATOM     57  C   UNL     1       3.516  -2.535  12.997  1.00  0.00     0.198 A 
ATOM     58  F   UNL     1       2.778  -0.303  12.942  1.00  0.00    -0.203 F 
ATOM     59  F   UNL     1       2.055  -5.452  14.562  1.00  0.00    -0.200 F 
ATOM     60  C   UNL     1       3.341  -3.844  13.414  1.00  0.00     0.200 A 
ATOM     61  F   UNL     1       4.645  -2.181  12.369  1.00  0.00    -0.200 F 
ATOM     62  F   UNL     1       4.294  -4.754  13.171  1.00  0.00    -0.200 F 
ENDBRANCH  28  52
BRANCH  40  63
ATOM     63  C   UNL     1       1.723   1.964  19.595  1.00  0.00     0.064 A 
ATOM     64  C   UNL     1       3.045   2.418  19.493  1.00  0.00     0.173 A 
ATOM     65  C   UNL     1       1.308   1.383  20.802  1.00  0.00     0.173 A 
ATOM     66  F   UNL     1       3.496   2.934  18.339  1.00  0.00    -0.203 F 
ATOM     67  C   UNL     1       3.933   2.251  20.550  1.00  0.00     0.198 A 
ATOM     68  C   UNL     1       2.187   1.257  21.869  1.00  0.00     0.198 A 
ATOM     69  F   UNL     1       0.056   0.919  20.935  1.00  0.00    -0.203 F 
ATOM     70  F   UNL     1       5.217   2.605  20.404  1.00  0.00    -0.200 F 
ATOM     71  C   UNL     1       3.502   1.677  21.738  1.00  0.00     0.200 A 
ATOM     72  F   UNL     1       1.768   0.704  23.015  1.00  0.00    -0.200 F 
ATOM     73  F   UNL     1       4.362   1.508  22.750  1.00  0.00    -0.200 F 
ENDBRANCH  40  63
ENDBRANCH  14  15
ENDBRANCH   7   9
ENDBRANCH   6   7
ENDBRANCH   5   6
ENDBRANCH   4   5
ENDBRANCH   3   4
ENDBRANCH   2   3
ENDBRANCH   1   2
BRANCH   1  74
ATOM     74  O   UNL     1      -7.202  -3.181   6.341  1.00  0.00    -0.376 OA
BRANCH  74  75
ATOM     75  C   UNL     1      -6.939  -3.875   7.554  1.00  0.00     0.202 C 
BRANCH  75  76
ATOM     76  C   UNL     1      -5.486  -3.983   8.049  1.00  0.00     0.261 C 
BRANCH  76  77
ATOM     77  O   UNL     1      -4.685  -2.788   7.976  1.00  0.00    -0.460 OA
BRANCH  77  78
ATOM     78  C   UNL     1      -3.800  -2.788   6.949  1.00  0.00     0.338 C 
ATOM     79  O   UNL     1      -3.696  -3.636   6.075  1.00  0.00    -0.246 OA
BRANCH  78  80
ATOM     80  C   UNL     1      -2.803  -1.711   7.082  1.00  0.00     0.060 A 
ATOM     81  C   UNL     1      -3.071  -0.340   7.024  1.00  0.00     0.016 A 
ATOM     82  C   UNL     1      -1.490  -2.152   7.128  1.00  0.00     0.016 A 
ATOM     83  C   UNL     1      -2.004   0.588   7.055  1.00  0.00     0.005 A 
ATOM     84  C   UNL     1      -0.449  -1.234   7.123  1.00  0.00     0.005 A 
ATOM     85  C   UNL     1      -0.668   0.157   7.144  1.00  0.00    -0.039 A 
BRANCH  85  86
ATOM     86  C   UNL     1       0.519   1.147   7.270  1.00  0.00     0.074 C 
ATOM     87  C   UNL     1       0.282   2.194   8.375  1.00  0.00     0.020 C 
ATOM     88  C   UNL     1       1.848   0.386   7.524  1.00  0.00     0.270 C 
ATOM     89  C   UNL     1       1.568   2.930   8.755  1.00  0.00     0.062 C 
ATOM     90  N   UNL     1       3.014   1.037   8.115  1.00  0.00    -0.333 N 
ATOM     91  C   UNL     1       2.652   1.949   9.202  1.00  0.00     0.262 C 
ATOM     92  H   UNL     1       3.451   1.624   7.404  1.00  0.00     0.348 HD
BRANCH  90  93
ATOM     93  C   UNL     1       4.001   0.004   8.543  1.00  0.00     0.284 C 
BRANCH  93  94
ATOM     94  C   UNL     1       3.744  -0.920   9.776  1.00  0.00     0.180 C 
BRANCH  94  95
ATOM     95  N   UNL     1       2.667  -1.914   9.694  1.00  0.00    -0.337 N 
ATOM     96  C   UNL     1       2.876  -3.303   9.366  1.00  0.00     0.120 C 
ATOM     97  C   UNL     1       1.384  -1.694  10.156  1.00  0.00     0.222 C 
ATOM     98  C   UNL     1       1.468  -3.850   9.192  1.00  0.00     0.031 C 
ATOM     99  C   UNL     1       0.629  -2.996  10.126  1.00  0.00     0.102 C 
ATOM    100  O   UNL     1       0.947  -0.634  10.582  1.00  0.00    -0.275 OA
ENDBRANCH  94  95
ENDBRANCH  93  94
ENDBRANCH  90  93
ENDBRANCH  85  86
ENDBRANCH  78  80
ENDBRANCH  77  78
ENDBRANCH  76  77
ENDBRANCH  75  76
ENDBRANCH  74  75
ENDBRANCH   1  74
TORSDOF 21
