REMARK SMILES O=C(OCCOCCOCCOC(=O)[C@H](NC(=O)[C@H]1CC[C@@H](CNC(=O)[C@@H]2Cc3ccccc3C[NH2+]2)CC1)c1ccccc1)c1ccc(-c2c3nc(c(-c4c(F)c(F)c(F)c(F)c4F)c4ccc([nH]4)c(-c4c(F)c(F)c(F)c(F)c4F)c4nc(c(-c5c(F)c(F)c(F)c(F)c5F)c5ccc2[nH]5)C=C4)C=C3)cc1
REMARK SMILES IDX 9 1 8 2 7 3 6 4 5 5 4 6 3 7 2 8 1 9 45 10 46 11 107 12 47 13
REMARK SMILES IDX 106 14 48 15 49 16 50 17 100 18 51 19 105 20 99 21 101 22
REMARK SMILES IDX 52 23 104 24 98 25 97 26 53 28 85 29 65 30 84 31 66 32 69 33
REMARK SMILES IDX 83 34 102 35 67 36 68 37 82 39 103 40 70 41 54 42 55 43
REMARK SMILES IDX 63 44 56 45 57 46 61 47 64 48 58 49 59 50 62 51 60 52 86 53
REMARK SMILES IDX 87 54 95 55 88 56 89 57 93 58 96 59 90 60 91 61 94 62 92 63
REMARK SMILES IDX 71 64 72 65 80 66 73 67 74 68 78 69 81 70 75 71 76 72 79 73
REMARK SMILES IDX 77 74 10 75 11 76 12 77 13 78 14 79 15 80 39 81 40 82 44 83
REMARK SMILES IDX 41 84 43 85 42 86 16 87 17 88 18 90 19 91 38 92 20 93 37 94
REMARK SMILES IDX 21 95 22 96 23 97 24 98 25 99 26 101 27 102 28 103 36 104
REMARK SMILES IDX 29 105 35 106 30 109 34 110 31 111 33 112 32 113
REMARK H PARENT 101 27 69 38 16 89 24 100 36 107 36 108
REMARK Flexibility Score: inf
ROOT
ATOM      1  O   UNL     1       6.230   9.469   3.514  1.00  0.00    -0.376 OA
ENDROOT
BRANCH   1   2
ATOM      2  C   UNL     1       5.533   8.430   2.836  1.00  0.00     0.188 C 
BRANCH   2   3
ATOM      3  C   UNL     1       6.120   7.028   2.942  1.00  0.00     0.188 C 
BRANCH   3   4
ATOM      4  O   UNL     1       6.129   6.530   4.285  1.00  0.00    -0.376 OA
BRANCH   4   5
ATOM      5  C   UNL     1       7.314   5.782   4.591  1.00  0.00     0.202 C 
BRANCH   5   6
ATOM      6  C   UNL     1       7.400   4.397   3.923  1.00  0.00     0.261 C 
BRANCH   6   7
ATOM      7  O   UNL     1       6.528   4.243   2.786  1.00  0.00    -0.460 OA
BRANCH   7   8
ATOM      8  C   UNL     1       5.248   3.792   2.749  1.00  0.00     0.338 C 
ATOM      9  O   UNL     1       4.684   3.679   1.664  1.00  0.00    -0.246 OA
BRANCH   8  10
ATOM     10  C   UNL     1       4.515   3.357   3.974  1.00  0.00     0.060 A 
ATOM     11  C   UNL     1       4.740   3.868   5.248  1.00  0.00     0.016 A 
ATOM     12  C   UNL     1       3.513   2.392   3.834  1.00  0.00     0.016 A 
ATOM     13  C   UNL     1       4.175   3.295   6.382  1.00  0.00     0.010 A 
ATOM     14  C   UNL     1       2.841   1.901   4.963  1.00  0.00     0.010 A 
ATOM     15  C   UNL     1       3.219   2.297   6.262  1.00  0.00    -0.014 A 
BRANCH  15  16
ATOM     16  C   UNL     1       2.679   1.607   7.467  1.00  0.00     0.031 A 
ATOM     17  C   UNL     1       2.836   0.125   7.572  1.00  0.00     0.074 A 
ATOM     18  C   UNL     1       2.085   2.260   8.488  1.00  0.00     0.049 A 
ATOM     19  N   UNL     1       2.371  -0.677   8.491  1.00  0.00    -0.248 NA
ATOM     20  C   UNL     1       3.674  -0.536   6.557  1.00  0.00     0.031 C 
ATOM     21  C   UNL     1       2.053   3.702   8.658  1.00  0.00     0.029 A 
ATOM     22  N   UNL     1       1.299   1.804   9.530  1.00  0.00    -0.354 N 
ATOM     23  C   UNL     1       2.913  -1.915   8.203  1.00  0.00     0.074 A 
ATOM     24  C   UNL     1       3.632  -1.796   6.955  1.00  0.00     0.031 C 
ATOM     25  C   UNL     1       1.145   3.998   9.597  1.00  0.00     0.029 A 
ATOM     26  C   UNL     1       0.558   2.804  10.136  1.00  0.00     0.049 A 
ATOM     27  H   UNL     1       1.269   0.862   9.813  1.00  0.00     0.167 HD
ATOM     28  C   UNL     1       2.883  -3.028   8.967  1.00  0.00     0.037 A 
ATOM     29  C   UNL     1      -0.474   2.767  11.008  1.00  0.00     0.037 A 
ATOM     30  C   UNL     1       2.174  -3.129  10.213  1.00  0.00     0.049 A 
ATOM     31  C   UNL     1      -0.662   1.466  11.702  1.00  0.00     0.074 A 
ATOM     32  C   UNL     1       2.072  -4.212  11.065  1.00  0.00     0.029 A 
ATOM     33  N   UNL     1       1.435  -2.101  10.781  1.00  0.00    -0.354 N 
ATOM     34  N   UNL     1      -0.043   0.337  11.484  1.00  0.00    -0.248 NA
ATOM     35  C   UNL     1      -1.553   1.477  12.863  1.00  0.00     0.031 C 
ATOM     36  C   UNL     1       1.229  -3.856  12.125  1.00  0.00     0.029 A 
ATOM     37  C   UNL     1       0.835  -2.542  11.950  1.00  0.00     0.049 A 
ATOM     38  H   UNL     1       1.349  -1.194  10.409  1.00  0.00     0.167 HD
ATOM     39  C   UNL     1      -0.389  -0.471  12.544  1.00  0.00     0.074 A 
ATOM     40  C   UNL     1      -1.244   0.316  13.412  1.00  0.00     0.031 C 
ATOM     41  C   UNL     1      -0.022  -1.749  12.785  1.00  0.00     0.037 A 
BRANCH  28  42
ATOM     42  C   UNL     1       3.657  -4.201   8.461  1.00  0.00     0.064 A 
ATOM     43  C   UNL     1       5.061  -4.209   8.472  1.00  0.00     0.173 A 
ATOM     44  C   UNL     1       2.991  -5.314   7.936  1.00  0.00     0.173 A 
ATOM     45  F   UNL     1       5.741  -3.146   8.929  1.00  0.00    -0.203 F 
ATOM     46  C   UNL     1       5.771  -5.287   7.954  1.00  0.00     0.198 A 
ATOM     47  C   UNL     1       3.705  -6.402   7.443  1.00  0.00     0.198 A 
ATOM     48  F   UNL     1       1.651  -5.339   7.887  1.00  0.00    -0.203 F 
ATOM     49  F   UNL     1       7.111  -5.253   7.923  1.00  0.00    -0.200 F 
ATOM     50  C   UNL     1       5.093  -6.385   7.447  1.00  0.00     0.200 A 
ATOM     51  F   UNL     1       3.050  -7.461   6.949  1.00  0.00    -0.200 F 
ATOM     52  F   UNL     1       5.777  -7.423   6.947  1.00  0.00    -0.200 F 
ENDBRANCH  28  42
BRANCH  29  53
ATOM     53  C   UNL     1      -1.307   3.941  11.427  1.00  0.00     0.064 A 
ATOM     54  C   UNL     1      -1.148   4.566  12.676  1.00  0.00     0.173 A 
ATOM     55  C   UNL     1      -2.371   4.396  10.638  1.00  0.00     0.173 A 
ATOM     56  F   UNL     1      -0.224   4.103  13.531  1.00  0.00    -0.203 F 
ATOM     57  C   UNL     1      -1.926   5.662  13.061  1.00  0.00     0.198 A 
ATOM     58  C   UNL     1      -3.132   5.513  11.002  1.00  0.00     0.198 A 
ATOM     59  F   UNL     1      -2.715   3.717   9.535  1.00  0.00    -0.203 F 
ATOM     60  F   UNL     1      -1.729   6.231  14.258  1.00  0.00    -0.200 F 
ATOM     61  C   UNL     1      -2.898   6.156  12.207  1.00  0.00     0.200 A 
ATOM     62  F   UNL     1      -4.102   5.952  10.188  1.00  0.00    -0.200 F 
ATOM     63  F   UNL     1      -3.635   7.218  12.562  1.00  0.00    -0.200 F 
ENDBRANCH  29  53
BRANCH  41  64
ATOM     64  C   UNL     1      -0.568  -2.326  14.048  1.00  0.00     0.064 A 
ATOM     65  C   UNL     1      -1.947  -2.540  14.203  1.00  0.00     0.173 A 
ATOM     66  C   UNL     1       0.270  -2.538  15.149  1.00  0.00     0.173 A 
ATOM     67  F   UNL     1      -2.787  -2.299  13.183  1.00  0.00    -0.203 F 
ATOM     68  C   UNL     1      -2.476  -2.873  15.442  1.00  0.00     0.198 A 
ATOM     69  C   UNL     1      -0.260  -2.919  16.375  1.00  0.00     0.198 A 
ATOM     70  F   UNL     1       1.591  -2.329  15.046  1.00  0.00    -0.203 F 
ATOM     71  F   UNL     1      -3.804  -2.946  15.600  1.00  0.00    -0.200 F 
ATOM     72  C   UNL     1      -1.632  -3.065  16.526  1.00  0.00     0.200 A 
ATOM     73  F   UNL     1       0.553  -3.106  17.423  1.00  0.00    -0.200 F 
ATOM     74  F   UNL     1      -2.146  -3.361  17.727  1.00  0.00    -0.200 F 
ENDBRANCH  41  64
ENDBRANCH  15  16
ENDBRANCH   8  10
ENDBRANCH   7   8
ENDBRANCH   6   7
ENDBRANCH   5   6
ENDBRANCH   4   5
ENDBRANCH   3   4
ENDBRANCH   2   3
ENDBRANCH   1   2
BRANCH   1  75
ATOM     75  C   UNL     1       6.426   9.341   4.916  1.00  0.00     0.202 C 
BRANCH  75  76
ATOM     76  C   UNL     1       5.202   9.492   5.829  1.00  0.00     0.261 C 
BRANCH  76  77
ATOM     77  O   UNL     1       4.140   8.535   5.665  1.00  0.00    -0.461 OA
BRANCH  77  78
ATOM     78  C   UNL     1       3.064   8.979   4.946  1.00  0.00     0.333 C 
ATOM     79  O   UNL     1       3.064   9.977   4.228  1.00  0.00    -0.249 OA
BRANCH  78  80
ATOM     80  C   UNL     1       1.813   8.107   5.197  1.00  0.00     0.223 C 
BRANCH  80  81
ATOM     81  C   UNL     1       0.797   8.990   5.912  1.00  0.00    -0.014 A 
ATOM     82  C   UNL     1       1.149   9.578   7.143  1.00  0.00     0.006 A 
ATOM     83  C   UNL     1      -0.507   9.184   5.438  1.00  0.00     0.006 A 
ATOM     84  C   UNL     1       0.199  10.254   7.906  1.00  0.00     0.000 A 
ATOM     85  C   UNL     1      -1.472   9.802   6.233  1.00  0.00     0.000 A 
ATOM     86  C   UNL     1      -1.122  10.322   7.473  1.00  0.00     0.000 A 
ENDBRANCH  80  81
BRANCH  80  87
ATOM     87  N   UNL     1       1.323   7.550   3.929  1.00  0.00    -0.339 N 
ATOM     88  C   UNL     1       0.495   6.548   3.551  1.00  0.00     0.224 C 
ATOM     89  H   UNL     1       1.692   8.030   3.152  1.00  0.00     0.164 HD
ATOM     90  O   UNL     1       0.313   6.461   2.329  1.00  0.00    -0.275 OA
BRANCH  88  91
ATOM     91  C   UNL     1      -0.269   5.573   4.462  1.00  0.00     0.078 C 
ATOM     92  C   UNL     1       0.541   4.814   5.498  1.00  0.00     0.014 C 
ATOM     93  C   UNL     1      -1.677   6.046   4.902  1.00  0.00     0.014 C 
ATOM     94  C   UNL     1      -0.377   4.254   6.567  1.00  0.00     0.006 C 
ATOM     95  C   UNL     1      -2.080   5.998   6.393  1.00  0.00     0.006 C 
ATOM     96  C   UNL     1      -1.057   5.378   7.352  1.00  0.00     0.008 C 
BRANCH  96  97
ATOM     97  C   UNL     1      -0.121   6.446   7.984  1.00  0.00     0.119 C 
BRANCH  97  98
ATOM     98  N   UNL     1      -0.690   7.158   9.137  1.00  0.00    -0.351 N 
ATOM     99  C   UNL     1      -0.167   7.953  10.127  1.00  0.00     0.278 C 
ATOM    100  H   UNL     1      -1.664   7.038   9.217  1.00  0.00     0.163 HD
ATOM    101  O   UNL     1      -0.949   8.816  10.556  1.00  0.00    -0.268 OA
BRANCH  99 102
ATOM    102  C   UNL     1       1.172   7.702  10.914  1.00  0.00     0.277 C 
ATOM    103  C   UNL     1       2.481   7.674  10.123  1.00  0.00     0.111 C 
ATOM    104  N   UNL     1       0.889   6.561  11.787  1.00  0.00    -0.332 N 
ATOM    105  C   UNL     1       3.621   6.995  10.851  1.00  0.00    -0.033 A 
ATOM    106  C   UNL     1       1.987   5.845  12.410  1.00  0.00     0.298 C 
ATOM    107  H   UNL     1       0.372   5.882  11.229  1.00  0.00     0.347 HD
ATOM    108  H   UNL     1       0.401   6.982  12.577  1.00  0.00     0.347 HD
ATOM    109  C   UNL     1       4.956   7.238  10.493  1.00  0.00     0.004 A 
ATOM    110  C   UNL     1       3.357   6.050  11.847  1.00  0.00     0.010 A 
ATOM    111  C   UNL     1       5.999   6.513  11.081  1.00  0.00     0.000 A 
ATOM    112  C   UNL     1       4.407   5.288  12.394  1.00  0.00     0.010 A 
ATOM    113  C   UNL     1       5.723   5.514  12.008  1.00  0.00     0.001 A 
ENDBRANCH  99 102
ENDBRANCH  97  98
ENDBRANCH  96  97
ENDBRANCH  88  91
ENDBRANCH  80  87
ENDBRANCH  78  80
ENDBRANCH  77  78
ENDBRANCH  76  77
ENDBRANCH  75  76
ENDBRANCH   1  75
TORSDOF 23
