REMARK SMILES O=C(CCc1cccnc1)Nc1ccsc1C(=O)OCCOCCOCCOC(=O)c1ccc(-c2c3nc(c(-c4c(F)c(F)c(F)c(F)c4F)c4ccc([nH]4)c(-c4c(F)c(F)c(F)c(F)c4F)c4nc(c(-c5c(F)c(F)c(F)c(F)c5F)c5ccc2[nH]5)C=C4)C=C3)cc1
REMARK SMILES IDX 23 1 22 2 21 3 20 4 19 5 17 6 18 7 16 8 12 9 13 10 14 11
REMARK SMILES IDX 15 12 11 13 1 14 2 15 3 17 4 18 5 19 6 20 10 21 7 22 9 23
REMARK SMILES IDX 8 24 24 25 25 26 26 27 27 28 28 29 29 30 30 31 31 32 32 33
REMARK SMILES IDX 93 34 33 35 92 36 34 37 35 38 36 39 86 40 37 41 91 42 85 43
REMARK SMILES IDX 87 44 38 45 90 46 84 47 83 48 39 50 71 51 51 52 70 53 52 54
REMARK SMILES IDX 55 55 69 56 88 57 53 58 54 59 68 61 89 62 56 63 40 64 41 65
REMARK SMILES IDX 49 66 42 67 43 68 47 69 50 70 44 71 45 72 48 73 46 74 72 75
REMARK SMILES IDX 73 76 81 77 74 78 75 79 79 80 82 81 76 82 77 83 80 84 78 85
REMARK SMILES IDX 57 86 58 87 66 88 59 89 60 90 64 91 67 92 61 93 62 94 65 95
REMARK SMILES IDX 63 96
REMARK H PARENT 11 16 87 49 55 60
REMARK Flexibility Score: inf
ROOT
ATOM      1  C   UNL     1       3.329   0.768  -5.703  1.00  0.00     0.188 C 
ENDROOT
BRANCH   1   2
ATOM      2  O   UNL     1       4.635   0.509  -6.201  1.00  0.00    -0.376 OA
BRANCH   2   3
ATOM      3  C   UNL     1       5.666   0.172  -5.279  1.00  0.00     0.202 C 
BRANCH   3   4
ATOM      4  C   UNL     1       5.952   1.190  -4.173  1.00  0.00     0.261 C 
BRANCH   4   5
ATOM      5  O   UNL     1       4.819   1.401  -3.306  1.00  0.00    -0.459 OA
BRANCH   5   6
ATOM      6  C   UNL     1       4.561   2.711  -3.008  1.00  0.00     0.350 C 
ATOM      7  O   UNL     1       5.344   3.628  -3.231  1.00  0.00    -0.245 OA
BRANCH   6   8
ATOM      8  C   UNL     1       3.206   2.864  -2.506  1.00  0.00     0.136 A 
ATOM      9  C   UNL     1       2.419   2.072  -1.675  1.00  0.00     0.066 A 
ATOM     10  C   UNL     1       1.125   2.659  -1.484  1.00  0.00     0.039 A 
ATOM     11  C   UNL     1       0.964   3.846  -2.159  1.00  0.00     0.068 A 
ATOM     12  S   UNL     1       2.367   4.282  -3.012  1.00  0.00    -0.135 S 
BRANCH   9  13
ATOM     13  N   UNL     1       2.882   0.895  -1.083  1.00  0.00    -0.325 N 
ATOM     14  O   UNL     1       0.978   0.234   0.064  1.00  0.00    -0.275 OA
ATOM     15  C   UNL     1       2.182   0.130  -0.170  1.00  0.00     0.224 C 
ATOM     16  H   UNL     1       3.781   0.585  -1.336  1.00  0.00     0.169 HD
BRANCH  15  17
ATOM     17  C   UNL     1       3.021  -0.799   0.702  1.00  0.00     0.105 C 
BRANCH  17  18
ATOM     18  C   UNL     1       4.152  -1.575   0.034  1.00  0.00     0.047 C 
BRANCH  18  19
ATOM     19  C   UNL     1       5.438  -0.845  -0.274  1.00  0.00    -0.029 A 
ATOM     20  C   UNL     1       5.757   0.439   0.179  1.00  0.00     0.007 A 
ATOM     21  C   UNL     1       6.389  -1.482  -1.071  1.00  0.00     0.114 A 
ATOM     22  C   UNL     1       6.945   1.044  -0.220  1.00  0.00     0.020 A 
ATOM     23  N   UNL     1       7.558  -0.926  -1.459  1.00  0.00    -0.264 NA
ATOM     24  C   UNL     1       7.809   0.326  -1.026  1.00  0.00     0.111 A 
ENDBRANCH  18  19
ENDBRANCH  17  18
ENDBRANCH  15  17
ENDBRANCH   9  13
ENDBRANCH   6   8
ENDBRANCH   5   6
ENDBRANCH   4   5
ENDBRANCH   3   4
ENDBRANCH   2   3
ENDBRANCH   1   2
BRANCH   1  25
ATOM     25  C   UNL     1       2.690  -0.215  -4.702  1.00  0.00     0.188 C 
BRANCH  25  26
ATOM     26  O   UNL     1       3.416  -1.417  -4.494  1.00  0.00    -0.376 OA
BRANCH  26  27
ATOM     27  C   UNL     1       2.755  -2.606  -4.913  1.00  0.00     0.202 C 
BRANCH  27  28
ATOM     28  C   UNL     1       2.783  -2.825  -6.429  1.00  0.00     0.261 C 
BRANCH  28  29
ATOM     29  O   UNL     1       2.146  -1.790  -7.196  1.00  0.00    -0.460 OA
BRANCH  29  30
ATOM     30  C   UNL     1       0.807  -1.650  -7.063  1.00  0.00     0.338 C 
ATOM     31  O   UNL     1       0.059  -2.317  -6.375  1.00  0.00    -0.246 OA
BRANCH  30  32
ATOM     32  C   UNL     1       0.435  -0.398  -7.754  1.00  0.00     0.060 A 
ATOM     33  C   UNL     1      -0.210   0.614  -7.031  1.00  0.00     0.016 A 
ATOM     34  C   UNL     1       0.793  -0.197  -9.089  1.00  0.00     0.016 A 
ATOM     35  C   UNL     1      -0.482   1.841  -7.643  1.00  0.00     0.010 A 
ATOM     36  C   UNL     1       0.496   1.019  -9.706  1.00  0.00     0.010 A 
ATOM     37  C   UNL     1      -0.145   2.043  -8.989  1.00  0.00    -0.014 A 
BRANCH  37  38
ATOM     38  C   UNL     1      -0.559   3.273  -9.703  1.00  0.00     0.031 A 
ATOM     39  C   UNL     1      -1.879   3.285 -10.417  1.00  0.00     0.074 A 
ATOM     40  C   UNL     1       0.251   4.345  -9.764  1.00  0.00     0.049 A 
ATOM     41  N   UNL     1      -2.394   4.200 -11.196  1.00  0.00    -0.248 NA
ATOM     42  C   UNL     1      -2.732   2.101 -10.227  1.00  0.00     0.031 C 
ATOM     43  C   UNL     1       1.542   4.469  -9.091  1.00  0.00     0.029 A 
ATOM     44  N   UNL     1       0.112   5.527 -10.450  1.00  0.00    -0.354 N 
ATOM     45  C   UNL     1      -3.630   3.707 -11.587  1.00  0.00     0.074 A 
ATOM     46  C   UNL     1      -3.781   2.403 -10.977  1.00  0.00     0.031 C 
ATOM     47  C   UNL     1       2.091   5.652  -9.420  1.00  0.00     0.029 A 
ATOM     48  C   UNL     1       1.207   6.350 -10.353  1.00  0.00     0.049 A 
ATOM     49  H   UNL     1      -0.696   5.762 -10.961  1.00  0.00     0.167 HD
ATOM     50  C   UNL     1      -4.557   4.291 -12.382  1.00  0.00     0.037 A 
ATOM     51  C   UNL     1       1.478   7.513 -10.977  1.00  0.00     0.037 A 
ATOM     52  C   UNL     1      -4.401   5.577 -13.005  1.00  0.00     0.049 A 
ATOM     53  C   UNL     1       0.477   8.089 -11.947  1.00  0.00     0.074 A 
ATOM     54  C   UNL     1      -5.302   6.268 -13.794  1.00  0.00     0.029 A 
ATOM     55  N   UNL     1      -3.257   6.355 -12.926  1.00  0.00    -0.354 N 
ATOM     56  N   UNL     1      -0.709   7.640 -12.278  1.00  0.00    -0.248 NA
ATOM     57  C   UNL     1       0.861   9.328 -12.642  1.00  0.00     0.031 C 
ATOM     58  C   UNL     1      -4.684   7.443 -14.235  1.00  0.00     0.029 A 
ATOM     59  C   UNL     1      -3.413   7.502 -13.687  1.00  0.00     0.049 A 
ATOM     60  H   UNL     1      -2.453   6.127 -12.406  1.00  0.00     0.167 HD
ATOM     61  C   UNL     1      -1.217   8.543 -13.203  1.00  0.00     0.074 A 
ATOM     62  C   UNL     1      -0.217   9.575 -13.373  1.00  0.00     0.031 C 
ATOM     63  C   UNL     1      -2.405   8.517 -13.855  1.00  0.00     0.037 A 
BRANCH  50  64
ATOM     64  C   UNL     1      -5.817   3.525 -12.643  1.00  0.00     0.064 A 
ATOM     65  C   UNL     1      -6.811   3.397 -11.662  1.00  0.00     0.173 A 
ATOM     66  C   UNL     1      -6.045   2.941 -13.896  1.00  0.00     0.173 A 
ATOM     67  F   UNL     1      -6.629   3.926 -10.443  1.00  0.00    -0.203 F 
ATOM     68  C   UNL     1      -7.983   2.692 -11.922  1.00  0.00     0.198 A 
ATOM     69  C   UNL     1      -7.228   2.256 -14.160  1.00  0.00     0.198 A 
ATOM     70  F   UNL     1      -5.123   3.037 -14.866  1.00  0.00    -0.203 F 
ATOM     71  F   UNL     1      -8.905   2.549 -10.960  1.00  0.00    -0.200 F 
ATOM     72  C   UNL     1      -8.193   2.128 -13.172  1.00  0.00     0.200 A 
ATOM     73  F   UNL     1      -7.432   1.716 -15.370  1.00  0.00    -0.200 F 
ATOM     74  F   UNL     1      -9.323   1.453 -13.422  1.00  0.00    -0.200 F 
ENDBRANCH  50  64
BRANCH  51  75
ATOM     75  C   UNL     1       2.775   8.200 -10.742  1.00  0.00     0.064 A 
ATOM     76  C   UNL     1       2.833   9.416 -10.050  1.00  0.00     0.173 A 
ATOM     77  C   UNL     1       3.976   7.670 -11.236  1.00  0.00     0.173 A 
ATOM     78  F   UNL     1       1.706   9.980  -9.591  1.00  0.00    -0.203 F 
ATOM     79  C   UNL     1       4.043  10.083  -9.869  1.00  0.00     0.198 A 
ATOM     80  C   UNL     1       5.189   8.326 -11.033  1.00  0.00     0.198 A 
ATOM     81  F   UNL     1       3.971   6.515 -11.918  1.00  0.00    -0.203 F 
ATOM     82  F   UNL     1       4.066  11.268  -9.243  1.00  0.00    -0.200 F 
ATOM     83  C   UNL     1       5.220   9.535 -10.356  1.00  0.00     0.200 A 
ATOM     84  F   UNL     1       6.324   7.792 -11.504  1.00  0.00    -0.200 F 
ATOM     85  F   UNL     1       6.383  10.179 -10.184  1.00  0.00    -0.200 F 
ENDBRANCH  51  75
BRANCH  63  86
ATOM     86  C   UNL     1      -2.697   9.636 -14.810  1.00  0.00     0.064 A 
ATOM     87  C   UNL     1      -2.083   9.700 -16.068  1.00  0.00     0.173 A 
ATOM     88  C   UNL     1      -3.646  10.619 -14.490  1.00  0.00     0.173 A 
ATOM     89  F   UNL     1      -1.157   8.791 -16.414  1.00  0.00    -0.203 F 
ATOM     90  C   UNL     1      -2.399  10.714 -16.968  1.00  0.00     0.198 A 
ATOM     91  C   UNL     1      -3.978  11.617 -15.401  1.00  0.00     0.198 A 
ATOM     92  F   UNL     1      -4.266  10.598 -13.300  1.00  0.00    -0.203 F 
ATOM     93  F   UNL     1      -1.778  10.773 -18.154  1.00  0.00    -0.200 F 
ATOM     94  C   UNL     1      -3.352  11.666 -16.638  1.00  0.00     0.200 A 
ATOM     95  F   UNL     1      -4.907  12.530 -15.085  1.00  0.00    -0.200 F 
ATOM     96  F   UNL     1      -3.665  12.634 -17.511  1.00  0.00    -0.200 F 
ENDBRANCH  63  86
ENDBRANCH  37  38
ENDBRANCH  30  32
ENDBRANCH  29  30
ENDBRANCH  28  29
ENDBRANCH  27  28
ENDBRANCH  26  27
ENDBRANCH  25  26
ENDBRANCH   1  25
TORSDOF 21
