REMARK SMILES Cc1cc(=O)cc(C)n1-c1ccc(Cl)cc1C(=O)OCCOCCOCCOC(=O)c1ccc(-c2c3nc(c(-c4c(F)c(F)c(F)c(F)c4F)c4ccc([nH]4)c(-c4c(F)c(F)c(F)c(F)c4F)c4nc(c(-c5c(F)c(F)c(F)c(F)c5F)c5ccc2[nH]5)C=C4)C=C3)cc1
REMARK SMILES IDX 24 1 23 2 22 3 21 4 20 5 19 6 17 7 18 8 16 9 10 10 11 11
REMARK SMILES IDX 12 12 15 13 13 14 14 15 9 16 1 17 2 18 3 19 4 20 7 21 5 22
REMARK SMILES IDX 6 23 8 24 25 25 26 26 27 27 28 28 29 29 30 30 31 31 32 32
REMARK SMILES IDX 93 33 33 34 92 35 34 36 35 37 36 38 86 39 37 40 91 41 85 42
REMARK SMILES IDX 87 43 38 44 90 45 84 46 83 47 39 49 71 50 51 51 70 52 52 53
REMARK SMILES IDX 55 54 69 55 88 56 53 57 54 58 68 60 89 61 56 62 40 63 41 64
REMARK SMILES IDX 49 65 42 66 43 67 47 68 50 69 44 70 45 71 48 72 46 73 72 74
REMARK SMILES IDX 73 75 81 76 74 77 75 78 79 79 82 80 76 81 77 82 80 83 78 84
REMARK SMILES IDX 57 85 58 86 66 87 59 88 60 89 64 90 67 91 61 92 62 93 65 94
REMARK SMILES IDX 63 95
REMARK H PARENT 87 48 55 59
REMARK Flexibility Score: inf
ROOT
ATOM      1  C   UNL     1       3.881   2.992  -2.782  1.00  0.00     0.188 C 
ENDROOT
BRANCH   1   2
ATOM      2  C   UNL     1       5.003   2.515  -1.831  1.00  0.00     0.188 C 
BRANCH   2   3
ATOM      3  O   UNL     1       5.765   1.387  -2.187  1.00  0.00    -0.376 OA
BRANCH   3   4
ATOM      4  C   UNL     1       5.223   0.080  -2.098  1.00  0.00     0.202 C 
BRANCH   4   5
ATOM      5  C   UNL     1       3.927  -0.284  -1.361  1.00  0.00     0.261 C 
BRANCH   5   6
ATOM      6  O   UNL     1       2.933   0.737  -1.267  1.00  0.00    -0.460 OA
BRANCH   6   7
ATOM      7  C   UNL     1       2.686   1.200  -0.019  1.00  0.00     0.340 C 
ATOM      8  O   UNL     1       3.274   0.876   1.002  1.00  0.00    -0.246 OA
BRANCH   7   9
ATOM      9  C   UNL     1       1.692   2.299  -0.027  1.00  0.00     0.085 A 
ATOM     10  C   UNL     1       0.491   2.296  -0.772  1.00  0.00     0.060 A 
ATOM     11  C   UNL     1      -0.363   3.413  -0.624  1.00  0.00     0.029 A 
ATOM     12  C   UNL     1      -0.005   4.516   0.159  1.00  0.00     0.023 A 
ATOM     13  C   UNL     1       2.043   3.408   0.768  1.00  0.00     0.038 A 
ATOM     14  C   UNL     1       1.206   4.515   0.837  1.00  0.00     0.042 A 
ATOM     15  Cl  UNL     1       1.684   5.890   1.751  1.00  0.00    -0.084 Cl
BRANCH  10  16
ATOM     16  N   UNL     1       0.107   1.248  -1.679  1.00  0.00    -0.317 N 
ATOM     17  C   UNL     1       0.078  -0.468   0.223  1.00  0.00     0.065 C 
ATOM     18  C   UNL     1      -0.029  -0.096  -1.238  1.00  0.00     0.024 A 
ATOM     19  C   UNL     1      -0.298  -1.105  -2.088  1.00  0.00     0.073 A 
ATOM     20  C   UNL     1      -0.481  -0.833  -3.522  1.00  0.00     0.182 A 
ATOM     21  C   UNL     1      -0.103   1.533  -3.061  1.00  0.00     0.024 A 
ATOM     22  O   UNL     1      -0.717  -1.734  -4.317  1.00  0.00    -0.290 OA
ATOM     23  C   UNL     1      -0.385   0.568  -3.957  1.00  0.00     0.073 A 
ATOM     24  C   UNL     1       0.021   2.932  -3.628  1.00  0.00     0.065 C 
ENDBRANCH  10  16
ENDBRANCH   7   9
ENDBRANCH   6   7
ENDBRANCH   5   6
ENDBRANCH   4   5
ENDBRANCH   3   4
ENDBRANCH   2   3
ENDBRANCH   1   2
BRANCH   1  25
ATOM     25  O   UNL     1       3.586   2.293  -3.974  1.00  0.00    -0.376 OA
BRANCH  25  26
ATOM     26  C   UNL     1       4.634   2.035  -4.895  1.00  0.00     0.202 C 
BRANCH  26  27
ATOM     27  C   UNL     1       5.641   3.131  -5.289  1.00  0.00     0.261 C 
BRANCH  27  28
ATOM     28  O   UNL     1       6.210   3.874  -4.198  1.00  0.00    -0.460 OA
BRANCH  28  29
ATOM     29  C   UNL     1       5.869   5.190  -4.136  1.00  0.00     0.338 C 
ATOM     30  O   UNL     1       5.176   5.813  -4.911  1.00  0.00    -0.246 OA
BRANCH  29  31
ATOM     31  C   UNL     1       6.298   5.728  -2.825  1.00  0.00     0.060 A 
ATOM     32  C   UNL     1       5.311   6.117  -1.907  1.00  0.00     0.016 A 
ATOM     33  C   UNL     1       7.650   5.846  -2.502  1.00  0.00     0.016 A 
ATOM     34  C   UNL     1       5.673   6.612  -0.655  1.00  0.00     0.010 A 
ATOM     35  C   UNL     1       8.013   6.384  -1.261  1.00  0.00     0.010 A 
ATOM     36  C   UNL     1       7.027   6.785  -0.341  1.00  0.00    -0.014 A 
BRANCH  36  37
ATOM     37  C   UNL     1       7.385   7.584   0.857  1.00  0.00     0.031 A 
ATOM     38  C   UNL     1       7.606   9.060   0.682  1.00  0.00     0.074 A 
ATOM     39  C   UNL     1       7.448   7.033   2.082  1.00  0.00     0.049 A 
ATOM     40  N   UNL     1       7.873   9.974   1.579  1.00  0.00    -0.248 NA
ATOM     41  C   UNL     1       7.507   9.576  -0.694  1.00  0.00     0.031 C 
ATOM     42  C   UNL     1       7.212   5.626   2.389  1.00  0.00     0.029 A 
ATOM     43  N   UNL     1       7.723   7.604   3.301  1.00  0.00    -0.354 N 
ATOM     44  C   UNL     1       7.955  11.170   0.880  1.00  0.00     0.074 A 
ATOM     45  C   UNL     1       7.764  10.863  -0.520  1.00  0.00     0.031 C 
ATOM     46  C   UNL     1       7.346   5.441   3.714  1.00  0.00     0.029 A 
ATOM     47  C   UNL     1       7.699   6.714   4.347  1.00  0.00     0.049 A 
ATOM     48  H   UNL     1       7.919   8.562   3.415  1.00  0.00     0.167 HD
ATOM     49  C   UNL     1       8.148  12.418   1.364  1.00  0.00     0.037 A 
ATOM     50  C   UNL     1       7.939   6.906   5.660  1.00  0.00     0.037 A 
ATOM     51  C   UNL     1       8.347  12.724   2.754  1.00  0.00     0.049 A 
ATOM     52  C   UNL     1       8.265   8.292   6.163  1.00  0.00     0.074 A 
ATOM     53  C   UNL     1       8.539  13.961   3.341  1.00  0.00     0.029 A 
ATOM     54  N   UNL     1       8.392  11.783   3.772  1.00  0.00    -0.354 N 
ATOM     55  N   UNL     1       8.294   9.425   5.505  1.00  0.00    -0.248 NA
ATOM     56  C   UNL     1       8.592   8.426   7.592  1.00  0.00     0.031 C 
ATOM     57  C   UNL     1       8.760  13.765   4.706  1.00  0.00     0.029 A 
ATOM     58  C   UNL     1       8.649  12.410   4.979  1.00  0.00     0.049 A 
ATOM     59  H   UNL     1       8.260  10.815   3.653  1.00  0.00     0.167 HD
ATOM     60  C   UNL     1       8.620  10.404   6.436  1.00  0.00     0.074 A 
ATOM     61  C   UNL     1       8.766   9.737   7.711  1.00  0.00     0.031 C 
ATOM     62  C   UNL     1       8.786  11.736   6.246  1.00  0.00     0.037 A 
BRANCH  49  63
ATOM     63  C   UNL     1       8.160  13.550   0.381  1.00  0.00     0.064 A 
ATOM     64  C   UNL     1       6.986  13.972  -0.262  1.00  0.00     0.173 A 
ATOM     65  C   UNL     1       9.344  14.252   0.116  1.00  0.00     0.173 A 
ATOM     66  F   UNL     1       5.830  13.323  -0.052  1.00  0.00    -0.203 F 
ATOM     67  C   UNL     1       7.003  15.043  -1.149  1.00  0.00     0.198 A 
ATOM     68  C   UNL     1       9.351  15.343  -0.748  1.00  0.00     0.198 A 
ATOM     69  F   UNL     1      10.493  13.891   0.708  1.00  0.00    -0.203 F 
ATOM     70  F   UNL     1       5.878  15.403  -1.784  1.00  0.00    -0.200 F 
ATOM     71  C   UNL     1       8.182  15.734  -1.385  1.00  0.00     0.200 A 
ATOM     72  F   UNL     1      10.488  16.018  -0.964  1.00  0.00    -0.200 F 
ATOM     73  F   UNL     1       8.193  16.775  -2.228  1.00  0.00    -0.200 F 
ENDBRANCH  49  63
BRANCH  50  74
ATOM     74  C   UNL     1       7.867   5.755   6.601  1.00  0.00     0.064 A 
ATOM     75  C   UNL     1       6.852   5.673   7.564  1.00  0.00     0.173 A 
ATOM     76  C   UNL     1       8.806   4.714   6.554  1.00  0.00     0.173 A 
ATOM     77  F   UNL     1       5.949   6.659   7.670  1.00  0.00    -0.203 F 
ATOM     78  C   UNL     1       6.780   4.596   8.446  1.00  0.00     0.198 A 
ATOM     79  C   UNL     1       8.718   3.624   7.418  1.00  0.00     0.198 A 
ATOM     80  F   UNL     1       9.804   4.748   5.659  1.00  0.00    -0.203 F 
ATOM     81  F   UNL     1       5.820   4.560   9.380  1.00  0.00    -0.200 F 
ATOM     82  C   UNL     1       7.707   3.567   8.366  1.00  0.00     0.200 A 
ATOM     83  F   UNL     1       9.611   2.629   7.333  1.00  0.00    -0.200 F 
ATOM     84  F   UNL     1       7.631   2.526   9.206  1.00  0.00    -0.200 F 
ENDBRANCH  50  74
BRANCH  62  85
ATOM     85  C   UNL     1       9.145  12.587   7.430  1.00  0.00     0.064 A 
ATOM     86  C   UNL     1      10.438  12.568   7.973  1.00  0.00     0.173 A 
ATOM     87  C   UNL     1       8.236  13.533   7.931  1.00  0.00     0.173 A 
ATOM     88  F   UNL     1      11.341  11.678   7.535  1.00  0.00    -0.203 F 
ATOM     89  C   UNL     1      10.809  13.469   8.968  1.00  0.00     0.198 A 
ATOM     90  C   UNL     1       8.619  14.450   8.906  1.00  0.00     0.198 A 
ATOM     91  F   UNL     1       6.990  13.600   7.438  1.00  0.00    -0.203 F 
ATOM     92  F   UNL     1      12.047  13.426   9.479  1.00  0.00    -0.200 F 
ATOM     93  C   UNL     1       9.906  14.418   9.422  1.00  0.00     0.200 A 
ATOM     94  F   UNL     1       7.752  15.381   9.327  1.00  0.00    -0.200 F 
ATOM     95  F   UNL     1      10.277  15.308  10.353  1.00  0.00    -0.200 F 
ENDBRANCH  62  85
ENDBRANCH  36  37
ENDBRANCH  29  31
ENDBRANCH  28  29
ENDBRANCH  27  28
ENDBRANCH  26  27
ENDBRANCH  25  26
ENDBRANCH   1  25
TORSDOF 18
