REMARK SMILES N#C[C@H]1CN(c2cc(C(=O)OCCOCCOCCOC(=O)c3ccc(-c4c5nc(c(-c6c(F)c(F)c(F)c(F)c6F)c6ccc([nH]6)c(-c6c(F)c(F)c(F)c(F)c6F)c6nc(c(-c7c(F)c(F)c(F)c(F)c7F)c7ccc4[nH]7)C=C6)C=C5)cc3)c(N)cc2F)CCO1
REMARK SMILES IDX 15 1 14 2 13 3 12 4 11 5 9 6 10 7 8 8 6 9 7 10 89 11 88 12
REMARK SMILES IDX 90 13 86 14 5 15 3 16 4 17 93 18 92 19 91 20 2 21 1 22 87 23
REMARK SMILES IDX 16 26 17 27 18 28 19 29 20 30 21 31 22 32 23 33 24 34 85 35
REMARK SMILES IDX 25 36 84 37 26 38 27 39 28 40 78 41 29 42 83 43 77 44 79 45
REMARK SMILES IDX 30 46 82 47 76 48 75 49 31 51 63 52 43 53 62 54 44 55 47 56
REMARK SMILES IDX 61 57 80 58 45 59 46 60 60 62 81 63 48 64 32 65 33 66 41 67
REMARK SMILES IDX 34 68 35 69 39 70 42 71 36 72 37 73 40 74 38 75 64 76 65 77
REMARK SMILES IDX 73 78 66 79 67 80 71 81 74 82 68 83 69 84 72 85 70 86 49 87
REMARK SMILES IDX 50 88 58 89 51 90 52 91 56 92 59 93 53 94 54 95 57 96 55 97
REMARK H PARENT 87 24 87 25 79 50 47 61
REMARK Flexibility Score: inf
ROOT
ATOM      1  C   UNL     1       3.924   6.083  -3.447  1.00  0.00     0.188 C 
ENDROOT
BRANCH   1   2
ATOM      2  O   UNL     1       4.517   7.194  -4.090  1.00  0.00    -0.376 OA
BRANCH   2   3
ATOM      3  C   UNL     1       4.287   7.437  -5.470  1.00  0.00     0.202 C 
BRANCH   3   4
ATOM      4  C   UNL     1       4.024   6.328  -6.510  1.00  0.00     0.261 C 
BRANCH   4   5
ATOM      5  O   UNL     1       3.285   5.182  -6.067  1.00  0.00    -0.460 OA
BRANCH   5   6
ATOM      6  C   UNL     1       3.997   4.034  -5.916  1.00  0.00     0.340 C 
ATOM      7  O   UNL     1       5.186   3.890  -6.151  1.00  0.00    -0.246 OA
BRANCH   6   8
ATOM      8  C   UNL     1       3.190   3.006  -5.201  1.00  0.00     0.085 A 
ATOM      9  C   UNL     1       3.235   1.245  -3.497  1.00  0.00     0.074 A 
ATOM     10  C   UNL     1       3.866   2.275  -4.197  1.00  0.00     0.047 A 
ATOM     11  C   UNL     1       1.911   0.952  -3.849  1.00  0.00     0.148 A 
ATOM     12  C   UNL     1       1.217   1.693  -4.807  1.00  0.00     0.067 A 
ATOM     13  F   UNL     1       1.276  -0.065  -3.243  1.00  0.00    -0.205 F 
ATOM     14  C   UNL     1       1.825   2.773  -5.455  1.00  0.00     0.049 A 
BRANCH   9  15
ATOM     15  N   UNL     1       3.919   0.511  -2.555  1.00  0.00    -0.363 N 
ATOM     16  C   UNL     1       3.741  -0.048  -0.141  1.00  0.00     0.240 C 
ATOM     17  C   UNL     1       4.181   1.001  -1.196  1.00  0.00     0.164 C 
ATOM     18  O   UNL     1       4.285  -1.353  -0.448  1.00  0.00    -0.360 OA
ATOM     19  C   UNL     1       3.816  -1.799  -1.731  1.00  0.00     0.183 C 
ATOM     20  C   UNL     1       4.302  -0.870  -2.851  1.00  0.00     0.145 C 
BRANCH  16  21
ATOM     21  C   UNL     1       4.166   0.377   1.202  1.00  0.00     0.096 C 
ATOM     22  N   UNL     1       4.463   0.751   2.264  1.00  0.00    -0.195 NA
ENDBRANCH  16  21
ENDBRANCH   9  15
BRANCH  14  23
ATOM     23  N   UNL     1       1.095   3.477  -6.410  1.00  0.00    -0.398 N 
ATOM     24  H   UNL     1       1.505   4.241  -6.878  1.00  0.00     0.156 HD
ATOM     25  H   UNL     1       0.170   3.212  -6.617  1.00  0.00     0.156 HD
ENDBRANCH  14  23
ENDBRANCH   6   8
ENDBRANCH   5   6
ENDBRANCH   4   5
ENDBRANCH   3   4
ENDBRANCH   2   3
ENDBRANCH   1   2
BRANCH   1  26
ATOM     26  C   UNL     1       2.387   5.951  -3.424  1.00  0.00     0.188 C 
BRANCH  26  27
ATOM     27  O   UNL     1       1.684   6.804  -4.293  1.00  0.00    -0.376 OA
BRANCH  27  28
ATOM     28  C   UNL     1       1.350   8.114  -3.863  1.00  0.00     0.202 C 
BRANCH  28  29
ATOM     29  C   UNL     1       1.833   8.803  -2.563  1.00  0.00     0.261 C 
BRANCH  29  30
ATOM     30  O   UNL     1       2.747   8.115  -1.699  1.00  0.00    -0.460 OA
BRANCH  30  31
ATOM     31  C   UNL     1       2.204   7.522  -0.607  1.00  0.00     0.338 C 
ATOM     32  O   UNL     1       1.025   7.479  -0.303  1.00  0.00    -0.246 OA
BRANCH  31  33
ATOM     33  C   UNL     1       3.242   6.726   0.083  1.00  0.00     0.060 A 
ATOM     34  C   UNL     1       3.147   5.329   0.042  1.00  0.00     0.016 A 
ATOM     35  C   UNL     1       4.261   7.340   0.812  1.00  0.00     0.016 A 
ATOM     36  C   UNL     1       4.059   4.546   0.746  1.00  0.00     0.010 A 
ATOM     37  C   UNL     1       5.169   6.549   1.530  1.00  0.00     0.010 A 
ATOM     38  C   UNL     1       5.059   5.147   1.519  1.00  0.00    -0.014 A 
BRANCH  38  39
ATOM     39  C   UNL     1       5.878   4.291   2.417  1.00  0.00     0.031 A 
ATOM     40  C   UNL     1       5.539   4.229   3.881  1.00  0.00     0.074 A 
ATOM     41  C   UNL     1       6.859   3.514   1.924  1.00  0.00     0.049 A 
ATOM     42  N   UNL     1       6.112   3.553   4.846  1.00  0.00    -0.248 NA
ATOM     43  C   UNL     1       4.402   5.052   4.317  1.00  0.00     0.031 C 
ATOM     44  C   UNL     1       7.249   3.436   0.518  1.00  0.00     0.029 A 
ATOM     45  N   UNL     1       7.697   2.630   2.556  1.00  0.00    -0.354 N 
ATOM     46  C   UNL     1       5.399   3.861   5.998  1.00  0.00     0.074 A 
ATOM     47  C   UNL     1       4.392   4.830   5.623  1.00  0.00     0.031 C 
ATOM     48  C   UNL     1       8.246   2.543   0.393  1.00  0.00     0.029 A 
ATOM     49  C   UNL     1       8.591   2.018   1.713  1.00  0.00     0.049 A 
ATOM     50  H   UNL     1       7.661   2.451   3.523  1.00  0.00     0.167 HD
ATOM     51  C   UNL     1       5.562   3.371   7.252  1.00  0.00     0.037 A 
ATOM     52  C   UNL     1       9.586   1.150   1.982  1.00  0.00     0.037 A 
ATOM     53  C   UNL     1       6.568   2.408   7.623  1.00  0.00     0.049 A 
ATOM     54  C   UNL     1       9.813   0.698   3.403  1.00  0.00     0.074 A 
ATOM     55  C   UNL     1       6.818   1.854   8.867  1.00  0.00     0.029 A 
ATOM     56  N   UNL     1       7.497   1.857   6.750  1.00  0.00    -0.354 N 
ATOM     57  N   UNL     1       9.143   0.996   4.490  1.00  0.00    -0.248 NA
ATOM     58  C   UNL     1      10.939  -0.218   3.630  1.00  0.00     0.031 C 
ATOM     59  C   UNL     1       7.948   1.036   8.765  1.00  0.00     0.029 A 
ATOM     60  C   UNL     1       8.352   1.008   7.440  1.00  0.00     0.049 A 
ATOM     61  H   UNL     1       7.543   2.041   5.784  1.00  0.00     0.167 HD
ATOM     62  C   UNL     1       9.742   0.280   5.520  1.00  0.00     0.074 A 
ATOM     63  C   UNL     1      10.816  -0.484   4.922  1.00  0.00     0.031 C 
ATOM     64  C   UNL     1       9.430   0.258   6.841  1.00  0.00     0.037 A 
BRANCH  51  65
ATOM     65  C   UNL     1       4.660   3.915   8.327  1.00  0.00     0.064 A 
ATOM     66  C   UNL     1       3.278   3.663   8.343  1.00  0.00     0.173 A 
ATOM     67  C   UNL     1       5.190   4.700   9.363  1.00  0.00     0.173 A 
ATOM     68  F   UNL     1       2.712   2.930   7.373  1.00  0.00    -0.203 F 
ATOM     69  C   UNL     1       2.459   4.212   9.328  1.00  0.00     0.198 A 
ATOM     70  C   UNL     1       4.375   5.213  10.368  1.00  0.00     0.198 A 
ATOM     71  F   UNL     1       6.504   4.970   9.405  1.00  0.00    -0.203 F 
ATOM     72  F   UNL     1       1.134   4.017   9.281  1.00  0.00    -0.200 F 
ATOM     73  C   UNL     1       3.009   4.981  10.342  1.00  0.00     0.200 A 
ATOM     74  F   UNL     1       4.912   5.939  11.358  1.00  0.00    -0.200 F 
ATOM     75  F   UNL     1       2.220   5.507  11.290  1.00  0.00    -0.200 F 
ENDBRANCH  51  65
BRANCH  52  76
ATOM     76  C   UNL     1      10.461   0.658   0.883  1.00  0.00     0.064 A 
ATOM     77  C   UNL     1      10.471  -0.693   0.510  1.00  0.00     0.173 A 
ATOM     78  C   UNL     1      11.325   1.527   0.199  1.00  0.00     0.173 A 
ATOM     79  F   UNL     1       9.687  -1.572   1.151  1.00  0.00    -0.203 F 
ATOM     80  C   UNL     1      11.323  -1.159  -0.490  1.00  0.00     0.198 A 
ATOM     81  C   UNL     1      12.150   1.067  -0.825  1.00  0.00     0.198 A 
ATOM     82  F   UNL     1      11.363   2.829   0.519  1.00  0.00    -0.203 F 
ATOM     83  F   UNL     1      11.351  -2.465  -0.788  1.00  0.00    -0.200 F 
ATOM     84  C   UNL     1      12.156  -0.277  -1.162  1.00  0.00     0.200 A 
ATOM     85  F   UNL     1      12.943   1.926  -1.481  1.00  0.00    -0.200 F 
ATOM     86  F   UNL     1      12.970  -0.725  -2.128  1.00  0.00    -0.200 F 
ENDBRANCH  52  76
BRANCH  64  87
ATOM     87  C   UNL     1      10.244  -0.651   7.725  1.00  0.00     0.064 A 
ATOM     88  C   UNL     1      11.611  -0.430   7.963  1.00  0.00     0.173 A 
ATOM     89  C   UNL     1       9.651  -1.766   8.340  1.00  0.00     0.173 A 
ATOM     90  F   UNL     1      12.235   0.615   7.398  1.00  0.00    -0.203 F 
ATOM     91  C   UNL     1      12.361  -1.320   8.729  1.00  0.00     0.198 A 
ATOM     92  C   UNL     1      10.394  -2.627   9.143  1.00  0.00     0.198 A 
ATOM     93  F   UNL     1       8.346  -2.022   8.165  1.00  0.00    -0.203 F 
ATOM     94  F   UNL     1      13.681  -1.132   8.868  1.00  0.00    -0.200 F 
ATOM     95  C   UNL     1      11.752  -2.415   9.322  1.00  0.00     0.200 A 
ATOM     96  F   UNL     1       9.798  -3.672   9.735  1.00  0.00    -0.200 F 
ATOM     97  F   UNL     1      12.476  -3.272  10.054  1.00  0.00    -0.200 F 
ENDBRANCH  64  87
ENDBRANCH  38  39
ENDBRANCH  31  33
ENDBRANCH  30  31
ENDBRANCH  29  30
ENDBRANCH  28  29
ENDBRANCH  27  28
ENDBRANCH  26  27
ENDBRANCH   1  26
TORSDOF 20
