REMARK SMILES Cc1cc2c(c(C)c1Br)C=C(C(=O)OCCOCCOCCOC(=O)c1ccc(-c3c4nc(c(-c5c(F)c(F)c(F)c(F)c5F)c5ccc([nH]5)c(-c5c(F)c(F)c(F)c(F)c5F)c5nc(c(-c6c(F)c(F)c(F)c(F)c6F)c6ccc3[nH]6)C=C5)C=C4)cc1)[C@@H](C(F)(F)F)O2
REMARK SMILES IDX 19 1 18 2 17 3 16 4 15 5 14 6 12 7 13 8 11 9 1 10 2 11 3 12
REMARK SMILES IDX 8 13 4 14 6 15 9 16 5 17 94 18 7 19 10 20 89 21 90 22 91 23
REMARK SMILES IDX 92 24 93 25 20 26 21 27 22 28 23 29 24 30 25 31 26 32 27 33
REMARK SMILES IDX 88 34 28 35 87 36 29 37 30 38 31 39 81 40 32 41 86 42 80 43
REMARK SMILES IDX 82 44 33 45 85 46 79 47 78 48 34 50 66 51 46 52 65 53 47 54
REMARK SMILES IDX 50 55 64 56 83 57 48 58 49 59 63 61 84 62 51 63 35 64 36 65
REMARK SMILES IDX 44 66 37 67 38 68 42 69 45 70 39 71 40 72 43 73 41 74 67 75
REMARK SMILES IDX 68 76 76 77 69 78 70 79 74 80 77 81 71 82 72 83 75 84 73 85
REMARK SMILES IDX 52 86 53 87 61 88 54 89 55 90 59 91 62 92 56 93 57 94 60 95
REMARK SMILES IDX 58 96
REMARK H PARENT 82 49 50 60
REMARK Flexibility Score: inf
ROOT
ATOM      1  C   UNL     1      -3.346   3.466  -6.680  1.00  0.00     0.188 C 
ENDROOT
BRANCH   1   2
ATOM      2  C   UNL     1      -2.505   4.659  -7.185  1.00  0.00     0.188 C 
BRANCH   2   3
ATOM      3  O   UNL     1      -2.637   5.084  -8.521  1.00  0.00    -0.376 OA
BRANCH   3   4
ATOM      4  C   UNL     1      -2.178   4.285  -9.597  1.00  0.00     0.202 C 
BRANCH   4   5
ATOM      5  C   UNL     1      -1.138   3.158  -9.476  1.00  0.00     0.261 C 
BRANCH   5   6
ATOM      6  O   UNL     1      -1.078   2.463  -8.227  1.00  0.00    -0.460 OA
BRANCH   6   7
ATOM      7  C   UNL     1       0.040   2.690  -7.495  1.00  0.00     0.338 C 
ATOM      8  O   UNL     1       0.975   3.413  -7.796  1.00  0.00    -0.246 OA
BRANCH   7   9
ATOM      9  C   UNL     1      -0.097   2.050  -6.171  1.00  0.00     0.087 C 
ATOM     10  C   UNL     1       0.794  -0.082  -0.143  1.00  0.00     0.046 C 
ATOM     11  C   UNL     1       0.533   0.764  -1.362  1.00  0.00    -0.033 A 
ATOM     12  C   UNL     1       0.010   0.138  -2.500  1.00  0.00     0.051 A 
ATOM     13  C   UNL     1       0.840   2.139  -1.420  1.00  0.00     0.024 A 
ATOM     14  C   UNL     1      -0.129   0.833  -3.699  1.00  0.00     0.128 A 
ATOM     15  C   UNL     1       0.680   2.870  -2.624  1.00  0.00    -0.026 A 
ATOM     16  Br  UNL     1       1.516   2.985   0.159  1.00  0.00    -0.050 Br
ATOM     17  C   UNL     1       0.240   2.179  -3.785  1.00  0.00     0.021 A 
ATOM     18  O   UNL     1      -0.633   0.098  -4.734  1.00  0.00    -0.475 OA
ATOM     19  C   UNL     1       0.967   4.353  -2.712  1.00  0.00     0.046 C 
ATOM     20  C   UNL     1       0.233   2.798  -5.109  1.00  0.00     0.027 C 
ATOM     21  C   UNL     1      -0.574   0.630  -6.081  1.00  0.00     0.316 C 
BRANCH  21  22
ATOM     22  C   UNL     1       0.258  -0.325  -6.947  1.00  0.00     0.430 C 
ATOM     23  F   UNL     1      -0.155  -1.607  -6.803  1.00  0.00    -0.167 F 
ATOM     24  F   UNL     1       0.151  -0.029  -8.264  1.00  0.00    -0.167 F 
ATOM     25  F   UNL     1       1.571  -0.282  -6.628  1.00  0.00    -0.167 F 
ENDBRANCH  21  22
ENDBRANCH   7   9
ENDBRANCH   6   7
ENDBRANCH   5   6
ENDBRANCH   4   5
ENDBRANCH   3   4
ENDBRANCH   2   3
ENDBRANCH   1   2
BRANCH   1  26
ATOM     26  O   UNL     1      -4.154   2.738  -7.578  1.00  0.00    -0.376 OA
BRANCH  26  27
ATOM     27  C   UNL     1      -5.213   3.402  -8.251  1.00  0.00     0.202 C 
BRANCH  27  28
ATOM     28  C   UNL     1      -6.052   4.523  -7.607  1.00  0.00     0.261 C 
BRANCH  28  29
ATOM     29  O   UNL     1      -5.337   5.485  -6.819  1.00  0.00    -0.460 OA
BRANCH  29  30
ATOM     30  C   UNL     1      -5.634   5.496  -5.491  1.00  0.00     0.338 C 
ATOM     31  O   UNL     1      -6.443   4.807  -4.906  1.00  0.00    -0.246 OA
BRANCH  30  32
ATOM     32  C   UNL     1      -4.649   6.350  -4.793  1.00  0.00     0.060 A 
ATOM     33  C   UNL     1      -3.697   5.734  -3.969  1.00  0.00     0.016 A 
ATOM     34  C   UNL     1      -4.668   7.737  -4.939  1.00  0.00     0.016 A 
ATOM     35  C   UNL     1      -2.745   6.504  -3.304  1.00  0.00     0.010 A 
ATOM     36  C   UNL     1      -3.735   8.512  -4.240  1.00  0.00     0.010 A 
ATOM     37  C   UNL     1      -2.776   7.900  -3.411  1.00  0.00    -0.014 A 
BRANCH  37  38
ATOM     38  C   UNL     1      -1.946   8.702  -2.478  1.00  0.00     0.031 A 
ATOM     39  C   UNL     1      -2.564   9.131  -1.177  1.00  0.00     0.074 A 
ATOM     40  C   UNL     1      -0.654   8.975  -2.733  1.00  0.00     0.049 A 
ATOM     41  N   UNL     1      -2.038   9.808  -0.190  1.00  0.00    -0.248 NA
ATOM     42  C   UNL     1      -3.964   8.733  -0.957  1.00  0.00     0.031 C 
ATOM     43  C   UNL     1       0.080   8.559  -3.925  1.00  0.00     0.029 A 
ATOM     44  N   UNL     1       0.274   9.664  -1.989  1.00  0.00    -0.354 N 
ATOM     45  C   UNL     1      -3.036   9.904   0.770  1.00  0.00     0.074 A 
ATOM     46  C   UNL     1      -4.211   9.256   0.233  1.00  0.00     0.031 C 
ATOM     47  C   UNL     1       1.347   9.000  -3.831  1.00  0.00     0.029 A 
ATOM     48  C   UNL     1       1.508   9.754  -2.587  1.00  0.00     0.049 A 
ATOM     49  H   UNL     1       0.073  10.056  -1.108  1.00  0.00     0.167 HD
ATOM     50  C   UNL     1      -2.972  10.463   2.000  1.00  0.00     0.037 A 
ATOM     51  C   UNL     1       2.629  10.385  -2.180  1.00  0.00     0.037 A 
ATOM     52  C   UNL     1      -1.807  11.111   2.536  1.00  0.00     0.049 A 
ATOM     53  C   UNL     1       2.635  11.114  -0.856  1.00  0.00     0.074 A 
ATOM     54  C   UNL     1      -1.649  11.706   3.775  1.00  0.00     0.029 A 
ATOM     55  N   UNL     1      -0.604  11.257   1.863  1.00  0.00    -0.354 N 
ATOM     56  N   UNL     1       1.697  11.177   0.058  1.00  0.00    -0.248 NA
ATOM     57  C   UNL     1       3.853  11.864  -0.510  1.00  0.00     0.031 C 
ATOM     58  C   UNL     1      -0.371  12.264   3.829  1.00  0.00     0.029 A 
ATOM     59  C   UNL     1       0.288  11.969   2.646  1.00  0.00     0.049 A 
ATOM     60  H   UNL     1      -0.413  10.906   0.963  1.00  0.00     0.167 HD
ATOM     61  C   UNL     1       2.216  11.951   1.089  1.00  0.00     0.074 A 
ATOM     62  C   UNL     1       3.560  12.322   0.700  1.00  0.00     0.031 C 
ATOM     63  C   UNL     1       1.628  12.326   2.252  1.00  0.00     0.037 A 
BRANCH  50  64
ATOM     64  C   UNL     1      -4.205  10.411   2.851  1.00  0.00     0.064 A 
ATOM     65  C   UNL     1      -4.647   9.210   3.426  1.00  0.00     0.173 A 
ATOM     66  C   UNL     1      -4.921  11.582   3.137  1.00  0.00     0.173 A 
ATOM     67  F   UNL     1      -4.006   8.061   3.168  1.00  0.00    -0.203 F 
ATOM     68  C   UNL     1      -5.773   9.183   4.245  1.00  0.00     0.198 A 
ATOM     69  C   UNL     1      -6.027  11.556   3.981  1.00  0.00     0.198 A 
ATOM     70  F   UNL     1      -4.536  12.756   2.613  1.00  0.00    -0.203 F 
ATOM     71  F   UNL     1      -6.201   8.019   4.752  1.00  0.00    -0.200 F 
ATOM     72  C   UNL     1      -6.455  10.356   4.530  1.00  0.00     0.200 A 
ATOM     73  F   UNL     1      -6.676  12.693   4.267  1.00  0.00    -0.200 F 
ATOM     74  F   UNL     1      -7.528  10.330   5.332  1.00  0.00    -0.200 F 
ENDBRANCH  50  64
BRANCH  51  75
ATOM     75  C   UNL     1       3.847  10.367  -3.035  1.00  0.00     0.064 A 
ATOM     76  C   UNL     1       5.012   9.705  -2.622  1.00  0.00     0.173 A 
ATOM     77  C   UNL     1       3.881  11.027  -4.273  1.00  0.00     0.173 A 
ATOM     78  F   UNL     1       5.043   9.088  -1.431  1.00  0.00    -0.203 F 
ATOM     79  C   UNL     1       6.163   9.710  -3.408  1.00  0.00     0.198 A 
ATOM     80  C   UNL     1       5.023  11.007  -5.072  1.00  0.00     0.198 A 
ATOM     81  F   UNL     1       2.799  11.688  -4.712  1.00  0.00    -0.203 F 
ATOM     82  F   UNL     1       7.275   9.106  -2.967  1.00  0.00    -0.200 F 
ATOM     83  C   UNL     1       6.165  10.354  -4.636  1.00  0.00     0.200 A 
ATOM     84  F   UNL     1       5.017  11.625  -6.261  1.00  0.00    -0.200 F 
ATOM     85  F   UNL     1       7.270  10.353  -5.394  1.00  0.00    -0.200 F 
ENDBRANCH  51  75
BRANCH  63  86
ATOM     86  C   UNL     1       2.412  13.183   3.205  1.00  0.00     0.064 A 
ATOM     87  C   UNL     1       2.642  14.540   2.940  1.00  0.00     0.173 A 
ATOM     88  C   UNL     1       2.818  12.679   4.451  1.00  0.00     0.173 A 
ATOM     89  F   UNL     1       2.281  15.069   1.761  1.00  0.00    -0.203 F 
ATOM     90  C   UNL     1       3.247  15.362   3.888  1.00  0.00     0.198 A 
ATOM     91  C   UNL     1       3.395  13.510   5.407  1.00  0.00     0.198 A 
ATOM     92  F   UNL     1       2.611  11.390   4.759  1.00  0.00    -0.203 F 
ATOM     93  F   UNL     1       3.470  16.653   3.607  1.00  0.00    -0.200 F 
ATOM     94  C   UNL     1       3.608  14.850   5.125  1.00  0.00     0.200 A 
ATOM     95  F   UNL     1       3.723  13.018   6.610  1.00  0.00    -0.200 F 
ATOM     96  F   UNL     1       4.158  15.651   6.049  1.00  0.00    -0.200 F 
ENDBRANCH  63  86
ENDBRANCH  37  38
ENDBRANCH  30  32
ENDBRANCH  29  30
ENDBRANCH  28  29
ENDBRANCH  27  28
ENDBRANCH  26  27
ENDBRANCH   1  26
TORSDOF 18
