REMARK SMILES COc1cc(/C=C2\SC(=S)N(CC(=O)OCCOCCOCCOC(=O)c3ccc(-c4c5nc(c(-c6c(F)c(F)c(F)c(F)c6F)c6ccc([nH]6)c(-c6c(F)c(F)c(F)c(F)c6F)c6nc(c(-c7c(F)c(F)c(F)c(F)c7F)c7ccc4[nH]7)C=C6)C=C5)cc3)C2=O)cc2c1OCO2
REMARK SMILES IDX 19 1 18 2 17 3 16 4 15 5 13 6 14 7 12 8 11 9 6 10 7 11 8 12
REMARK SMILES IDX 90 13 9 14 91 15 10 16 5 17 3 18 4 19 94 20 93 21 95 22
REMARK SMILES IDX 92 23 97 24 96 25 2 26 1 27 20 28 21 29 22 30 23 31 24 32
REMARK SMILES IDX 25 33 26 34 27 35 28 36 89 37 29 38 88 39 30 40 31 41 32 42
REMARK SMILES IDX 82 43 33 44 87 45 81 46 83 47 34 48 86 49 80 50 79 51 35 53
REMARK SMILES IDX 67 54 47 55 66 56 48 57 51 58 65 59 84 60 49 61 50 62 64 64
REMARK SMILES IDX 85 65 52 66 36 67 37 68 45 69 38 70 39 71 43 72 46 73 40 74
REMARK SMILES IDX 41 75 44 76 42 77 68 78 69 79 77 80 70 81 71 82 75 83 78 84
REMARK SMILES IDX 72 85 73 86 76 87 74 88 53 89 54 90 62 91 55 92 56 93 60 94
REMARK SMILES IDX 63 95 57 96 58 97 61 98 59 99
REMARK H PARENT 83 52 51 63
REMARK Flexibility Score: inf
ROOT
ATOM      1  C   UNL     1      -4.923   6.076  -6.359  1.00  0.00     0.188 C 
ENDROOT
BRANCH   1   2
ATOM      2  O   UNL     1      -5.866   5.788  -7.389  1.00  0.00    -0.376 OA
BRANCH   2   3
ATOM      3  C   UNL     1      -5.521   4.866  -8.415  1.00  0.00     0.202 C 
BRANCH   3   4
ATOM      4  C   UNL     1      -4.382   5.281  -9.353  1.00  0.00     0.261 C 
BRANCH   4   5
ATOM      5  O   UNL     1      -3.123   5.541  -8.690  1.00  0.00    -0.462 OA
BRANCH   5   6
ATOM      6  C   UNL     1      -2.577   6.767  -8.899  1.00  0.00     0.326 C 
ATOM      7  O   UNL     1      -3.066   7.622  -9.633  1.00  0.00    -0.250 OA
BRANCH   6   8
ATOM      8  C   UNL     1      -1.299   7.056  -8.103  1.00  0.00     0.250 C 
BRANCH   8   9
ATOM      9  N   UNL     1      -0.669   6.031  -7.256  1.00  0.00    -0.282 N 
ATOM     10  C   UNL     1      -0.130   4.787  -3.883  1.00  0.00     0.029 C 
ATOM     11  C   UNL     1      -0.057   5.011  -5.205  1.00  0.00     0.081 C 
ATOM     12  S   UNL     1       0.866   4.152  -6.370  1.00  0.00    -0.054 SA
ATOM     13  C   UNL     1      -0.813   6.103  -5.882  1.00  0.00     0.266 C 
ATOM     14  C   UNL     1       0.195   5.064  -7.722  1.00  0.00     0.148 C 
ATOM     15  O   UNL     1      -1.450   6.957  -5.281  1.00  0.00    -0.268 OA
ATOM     16  S   UNL     1       0.619   4.754  -9.303  1.00  0.00    -0.052 S 
BRANCH  10  17
ATOM     17  C   UNL     1       0.688   3.826  -3.127  1.00  0.00    -0.017 A 
ATOM     18  C   UNL     1       0.929   1.732  -1.867  1.00  0.00     0.165 A 
ATOM     19  C   UNL     1       0.140   2.635  -2.604  1.00  0.00     0.058 A 
ATOM     20  C   UNL     1       2.270   2.037  -1.702  1.00  0.00     0.207 A 
ATOM     21  C   UNL     1       2.797   3.207  -2.204  1.00  0.00     0.170 A 
ATOM     22  O   UNL     1       3.230   1.288  -1.090  1.00  0.00    -0.450 OA
ATOM     23  C   UNL     1       2.037   4.123  -2.900  1.00  0.00     0.059 A 
ATOM     24  O   UNL     1       4.128   3.341  -1.953  1.00  0.00    -0.453 OA
ATOM     25  C   UNL     1       4.412   2.072  -1.339  1.00  0.00     0.468 C 
BRANCH  18  26
ATOM     26  O   UNL     1       0.288   0.608  -1.427  1.00  0.00    -0.493 OA
ATOM     27  C   UNL     1       0.793   0.039  -0.221  1.00  0.00     0.278 C 
ENDBRANCH  18  26
ENDBRANCH  10  17
ENDBRANCH   8   9
ENDBRANCH   6   8
ENDBRANCH   5   6
ENDBRANCH   4   5
ENDBRANCH   3   4
ENDBRANCH   2   3
ENDBRANCH   1   2
BRANCH   1  28
ATOM     28  C   UNL     1      -3.930   4.987  -5.932  1.00  0.00     0.188 C 
BRANCH  28  29
ATOM     29  O   UNL     1      -4.441   3.679  -6.101  1.00  0.00    -0.376 OA
BRANCH  29  30
ATOM     30  C   UNL     1      -4.393   2.839  -4.965  1.00  0.00     0.202 C 
BRANCH  30  31
ATOM     31  C   UNL     1      -5.493   3.161  -3.949  1.00  0.00     0.261 C 
BRANCH  31  32
ATOM     32  O   UNL     1      -5.543   4.529  -3.497  1.00  0.00    -0.460 OA
BRANCH  32  33
ATOM     33  C   UNL     1      -4.547   4.943  -2.681  1.00  0.00     0.338 C 
ATOM     34  O   UNL     1      -3.586   4.296  -2.311  1.00  0.00    -0.246 OA
BRANCH  33  35
ATOM     35  C   UNL     1      -4.715   6.395  -2.454  1.00  0.00     0.060 A 
ATOM     36  C   UNL     1      -3.708   7.266  -2.882  1.00  0.00     0.016 A 
ATOM     37  C   UNL     1      -5.842   6.898  -1.804  1.00  0.00     0.016 A 
ATOM     38  C   UNL     1      -3.812   8.639  -2.656  1.00  0.00     0.010 A 
ATOM     39  C   UNL     1      -5.937   8.273  -1.556  1.00  0.00     0.010 A 
ATOM     40  C   UNL     1      -4.913   9.149  -1.962  1.00  0.00    -0.014 A 
BRANCH  40  41
ATOM     41  C   UNL     1      -4.934  10.568  -1.525  1.00  0.00     0.031 A 
ATOM     42  C   UNL     1      -4.613  10.888  -0.092  1.00  0.00     0.074 A 
ATOM     43  C   UNL     1      -5.230  11.561  -2.382  1.00  0.00     0.049 A 
ATOM     44  N   UNL     1      -4.707  12.023   0.553  1.00  0.00    -0.248 NA
ATOM     45  C   UNL     1      -4.121   9.769   0.726  1.00  0.00     0.031 C 
ATOM     46  C   UNL     1      -5.489  11.396  -3.810  1.00  0.00     0.029 A 
ATOM     47  N   UNL     1      -5.379  12.910  -2.165  1.00  0.00    -0.354 N 
ATOM     48  C   UNL     1      -4.312  11.750   1.855  1.00  0.00     0.074 A 
ATOM     49  C   UNL     1      -3.991  10.340   1.914  1.00  0.00     0.031 C 
ATOM     50  C   UNL     1      -5.786  12.595  -4.340  1.00  0.00     0.029 A 
ATOM     51  C   UNL     1      -5.788  13.601  -3.279  1.00  0.00     0.049 A 
ATOM     52  H   UNL     1      -5.208  13.339  -1.296  1.00  0.00     0.167 HD
ATOM     53  C   UNL     1      -4.226  12.599   2.907  1.00  0.00     0.037 A 
ATOM     54  C   UNL     1      -6.163  14.889  -3.415  1.00  0.00     0.037 A 
ATOM     55  C   UNL     1      -4.539  14.003   2.842  1.00  0.00     0.049 A 
ATOM     56  C   UNL     1      -6.145  15.797  -2.211  1.00  0.00     0.074 A 
ATOM     57  C   UNL     1      -4.469  14.952   3.847  1.00  0.00     0.029 A 
ATOM     58  N   UNL     1      -4.988  14.660   1.705  1.00  0.00    -0.354 N 
ATOM     59  N   UNL     1      -5.779  15.535  -0.979  1.00  0.00    -0.248 NA
ATOM     60  C   UNL     1      -6.599  17.181  -2.417  1.00  0.00     0.031 C 
ATOM     61  C   UNL     1      -4.930  16.169   3.334  1.00  0.00     0.029 A 
ATOM     62  C   UNL     1      -5.229  15.994   1.992  1.00  0.00     0.049 A 
ATOM     63  H   UNL     1      -5.116  14.240   0.824  1.00  0.00     0.167 HD
ATOM     64  C   UNL     1      -5.936  16.721  -0.271  1.00  0.00     0.074 A 
ATOM     65  C   UNL     1      -6.415  17.709  -1.215  1.00  0.00     0.031 C 
ATOM     66  C   UNL     1      -5.705  16.968   1.042  1.00  0.00     0.037 A 
BRANCH  53  67
ATOM     67  C   UNL     1      -3.822  12.020   4.232  1.00  0.00     0.064 A 
ATOM     68  C   UNL     1      -2.516  11.571   4.480  1.00  0.00     0.173 A 
ATOM     69  C   UNL     1      -4.755  11.930   5.277  1.00  0.00     0.173 A 
ATOM     70  F   UNL     1      -1.589  11.620   3.512  1.00  0.00    -0.203 F 
ATOM     71  C   UNL     1      -2.169  11.025   5.714  1.00  0.00     0.198 A 
ATOM     72  C   UNL     1      -4.396  11.413   6.518  1.00  0.00     0.198 A 
ATOM     73  F   UNL     1      -6.017  12.348   5.094  1.00  0.00    -0.203 F 
ATOM     74  F   UNL     1      -0.930  10.551   5.910  1.00  0.00    -0.200 F 
ATOM     75  C   UNL     1      -3.107  10.952   6.733  1.00  0.00     0.200 A 
ATOM     76  F   UNL     1      -5.301  11.355   7.505  1.00  0.00    -0.200 F 
ATOM     77  F   UNL     1      -2.770  10.429   7.920  1.00  0.00    -0.200 F 
ENDBRANCH  53  67
BRANCH  54  78
ATOM     78  C   UNL     1      -6.625  15.392  -4.736  1.00  0.00     0.064 A 
ATOM     79  C   UNL     1      -5.880  16.338  -5.453  1.00  0.00     0.173 A 
ATOM     80  C   UNL     1      -7.830  14.948  -5.302  1.00  0.00     0.173 A 
ATOM     81  F   UNL     1      -4.738  16.818  -4.940  1.00  0.00    -0.203 F 
ATOM     82  C   UNL     1      -6.327  16.829  -6.678  1.00  0.00     0.198 A 
ATOM     83  C   UNL     1      -8.261  15.416  -6.541  1.00  0.00     0.198 A 
ATOM     84  F   UNL     1      -8.587  14.051  -4.653  1.00  0.00    -0.203 F 
ATOM     85  F   UNL     1      -5.618  17.768  -7.320  1.00  0.00    -0.200 F 
ATOM     86  C   UNL     1      -7.513  16.362  -7.225  1.00  0.00     0.200 A 
ATOM     87  F   UNL     1      -9.403  14.956  -7.069  1.00  0.00    -0.200 F 
ATOM     88  F   UNL     1      -7.940  16.831  -8.405  1.00  0.00    -0.200 F 
ENDBRANCH  54  78
BRANCH  66  89
ATOM     89  C   UNL     1      -5.936  18.370   1.533  1.00  0.00     0.064 A 
ATOM     90  C   UNL     1      -7.226  18.904   1.665  1.00  0.00     0.173 A 
ATOM     91  C   UNL     1      -4.851  19.175   1.917  1.00  0.00     0.173 A 
ATOM     92  F   UNL     1      -8.296  18.181   1.299  1.00  0.00    -0.203 F 
ATOM     93  C   UNL     1      -7.421  20.200   2.136  1.00  0.00     0.198 A 
ATOM     94  C   UNL     1      -5.051  20.458   2.418  1.00  0.00     0.198 A 
ATOM     95  F   UNL     1      -3.596  18.711   1.819  1.00  0.00    -0.203 F 
ATOM     96  F   UNL     1      -8.659  20.706   2.207  1.00  0.00    -0.200 F 
ATOM     97  C   UNL     1      -6.335  20.973   2.520  1.00  0.00     0.200 A 
ATOM     98  F   UNL     1      -4.002  21.197   2.803  1.00  0.00    -0.200 F 
ATOM     99  F   UNL     1      -6.525  22.216   2.982  1.00  0.00    -0.200 F 
ENDBRANCH  66  89
ENDBRANCH  40  41
ENDBRANCH  33  35
ENDBRANCH  32  33
ENDBRANCH  31  32
ENDBRANCH  30  31
ENDBRANCH  29  30
ENDBRANCH  28  29
ENDBRANCH   1  28
TORSDOF 20
