REMARK SMILES O=C(OCCOCCOCCOC(=O)c1ccc(-n2cc(CSc3nc4ccccc4c(=O)n3-c3ccc(Cl)cc3)nn2)cc1)c1ccc(-c2c3nc(c(-c4c(F)c(F)c(F)c(F)c4F)c4ccc([nH]4)c(-c4c(F)c(F)c(F)c(F)c4F)c4nc(c(-c5c(F)c(F)c(F)c(F)c5F)c5ccc2[nH]5)C=C4)C=C3)cc1
REMARK SMILES IDX 9 1 8 2 7 3 6 4 5 5 4 6 3 7 2 8 1 9 46 10 47 11 108 12 48 13
REMARK SMILES IDX 107 14 49 15 50 16 51 17 101 18 52 19 106 20 100 21 102 22
REMARK SMILES IDX 53 23 105 24 99 25 98 26 54 28 86 29 66 30 85 31 67 32 70 33
REMARK SMILES IDX 84 34 103 35 68 36 69 37 83 39 104 40 71 41 55 42 56 43
REMARK SMILES IDX 64 44 57 45 58 46 62 47 65 48 59 49 60 50 63 51 61 52 87 53
REMARK SMILES IDX 88 54 96 55 89 56 90 57 94 58 97 59 91 60 92 61 95 62 93 63
REMARK SMILES IDX 72 64 73 65 81 66 74 67 75 68 79 69 82 70 76 71 77 72 80 73
REMARK SMILES IDX 78 74 10 75 11 76 12 77 13 78 14 79 15 80 16 81 45 82 17 83
REMARK SMILES IDX 44 84 18 85 19 86 20 87 43 88 21 89 42 90 22 91 23 92 24 93
REMARK SMILES IDX 25 94 34 95 26 96 32 97 27 98 31 99 33 100 28 101 30 102
REMARK SMILES IDX 29 103 35 104 36 105 41 106 37 107 40 108 38 109 39 110
REMARK H PARENT 102 27 70 38
REMARK Flexibility Score: inf
ROOT
ATOM      1  O   UNL     1       2.925   2.316   2.493  1.00  0.00    -0.376 OA
ENDROOT
BRANCH   1   2
ATOM      2  C   UNL     1       2.373   1.060   2.137  1.00  0.00     0.188 C 
BRANCH   2   3
ATOM      3  C   UNL     1       3.265  -0.118   1.680  1.00  0.00     0.188 C 
BRANCH   3   4
ATOM      4  O   UNL     1       4.645   0.102   1.540  1.00  0.00    -0.376 OA
BRANCH   4   5
ATOM      5  C   UNL     1       5.240   0.521   0.329  1.00  0.00     0.202 C 
BRANCH   5   6
ATOM      6  C   UNL     1       4.489   0.980  -0.926  1.00  0.00     0.261 C 
BRANCH   6   7
ATOM      7  O   UNL     1       3.091   1.215  -0.795  1.00  0.00    -0.460 OA
BRANCH   7   8
ATOM      8  C   UNL     1       2.044   0.493  -1.241  1.00  0.00     0.338 C 
ATOM      9  O   UNL     1       0.946   1.045  -1.315  1.00  0.00    -0.246 OA
BRANCH   8  10
ATOM     10  C   UNL     1       2.077  -0.978  -1.498  1.00  0.00     0.060 A 
ATOM     11  C   UNL     1       3.182  -1.738  -1.885  1.00  0.00     0.016 A 
ATOM     12  C   UNL     1       0.828  -1.624  -1.376  1.00  0.00     0.016 A 
ATOM     13  C   UNL     1       3.001  -3.035  -2.346  1.00  0.00     0.010 A 
ATOM     14  C   UNL     1       0.648  -2.929  -1.803  1.00  0.00     0.010 A 
ATOM     15  C   UNL     1       1.720  -3.589  -2.383  1.00  0.00    -0.014 A 
BRANCH  15  16
ATOM     16  C   UNL     1       1.548  -4.858  -3.075  1.00  0.00     0.031 A 
ATOM     17  C   UNL     1       2.292  -6.004  -2.490  1.00  0.00     0.074 A 
ATOM     18  C   UNL     1       0.755  -4.972  -4.160  1.00  0.00     0.049 A 
ATOM     19  N   UNL     1       3.250  -6.687  -3.029  1.00  0.00    -0.248 NA
ATOM     20  C   UNL     1       2.016  -6.359  -1.091  1.00  0.00     0.031 C 
ATOM     21  C   UNL     1      -0.206  -4.003  -4.697  1.00  0.00     0.029 A 
ATOM     22  N   UNL     1       0.595  -6.040  -4.988  1.00  0.00    -0.354 N 
ATOM     23  C   UNL     1       3.591  -7.670  -2.102  1.00  0.00     0.074 A 
ATOM     24  C   UNL     1       2.892  -7.344  -0.886  1.00  0.00     0.031 C 
ATOM     25  C   UNL     1      -1.004  -4.614  -5.603  1.00  0.00     0.029 A 
ATOM     26  C   UNL     1      -0.515  -5.963  -5.819  1.00  0.00     0.049 A 
ATOM     27  H   UNL     1       1.215  -6.805  -4.997  1.00  0.00     0.167 HD
ATOM     28  C   UNL     1       4.269  -8.790  -2.474  1.00  0.00     0.037 A 
ATOM     29  C   UNL     1      -1.023  -6.966  -6.578  1.00  0.00     0.037 A 
ATOM     30  C   UNL     1       4.952  -8.599  -3.726  1.00  0.00     0.049 A 
ATOM     31  C   UNL     1       0.056  -7.968  -6.765  1.00  0.00     0.074 A 
ATOM     32  C   UNL     1       5.970  -7.771  -4.156  1.00  0.00     0.029 A 
ATOM     33  N   UNL     1       4.369  -9.093  -4.865  1.00  0.00    -0.354 N 
ATOM     34  N   UNL     1       1.134  -7.747  -7.466  1.00  0.00    -0.248 NA
ATOM     35  C   UNL     1       0.153  -9.041  -5.787  1.00  0.00     0.031 C 
ATOM     36  C   UNL     1       5.621  -7.425  -5.494  1.00  0.00     0.029 A 
ATOM     37  C   UNL     1       4.450  -8.111  -5.817  1.00  0.00     0.049 A 
ATOM     38  H   UNL     1       3.968  -9.985  -4.977  1.00  0.00     0.167 HD
ATOM     39  C   UNL     1       2.154  -8.345  -6.740  1.00  0.00     0.074 A 
ATOM     40  C   UNL     1       1.481  -9.185  -5.753  1.00  0.00     0.031 C 
ATOM     41  C   UNL     1       3.436  -7.886  -6.818  1.00  0.00     0.037 A 
BRANCH  28  42
ATOM     42  C   UNL     1       4.026 -10.164  -1.900  1.00  0.00     0.064 A 
ATOM     43  C   UNL     1       4.860 -11.232  -2.291  1.00  0.00     0.173 A 
ATOM     44  C   UNL     1       2.829 -10.534  -1.250  1.00  0.00     0.173 A 
ATOM     45  F   UNL     1       6.018 -10.999  -2.927  1.00  0.00    -0.203 F 
ATOM     46  C   UNL     1       4.475 -12.566  -2.129  1.00  0.00     0.198 A 
ATOM     47  C   UNL     1       2.473 -11.865  -1.045  1.00  0.00     0.198 A 
ATOM     48  F   UNL     1       1.904  -9.634  -0.897  1.00  0.00    -0.203 F 
ATOM     49  F   UNL     1       5.237 -13.544  -2.639  1.00  0.00    -0.200 F 
ATOM     50  C   UNL     1       3.277 -12.881  -1.515  1.00  0.00     0.200 A 
ATOM     51  F   UNL     1       1.298 -12.151  -0.465  1.00  0.00    -0.200 F 
ATOM     52  F   UNL     1       2.873 -14.154  -1.424  1.00  0.00    -0.200 F 
ENDBRANCH  28  42
BRANCH  29  53
ATOM     53  C   UNL     1      -2.454  -7.282  -6.813  1.00  0.00     0.064 A 
ATOM     54  C   UNL     1      -2.850  -8.152  -7.841  1.00  0.00     0.173 A 
ATOM     55  C   UNL     1      -3.436  -6.958  -5.856  1.00  0.00     0.173 A 
ATOM     56  F   UNL     1      -1.963  -8.553  -8.764  1.00  0.00    -0.203 F 
ATOM     57  C   UNL     1      -4.145  -8.681  -7.897  1.00  0.00     0.198 A 
ATOM     58  C   UNL     1      -4.729  -7.482  -5.915  1.00  0.00     0.198 A 
ATOM     59  F   UNL     1      -3.135  -6.205  -4.789  1.00  0.00    -0.203 F 
ATOM     60  F   UNL     1      -4.471  -9.555  -8.860  1.00  0.00    -0.200 F 
ATOM     61  C   UNL     1      -5.080  -8.353  -6.929  1.00  0.00     0.200 A 
ATOM     62  F   UNL     1      -5.610  -7.187  -4.949  1.00  0.00    -0.200 F 
ATOM     63  F   UNL     1      -6.301  -8.905  -6.947  1.00  0.00    -0.200 F 
ENDBRANCH  29  53
BRANCH  41  64
ATOM     64  C   UNL     1       3.763  -6.879  -7.883  1.00  0.00     0.064 A 
ATOM     65  C   UNL     1       3.243  -5.574  -7.911  1.00  0.00     0.173 A 
ATOM     66  C   UNL     1       4.779  -7.190  -8.796  1.00  0.00     0.173 A 
ATOM     67  F   UNL     1       2.339  -5.172  -7.009  1.00  0.00    -0.203 F 
ATOM     68  C   UNL     1       3.705  -4.633  -8.831  1.00  0.00     0.198 A 
ATOM     69  C   UNL     1       5.263  -6.240  -9.689  1.00  0.00     0.198 A 
ATOM     70  F   UNL     1       5.351  -8.405  -8.775  1.00  0.00    -0.203 F 
ATOM     71  F   UNL     1       3.200  -3.390  -8.835  1.00  0.00    -0.200 F 
ATOM     72  C   UNL     1       4.722  -4.964  -9.711  1.00  0.00     0.200 A 
ATOM     73  F   UNL     1       6.282  -6.549 -10.502  1.00  0.00    -0.200 F 
ATOM     74  F   UNL     1       5.206  -4.044 -10.557  1.00  0.00    -0.200 F 
ENDBRANCH  41  64
ENDBRANCH  15  16
ENDBRANCH   8  10
ENDBRANCH   7   8
ENDBRANCH   6   7
ENDBRANCH   5   6
ENDBRANCH   4   5
ENDBRANCH   3   4
ENDBRANCH   2   3
ENDBRANCH   1   2
BRANCH   1  75
ATOM     75  C   UNL     1       4.155   2.370   3.192  1.00  0.00     0.202 C 
BRANCH  75  76
ATOM     76  C   UNL     1       4.313   1.615   4.522  1.00  0.00     0.261 C 
BRANCH  76  77
ATOM     77  O   UNL     1       3.934   0.228   4.498  1.00  0.00    -0.460 OA
BRANCH  77  78
ATOM     78  C   UNL     1       2.853  -0.116   5.231  1.00  0.00     0.338 C 
ATOM     79  O   UNL     1       2.161   0.618   5.935  1.00  0.00    -0.246 OA
BRANCH  78  80
ATOM     80  C   UNL     1       2.512  -1.529   4.988  1.00  0.00     0.060 A 
ATOM     81  C   UNL     1       1.394  -1.834   4.193  1.00  0.00     0.018 A 
ATOM     82  C   UNL     1       3.241  -2.551   5.602  1.00  0.00     0.018 A 
ATOM     83  C   UNL     1       1.020  -3.158   3.973  1.00  0.00     0.029 A 
ATOM     84  C   UNL     1       2.830  -3.879   5.436  1.00  0.00     0.029 A 
ATOM     85  C   UNL     1       1.736  -4.176   4.603  1.00  0.00     0.066 A 
BRANCH  85  86
ATOM     86  N   UNL     1       1.107  -5.423   4.720  1.00  0.00    -0.220 N 
ATOM     87  C   UNL     1       0.327  -5.779   5.782  1.00  0.00     0.141 A 
ATOM     88  N   UNL     1       1.192  -6.438   3.845  1.00  0.00    -0.062 NA
ATOM     89  C   UNL     1      -0.008  -7.093   5.588  1.00  0.00     0.093 A 
ATOM     90  N   UNL     1       0.538  -7.476   4.376  1.00  0.00    -0.134 NA
BRANCH  89  91
ATOM     91  C   UNL     1      -0.507  -8.098   6.562  1.00  0.00     0.138 C 
BRANCH  91  92
ATOM     92  S   UNL     1      -2.159  -8.173   7.241  1.00  0.00    -0.081 SA
BRANCH  92  93
ATOM     93  C   UNL     1      -3.030  -6.667   7.280  1.00  0.00     0.176 A 
ATOM     94  N   UNL     1      -4.305  -6.843   7.081  1.00  0.00    -0.223 NA
ATOM     95  N   UNL     1      -2.504  -5.402   7.482  1.00  0.00    -0.255 N 
ATOM     96  C   UNL     1      -5.120  -5.718   6.920  1.00  0.00     0.079 A 
ATOM     97  C   UNL     1      -3.097  -4.417   6.679  1.00  0.00     0.266 A 
ATOM     98  C   UNL     1      -6.508  -5.809   7.013  1.00  0.00     0.029 A 
ATOM     99  C   UNL     1      -4.556  -4.514   6.527  1.00  0.00     0.066 A 
ATOM    100  O   UNL     1      -2.504  -3.519   6.084  1.00  0.00    -0.268 OA
ATOM    101  C   UNL     1      -7.310  -4.724   6.637  1.00  0.00     0.002 A 
ATOM    102  C   UNL     1      -5.339  -3.443   6.089  1.00  0.00     0.016 A 
ATOM    103  C   UNL     1      -6.727  -3.558   6.135  1.00  0.00     0.001 A 
BRANCH  95 104
ATOM    104  C   UNL     1      -1.406  -5.021   8.349  1.00  0.00     0.051 A 
ATOM    105  C   UNL     1      -1.069  -3.657   8.503  1.00  0.00     0.028 A 
ATOM    106  C   UNL     1      -0.589  -5.930   9.031  1.00  0.00     0.028 A 
ATOM    107  C   UNL     1       0.148  -3.249   9.058  1.00  0.00     0.022 A 
ATOM    108  C   UNL     1       0.663  -5.540   9.535  1.00  0.00     0.022 A 
ATOM    109  C   UNL     1       1.045  -4.204   9.503  1.00  0.00     0.041 A 
ATOM    110  Cl  UNL     1       2.625  -3.743   9.991  1.00  0.00    -0.084 Cl
ENDBRANCH  95 104
ENDBRANCH  92  93
ENDBRANCH  91  92
ENDBRANCH  89  91
ENDBRANCH  85  86
ENDBRANCH  78  80
ENDBRANCH  77  78
ENDBRANCH  76  77
ENDBRANCH  75  76
ENDBRANCH   1  75
TORSDOF 22
