REMARK SMILES COc1cc(-c2cccc(C(N)=O)c2)ccc1C(=O)OCCOCCOCCOC(=O)c1ccc(-c2c3nc(c(-c4c(F)c(F)c(F)c(F)c4F)c4ccc([nH]4)c(-c4c(F)c(F)c(F)c(F)c4F)c4nc(c(-c5c(F)c(F)c(F)c(F)c5F)c5ccc2[nH]5)C=C4)C=C3)cc1
REMARK SMILES IDX 24 1 23 2 22 3 21 4 20 5 18 6 19 7 17 8 3 9 4 10 5 11 16 12
REMARK SMILES IDX 15 13 2 14 1 15 6 16 7 17 14 18 8 19 10 20 9 21 11 22 12 23
REMARK SMILES IDX 13 24 25 27 26 28 27 29 28 30 29 31 30 32 31 33 32 34 33 35
REMARK SMILES IDX 94 36 34 37 93 38 35 39 36 40 37 41 87 42 38 43 92 44 86 45
REMARK SMILES IDX 88 46 39 47 91 48 85 49 84 50 40 52 72 53 52 54 71 55 53 56
REMARK SMILES IDX 56 57 70 58 89 59 54 60 55 61 69 63 90 64 57 65 41 66 42 67
REMARK SMILES IDX 50 68 43 69 44 70 48 71 51 72 45 73 46 74 49 75 47 76 73 77
REMARK SMILES IDX 74 78 82 79 75 80 76 81 80 82 83 83 77 84 78 85 81 86 79 87
REMARK SMILES IDX 58 88 59 89 67 90 60 91 61 92 65 93 68 94 62 95 63 96 66 97
REMARK SMILES IDX 64 98
REMARK H PARENT 12 25 12 26 88 51 56 62
REMARK Flexibility Score: inf
ROOT
ATOM      1  C   UNL     1       4.909   0.796  -1.595  1.00  0.00     0.188 C 
ENDROOT
BRANCH   1   2
ATOM      2  O   UNL     1       5.660   0.061  -0.633  1.00  0.00    -0.376 OA
BRANCH   2   3
ATOM      3  C   UNL     1       4.960  -0.724   0.329  1.00  0.00     0.202 C 
BRANCH   3   4
ATOM      4  C   UNL     1       3.905  -0.008   1.178  1.00  0.00     0.261 C 
BRANCH   4   5
ATOM      5  O   UNL     1       2.872   0.590   0.377  1.00  0.00    -0.460 OA
BRANCH   5   6
ATOM      6  C   UNL     1       2.558   1.873   0.681  1.00  0.00     0.342 C 
ATOM      7  O   UNL     1       2.983   2.518   1.619  1.00  0.00    -0.246 OA
BRANCH   6   8
ATOM      8  C   UNL     1       1.734   2.491  -0.387  1.00  0.00     0.102 A 
ATOM      9  C   UNL     1       0.609   1.915  -0.985  1.00  0.00     0.134 A 
ATOM     10  C   UNL     1      -0.101   2.634  -1.962  1.00  0.00     0.056 A 
ATOM     11  C   UNL     1       0.287   3.929  -2.351  1.00  0.00    -0.015 A 
ATOM     12  C   UNL     1       2.158   3.763  -0.812  1.00  0.00     0.020 A 
ATOM     13  C   UNL     1       1.450   4.468  -1.790  1.00  0.00     0.010 A 
BRANCH   9  14
ATOM     14  O   UNL     1       0.165   0.637  -0.775  1.00  0.00    -0.496 OA
ATOM     15  C   UNL     1      -0.272   0.385   0.557  1.00  0.00     0.278 C 
ENDBRANCH   9  14
BRANCH  11  16
ATOM     16  C   UNL     1      -0.552   4.738  -3.244  1.00  0.00    -0.017 A 
ATOM     17  C   UNL     1      -1.737   5.305  -2.749  1.00  0.00     0.009 A 
ATOM     18  C   UNL     1      -0.191   5.007  -4.574  1.00  0.00     0.022 A 
ATOM     19  C   UNL     1      -2.538   6.117  -3.552  1.00  0.00     0.001 A 
ATOM     20  C   UNL     1      -0.997   5.819  -5.396  1.00  0.00     0.040 A 
ATOM     21  C   UNL     1      -2.169   6.376  -4.872  1.00  0.00     0.014 A 
BRANCH  20  22
ATOM     22  C   UNL     1      -0.547   6.059  -6.799  1.00  0.00     0.248 C 
ATOM     23  N   UNL     1      -1.369   6.753  -7.645  1.00  0.00    -0.366 N 
ATOM     24  O   UNL     1       0.533   5.643  -7.202  1.00  0.00    -0.270 OA
ATOM     25  H   UNL     1      -2.236   7.088  -7.323  1.00  0.00     0.159 HD
ATOM     26  H   UNL     1      -1.092   6.918  -8.575  1.00  0.00     0.159 HD
ENDBRANCH  20  22
ENDBRANCH  11  16
ENDBRANCH   6   8
ENDBRANCH   5   6
ENDBRANCH   4   5
ENDBRANCH   3   4
ENDBRANCH   2   3
ENDBRANCH   1   2
BRANCH   1  27
ATOM     27  C   UNL     1       3.768   0.097  -2.365  1.00  0.00     0.188 C 
BRANCH  27  28
ATOM     28  O   UNL     1       3.664  -1.292  -2.100  1.00  0.00    -0.376 OA
BRANCH  28  29
ATOM     29  C   UNL     1       3.896  -2.151  -3.206  1.00  0.00     0.202 C 
BRANCH  29  30
ATOM     30  C   UNL     1       5.362  -2.248  -3.647  1.00  0.00     0.261 C 
BRANCH  30  31
ATOM     31  O   UNL     1       6.006  -0.995  -3.933  1.00  0.00    -0.460 OA
BRANCH  31  32
ATOM     32  C   UNL     1       5.624  -0.344  -5.054  1.00  0.00     0.338 C 
ATOM     33  O   UNL     1       4.791  -0.701  -5.865  1.00  0.00    -0.246 OA
BRANCH  32  34
ATOM     34  C   UNL     1       6.278   0.984  -5.044  1.00  0.00     0.060 A 
ATOM     35  C   UNL     1       5.486   2.137  -5.126  1.00  0.00     0.016 A 
ATOM     36  C   UNL     1       7.667   1.089  -4.938  1.00  0.00     0.016 A 
ATOM     37  C   UNL     1       6.087   3.399  -5.131  1.00  0.00     0.010 A 
ATOM     38  C   UNL     1       8.268   2.350  -4.964  1.00  0.00     0.010 A 
ATOM     39  C   UNL     1       7.484   3.510  -5.091  1.00  0.00    -0.014 A 
BRANCH  39  40
ATOM     40  C   UNL     1       8.145   4.804  -5.395  1.00  0.00     0.031 A 
ATOM     41  C   UNL     1       8.565   5.065  -6.816  1.00  0.00     0.074 A 
ATOM     42  C   UNL     1       8.392   5.718  -4.441  1.00  0.00     0.049 A 
ATOM     43  N   UNL     1       9.240   6.068  -7.317  1.00  0.00    -0.248 NA
ATOM     44  C   UNL     1       8.175   4.047  -7.804  1.00  0.00     0.031 C 
ATOM     45  C   UNL     1       8.010   5.602  -3.037  1.00  0.00     0.029 A 
ATOM     46  N   UNL     1       9.045   6.925  -4.516  1.00  0.00    -0.354 N 
ATOM     47  C   UNL     1       9.357   5.799  -8.674  1.00  0.00     0.074 A 
ATOM     48  C   UNL     1       8.711   4.527  -8.915  1.00  0.00     0.031 C 
ATOM     49  C   UNL     1       8.454   6.686  -2.375  1.00  0.00     0.029 A 
ATOM     50  C   UNL     1       9.178   7.555  -3.303  1.00  0.00     0.049 A 
ATOM     51  H   UNL     1       9.385   7.302  -5.359  1.00  0.00     0.167 HD
ATOM     52  C   UNL     1       9.946   6.547  -9.636  1.00  0.00     0.037 A 
ATOM     53  C   UNL     1       9.832   8.689  -2.980  1.00  0.00     0.037 A 
ATOM     54  C   UNL     1      10.597   7.806  -9.399  1.00  0.00     0.049 A 
ATOM     55  C   UNL     1      10.541   9.472  -4.058  1.00  0.00     0.074 A 
ATOM     56  C   UNL     1      11.219   8.642 -10.309  1.00  0.00     0.029 A 
ATOM     57  N   UNL     1      10.716   8.408  -8.155  1.00  0.00    -0.354 N 
ATOM     58  N   UNL     1      10.628   9.226  -5.343  1.00  0.00    -0.248 NA
ATOM     59  C   UNL     1      11.245  10.695  -3.639  1.00  0.00     0.031 C 
ATOM     60  C   UNL     1      11.755   9.728  -9.609  1.00  0.00     0.029 A 
ATOM     61  C   UNL     1      11.420   9.595  -8.271  1.00  0.00     0.049 A 
ATOM     62  H   UNL     1      10.355   8.044  -7.314  1.00  0.00     0.167 HD
ATOM     63  C   UNL     1      11.360  10.274  -5.888  1.00  0.00     0.074 A 
ATOM     64  C   UNL     1      11.691  11.164  -4.795  1.00  0.00     0.031 C 
ATOM     65  C   UNL     1      11.722  10.482  -7.177  1.00  0.00     0.037 A 
BRANCH  52  66
ATOM     66  C   UNL     1       9.933   6.003 -11.034  1.00  0.00     0.064 A 
ATOM     67  C   UNL     1       8.756   5.961 -11.796  1.00  0.00     0.173 A 
ATOM     68  C   UNL     1      11.117   5.537 -11.625  1.00  0.00     0.173 A 
ATOM     69  F   UNL     1       7.596   6.380 -11.269  1.00  0.00    -0.203 F 
ATOM     70  C   UNL     1       8.760   5.447 -13.090  1.00  0.00     0.198 A 
ATOM     71  C   UNL     1      11.122   5.051 -12.929  1.00  0.00     0.198 A 
ATOM     72  F   UNL     1      12.270   5.558 -10.939  1.00  0.00    -0.203 F 
ATOM     73  F   UNL     1       7.615   5.373 -13.783  1.00  0.00    -0.200 F 
ATOM     74  C   UNL     1       9.943   4.999 -13.658  1.00  0.00     0.200 A 
ATOM     75  F   UNL     1      12.269   4.628 -13.480  1.00  0.00    -0.200 F 
ATOM     76  F   UNL     1       9.947   4.511 -14.905  1.00  0.00    -0.200 F 
ENDBRANCH  52  66
BRANCH  53  77
ATOM     77  C   UNL     1       9.867   9.154  -1.568  1.00  0.00     0.064 A 
ATOM     78  C   UNL     1       9.201  10.323  -1.174  1.00  0.00     0.173 A 
ATOM     79  C   UNL     1      10.595   8.459  -0.591  1.00  0.00     0.173 A 
ATOM     80  F   UNL     1       8.518  11.041  -2.078  1.00  0.00    -0.203 F 
ATOM     81  C   UNL     1       9.277  10.789   0.138  1.00  0.00     0.198 A 
ATOM     82  C   UNL     1      10.647   8.910   0.726  1.00  0.00     0.198 A 
ATOM     83  F   UNL     1      11.257   7.339  -0.917  1.00  0.00    -0.203 F 
ATOM     84  F   UNL     1       8.674  11.938   0.474  1.00  0.00    -0.200 F 
ATOM     85  C   UNL     1       9.996  10.080   1.088  1.00  0.00     0.200 A 
ATOM     86  F   UNL     1      11.338   8.219   1.643  1.00  0.00    -0.200 F 
ATOM     87  F   UNL     1      10.071  10.529   2.348  1.00  0.00    -0.200 F 
ENDBRANCH  53  77
BRANCH  65  88
ATOM     88  C   UNL     1      12.470  11.744  -7.498  1.00  0.00     0.064 A 
ATOM     89  C   UNL     1      13.813  11.919  -7.139  1.00  0.00     0.173 A 
ATOM     90  C   UNL     1      11.846  12.766  -8.231  1.00  0.00     0.173 A 
ATOM     91  F   UNL     1      14.451  10.977  -6.427  1.00  0.00    -0.203 F 
ATOM     92  C   UNL     1      14.501  13.079  -7.487  1.00  0.00     0.198 A 
ATOM     93  C   UNL     1      12.545  13.912  -8.602  1.00  0.00     0.198 A 
ATOM     94  F   UNL     1      10.564  12.644  -8.606  1.00  0.00    -0.203 F 
ATOM     95  F   UNL     1      15.774  13.243  -7.102  1.00  0.00    -0.200 F 
ATOM     96  C   UNL     1      13.870  14.070  -8.225  1.00  0.00     0.200 A 
ATOM     97  F   UNL     1      11.937  14.861  -9.327  1.00  0.00    -0.200 F 
ATOM     98  F   UNL     1      14.537  15.180  -8.570  1.00  0.00    -0.200 F 
ENDBRANCH  65  88
ENDBRANCH  39  40
ENDBRANCH  32  34
ENDBRANCH  31  32
ENDBRANCH  30  31
ENDBRANCH  29  30
ENDBRANCH  28  29
ENDBRANCH  27  28
ENDBRANCH   1  27
TORSDOF 20
