REMARK SMILES Cc1ccc(C(=O)OCCOCCOCCOC(=O)c2ccc(-c3c4nc(c(-c5c(F)c(F)c(F)c(F)c5F)c5ccc([nH]5)c(-c5c(F)c(F)c(F)c(F)c5F)c5nc(c(-c6c(F)c(F)c(F)c(F)c6F)c6ccc3[nH]6)C=C5)C=C4)cc2)cc1N1C(=O)/C(=C\c2nc3ccccc3n2C)SC1=S
REMARK SMILES IDX 12 1 11 2 10 3 9 4 8 5 6 6 7 7 5 8 1 9 2 10 3 11 84 12 4 13
REMARK SMILES IDX 83 14 85 15 86 16 101 17 87 18 88 19 100 20 102 21 89 22
REMARK SMILES IDX 90 23 91 24 98 25 92 26 97 27 99 28 93 29 96 30 94 31 95 32
REMARK SMILES IDX 13 33 14 34 15 35 16 36 17 37 18 38 19 39 20 40 21 41 82 42
REMARK SMILES IDX 22 43 81 44 23 45 24 46 25 47 75 48 26 49 80 50 74 51 76 52
REMARK SMILES IDX 27 53 79 54 73 55 72 56 28 58 60 59 40 60 59 61 41 62 44 63
REMARK SMILES IDX 58 64 77 65 42 66 43 67 57 69 78 70 45 71 29 72 30 73 38 74
REMARK SMILES IDX 31 75 32 76 36 77 39 78 33 79 34 80 37 81 35 82 61 83 62 84
REMARK SMILES IDX 70 85 63 86 64 87 68 88 71 89 65 90 66 91 69 92 67 93 46 94
REMARK SMILES IDX 47 95 55 96 48 97 49 98 53 99 56 100 50 101 51 102 54 103
REMARK SMILES IDX 52 104
REMARK H PARENT 76 57 44 68
REMARK Flexibility Score: inf
ROOT
ATOM      1  C   UNL     1      -6.503  -0.319  -2.211  1.00  0.00     0.188 C 
ENDROOT
BRANCH   1   2
ATOM      2  O   UNL     1      -6.490   0.641  -1.161  1.00  0.00    -0.376 OA
BRANCH   2   3
ATOM      3  C   UNL     1      -6.364   2.039  -1.372  1.00  0.00     0.202 C 
BRANCH   3   4
ATOM      4  C   UNL     1      -5.285   2.737  -0.471  1.00  0.00     0.261 C 
BRANCH   4   5
ATOM      5  O   UNL     1      -3.872   2.303  -0.622  1.00  0.00    -0.460 OA
BRANCH   5   6
ATOM      6  C   UNL     1      -2.782   2.964  -1.141  1.00  0.00     0.338 C 
ATOM      7  O   UNL     1      -2.878   4.069  -1.655  1.00  0.00    -0.246 OA
BRANCH   6   8
ATOM      8  C   UNL     1      -1.341   2.165  -1.063  1.00  0.00     0.062 A 
ATOM      9  C   UNL     1       2.691   0.556  -0.213  1.00  0.00     0.046 C 
ATOM     10  C   UNL     1       1.337   1.121  -0.522  1.00  0.00    -0.027 A 
ATOM     11  C   UNL     1       0.251   0.361  -0.211  1.00  0.00     0.006 A 
ATOM     12  C   UNL     1       1.076   2.414  -1.026  1.00  0.00     0.054 A 
ATOM     13  C   UNL     1      -1.006   0.927  -0.414  1.00  0.00     0.016 A 
ATOM     14  C   UNL     1      -0.223   2.879  -1.417  1.00  0.00     0.042 A 
BRANCH  12  15
ATOM     15  N   UNL     1       1.888   3.448  -0.517  1.00  0.00    -0.261 N 
ATOM     16  C   UNL     1       1.611   3.836   0.799  1.00  0.00     0.270 C 
ATOM     17  C   UNL     1       2.629   4.287  -1.305  1.00  0.00     0.152 C 
ATOM     18  O   UNL     1       0.803   3.289   1.536  1.00  0.00    -0.268 OA
ATOM     19  C   UNL     1       2.294   5.123   1.090  1.00  0.00     0.084 C 
ATOM     20  S   UNL     1       3.162   5.646  -0.324  1.00  0.00    -0.054 SA
ATOM     21  S   UNL     1       2.998   4.106  -2.923  1.00  0.00    -0.051 S 
ATOM     22  C   UNL     1       2.203   5.874   2.200  1.00  0.00     0.068 C 
BRANCH  22  23
ATOM     23  C   UNL     1       1.471   5.491   3.358  1.00  0.00     0.134 A 
ATOM     24  N   UNL     1       1.354   4.306   3.924  1.00  0.00    -0.229 NA
ATOM     25  N   UNL     1       0.737   6.421   4.076  1.00  0.00    -0.328 N 
ATOM     26  C   UNL     1       0.365   4.422   4.864  1.00  0.00     0.089 A 
ATOM     27  C   UNL     1      -0.056   5.742   4.978  1.00  0.00     0.068 A 
ATOM     28  C   UNL     1       0.764   7.854   3.905  1.00  0.00     0.152 C 
ATOM     29  C   UNL     1      -0.244   3.429   5.648  1.00  0.00     0.030 A 
ATOM     30  C   UNL     1      -1.072   6.132   5.862  1.00  0.00     0.028 A 
ATOM     31  C   UNL     1      -1.275   3.794   6.522  1.00  0.00     0.002 A 
ATOM     32  C   UNL     1      -1.675   5.127   6.630  1.00  0.00     0.002 A 
ENDBRANCH  22  23
ENDBRANCH  12  15
ENDBRANCH   6   8
ENDBRANCH   5   6
ENDBRANCH   4   5
ENDBRANCH   3   4
ENDBRANCH   2   3
ENDBRANCH   1   2
BRANCH   1  33
ATOM     33  C   UNL     1      -6.398  -0.010  -3.698  1.00  0.00     0.188 C 
BRANCH  33  34
ATOM     34  O   UNL     1      -5.484   1.034  -3.978  1.00  0.00    -0.376 OA
BRANCH  34  35
ATOM     35  C   UNL     1      -5.465   1.419  -5.350  1.00  0.00     0.202 C 
BRANCH  35  36
ATOM     36  C   UNL     1      -4.846   0.344  -6.264  1.00  0.00     0.261 C 
BRANCH  36  37
ATOM     37  O   UNL     1      -3.548  -0.045  -5.763  1.00  0.00    -0.460 OA
BRANCH  37  38
ATOM     38  C   UNL     1      -3.395  -1.333  -5.293  1.00  0.00     0.338 C 
ATOM     39  O   UNL     1      -3.891  -2.314  -5.770  1.00  0.00    -0.246 OA
BRANCH  38  40
ATOM     40  C   UNL     1      -2.788  -1.258  -3.907  1.00  0.00     0.060 A 
ATOM     41  C   UNL     1      -2.968  -2.253  -2.941  1.00  0.00     0.016 A 
ATOM     42  C   UNL     1      -2.516  -0.012  -3.442  1.00  0.00     0.016 A 
ATOM     43  C   UNL     1      -3.077  -1.912  -1.544  1.00  0.00     0.010 A 
ATOM     44  C   UNL     1      -3.079   0.273  -2.198  1.00  0.00     0.010 A 
ATOM     45  C   UNL     1      -3.268  -0.592  -1.102  1.00  0.00    -0.014 A 
BRANCH  45  46
ATOM     46  C   UNL     1      -3.831  -0.169   0.375  1.00  0.00     0.031 A 
ATOM     47  C   UNL     1      -3.415   0.978   1.570  1.00  0.00     0.074 A 
ATOM     48  C   UNL     1      -4.922  -0.880   0.737  1.00  0.00     0.049 A 
ATOM     49  N   UNL     1      -3.951   0.968   2.779  1.00  0.00    -0.248 NA
ATOM     50  C   UNL     1      -2.445   2.123   1.610  1.00  0.00     0.031 C 
ATOM     51  C   UNL     1      -5.921  -0.553   1.744  1.00  0.00     0.029 A 
ATOM     52  N   UNL     1      -5.298  -2.160   0.304  1.00  0.00    -0.354 N 
ATOM     53  C   UNL     1      -3.677   2.182   3.414  1.00  0.00     0.074 A 
ATOM     54  C   UNL     1      -2.569   2.735   2.775  1.00  0.00     0.031 C 
ATOM     55  C   UNL     1      -6.574  -1.671   2.082  1.00  0.00     0.029 A 
ATOM     56  C   UNL     1      -5.921  -2.768   1.400  1.00  0.00     0.049 A 
ATOM     57  H   UNL     1      -5.153  -2.551  -0.587  1.00  0.00     0.167 HD
ATOM     58  C   UNL     1      -4.502   2.757   4.324  1.00  0.00     0.037 A 
ATOM     59  C   UNL     1      -5.416  -3.904   1.950  1.00  0.00     0.037 A 
ATOM     60  C   UNL     1      -5.281   1.731   4.953  1.00  0.00     0.049 A 
ATOM     61  C   UNL     1      -5.141  -3.741   3.422  1.00  0.00     0.074 A 
ATOM     62  C   UNL     1      -6.600   1.344   4.920  1.00  0.00     0.029 A 
ATOM     63  N   UNL     1      -4.563   0.696   5.534  1.00  0.00    -0.354 N 
ATOM     64  N   UNL     1      -5.152  -2.582   4.021  1.00  0.00    -0.248 NA
ATOM     65  C   UNL     1      -4.850  -4.829   4.348  1.00  0.00     0.031 C 
ATOM     66  C   UNL     1      -6.636  -0.020   5.341  1.00  0.00     0.029 A 
ATOM     67  C   UNL     1      -5.352  -0.417   5.689  1.00  0.00     0.049 A 
ATOM     68  H   UNL     1      -3.616   0.752   5.799  1.00  0.00     0.167 HD
ATOM     69  C   UNL     1      -4.853  -2.729   5.341  1.00  0.00     0.074 A 
ATOM     70  C   UNL     1      -4.681  -4.158   5.504  1.00  0.00     0.031 C 
ATOM     71  C   UNL     1      -4.740  -1.649   6.168  1.00  0.00     0.037 A 
BRANCH  58  72
ATOM     72  C   UNL     1      -4.623   4.259   4.553  1.00  0.00     0.064 A 
ATOM     73  C   UNL     1      -5.368   4.753   5.642  1.00  0.00     0.173 A 
ATOM     74  C   UNL     1      -4.146   5.268   3.672  1.00  0.00     0.173 A 
ATOM     75  F   UNL     1      -5.918   3.916   6.532  1.00  0.00    -0.203 F 
ATOM     76  C   UNL     1      -5.594   6.125   5.842  1.00  0.00     0.198 A 
ATOM     77  C   UNL     1      -4.310   6.638   3.914  1.00  0.00     0.198 A 
ATOM     78  F   UNL     1      -3.567   4.982   2.499  1.00  0.00    -0.203 F 
ATOM     79  F   UNL     1      -6.361   6.532   6.864  1.00  0.00    -0.200 F 
ATOM     80  C   UNL     1      -5.047   7.067   4.992  1.00  0.00     0.200 A 
ATOM     81  F   UNL     1      -3.773   7.535   3.072  1.00  0.00    -0.200 F 
ATOM     82  F   UNL     1      -5.250   8.376   5.196  1.00  0.00    -0.200 F 
ENDBRANCH  58  72
BRANCH  59  83
ATOM     83  C   UNL     1      -4.757  -4.786   0.938  1.00  0.00     0.064 A 
ATOM     84  C   UNL     1      -5.556  -5.185  -0.162  1.00  0.00     0.173 A 
ATOM     85  C   UNL     1      -3.369  -4.902   0.781  1.00  0.00     0.173 A 
ATOM     86  F   UNL     1      -6.893  -5.074  -0.088  1.00  0.00    -0.203 F 
ATOM     87  C   UNL     1      -5.003  -5.544  -1.390  1.00  0.00     0.198 A 
ATOM     88  C   UNL     1      -2.815  -5.307  -0.447  1.00  0.00     0.198 A 
ATOM     89  F   UNL     1      -2.540  -4.494   1.751  1.00  0.00    -0.203 F 
ATOM     90  F   UNL     1      -5.800  -5.739  -2.450  1.00  0.00    -0.200 F 
ATOM     91  C   UNL     1      -3.630  -5.592  -1.536  1.00  0.00     0.200 A 
ATOM     92  F   UNL     1      -1.485  -5.287  -0.620  1.00  0.00    -0.200 F 
ATOM     93  F   UNL     1      -3.094  -5.826  -2.743  1.00  0.00    -0.200 F 
ENDBRANCH  59  83
BRANCH  71  94
ATOM     94  C   UNL     1      -3.999  -1.636   7.485  1.00  0.00     0.064 A 
ATOM     95  C   UNL     1      -2.946  -2.514   7.791  1.00  0.00     0.173 A 
ATOM     96  C   UNL     1      -4.194  -0.576   8.405  1.00  0.00     0.173 A 
ATOM     97  F   UNL     1      -2.578  -3.487   6.947  1.00  0.00    -0.203 F 
ATOM     98  C   UNL     1      -2.182  -2.376   8.952  1.00  0.00     0.198 A 
ATOM     99  C   UNL     1      -3.382  -0.399   9.524  1.00  0.00     0.198 A 
ATOM    100  F   UNL     1      -5.148   0.349   8.216  1.00  0.00    -0.203 F 
ATOM    101  F   UNL     1      -1.214  -3.264   9.216  1.00  0.00    -0.200 F 
ATOM    102  C   UNL     1      -2.388  -1.310   9.808  1.00  0.00     0.200 A 
ATOM    103  F   UNL     1      -3.550   0.678  10.305  1.00  0.00    -0.200 F 
ATOM    104  F   UNL     1      -1.614  -1.150  10.889  1.00  0.00    -0.200 F 
ENDBRANCH  71  94
ENDBRANCH  45  46
ENDBRANCH  38  40
ENDBRANCH  37  38
ENDBRANCH  36  37
ENDBRANCH  35  36
ENDBRANCH  34  35
ENDBRANCH  33  34
ENDBRANCH   1  33
TORSDOF 19
