REMARK SMILES Cc1cc(Cl)ccc1OCC(=O)Nc1ccc(CC(=O)OCCOCCOCCOC(=O)c2ccc(-c3c4nc(c(-c5c(F)c(F)c(F)c(F)c5F)c5ccc([nH]5)c(-c5c(F)c(F)c(F)c(F)c5F)c5nc(c(-c6c(F)c(F)c(F)c(F)c6F)c6ccc3[nH]6)C=C5)C=C4)cc2)cc1
REMARK SMILES IDX 24 1 23 2 22 3 21 4 19 5 20 6 18 7 17 8 14 9 15 10 97 11
REMARK SMILES IDX 16 12 96 13 13 14 11 15 12 16 10 18 9 19 8 20 1 21 2 22 3 23
REMARK SMILES IDX 4 24 7 25 5 26 6 27 25 28 26 29 27 30 28 31 29 32 30 33
REMARK SMILES IDX 31 34 32 35 33 36 34 37 95 38 35 39 94 40 36 41 37 42 38 43
REMARK SMILES IDX 88 44 39 45 93 46 87 47 89 48 40 49 92 50 86 51 85 52 41 54
REMARK SMILES IDX 73 55 53 56 72 57 54 58 57 59 71 60 90 61 55 62 56 63 70 65
REMARK SMILES IDX 91 66 58 67 42 68 43 69 51 70 44 71 45 72 49 73 52 74 46 75
REMARK SMILES IDX 47 76 50 77 48 78 74 79 75 80 83 81 76 82 77 83 81 84 84 85
REMARK SMILES IDX 78 86 79 87 82 88 80 89 59 90 60 91 68 92 61 93 62 94 66 95
REMARK SMILES IDX 69 96 63 97 64 98 67 99 65 100
REMARK H PARENT 13 17 89 53 57 64
REMARK Flexibility Score: inf
ROOT
ATOM      1  O   UNL     1      -4.928  -6.752   7.133  1.00  0.00    -0.376 OA
ENDROOT
BRANCH   1   2
ATOM      2  C   UNL     1      -3.529  -6.961   7.039  1.00  0.00     0.202 C 
BRANCH   2   3
ATOM      3  C   UNL     1      -3.001  -7.358   5.657  1.00  0.00     0.261 C 
BRANCH   3   4
ATOM      4  O   UNL     1      -3.449  -6.510   4.577  1.00  0.00    -0.463 OA
BRANCH   4   5
ATOM      5  C   UNL     1      -4.328  -7.065   3.707  1.00  0.00     0.310 C 
ATOM      6  O   UNL     1      -4.700  -8.235   3.759  1.00  0.00    -0.252 OA
BRANCH   5   7
ATOM      7  C   UNL     1      -4.815  -6.154   2.600  1.00  0.00     0.158 C 
BRANCH   7   8
ATOM      8  C   UNL     1      -4.667  -4.650   2.697  1.00  0.00    -0.037 A 
ATOM      9  C   UNL     1      -4.501  -1.838   2.626  1.00  0.00     0.041 A 
ATOM     10  C   UNL     1      -5.665  -2.453   3.071  1.00  0.00     0.026 A 
ATOM     11  C   UNL     1      -3.401  -2.614   2.273  1.00  0.00     0.026 A 
ATOM     12  C   UNL     1      -5.760  -3.850   3.070  1.00  0.00     0.006 A 
ATOM     13  C   UNL     1      -3.478  -4.013   2.319  1.00  0.00     0.006 A 
BRANCH   9  14
ATOM     14  N   UNL     1      -4.451  -0.443   2.600  1.00  0.00    -0.323 N 
ATOM     15  C   UNL     1      -4.341   0.366   1.499  1.00  0.00     0.262 C 
ATOM     16  O   UNL     1      -4.404   1.588   1.668  1.00  0.00    -0.271 OA
ATOM     17  H   UNL     1      -4.501   0.012   3.472  1.00  0.00     0.170 HD
BRANCH  15  18
ATOM     18  C   UNL     1      -4.344  -0.242   0.081  1.00  0.00     0.329 C 
BRANCH  18  19
ATOM     19  O   UNL     1      -3.260  -0.918  -0.508  1.00  0.00    -0.483 OA
BRANCH  19  20
ATOM     20  C   UNL     1      -1.981  -0.480  -0.357  1.00  0.00     0.123 A 
ATOM     21  C   UNL     1      -2.298   2.083  -0.504  1.00  0.00     0.048 C 
ATOM     22  C   UNL     1      -1.493   0.831  -0.311  1.00  0.00    -0.007 A 
ATOM     23  C   UNL     1      -0.108   1.022  -0.097  1.00  0.00     0.027 A 
ATOM     24  C   UNL     1       0.770  -0.056  -0.006  1.00  0.00     0.041 A 
ATOM     25  C   UNL     1      -1.072  -1.554  -0.316  1.00  0.00     0.048 A 
ATOM     26  Cl  UNL     1       2.450   0.220   0.235  1.00  0.00    -0.084 Cl
ATOM     27  C   UNL     1       0.294  -1.351  -0.133  1.00  0.00     0.024 A 
ENDBRANCH  19  20
ENDBRANCH  18  19
ENDBRANCH  15  18
ENDBRANCH   9  14
ENDBRANCH   7   8
ENDBRANCH   5   7
ENDBRANCH   4   5
ENDBRANCH   3   4
ENDBRANCH   2   3
ENDBRANCH   1   2
BRANCH   1  28
ATOM     28  C   UNL     1      -5.492  -5.592   6.526  1.00  0.00     0.188 C 
BRANCH  28  29
ATOM     29  C   UNL     1      -4.619  -4.355   6.263  1.00  0.00     0.188 C 
BRANCH  29  30
ATOM     30  O   UNL     1      -3.736  -4.078   7.341  1.00  0.00    -0.376 OA
BRANCH  30  31
ATOM     31  C   UNL     1      -3.770  -2.736   7.795  1.00  0.00     0.202 C 
BRANCH  31  32
ATOM     32  C   UNL     1      -4.804  -2.593   8.913  1.00  0.00     0.261 C 
BRANCH  32  33
ATOM     33  O   UNL     1      -6.143  -2.999   8.556  1.00  0.00    -0.460 OA
BRANCH  33  34
ATOM     34  C   UNL     1      -6.792  -2.246   7.647  1.00  0.00     0.338 C 
ATOM     35  O   UNL     1      -6.365  -1.254   7.067  1.00  0.00    -0.246 OA
BRANCH  34  36
ATOM     36  C   UNL     1      -8.076  -2.897   7.316  1.00  0.00     0.060 A 
ATOM     37  C   UNL     1      -8.356  -3.205   5.980  1.00  0.00     0.016 A 
ATOM     38  C   UNL     1      -9.021  -3.167   8.306  1.00  0.00     0.016 A 
ATOM     39  C   UNL     1      -9.591  -3.752   5.621  1.00  0.00     0.010 A 
ATOM     40  C   UNL     1     -10.264  -3.703   7.947  1.00  0.00     0.010 A 
ATOM     41  C   UNL     1     -10.570  -3.971   6.599  1.00  0.00    -0.014 A 
BRANCH  41  42
ATOM     42  C   UNL     1     -11.961  -4.326   6.210  1.00  0.00     0.031 A 
ATOM     43  C   UNL     1     -13.020  -3.256   6.250  1.00  0.00     0.074 A 
ATOM     44  C   UNL     1     -12.291  -5.571   5.821  1.00  0.00     0.049 A 
ATOM     45  N   UNL     1     -14.313  -3.350   6.063  1.00  0.00    -0.248 NA
ATOM     46  C   UNL     1     -12.554  -1.893   6.546  1.00  0.00     0.031 C 
ATOM     47  C   UNL     1     -11.360  -6.688   5.679  1.00  0.00     0.029 A 
ATOM     48  N   UNL     1     -13.512  -6.106   5.485  1.00  0.00    -0.354 N 
ATOM     49  C   UNL     1     -14.815  -2.067   6.238  1.00  0.00     0.074 A 
ATOM     50  C   UNL     1     -13.692  -1.216   6.570  1.00  0.00     0.031 C 
ATOM     51  C   UNL     1     -12.045  -7.779   5.295  1.00  0.00     0.029 A 
ATOM     52  C   UNL     1     -13.468  -7.451   5.210  1.00  0.00     0.049 A 
ATOM     53  H   UNL     1     -14.340  -5.575   5.445  1.00  0.00     0.167 HD
ATOM     54  C   UNL     1     -16.094  -1.634   6.126  1.00  0.00     0.037 A 
ATOM     55  C   UNL     1     -14.464  -8.323   4.954  1.00  0.00     0.037 A 
ATOM     56  C   UNL     1     -17.212  -2.478   5.792  1.00  0.00     0.049 A 
ATOM     57  C   UNL     1     -15.893  -7.835   4.926  1.00  0.00     0.074 A 
ATOM     58  C   UNL     1     -18.543  -2.128   5.644  1.00  0.00     0.029 A 
ATOM     59  N   UNL     1     -17.131  -3.843   5.559  1.00  0.00    -0.354 N 
ATOM     60  N   UNL     1     -16.360  -6.620   5.085  1.00  0.00    -0.248 NA
ATOM     61  C   UNL     1     -16.934  -8.846   4.686  1.00  0.00     0.031 C 
ATOM     62  C   UNL     1     -19.276  -3.291   5.382  1.00  0.00     0.029 A 
ATOM     63  C   UNL     1     -18.392  -4.354   5.299  1.00  0.00     0.049 A 
ATOM     64  H   UNL     1     -16.299  -4.370   5.577  1.00  0.00     0.167 HD
ATOM     65  C   UNL     1     -17.738  -6.715   4.929  1.00  0.00     0.074 A 
ATOM     66  C   UNL     1     -18.032  -8.104   4.652  1.00  0.00     0.031 C 
ATOM     67  C   UNL     1     -18.675  -5.738   5.008  1.00  0.00     0.037 A 
BRANCH  54  68
ATOM     68  C   UNL     1     -16.360  -0.182   6.405  1.00  0.00     0.064 A 
ATOM     69  C   UNL     1     -15.921   0.833   5.541  1.00  0.00     0.173 A 
ATOM     70  C   UNL     1     -17.088   0.198   7.544  1.00  0.00     0.173 A 
ATOM     71  F   UNL     1     -15.209   0.526   4.446  1.00  0.00    -0.203 F 
ATOM     72  C   UNL     1     -16.171   2.174   5.824  1.00  0.00     0.198 A 
ATOM     73  C   UNL     1     -17.366   1.537   7.805  1.00  0.00     0.198 A 
ATOM     74  F   UNL     1     -17.538  -0.731   8.401  1.00  0.00    -0.203 F 
ATOM     75  F   UNL     1     -15.692   3.128   5.014  1.00  0.00    -0.200 F 
ATOM     76  C   UNL     1     -16.899   2.524   6.951  1.00  0.00     0.200 A 
ATOM     77  F   UNL     1     -18.083   1.872   8.887  1.00  0.00    -0.200 F 
ATOM     78  F   UNL     1     -17.143   3.814   7.219  1.00  0.00    -0.200 F 
ENDBRANCH  54  68
BRANCH  55  79
ATOM     79  C   UNL     1     -14.159  -9.761   4.720  1.00  0.00     0.064 A 
ATOM     80  C   UNL     1     -14.385 -10.354   3.470  1.00  0.00     0.173 A 
ATOM     81  C   UNL     1     -13.671 -10.580   5.749  1.00  0.00     0.173 A 
ATOM     82  F   UNL     1     -14.883  -9.622   2.462  1.00  0.00    -0.203 F 
ATOM     83  C   UNL     1     -14.155 -11.714   3.264  1.00  0.00     0.198 A 
ATOM     84  C   UNL     1     -13.409 -11.932   5.533  1.00  0.00     0.198 A 
ATOM     85  F   UNL     1     -13.446 -10.066   6.967  1.00  0.00    -0.203 F 
ATOM     86  F   UNL     1     -14.434 -12.265   2.075  1.00  0.00    -0.200 F 
ATOM     87  C   UNL     1     -13.661 -12.500   4.294  1.00  0.00     0.200 A 
ATOM     88  F   UNL     1     -12.924 -12.685   6.529  1.00  0.00    -0.200 F 
ATOM     89  F   UNL     1     -13.439 -13.806   4.095  1.00  0.00    -0.200 F 
ENDBRANCH  55  79
BRANCH  67  90
ATOM     90  C   UNL     1     -20.105  -6.119   4.739  1.00  0.00     0.064 A 
ATOM     91  C   UNL     1     -20.846  -6.903   5.634  1.00  0.00     0.173 A 
ATOM     92  C   UNL     1     -20.756  -5.653   3.584  1.00  0.00     0.173 A 
ATOM     93  F   UNL     1     -20.270  -7.385   6.746  1.00  0.00    -0.203 F 
ATOM     94  C   UNL     1     -22.175  -7.230   5.371  1.00  0.00     0.198 A 
ATOM     95  C   UNL     1     -22.093  -5.953   3.342  1.00  0.00     0.198 A 
ATOM     96  F   UNL     1     -20.097  -4.891   2.698  1.00  0.00    -0.203 F 
ATOM     97  F   UNL     1     -22.848  -8.024   6.216  1.00  0.00    -0.200 F 
ATOM     98  C   UNL     1     -22.799  -6.748   4.231  1.00  0.00     0.200 A 
ATOM     99  F   UNL     1     -22.699  -5.471   2.247  1.00  0.00    -0.200 F 
ATOM    100  F   UNL     1     -24.080  -7.057   3.984  1.00  0.00    -0.200 F 
ENDBRANCH  67  90
ENDBRANCH  41  42
ENDBRANCH  34  36
ENDBRANCH  33  34
ENDBRANCH  32  33
ENDBRANCH  31  32
ENDBRANCH  30  31
ENDBRANCH  29  30
ENDBRANCH  28  29
ENDBRANCH   1  28
TORSDOF 22
