REMARK SMILES C[C@H](CC(=O)OCCOCCOCCOC(=O)c1ccc(-c2c3nc(c(-c4c(F)c(F)c(F)c(F)c4F)c4ccc([nH]4)c(-c4c(F)c(F)c(F)c(F)c4F)c4nc(c(-c5c(F)c(F)c(F)c(F)c5F)c5ccc2[nH]5)C=C4)C=C3)cc1)NC(=O)Cc1cn2ccsc2n1
REMARK SMILES IDX 10 1 9 2 8 3 7 4 6 5 4 6 5 7 3 8 2 9 1 10 81 11 82 12 83 14
REMARK SMILES IDX 84 15 85 16 86 17 92 18 87 19 91 20 88 21 90 22 89 23 11 24
REMARK SMILES IDX 12 25 13 26 14 27 15 28 16 29 17 30 18 31 19 32 80 33 20 34
REMARK SMILES IDX 79 35 21 36 22 37 23 38 73 39 24 40 78 41 72 42 74 43 25 44
REMARK SMILES IDX 77 45 71 46 70 47 26 49 58 50 38 51 57 52 39 53 42 54 56 55
REMARK SMILES IDX 75 56 40 57 41 58 55 60 76 61 43 62 27 63 28 64 36 65 29 66
REMARK SMILES IDX 30 67 34 68 37 69 31 70 32 71 35 72 33 73 59 74 60 75 68 76
REMARK SMILES IDX 61 77 62 78 66 79 69 80 63 81 64 82 67 83 65 84 44 85 45 86
REMARK SMILES IDX 53 87 46 88 47 89 51 90 54 91 48 92 49 93 52 94 50 95
REMARK H PARENT 81 13 74 48 42 59
REMARK Flexibility Score: inf
ROOT
ATOM      1  C   UNL     1       3.843   1.516  -1.433  1.00  0.00     0.188 C 
ENDROOT
BRANCH   1   2
ATOM      2  O   UNL     1       4.313   0.825  -2.579  1.00  0.00    -0.376 OA
BRANCH   2   3
ATOM      3  C   UNL     1       3.381   0.678  -3.648  1.00  0.00     0.202 C 
BRANCH   3   4
ATOM      4  C   UNL     1       2.287  -0.381  -3.451  1.00  0.00     0.261 C 
BRANCH   4   5
ATOM      5  O   UNL     1       1.294  -0.060  -2.455  1.00  0.00    -0.463 OA
BRANCH   5   6
ATOM      6  C   UNL     1       1.341  -0.769  -1.292  1.00  0.00     0.307 C 
ATOM      7  O   UNL     1       2.249  -1.524  -0.968  1.00  0.00    -0.252 OA
BRANCH   6   8
ATOM      8  C   UNL     1       0.080  -0.592  -0.476  1.00  0.00     0.147 C 
BRANCH   8   9
ATOM      9  C   UNL     1      -0.214   0.799   0.097  1.00  0.00     0.090 C 
ATOM     10  C   UNL     1      -0.166   1.938  -0.915  1.00  0.00     0.031 C 
BRANCH   9  11
ATOM     11  N   UNL     1      -1.565   0.796   0.677  1.00  0.00    -0.353 N 
ATOM     12  C   UNL     1      -2.020   1.303   1.861  1.00  0.00     0.226 C 
ATOM     13  H   UNL     1      -2.252   0.359   0.123  1.00  0.00     0.163 HD
ATOM     14  O   UNL     1      -3.239   1.338   2.046  1.00  0.00    -0.275 OA
BRANCH  12  15
ATOM     15  C   UNL     1      -1.049   1.870   2.876  1.00  0.00     0.157 C 
BRANCH  15  16
ATOM     16  C   UNL     1      -0.160   0.836   3.481  1.00  0.00     0.070 A 
ATOM     17  C   UNL     1       1.032   1.035   4.171  1.00  0.00     0.118 A 
ATOM     18  N   UNL     1      -0.440  -0.518   3.365  1.00  0.00    -0.223 NA
ATOM     19  N   UNL     1       1.496  -0.220   4.425  1.00  0.00    -0.297 N 
ATOM     20  C   UNL     1       0.570  -1.095   3.950  1.00  0.00     0.193 A 
ATOM     21  C   UNL     1       2.620  -0.787   4.980  1.00  0.00     0.104 A 
ATOM     22  S   UNL     1       1.067  -2.737   4.200  1.00  0.00    -0.105 S 
ATOM     23  C   UNL     1       2.561  -2.130   4.941  1.00  0.00     0.087 A 
ENDBRANCH  15  16
ENDBRANCH  12  15
ENDBRANCH   9  11
ENDBRANCH   8   9
ENDBRANCH   6   8
ENDBRANCH   5   6
ENDBRANCH   4   5
ENDBRANCH   3   4
ENDBRANCH   2   3
ENDBRANCH   1   2
BRANCH   1  24
ATOM     24  C   UNL     1       3.662   3.028  -1.575  1.00  0.00     0.188 C 
BRANCH  24  25
ATOM     25  O   UNL     1       2.797   3.425  -2.634  1.00  0.00    -0.376 OA
BRANCH  25  26
ATOM     26  C   UNL     1       2.113   4.669  -2.437  1.00  0.00     0.202 C 
BRANCH  26  27
ATOM     27  C   UNL     1       3.011   5.889  -2.168  1.00  0.00     0.261 C 
BRANCH  27  28
ATOM     28  O   UNL     1       3.751   5.798  -0.934  1.00  0.00    -0.460 OA
BRANCH  28  29
ATOM     29  C   UNL     1       3.027   5.726   0.208  1.00  0.00     0.338 C 
ATOM     30  O   UNL     1       1.827   5.912   0.325  1.00  0.00    -0.246 OA
BRANCH  29  31
ATOM     31  C   UNL     1       3.880   5.122   1.262  1.00  0.00     0.060 A 
ATOM     32  C   UNL     1       3.288   4.222   2.159  1.00  0.00     0.016 A 
ATOM     33  C   UNL     1       5.255   5.371   1.328  1.00  0.00     0.016 A 
ATOM     34  C   UNL     1       4.059   3.611   3.149  1.00  0.00     0.010 A 
ATOM     35  C   UNL     1       6.026   4.758   2.320  1.00  0.00     0.010 A 
ATOM     36  C   UNL     1       5.426   3.901   3.257  1.00  0.00    -0.014 A 
BRANCH  36  37
ATOM     37  C   UNL     1       6.181   3.463   4.456  1.00  0.00     0.031 A 
ATOM     38  C   UNL     1       6.382   4.451   5.573  1.00  0.00     0.074 A 
ATOM     39  C   UNL     1       6.666   2.215   4.572  1.00  0.00     0.049 A 
ATOM     40  N   UNL     1       7.027   4.312   6.703  1.00  0.00    -0.248 NA
ATOM     41  C   UNL     1       5.771   5.777   5.386  1.00  0.00     0.031 C 
ATOM     42  C   UNL     1       6.526   1.153   3.579  1.00  0.00     0.029 A 
ATOM     43  N   UNL     1       7.394   1.638   5.584  1.00  0.00    -0.354 N 
ATOM     44  C   UNL     1       6.904   5.530   7.357  1.00  0.00     0.074 A 
ATOM     45  C   UNL     1       6.151   6.407   6.487  1.00  0.00     0.031 C 
ATOM     46  C   UNL     1       7.165   0.056   4.023  1.00  0.00     0.029 A 
ATOM     47  C   UNL     1       7.779   0.347   5.318  1.00  0.00     0.049 A 
ATOM     48  H   UNL     1       7.619   2.106   6.420  1.00  0.00     0.167 HD
ATOM     49  C   UNL     1       7.365   5.886   8.579  1.00  0.00     0.037 A 
ATOM     50  C   UNL     1       8.556  -0.492   6.031  1.00  0.00     0.037 A 
ATOM     51  C   UNL     1       8.116   5.025   9.451  1.00  0.00     0.049 A 
ATOM     52  C   UNL     1       9.118  -0.050   7.360  1.00  0.00     0.074 A 
ATOM     53  C   UNL     1       8.597   5.290  10.721  1.00  0.00     0.029 A 
ATOM     54  N   UNL     1       8.508   3.733   9.136  1.00  0.00    -0.354 N 
ATOM     55  N   UNL     1       8.958   1.087   7.991  1.00  0.00    -0.248 NA
ATOM     56  C   UNL     1       9.966  -1.016   8.076  1.00  0.00     0.031 C 
ATOM     57  C   UNL     1       9.322   4.175  11.155  1.00  0.00     0.029 A 
ATOM     58  C   UNL     1       9.248   3.197  10.177  1.00  0.00     0.049 A 
ATOM     59  H   UNL     1       8.291   3.266   8.297  1.00  0.00     0.167 HD
ATOM     60  C   UNL     1       9.662   0.966   9.184  1.00  0.00     0.074 A 
ATOM     61  C   UNL     1      10.238  -0.362   9.197  1.00  0.00     0.031 C 
ATOM     62  C   UNL     1       9.815   1.873  10.181  1.00  0.00     0.037 A 
BRANCH  49  63
ATOM     63  C   UNL     1       7.083   7.287   9.034  1.00  0.00     0.064 A 
ATOM     64  C   UNL     1       5.795   7.691   9.413  1.00  0.00     0.173 A 
ATOM     65  C   UNL     1       8.118   8.230   9.107  1.00  0.00     0.173 A 
ATOM     66  F   UNL     1       4.769   6.830   9.341  1.00  0.00    -0.203 F 
ATOM     67  C   UNL     1       5.548   8.998   9.824  1.00  0.00     0.198 A 
ATOM     68  C   UNL     1       7.873   9.528   9.543  1.00  0.00     0.198 A 
ATOM     69  F   UNL     1       9.368   7.891   8.753  1.00  0.00    -0.203 F 
ATOM     70  F   UNL     1       4.301   9.377  10.133  1.00  0.00    -0.200 F 
ATOM     71  C   UNL     1       6.588   9.914   9.894  1.00  0.00     0.200 A 
ATOM     72  F   UNL     1       8.880  10.410   9.617  1.00  0.00    -0.200 F 
ATOM     73  F   UNL     1       6.349  11.171  10.291  1.00  0.00    -0.200 F 
ENDBRANCH  49  63
BRANCH  50  74
ATOM     74  C   UNL     1       8.866  -1.846   5.503  1.00  0.00     0.064 A 
ATOM     75  C   UNL     1       8.332  -2.994   6.103  1.00  0.00     0.173 A 
ATOM     76  C   UNL     1       9.728  -2.019   4.411  1.00  0.00     0.173 A 
ATOM     77  F   UNL     1       7.524  -2.878   7.167  1.00  0.00    -0.203 F 
ATOM     78  C   UNL     1       8.664  -4.267   5.643  1.00  0.00     0.198 A 
ATOM     79  C   UNL     1      10.039  -3.291   3.935  1.00  0.00     0.198 A 
ATOM     80  F   UNL     1      10.269  -0.951   3.807  1.00  0.00    -0.203 F 
ATOM     81  F   UNL     1       8.178  -5.349   6.265  1.00  0.00    -0.200 F 
ATOM     82  C   UNL     1       9.514  -4.414   4.556  1.00  0.00     0.200 A 
ATOM     83  F   UNL     1      10.855  -3.429   2.881  1.00  0.00    -0.200 F 
ATOM     84  F   UNL     1       9.834  -5.638   4.115  1.00  0.00    -0.200 F 
ENDBRANCH  50  74
BRANCH  62  85
ATOM     85  C   UNL     1      10.610   1.454  11.385  1.00  0.00     0.064 A 
ATOM     86  C   UNL     1      12.004   1.306  11.333  1.00  0.00     0.173 A 
ATOM     87  C   UNL     1       9.974   1.239  12.617  1.00  0.00     0.173 A 
ATOM     88  F   UNL     1      12.659   1.487  10.176  1.00  0.00    -0.203 F 
ATOM     89  C   UNL     1      12.728   0.933  12.463  1.00  0.00     0.198 A 
ATOM     90  C   UNL     1      10.704   0.895  13.752  1.00  0.00     0.198 A 
ATOM     91  F   UNL     1       8.643   1.376  12.724  1.00  0.00    -0.203 F 
ATOM     92  F   UNL     1      14.053   0.752  12.379  1.00  0.00    -0.200 F 
ATOM     93  C   UNL     1      12.078   0.735  13.673  1.00  0.00     0.200 A 
ATOM     94  F   UNL     1      10.075   0.717  14.923  1.00  0.00    -0.200 F 
ATOM     95  F   UNL     1      12.777   0.381  14.760  1.00  0.00    -0.200 F 
ENDBRANCH  62  85
ENDBRANCH  36  37
ENDBRANCH  29  31
ENDBRANCH  28  29
ENDBRANCH  27  28
ENDBRANCH  26  27
ENDBRANCH  25  26
ENDBRANCH  24  25
ENDBRANCH   1  24
TORSDOF 21
