REMARK SMILES O=C(OCCOCCOCCOC(=O)c1ccc2c(c1)[C@@H]1C=CC[C@@H]1[C@H](c1ccncc1)N2)c1ccc(-c2c3nc(c(-c4c(F)c(F)c(F)c(F)c4F)c4ccc([nH]4)c(-c4c(F)c(F)c(F)c(F)c4F)c4nc(c(-c5c(F)c(F)c(F)c(F)c5F)c5ccc2[nH]5)C=C4)C=C3)cc1
REMARK SMILES IDX 7 1 6 2 5 3 4 4 3 5 2 6 1 7 34 8 35 9 96 10 36 11 95 12
REMARK SMILES IDX 37 13 38 14 39 15 89 16 40 17 94 18 88 19 90 20 41 21 93 22
REMARK SMILES IDX 87 23 86 24 42 26 74 27 54 28 73 29 55 30 58 31 72 32 91 33
REMARK SMILES IDX 56 34 57 35 71 37 92 38 59 39 43 40 44 41 52 42 45 43 46 44
REMARK SMILES IDX 50 45 53 46 47 47 48 48 51 49 49 50 75 51 76 52 84 53 77 54
REMARK SMILES IDX 78 55 82 56 85 57 79 58 80 59 83 60 81 61 60 62 61 63 69 64
REMARK SMILES IDX 62 65 63 66 67 67 70 68 64 69 65 70 68 71 66 72 8 73 9 74
REMARK SMILES IDX 10 75 11 76 12 77 13 78 14 79 15 80 16 81 20 82 17 83 19 84
REMARK SMILES IDX 18 85 21 86 33 87 22 88 25 89 26 90 23 92 24 93 27 94 28 95
REMARK SMILES IDX 32 96 29 97 31 98 30 99
REMARK H PARENT 90 25 58 36 33 91
REMARK Flexibility Score: inf
ROOT
ATOM      1  C   UNL     1       2.491  -2.084   0.238  1.00  0.00     0.188 C 
ENDROOT
BRANCH   1   2
ATOM      2  O   UNL     1       3.714  -1.572  -0.314  1.00  0.00    -0.376 OA
BRANCH   2   3
ATOM      3  C   UNL     1       4.685  -1.232   0.682  1.00  0.00     0.202 C 
BRANCH   3   4
ATOM      4  C   UNL     1       4.508   0.162   1.295  1.00  0.00     0.261 C 
BRANCH   4   5
ATOM      5  O   UNL     1       3.139   0.592   1.302  1.00  0.00    -0.460 OA
BRANCH   5   6
ATOM      6  C   UNL     1       2.467   1.282   0.348  1.00  0.00     0.338 C 
ATOM      7  O   UNL     1       1.282   1.544   0.549  1.00  0.00    -0.246 OA
BRANCH   6   8
ATOM      8  C   UNL     1       3.082   1.796  -0.920  1.00  0.00     0.060 A 
ATOM      9  C   UNL     1       4.218   1.286  -1.553  1.00  0.00     0.016 A 
ATOM     10  C   UNL     1       2.422   2.870  -1.544  1.00  0.00     0.016 A 
ATOM     11  C   UNL     1       4.757   1.892  -2.691  1.00  0.00     0.010 A 
ATOM     12  C   UNL     1       2.924   3.448  -2.716  1.00  0.00     0.010 A 
ATOM     13  C   UNL     1       4.129   2.992  -3.271  1.00  0.00    -0.014 A 
BRANCH  13  14
ATOM     14  C   UNL     1       4.818   3.790  -4.313  1.00  0.00     0.031 A 
ATOM     15  C   UNL     1       5.367   5.131  -3.918  1.00  0.00     0.074 A 
ATOM     16  C   UNL     1       5.096   3.314  -5.542  1.00  0.00     0.049 A 
ATOM     17  N   UNL     1       5.885   6.073  -4.661  1.00  0.00    -0.248 NA
ATOM     18  C   UNL     1       5.388   5.422  -2.474  1.00  0.00     0.031 C 
ATOM     19  C   UNL     1       4.915   1.935  -5.980  1.00  0.00     0.029 A 
ATOM     20  N   UNL     1       5.616   3.948  -6.648  1.00  0.00    -0.354 N 
ATOM     21  C   UNL     1       6.320   7.049  -3.777  1.00  0.00     0.074 A 
ATOM     22  C   UNL     1       5.955   6.617  -2.446  1.00  0.00     0.031 C 
ATOM     23  C   UNL     1       5.311   1.837  -7.261  1.00  0.00     0.029 A 
ATOM     24  C   UNL     1       5.620   3.158  -7.776  1.00  0.00     0.049 A 
ATOM     25  H   UNL     1       5.952   4.873  -6.634  1.00  0.00     0.167 HD
ATOM     26  C   UNL     1       6.991   8.190  -4.054  1.00  0.00     0.037 A 
ATOM     27  C   UNL     1       5.759   3.500  -9.073  1.00  0.00     0.037 A 
ATOM     28  C   UNL     1       7.334   8.612  -5.384  1.00  0.00     0.049 A 
ATOM     29  C   UNL     1       6.080   4.929  -9.394  1.00  0.00     0.074 A 
ATOM     30  C   UNL     1       8.005   9.750  -5.793  1.00  0.00     0.029 A 
ATOM     31  N   UNL     1       7.003   7.906  -6.531  1.00  0.00    -0.354 N 
ATOM     32  N   UNL     1       6.348   5.911  -8.573  1.00  0.00    -0.248 NA
ATOM     33  C   UNL     1       6.144   5.290 -10.817  1.00  0.00     0.031 C 
ATOM     34  C   UNL     1       8.021   9.764  -7.193  1.00  0.00     0.029 A 
ATOM     35  C   UNL     1       7.408   8.610  -7.651  1.00  0.00     0.049 A 
ATOM     36  H   UNL     1       6.548   7.034  -6.546  1.00  0.00     0.167 HD
ATOM     37  C   UNL     1       6.691   6.983  -9.377  1.00  0.00     0.074 A 
ATOM     38  C   UNL     1       6.508   6.560 -10.749  1.00  0.00     0.031 C 
ATOM     39  C   UNL     1       7.195   8.182  -9.006  1.00  0.00     0.037 A 
BRANCH  26  40
ATOM     40  C   UNL     1       7.329   9.071  -2.892  1.00  0.00     0.064 A 
ATOM     41  C   UNL     1       8.313   8.719  -1.955  1.00  0.00     0.173 A 
ATOM     42  C   UNL     1       6.614  10.258  -2.684  1.00  0.00     0.173 A 
ATOM     43  F   UNL     1       9.005   7.578  -2.096  1.00  0.00    -0.203 F 
ATOM     44  C   UNL     1       8.537   9.505  -0.827  1.00  0.00     0.198 A 
ATOM     45  C   UNL     1       6.859  11.054  -1.569  1.00  0.00     0.198 A 
ATOM     46  F   UNL     1       5.660  10.632  -3.549  1.00  0.00    -0.203 F 
ATOM     47  F   UNL     1       9.430   9.114   0.093  1.00  0.00    -0.200 F 
ATOM     48  C   UNL     1       7.810  10.670  -0.636  1.00  0.00     0.200 A 
ATOM     49  F   UNL     1       6.156  12.179  -1.386  1.00  0.00    -0.200 F 
ATOM     50  F   UNL     1       8.012  11.415   0.460  1.00  0.00    -0.200 F 
ENDBRANCH  26  40
BRANCH  27  51
ATOM     51  C   UNL     1       5.467   2.561 -10.190  1.00  0.00     0.064 A 
ATOM     52  C   UNL     1       6.352   1.560 -10.598  1.00  0.00     0.173 A 
ATOM     53  C   UNL     1       4.274   2.706 -10.920  1.00  0.00     0.173 A 
ATOM     54  F   UNL     1       7.522   1.400  -9.965  1.00  0.00    -0.203 F 
ATOM     55  C   UNL     1       6.035   0.713 -11.665  1.00  0.00     0.198 A 
ATOM     56  C   UNL     1       3.950   1.853 -11.975  1.00  0.00     0.198 A 
ATOM     57  F   UNL     1       3.402   3.668 -10.583  1.00  0.00    -0.203 F 
ATOM     58  F   UNL     1       6.892  -0.252 -12.028  1.00  0.00    -0.200 F 
ATOM     59  C   UNL     1       4.829   0.850 -12.341  1.00  0.00     0.200 A 
ATOM     60  F   UNL     1       2.774   1.983 -12.606  1.00  0.00    -0.200 F 
ATOM     61  F   UNL     1       4.512   0.010 -13.336  1.00  0.00    -0.200 F 
ENDBRANCH  27  51
BRANCH  39  62
ATOM     62  C   UNL     1       7.687   9.055 -10.112  1.00  0.00     0.064 A 
ATOM     63  C   UNL     1       6.820   9.786 -10.931  1.00  0.00     0.173 A 
ATOM     64  C   UNL     1       9.065   9.124 -10.367  1.00  0.00     0.173 A 
ATOM     65  F   UNL     1       5.493   9.708 -10.750  1.00  0.00    -0.203 F 
ATOM     66  C   UNL     1       7.317  10.551 -11.981  1.00  0.00     0.198 A 
ATOM     67  C   UNL     1       9.560   9.910 -11.399  1.00  0.00     0.198 A 
ATOM     68  F   UNL     1       9.927   8.419  -9.618  1.00  0.00    -0.203 F 
ATOM     69  F   UNL     1       6.472  11.204 -12.790  1.00  0.00    -0.200 F 
ATOM     70  C   UNL     1       8.685  10.619 -12.208  1.00  0.00     0.200 A 
ATOM     71  F   UNL     1      10.880   9.970 -11.618  1.00  0.00    -0.200 F 
ATOM     72  F   UNL     1       9.162  11.356 -13.221  1.00  0.00    -0.200 F 
ENDBRANCH  39  62
ENDBRANCH  13  14
ENDBRANCH   6   8
ENDBRANCH   5   6
ENDBRANCH   4   5
ENDBRANCH   3   4
ENDBRANCH   2   3
ENDBRANCH   1   2
BRANCH   1  73
ATOM     73  C   UNL     1       1.926  -3.245  -0.587  1.00  0.00     0.188 C 
BRANCH  73  74
ATOM     74  O   UNL     1       2.661  -4.468  -0.539  1.00  0.00    -0.376 OA
BRANCH  74  75
ATOM     75  C   UNL     1       4.038  -4.418  -0.897  1.00  0.00     0.202 C 
BRANCH  75  76
ATOM     76  C   UNL     1       4.376  -4.173  -2.371  1.00  0.00     0.261 C 
BRANCH  76  77
ATOM     77  O   UNL     1       3.689  -3.060  -2.967  1.00  0.00    -0.460 OA
BRANCH  77  78
ATOM     78  C   UNL     1       2.810  -3.408  -3.934  1.00  0.00     0.338 C 
ATOM     79  O   UNL     1       2.556  -4.548  -4.315  1.00  0.00    -0.246 OA
BRANCH  78  80
ATOM     80  C   UNL     1       2.225  -2.236  -4.610  1.00  0.00     0.060 A 
ATOM     81  C   UNL     1       1.711  -1.115  -3.959  1.00  0.00     0.018 A 
ATOM     82  C   UNL     1       2.136  -2.325  -5.997  1.00  0.00     0.022 A 
ATOM     83  C   UNL     1       1.067  -0.115  -4.709  1.00  0.00     0.027 A 
ATOM     84  C   UNL     1       1.541  -1.306  -6.749  1.00  0.00    -0.017 A 
ATOM     85  C   UNL     1       0.945  -0.208  -6.105  1.00  0.00     0.038 A 
ATOM     86  C   UNL     1       1.582  -1.402  -8.255  1.00  0.00     0.049 C 
ATOM     87  N   UNL     1       0.361   0.833  -6.821  1.00  0.00    -0.378 N 
ATOM     88  C   UNL     1       2.984  -1.651  -8.768  1.00  0.00    -0.023 C 
ATOM     89  C   UNL     1       1.313  -0.050  -8.908  1.00  0.00     0.031 C 
ATOM     90  C   UNL     1       0.168   0.730  -8.266  1.00  0.00     0.114 C 
ATOM     91  H   UNL     1       0.074   1.648  -6.348  1.00  0.00     0.161 HD
ATOM     92  C   UNL     1       3.590  -0.502  -9.085  1.00  0.00    -0.030 C 
ATOM     93  C   UNL     1       2.667   0.650  -8.841  1.00  0.00     0.034 C 
BRANCH  90  94
ATOM     94  C   UNL     1      -0.002   2.088  -8.955  1.00  0.00    -0.022 A 
ATOM     95  C   UNL     1      -0.234   2.132 -10.343  1.00  0.00     0.026 A 
ATOM     96  C   UNL     1       0.106   3.315  -8.293  1.00  0.00     0.026 A 
ATOM     97  C   UNL     1      -0.325   3.358 -10.988  1.00  0.00     0.111 A 
ATOM     98  C   UNL     1      -0.023   4.492  -9.022  1.00  0.00     0.111 A 
ATOM     99  N   UNL     1      -0.235   4.541 -10.353  1.00  0.00    -0.265 NA
ENDBRANCH  90  94
ENDBRANCH  78  80
ENDBRANCH  77  78
ENDBRANCH  76  77
ENDBRANCH  75  76
ENDBRANCH  74  75
ENDBRANCH  73  74
ENDBRANCH   1  73
TORSDOF 18
