REMARK SMILES O=C(Nc1ccc2c(c1)[C@@H]1C=CC[C@@H]1[C@H](C(=O)OCCOCCOCCOC(=O)c1ccc(-c3c4nc(c(-c5c(F)c(F)c(F)c(F)c5F)c5ccc([nH]5)c(-c5c(F)c(F)c(F)c(F)c5F)c5nc(c(-c6c(F)c(F)c(F)c(F)c6F)c6ccc3[nH]6)C=C5)C=C4)cc1)N2)c1ccccc1
REMARK SMILES IDX 22 1 21 2 20 3 19 4 18 5 16 6 17 7 15 8 4 9 5 10 9 11 6 12
REMARK SMILES IDX 8 13 7 14 10 15 93 16 11 17 14 18 12 20 13 21 3 22 1 23 2 24
REMARK SMILES IDX 94 26 95 27 99 28 96 29 98 30 97 31 23 32 24 33 25 34 26 35
REMARK SMILES IDX 27 36 28 37 29 38 30 39 31 40 92 41 32 42 91 43 33 44 34 45
REMARK SMILES IDX 35 46 85 47 36 48 90 49 84 50 86 51 37 52 89 53 83 54 82 55
REMARK SMILES IDX 38 57 70 58 50 59 69 60 51 61 54 62 68 63 87 64 52 65 53 66
REMARK SMILES IDX 67 68 88 69 55 70 39 71 40 72 48 73 41 74 42 75 46 76 49 77
REMARK SMILES IDX 43 78 44 79 47 80 45 81 71 82 72 83 80 84 73 85 74 86 78 87
REMARK SMILES IDX 81 88 75 89 76 90 79 91 77 92 56 93 57 94 65 95 58 96 59 97
REMARK SMILES IDX 63 98 66 99 60 100 61 101 64 102 62 103
REMARK H PARENT 93 19 3 25 86 56 54 67
REMARK Flexibility Score: inf
ROOT
ATOM      1  C   UNL     1      12.686  -1.400   1.782  1.00  0.00     0.188 C 
ENDROOT
BRANCH   1   2
ATOM      2  O   UNL     1      13.765  -1.494   0.860  1.00  0.00    -0.376 OA
BRANCH   2   3
ATOM      3  C   UNL     1      13.947  -0.400  -0.037  1.00  0.00     0.202 C 
BRANCH   3   4
ATOM      4  C   UNL     1      12.816  -0.137  -1.044  1.00  0.00     0.261 C 
BRANCH   4   5
ATOM      5  O   UNL     1      11.499  -0.106  -0.458  1.00  0.00    -0.462 OA
BRANCH   5   6
ATOM      6  C   UNL     1      10.673  -1.106  -0.855  1.00  0.00     0.328 C 
ATOM      7  O   UNL     1      10.958  -1.942  -1.713  1.00  0.00    -0.250 OA
BRANCH   6   8
ATOM      8  C   UNL     1       9.337  -1.197  -0.089  1.00  0.00     0.194 C 
ATOM      9  C   UNL     1       4.217  -1.303  -0.469  1.00  0.00     0.041 A 
ATOM     10  C   UNL     1       4.727  -2.025  -1.541  1.00  0.00     0.028 A 
ATOM     11  C   UNL     1       5.089  -0.808   0.509  1.00  0.00     0.032 A 
ATOM     12  C   UNL     1       6.104  -2.113  -1.710  1.00  0.00     0.028 A 
ATOM     13  C   UNL     1       6.483  -0.880   0.339  1.00  0.00    -0.015 A 
ATOM     14  C   UNL     1       6.985  -1.528  -0.794  1.00  0.00     0.039 A 
ATOM     15  C   UNL     1       7.437  -0.275   1.353  1.00  0.00     0.050 C 
ATOM     16  N   UNL     1       8.326  -1.541  -1.079  1.00  0.00    -0.372 N 
ATOM     17  C   UNL     1       7.084   1.139   1.739  1.00  0.00    -0.023 C 
ATOM     18  C   UNL     1       8.889  -0.067   0.832  1.00  0.00     0.038 C 
ATOM     19  H   UNL     1       8.616  -1.794  -1.985  1.00  0.00     0.161 HD
ATOM     20  C   UNL     1       7.886   2.034   1.152  1.00  0.00    -0.030 C 
ATOM     21  C   UNL     1       8.912   1.367   0.287  1.00  0.00     0.034 C 
BRANCH   9  22
ATOM     22  N   UNL     1       2.834  -1.061  -0.466  1.00  0.00    -0.322 N 
ATOM     23  O   UNL     1       0.906  -0.024   0.102  1.00  0.00    -0.269 OA
ATOM     24  C   UNL     1       2.132   0.023   0.015  1.00  0.00     0.255 C 
ATOM     25  H   UNL     1       2.284  -1.772  -0.868  1.00  0.00     0.170 HD
BRANCH  24  26
ATOM     26  C   UNL     1       2.827   1.291   0.348  1.00  0.00     0.040 A 
ATOM     27  C   UNL     1       3.802   1.838  -0.499  1.00  0.00     0.014 A 
ATOM     28  C   UNL     1       2.485   1.946   1.534  1.00  0.00     0.014 A 
ATOM     29  C   UNL     1       4.492   2.987  -0.113  1.00  0.00     0.001 A 
ATOM     30  C   UNL     1       3.170   3.102   1.909  1.00  0.00     0.001 A 
ATOM     31  C   UNL     1       4.183   3.612   1.094  1.00  0.00     0.000 A 
ENDBRANCH  24  26
ENDBRANCH   9  22
ENDBRANCH   6   8
ENDBRANCH   5   6
ENDBRANCH   4   5
ENDBRANCH   3   4
ENDBRANCH   2   3
ENDBRANCH   1   2
BRANCH   1  32
ATOM     32  C   UNL     1      12.614  -0.134   2.635  1.00  0.00     0.188 C 
BRANCH  32  33
ATOM     33  O   UNL     1      12.698   1.097   1.931  1.00  0.00    -0.376 OA
BRANCH  33  34
ATOM     34  C   UNL     1      12.660   2.284   2.733  1.00  0.00     0.202 C 
BRANCH  34  35
ATOM     35  C   UNL     1      13.636   2.345   3.930  1.00  0.00     0.261 C 
BRANCH  35  36
ATOM     36  O   UNL     1      13.451   1.319   4.931  1.00  0.00    -0.460 OA
BRANCH  36  37
ATOM     37  C   UNL     1      12.208   1.164   5.443  1.00  0.00     0.338 C 
ATOM     38  O   UNL     1      11.287   1.958   5.356  1.00  0.00    -0.246 OA
BRANCH  37  39
ATOM     39  C   UNL     1      12.044  -0.245   5.900  1.00  0.00     0.060 A 
ATOM     40  C   UNL     1      10.798  -0.857   5.695  1.00  0.00     0.016 A 
ATOM     41  C   UNL     1      13.091  -0.986   6.460  1.00  0.00     0.016 A 
ATOM     42  C   UNL     1      10.575  -2.171   6.113  1.00  0.00     0.010 A 
ATOM     43  C   UNL     1      12.866  -2.303   6.887  1.00  0.00     0.010 A 
ATOM     44  C   UNL     1      11.591  -2.885   6.763  1.00  0.00    -0.014 A 
BRANCH  44  45
ATOM     45  C   UNL     1      11.232  -4.114   7.524  1.00  0.00     0.031 A 
ATOM     46  C   UNL     1      10.970  -3.976   9.003  1.00  0.00     0.074 A 
ATOM     47  C   UNL     1      11.065  -5.310   6.932  1.00  0.00     0.049 A 
ATOM     48  N   UNL     1      10.586  -4.876   9.873  1.00  0.00    -0.248 NA
ATOM     49  C   UNL     1      11.164  -2.634   9.575  1.00  0.00     0.031 C 
ATOM     50  C   UNL     1      11.247  -5.588   5.510  1.00  0.00     0.029 A 
ATOM     51  N   UNL     1      10.691  -6.521   7.467  1.00  0.00    -0.354 N 
ATOM     52  C   UNL     1      10.496  -4.210  11.089  1.00  0.00     0.074 A 
ATOM     53  C   UNL     1      10.903  -2.842  10.855  1.00  0.00     0.031 C 
ATOM     54  C   UNL     1      10.980  -6.888   5.283  1.00  0.00     0.029 A 
ATOM     55  C   UNL     1      10.627  -7.539   6.546  1.00  0.00     0.049 A 
ATOM     56  H   UNL     1      10.488  -6.647   8.422  1.00  0.00     0.167 HD
ATOM     57  C   UNL     1      10.096  -4.685  12.293  1.00  0.00     0.037 A 
ATOM     58  C   UNL     1      10.324  -8.843   6.706  1.00  0.00     0.037 A 
ATOM     59  C   UNL     1       9.688  -6.042  12.541  1.00  0.00     0.049 A 
ATOM     60  C   UNL     1       9.945  -9.364   8.073  1.00  0.00     0.074 A 
ATOM     61  C   UNL     1       9.251  -6.608  13.725  1.00  0.00     0.029 A 
ATOM     62  N   UNL     1       9.678  -7.050  11.589  1.00  0.00    -0.354 N 
ATOM     63  N   UNL     1       9.823  -8.718   9.207  1.00  0.00    -0.248 NA
ATOM     64  C   UNL     1       9.647 -10.801   8.174  1.00  0.00     0.031 C 
ATOM     65  C   UNL     1       9.032  -7.972  13.505  1.00  0.00     0.029 A 
ATOM     66  C   UNL     1       9.266  -8.241  12.166  1.00  0.00     0.049 A 
ATOM     67  H   UNL     1       9.926  -6.936  10.643  1.00  0.00     0.167 HD
ATOM     68  C   UNL     1       9.393  -9.656  10.140  1.00  0.00     0.074 A 
ATOM     69  C   UNL     1       9.266 -10.914   9.438  1.00  0.00     0.031 C 
ATOM     70  C   UNL     1       9.124  -9.488  11.459  1.00  0.00     0.037 A 
BRANCH  57  71
ATOM     71  C   UNL     1      10.112  -3.726  13.449  1.00  0.00     0.064 A 
ATOM     72  C   UNL     1       9.200  -2.664  13.543  1.00  0.00     0.173 A 
ATOM     73  C   UNL     1      11.043  -3.885  14.486  1.00  0.00     0.173 A 
ATOM     74  F   UNL     1       8.301  -2.456  12.569  1.00  0.00    -0.203 F 
ATOM     75  C   UNL     1       9.242  -1.778  14.617  1.00  0.00     0.198 A 
ATOM     76  C   UNL     1      11.060  -3.018  15.574  1.00  0.00     0.198 A 
ATOM     77  F   UNL     1      11.936  -4.886  14.445  1.00  0.00    -0.203 F 
ATOM     78  F   UNL     1       8.399  -0.736  14.657  1.00  0.00    -0.200 F 
ATOM     79  C   UNL     1      10.166  -1.960  15.635  1.00  0.00     0.200 A 
ATOM     80  F   UNL     1      11.946  -3.204  16.563  1.00  0.00    -0.200 F 
ATOM     81  F   UNL     1      10.202  -1.110  16.670  1.00  0.00    -0.200 F 
ENDBRANCH  57  71
BRANCH  58  82
ATOM     82  C   UNL     1      10.352  -9.770   5.541  1.00  0.00     0.064 A 
ATOM     83  C   UNL     1       9.178 -10.364   5.057  1.00  0.00     0.173 A 
ATOM     84  C   UNL     1      11.561 -10.124   4.924  1.00  0.00     0.173 A 
ATOM     85  F   UNL     1       8.000 -10.085   5.635  1.00  0.00    -0.203 F 
ATOM     86  C   UNL     1       9.214 -11.295   4.020  1.00  0.00     0.198 A 
ATOM     87  C   UNL     1      11.593 -11.031   3.867  1.00  0.00     0.198 A 
ATOM     88  F   UNL     1      12.715  -9.593   5.354  1.00  0.00    -0.203 F 
ATOM     89  F   UNL     1       8.084 -11.894   3.620  1.00  0.00    -0.200 F 
ATOM     90  C   UNL     1      10.421 -11.624   3.422  1.00  0.00     0.200 A 
ATOM     91  F   UNL     1      12.761 -11.342   3.288  1.00  0.00    -0.200 F 
ATOM     92  F   UNL     1      10.456 -12.523   2.429  1.00  0.00    -0.200 F 
ENDBRANCH  58  82
BRANCH  70  93
ATOM     93  C   UNL     1       8.600 -10.676  12.221  1.00  0.00     0.064 A 
ATOM     94  C   UNL     1       9.397 -11.797  12.497  1.00  0.00     0.173 A 
ATOM     95  C   UNL     1       7.279 -10.681  12.699  1.00  0.00     0.173 A 
ATOM     96  F   UNL     1      10.663 -11.850  12.058  1.00  0.00    -0.203 F 
ATOM     97  C   UNL     1       8.879 -12.895  13.182  1.00  0.00     0.198 A 
ATOM     98  C   UNL     1       6.776 -11.764  13.416  1.00  0.00     0.198 A 
ATOM     99  F   UNL     1       6.475  -9.631  12.477  1.00  0.00    -0.203 F 
ATOM    100  F   UNL     1       9.640 -13.981  13.375  1.00  0.00    -0.200 F 
ATOM    101  C   UNL     1       7.572 -12.876  13.645  1.00  0.00     0.200 A 
ATOM    102  F   UNL     1       5.519 -11.735  13.878  1.00  0.00    -0.200 F 
ATOM    103  F   UNL     1       7.076 -13.932  14.303  1.00  0.00    -0.200 F 
ENDBRANCH  70  93
ENDBRANCH  44  45
ENDBRANCH  37  39
ENDBRANCH  36  37
ENDBRANCH  35  36
ENDBRANCH  34  35
ENDBRANCH  33  34
ENDBRANCH  32  33
ENDBRANCH   1  32
TORSDOF 19
