REMARK SMILES Cc1ccc(/[NH+]=C2/S[C@@H](CC(=O)Nc3ccc(C(=O)OCCOCCOCCOC(=O)c4ccc(-c5c6nc(c(-c7c(F)c(F)c(F)c(F)c7F)c7ccc([nH]7)c(-c7c(F)c(F)c(F)c(F)c7F)c7nc(c(-c8c(F)c(F)c(F)c(F)c8F)c8ccc5[nH]8)C=C7)C=C6)cc4)cc3)C(=O)N2C)cc1
REMARK SMILES IDX 24 1 23 2 22 3 21 4 20 5 18 6 19 7 17 8 14 9 15 10 96 11
REMARK SMILES IDX 16 12 95 13 13 14 11 15 12 16 10 18 9 19 6 20 7 21 8 23
REMARK SMILES IDX 99 24 97 25 100 26 98 27 5 28 1 29 2 30 3 31 102 32 4 33
REMARK SMILES IDX 101 34 25 35 26 36 27 37 28 38 29 39 30 40 31 41 32 42 33 43
REMARK SMILES IDX 94 44 34 45 93 46 35 47 36 48 37 49 87 50 38 51 92 52 86 53
REMARK SMILES IDX 88 54 39 55 91 56 85 57 84 58 40 60 72 61 52 62 71 63 53 64
REMARK SMILES IDX 56 65 70 66 89 67 54 68 55 69 69 71 90 72 57 73 41 74 42 75
REMARK SMILES IDX 50 76 43 77 44 78 48 79 51 80 45 81 46 82 49 83 47 84 73 85
REMARK SMILES IDX 74 86 82 87 75 88 76 89 80 90 83 91 77 92 78 93 81 94 79 95
REMARK SMILES IDX 58 96 59 97 67 98 60 99 61 100 65 101 68 102 62 103 63 104
REMARK SMILES IDX 66 105 64 106
REMARK H PARENT 13 17 6 22 88 59 56 70
REMARK Flexibility Score: inf
ROOT
ATOM      1  C   UNL     1       0.711   5.552   4.255  1.00  0.00     0.188 C 
ENDROOT
BRANCH   1   2
ATOM      2  O   UNL     1       0.772   4.171   4.625  1.00  0.00    -0.376 OA
BRANCH   2   3
ATOM      3  C   UNL     1       1.233   3.196   3.679  1.00  0.00     0.202 C 
BRANCH   3   4
ATOM      4  C   UNL     1       0.350   2.220   2.713  1.00  0.00     0.261 C 
BRANCH   4   5
ATOM      5  O   UNL     1      -0.730   2.520   1.694  1.00  0.00    -0.460 OA
BRANCH   5   6
ATOM      6  C   UNL     1      -1.737   3.253   2.240  1.00  0.00     0.338 C 
ATOM      7  O   UNL     1      -1.340   3.757   3.277  1.00  0.00    -0.246 OA
BRANCH   6   8
ATOM      8  C   UNL     1      -3.305   3.615   1.510  1.00  0.00     0.060 A 
ATOM      9  C   UNL     1      -5.685   4.293  -0.071  1.00  0.00     0.041 A 
ATOM     10  C   UNL     1      -4.803   3.227  -0.231  1.00  0.00     0.027 A 
ATOM     11  C   UNL     1      -5.465   5.053   1.012  1.00  0.00     0.027 A 
ATOM     12  C   UNL     1      -3.657   2.851   0.481  1.00  0.00     0.018 A 
ATOM     13  C   UNL     1      -4.348   4.676   1.777  1.00  0.00     0.018 A 
BRANCH   9  14
ATOM     14  N   UNL     1      -6.709   4.588  -0.981  1.00  0.00    -0.326 N 
ATOM     15  C   UNL     1      -7.205   3.804  -1.998  1.00  0.00     0.226 C 
ATOM     16  O   UNL     1      -7.923   4.317  -2.858  1.00  0.00    -0.275 OA
ATOM     17  H   UNL     1      -7.130   5.472  -0.878  1.00  0.00     0.169 HD
BRANCH  15  18
ATOM     18  C   UNL     1      -7.003   2.287  -1.953  1.00  0.00     0.128 C 
BRANCH  18  19
ATOM     19  C   UNL     1      -5.929   1.647  -2.886  1.00  0.00     0.183 C 
ATOM     20  N   UNL     1      -2.831  -0.159  -1.364  1.00  0.00    -0.235 N 
ATOM     21  C   UNL     1      -3.609   0.650  -2.007  1.00  0.00     0.319 C 
ATOM     22  H   UNL     1      -3.304  -0.966  -1.057  1.00  0.00     0.313 HD
ATOM     23  S   UNL     1      -5.289   0.080  -2.173  1.00  0.00    -0.022 SA
ATOM     24  N   UNL     1      -3.501   1.907  -2.569  1.00  0.00    -0.193 N 
ATOM     25  C   UNL     1      -4.650   2.442  -3.188  1.00  0.00     0.324 C 
ATOM     26  C   UNL     1      -2.413   2.863  -2.372  1.00  0.00     0.301 C 
ATOM     27  O   UNL     1      -4.660   3.504  -3.802  1.00  0.00    -0.245 OA
BRANCH  20  28
ATOM     28  C   UNL     1      -1.476  -0.166  -0.998  1.00  0.00     0.125 A 
ATOM     29  C   UNL     1       2.687  -0.470   0.273  1.00  0.00     0.044 C 
ATOM     30  C   UNL     1       1.244  -0.378  -0.128  1.00  0.00    -0.051 A 
ATOM     31  C   UNL     1       0.277  -1.258   0.355  1.00  0.00     0.008 A 
ATOM     32  C   UNL     1       0.858   0.557  -1.085  1.00  0.00     0.008 A 
ATOM     33  C   UNL     1      -1.067  -1.127  -0.053  1.00  0.00     0.052 A 
ATOM     34  C   UNL     1      -0.463   0.603  -1.554  1.00  0.00     0.052 A 
ENDBRANCH  20  28
ENDBRANCH  18  19
ENDBRANCH  15  18
ENDBRANCH   9  14
ENDBRANCH   6   8
ENDBRANCH   5   6
ENDBRANCH   4   5
ENDBRANCH   3   4
ENDBRANCH   2   3
ENDBRANCH   1   2
BRANCH   1  35
ATOM     35  C   UNL     1       1.647   6.096   3.189  1.00  0.00     0.188 C 
BRANCH  35  36
ATOM     36  O   UNL     1       1.471   5.346   1.992  1.00  0.00    -0.376 OA
BRANCH  36  37
ATOM     37  C   UNL     1       2.567   5.425   1.094  1.00  0.00     0.202 C 
BRANCH  37  38
ATOM     38  C   UNL     1       2.684   6.812   0.447  1.00  0.00     0.261 C 
BRANCH  38  39
ATOM     39  O   UNL     1       1.431   7.171  -0.183  1.00  0.00    -0.460 OA
BRANCH  39  40
ATOM     40  C   UNL     1       0.722   8.211   0.399  1.00  0.00     0.338 C 
ATOM     41  O   UNL     1       1.171   9.276   0.680  1.00  0.00    -0.246 OA
BRANCH  40  42
ATOM     42  C   UNL     1      -0.614   7.687   0.871  1.00  0.00     0.060 A 
ATOM     43  C   UNL     1      -1.423   8.250   1.868  1.00  0.00     0.016 A 
ATOM     44  C   UNL     1      -0.924   6.423   0.537  1.00  0.00     0.016 A 
ATOM     45  C   UNL     1      -2.266   7.438   2.751  1.00  0.00     0.010 A 
ATOM     46  C   UNL     1      -1.654   5.686   1.470  1.00  0.00     0.010 A 
ATOM     47  C   UNL     1      -2.290   6.048   2.732  1.00  0.00    -0.014 A 
BRANCH  47  48
ATOM     48  C   UNL     1      -2.955   5.029   4.079  1.00  0.00     0.031 A 
ATOM     49  C   UNL     1      -3.691   3.379   4.138  1.00  0.00     0.074 A 
ATOM     50  C   UNL     1      -2.570   5.378   5.312  1.00  0.00     0.049 A 
ATOM     51  N   UNL     1      -4.959   2.979   4.033  1.00  0.00    -0.248 NA
ATOM     52  C   UNL     1      -2.863   2.097   4.125  1.00  0.00     0.031 C 
ATOM     53  C   UNL     1      -2.619   4.555   6.507  1.00  0.00     0.029 A 
ATOM     54  N   UNL     1      -2.219   6.644   5.762  1.00  0.00    -0.354 N 
ATOM     55  C   UNL     1      -4.931   1.542   3.818  1.00  0.00     0.074 A 
ATOM     56  C   UNL     1      -3.601   1.291   3.353  1.00  0.00     0.031 C 
ATOM     57  C   UNL     1      -2.684   5.380   7.563  1.00  0.00     0.029 A 
ATOM     58  C   UNL     1      -2.821   6.728   7.038  1.00  0.00     0.049 A 
ATOM     59  H   UNL     1      -1.677   7.324   5.300  1.00  0.00     0.167 HD
ATOM     60  C   UNL     1      -5.272   0.528   4.712  1.00  0.00     0.037 A 
ATOM     61  C   UNL     1      -3.919   7.536   7.149  1.00  0.00     0.037 A 
ATOM     62  C   UNL     1      -5.261   1.063   6.043  1.00  0.00     0.049 A 
ATOM     63  C   UNL     1      -5.212   6.750   7.358  1.00  0.00     0.074 A 
ATOM     64  C   UNL     1      -4.373   1.163   7.096  1.00  0.00     0.029 A 
ATOM     65  N   UNL     1      -6.206   1.998   6.250  1.00  0.00    -0.354 N 
ATOM     66  N   UNL     1      -5.287   5.444   7.432  1.00  0.00    -0.248 NA
ATOM     67  C   UNL     1      -6.534   7.369   7.466  1.00  0.00     0.031 C 
ATOM     68  C   UNL     1      -4.840   2.239   7.930  1.00  0.00     0.029 A 
ATOM     69  C   UNL     1      -6.013   2.727   7.377  1.00  0.00     0.049 A 
ATOM     70  H   UNL     1      -6.966   2.141   5.640  1.00  0.00     0.167 HD
ATOM     71  C   UNL     1      -6.596   5.057   7.539  1.00  0.00     0.074 A 
ATOM     72  C   UNL     1      -7.340   6.297   7.569  1.00  0.00     0.031 C 
ATOM     73  C   UNL     1      -7.008   3.759   7.546  1.00  0.00     0.037 A 
BRANCH  60  74
ATOM     74  C   UNL     1      -5.089  -0.981   4.426  1.00  0.00     0.064 A 
ATOM     75  C   UNL     1      -4.921  -1.923   5.467  1.00  0.00     0.173 A 
ATOM     76  C   UNL     1      -5.075  -1.536   3.125  1.00  0.00     0.173 A 
ATOM     77  F   UNL     1      -5.008  -1.558   6.753  1.00  0.00    -0.203 F 
ATOM     78  C   UNL     1      -4.660  -3.280   5.227  1.00  0.00     0.198 A 
ATOM     79  C   UNL     1      -4.784  -2.892   2.884  1.00  0.00     0.198 A 
ATOM     80  F   UNL     1      -5.318  -0.766   2.053  1.00  0.00    -0.203 F 
ATOM     81  F   UNL     1      -4.490  -4.119   6.259  1.00  0.00    -0.200 F 
ATOM     82  C   UNL     1      -4.564  -3.760   3.936  1.00  0.00     0.200 A 
ATOM     83  F   UNL     1      -4.697  -3.350   1.626  1.00  0.00    -0.200 F 
ATOM     84  F   UNL     1      -4.274  -5.051   3.711  1.00  0.00    -0.200 F 
ENDBRANCH  60  74
BRANCH  61  85
ATOM     85  C   UNL     1      -3.695   8.822   6.388  1.00  0.00     0.064 A 
ATOM     86  C   UNL     1      -2.455   9.479   6.620  1.00  0.00     0.173 A 
ATOM     87  C   UNL     1      -4.370   9.165   5.211  1.00  0.00     0.173 A 
ATOM     88  F   UNL     1      -1.757   9.213   7.738  1.00  0.00    -0.203 F 
ATOM     89  C   UNL     1      -1.828  10.244   5.638  1.00  0.00     0.198 A 
ATOM     90  C   UNL     1      -3.775  10.022   4.265  1.00  0.00     0.198 A 
ATOM     91  F   UNL     1      -5.511   8.550   4.874  1.00  0.00    -0.203 F 
ATOM     92  F   UNL     1      -0.549  10.616   5.796  1.00  0.00    -0.200 F 
ATOM     93  C   UNL     1      -2.484  10.505   4.454  1.00  0.00     0.200 A 
ATOM     94  F   UNL     1      -4.365  10.205   3.073  1.00  0.00    -0.200 F 
ATOM     95  F   UNL     1      -1.837  11.123   3.454  1.00  0.00    -0.200 F 
ENDBRANCH  61  85
BRANCH  73  96
ATOM     96  C   UNL     1      -8.463   3.333   7.582  1.00  0.00     0.064 A 
ATOM     97  C   UNL     1      -9.287   3.745   8.628  1.00  0.00     0.173 A 
ATOM     98  C   UNL     1      -9.032   2.383   6.689  1.00  0.00     0.173 A 
ATOM     99  F   UNL     1      -8.838   4.626   9.534  1.00  0.00    -0.203 F 
ATOM    100  C   UNL     1     -10.586   3.250   8.766  1.00  0.00     0.198 A 
ATOM    101  C   UNL     1     -10.284   1.817   6.886  1.00  0.00     0.198 A 
ATOM    102  F   UNL     1      -8.413   1.994   5.564  1.00  0.00    -0.203 F 
ATOM    103  F   UNL     1     -11.372   3.730   9.738  1.00  0.00    -0.200 F 
ATOM    104  C   UNL     1     -11.072   2.268   7.917  1.00  0.00     0.200 A 
ATOM    105  F   UNL     1     -10.716   0.851   6.062  1.00  0.00    -0.200 F 
ATOM    106  F   UNL     1     -12.307   1.775   8.076  1.00  0.00    -0.200 F 
ENDBRANCH  73  96
ENDBRANCH  47  48
ENDBRANCH  40  42
ENDBRANCH  39  40
ENDBRANCH  38  39
ENDBRANCH  37  38
ENDBRANCH  36  37
ENDBRANCH  35  36
ENDBRANCH   1  35
TORSDOF 21
