REMARK SMILES C[C@H](C(=O)OCCOCCOCCOC(=O)c1ccc(-c2c3nc(c(-c4c(F)c(F)c(F)c(F)c4F)c4ccc([nH]4)c(-c4c(F)c(F)c(F)c(F)c4F)c4nc(c(-c5c(F)c(F)c(F)c(F)c5F)c5ccc2[nH]5)C=C4)C=C3)cc1)[C@@H](C)[NH2+]Cc1ccc(F)c(F)c1
REMARK SMILES IDX 9 1 8 2 7 3 6 4 5 5 3 6 4 7 2 8 1 9 80 10 81 11 82 12 83 15
REMARK SMILES IDX 84 16 85 17 91 18 86 19 89 20 87 21 90 22 88 23 10 24 11 25
REMARK SMILES IDX 12 26 13 27 14 28 15 29 16 30 17 31 18 32 79 33 19 34 78 35
REMARK SMILES IDX 20 36 21 37 22 38 72 39 23 40 77 41 71 42 73 43 24 44 76 45
REMARK SMILES IDX 70 46 69 47 25 49 57 50 37 51 56 52 38 53 41 54 55 55 74 56
REMARK SMILES IDX 39 57 40 58 54 60 75 61 42 62 26 63 27 64 35 65 28 66 29 67
REMARK SMILES IDX 33 68 36 69 30 70 31 71 34 72 32 73 58 74 59 75 67 76 60 77
REMARK SMILES IDX 61 78 65 79 68 80 62 81 63 82 66 83 64 84 43 85 44 86 52 87
REMARK SMILES IDX 45 88 46 89 50 90 53 91 47 92 48 93 51 94 49 95
REMARK H PARENT 82 13 82 14 73 48 41 59
REMARK Flexibility Score: inf
ROOT
ATOM      1  C   UNL     1       2.054  -2.158  -0.126  1.00  0.00     0.188 C 
ENDROOT
BRANCH   1   2
ATOM      2  O   UNL     1       2.499  -2.408   1.198  1.00  0.00    -0.376 OA
BRANCH   2   3
ATOM      3  C   UNL     1       1.861  -1.732   2.273  1.00  0.00     0.202 C 
BRANCH   3   4
ATOM      4  C   UNL     1       1.625  -0.220   2.173  1.00  0.00     0.261 C 
BRANCH   4   5
ATOM      5  O   UNL     1       0.965   0.191   0.964  1.00  0.00    -0.463 OA
BRANCH   5   6
ATOM      6  C   UNL     1       1.571   1.147   0.207  1.00  0.00     0.314 C 
ATOM      7  O   UNL     1       2.686   1.603   0.427  1.00  0.00    -0.252 OA
BRANCH   6   8
ATOM      8  C   UNL     1       0.727   1.578  -0.996  1.00  0.00     0.154 C 
ATOM      9  C   UNL     1       1.318   0.956  -2.267  1.00  0.00     0.026 C 
BRANCH   8  10
ATOM     10  C   UNL     1      -0.803   1.350  -0.821  1.00  0.00     0.193 C 
ATOM     11  C   UNL     1      -1.251   2.020   0.491  1.00  0.00     0.076 C 
BRANCH  10  12
ATOM     12  N   UNL     1      -1.503   1.866  -2.023  1.00  0.00    -0.340 N 
ATOM     13  H   UNL     1      -1.046   1.459  -2.839  1.00  0.00     0.346 HD
ATOM     14  H   UNL     1      -1.438   2.880  -1.943  1.00  0.00     0.346 HD
BRANCH  12  15
ATOM     15  C   UNL     1      -2.944   1.595  -2.146  1.00  0.00     0.297 C 
BRANCH  15  16
ATOM     16  C   UNL     1      -3.773   2.342  -1.126  1.00  0.00     0.009 A 
ATOM     17  C   UNL     1      -3.670   3.743  -1.022  1.00  0.00     0.013 A 
ATOM     18  C   UNL     1      -4.472   1.628  -0.139  1.00  0.00     0.052 A 
ATOM     19  C   UNL     1      -4.093   4.391   0.140  1.00  0.00     0.043 A 
ATOM     20  C   UNL     1      -4.891   2.286   1.013  1.00  0.00     0.159 A 
ATOM     21  C   UNL     1      -4.667   3.649   1.167  1.00  0.00     0.158 A 
ATOM     22  F   UNL     1      -5.417   1.572   2.018  1.00  0.00    -0.204 F 
ATOM     23  F   UNL     1      -4.954   4.253   2.328  1.00  0.00    -0.204 F 
ENDBRANCH  15  16
ENDBRANCH  12  15
ENDBRANCH  10  12
ENDBRANCH   8  10
ENDBRANCH   6   8
ENDBRANCH   5   6
ENDBRANCH   4   5
ENDBRANCH   3   4
ENDBRANCH   2   3
ENDBRANCH   1   2
BRANCH   1  24
ATOM     24  C   UNL     1       0.551  -2.276  -0.463  1.00  0.00     0.188 C 
BRANCH  24  25
ATOM     25  O   UNL     1      -0.316  -2.611   0.589  1.00  0.00    -0.376 OA
BRANCH  25  26
ATOM     26  C   UNL     1      -0.542  -3.969   0.917  1.00  0.00     0.202 C 
BRANCH  26  27
ATOM     27  C   UNL     1       0.186  -5.184   0.299  1.00  0.00     0.261 C 
BRANCH  27  28
ATOM     28  O   UNL     1       1.266  -4.954  -0.613  1.00  0.00    -0.460 OA
BRANCH  28  29
ATOM     29  C   UNL     1       0.983  -5.091  -1.931  1.00  0.00     0.338 C 
ATOM     30  O   UNL     1      -0.099  -5.368  -2.430  1.00  0.00    -0.246 OA
BRANCH  29  31
ATOM     31  C   UNL     1       2.150  -4.646  -2.721  1.00  0.00     0.060 A 
ATOM     32  C   UNL     1       2.034  -3.497  -3.520  1.00  0.00     0.016 A 
ATOM     33  C   UNL     1       3.349  -5.357  -2.682  1.00  0.00     0.016 A 
ATOM     34  C   UNL     1       3.112  -3.071  -4.299  1.00  0.00     0.010 A 
ATOM     35  C   UNL     1       4.419  -4.944  -3.483  1.00  0.00     0.010 A 
ATOM     36  C   UNL     1       4.298  -3.816  -4.317  1.00  0.00    -0.014 A 
BRANCH  36  37
ATOM     37  C   UNL     1       5.341  -3.536  -5.338  1.00  0.00     0.031 A 
ATOM     38  C   UNL     1       5.375  -4.389  -6.578  1.00  0.00     0.074 A 
ATOM     39  C   UNL     1       6.241  -2.550  -5.181  1.00  0.00     0.049 A 
ATOM     40  N   UNL     1       6.240  -4.403  -7.560  1.00  0.00    -0.248 NA
ATOM     41  C   UNL     1       4.281  -5.362  -6.725  1.00  0.00     0.031 C 
ATOM     42  C   UNL     1       6.289  -1.620  -4.056  1.00  0.00     0.029 A 
ATOM     43  N   UNL     1       7.303  -2.180  -5.971  1.00  0.00    -0.354 N 
ATOM     44  C   UNL     1       5.801  -5.389  -8.434  1.00  0.00     0.074 A 
ATOM     45  C   UNL     1       4.612  -5.973  -7.852  1.00  0.00     0.031 C 
ATOM     46  C   UNL     1       7.342  -0.798  -4.217  1.00  0.00     0.029 A 
ATOM     47  C   UNL     1       8.063  -1.170  -5.434  1.00  0.00     0.049 A 
ATOM     48  H   UNL     1       7.500  -2.600  -6.840  1.00  0.00     0.167 HD
ATOM     49  C   UNL     1       6.337  -5.771  -9.618  1.00  0.00     0.037 A 
ATOM     50  C   UNL     1       9.225  -0.633  -5.860  1.00  0.00     0.037 A 
ATOM     51  C   UNL     1       7.527  -5.198 -10.192  1.00  0.00     0.049 A 
ATOM     52  C   UNL     1       9.854  -1.136  -7.137  1.00  0.00     0.074 A 
ATOM     53  C   UNL     1       8.146  -5.515 -11.388  1.00  0.00     0.029 A 
ATOM     54  N   UNL     1       8.285  -4.197  -9.603  1.00  0.00    -0.354 N 
ATOM     55  N   UNL     1       9.428  -2.058  -7.966  1.00  0.00    -0.248 NA
ATOM     56  C   UNL     1      11.129  -0.520  -7.537  1.00  0.00     0.031 C 
ATOM     57  C   UNL     1       9.312  -4.750 -11.494  1.00  0.00     0.029 A 
ATOM     58  C   UNL     1       9.382  -3.905 -10.398  1.00  0.00     0.049 A 
ATOM     59  H   UNL     1       8.075  -3.759  -8.746  1.00  0.00     0.167 HD
ATOM     60  C   UNL     1      10.359  -2.109  -8.998  1.00  0.00     0.074 A 
ATOM     61  C   UNL     1      11.367  -1.115  -8.697  1.00  0.00     0.031 C 
ATOM     62  C   UNL     1      10.376  -2.905 -10.095  1.00  0.00     0.037 A 
BRANCH  49  63
ATOM     63  C   UNL     1       5.656  -6.887 -10.357  1.00  0.00     0.064 A 
ATOM     64  C   UNL     1       4.393  -6.722 -10.947  1.00  0.00     0.173 A 
ATOM     65  C   UNL     1       6.285  -8.134 -10.495  1.00  0.00     0.173 A 
ATOM     66  F   UNL     1       3.741  -5.555 -10.833  1.00  0.00    -0.203 F 
ATOM     67  C   UNL     1       3.773  -7.773 -11.619  1.00  0.00     0.198 A 
ATOM     68  C   UNL     1       5.678  -9.171 -11.198  1.00  0.00     0.198 A 
ATOM     69  F   UNL     1       7.495  -8.345  -9.955  1.00  0.00    -0.203 F 
ATOM     70  F   UNL     1       2.543  -7.609 -12.126  1.00  0.00    -0.200 F 
ATOM     71  C   UNL     1       4.419  -8.993 -11.750  1.00  0.00     0.200 A 
ATOM     72  F   UNL     1       6.310 -10.345 -11.336  1.00  0.00    -0.200 F 
ATOM     73  F   UNL     1       3.824 -10.001 -12.402  1.00  0.00    -0.200 F 
ENDBRANCH  49  63
BRANCH  50  74
ATOM     74  C   UNL     1       9.892   0.430  -5.059  1.00  0.00     0.064 A 
ATOM     75  C   UNL     1      10.024   1.736  -5.553  1.00  0.00     0.173 A 
ATOM     76  C   UNL     1      10.441   0.154  -3.798  1.00  0.00     0.173 A 
ATOM     77  F   UNL     1       9.546   2.045  -6.767  1.00  0.00    -0.203 F 
ATOM     78  C   UNL     1      10.697   2.717  -4.826  1.00  0.00     0.198 A 
ATOM     79  C   UNL     1      11.084   1.143  -3.057  1.00  0.00     0.198 A 
ATOM     80  F   UNL     1      10.351  -1.081  -3.282  1.00  0.00    -0.203 F 
ATOM     81  F   UNL     1      10.859   3.941  -5.347  1.00  0.00    -0.200 F 
ATOM     82  C   UNL     1      11.220   2.422  -3.576  1.00  0.00     0.200 A 
ATOM     83  F   UNL     1      11.580   0.856  -1.846  1.00  0.00    -0.200 F 
ATOM     84  F   UNL     1      11.866   3.365  -2.877  1.00  0.00    -0.200 F 
ENDBRANCH  50  74
BRANCH  62  85
ATOM     85  C   UNL     1      11.492  -2.708 -11.085  1.00  0.00     0.064 A 
ATOM     86  C   UNL     1      12.816  -3.068 -10.793  1.00  0.00     0.173 A 
ATOM     87  C   UNL     1      11.221  -2.192 -12.363  1.00  0.00     0.173 A 
ATOM     88  F   UNL     1      13.133  -3.555  -9.584  1.00  0.00    -0.203 F 
ATOM     89  C   UNL     1      13.830  -2.893 -11.733  1.00  0.00     0.198 A 
ATOM     90  C   UNL     1      12.231  -2.052 -13.311  1.00  0.00     0.198 A 
ATOM     91  F   UNL     1       9.972  -1.840 -12.699  1.00  0.00    -0.203 F 
ATOM     92  F   UNL     1      15.096  -3.197 -11.414  1.00  0.00    -0.200 F 
ATOM     93  C   UNL     1      13.536  -2.394 -12.993  1.00  0.00     0.200 A 
ATOM     94  F   UNL     1      11.940  -1.587 -14.534  1.00  0.00    -0.200 F 
ATOM     95  F   UNL     1      14.511  -2.237 -13.898  1.00  0.00    -0.200 F 
ENDBRANCH  62  85
ENDBRANCH  36  37
ENDBRANCH  29  31
ENDBRANCH  28  29
ENDBRANCH  27  28
ENDBRANCH  26  27
ENDBRANCH  25  26
ENDBRANCH  24  25
ENDBRANCH   1  24
TORSDOF 21
