REMARK SMILES COc1cccc(N2/C(=[NH+]/C(=O)CCC(=O)OCCOCCOCCOC(=O)c3ccc(-c4c5nc(c(-c6c(F)c(F)c(F)c(F)c6F)c6ccc([nH]6)c(-c6c(F)c(F)c(F)c(F)c6F)c6nc(c(-c7c(F)c(F)c(F)c(F)c7F)c7ccc4[nH]7)C=C6)C=C5)cc3)S[C@@H]3CS(=O)(=O)C[C@H]32)c1
REMARK SMILES IDX 21 1 20 2 19 3 18 4 17 5 15 6 16 7 14 8 13 9 11 10 8 11 9 12
REMARK SMILES IDX 99 13 10 14 92 15 93 16 98 17 94 19 95 20 12 21 96 22 97 23
REMARK SMILES IDX 7 24 3 25 4 26 100 27 5 28 6 29 2 30 1 31 22 32 23 33 24 34
REMARK SMILES IDX 25 35 26 36 27 37 28 38 29 39 30 40 91 41 31 42 90 43 32 44
REMARK SMILES IDX 33 45 34 46 84 47 35 48 89 49 83 50 85 51 36 52 88 53 82 54
REMARK SMILES IDX 81 55 37 57 69 58 49 59 68 60 50 61 53 62 67 63 86 64 51 65
REMARK SMILES IDX 52 66 66 68 87 69 54 70 38 71 39 72 47 73 40 74 41 75 45 76
REMARK SMILES IDX 48 77 42 78 43 79 46 80 44 81 70 82 71 83 79 84 72 85 73 86
REMARK SMILES IDX 77 87 80 88 74 89 75 90 78 91 76 92 55 93 56 94 64 95 57 96
REMARK SMILES IDX 58 97 62 98 65 99 59 100 60 101 63 102 61 103
REMARK H PARENT 10 18 85 56 53 67
REMARK Flexibility Score: inf
ROOT
ATOM      1  C   UNL     1       3.139   1.851   3.163  1.00  0.00     0.188 C 
ENDROOT
BRANCH   1   2
ATOM      2  O   UNL     1       2.269   1.612   2.068  1.00  0.00    -0.376 OA
BRANCH   2   3
ATOM      3  C   UNL     1       2.387   0.311   1.505  1.00  0.00     0.202 C 
BRANCH   3   4
ATOM      4  C   UNL     1       3.451   0.227   0.412  1.00  0.00     0.261 C 
BRANCH   4   5
ATOM      5  O   UNL     1       4.748   0.088   1.002  1.00  0.00    -0.463 OA
BRANCH   5   6
ATOM      6  C   UNL     1       5.571   1.154   0.969  1.00  0.00     0.306 C 
ATOM      7  O   UNL     1       5.389   2.171   0.314  1.00  0.00    -0.252 OA
BRANCH   6   8
ATOM      8  C   UNL     1       6.775   0.928   1.847  1.00  0.00     0.135 C 
BRANCH   8   9
ATOM      9  C   UNL     1       6.495   0.286   3.202  1.00  0.00     0.139 C 
BRANCH   9  10
ATOM     10  C   UNL     1       6.418  -1.233   3.253  1.00  0.00     0.308 C 
ATOM     11  N   UNL     1       4.119  -3.887   2.121  1.00  0.00    -0.216 N 
ATOM     12  C   UNL     1       5.213  -3.050   2.424  1.00  0.00     0.319 C 
ATOM     13  C   UNL     1       4.510  -5.254   1.737  1.00  0.00     0.212 C 
ATOM     14  N   UNL     1       5.237  -1.824   2.835  1.00  0.00    -0.204 N 
ATOM     15  S   UNL     1       6.713  -4.037   2.175  1.00  0.00    -0.029 SA
ATOM     16  C   UNL     1       5.778  -5.516   2.554  1.00  0.00     0.120 C 
ATOM     17  C   UNL     1       3.634  -6.444   2.065  1.00  0.00     0.188 C 
ATOM     18  H   UNL     1       4.402  -1.302   2.851  1.00  0.00     0.316 HD
ATOM     19  C   UNL     1       6.308  -6.866   2.158  1.00  0.00     0.156 C 
ATOM     20  S   UNL     1       4.798  -7.811   1.941  1.00  0.00     0.155 S 
ATOM     21  O   UNL     1       7.344  -1.820   3.816  1.00  0.00    -0.247 OA
ATOM     22  O   UNL     1       4.615  -8.673   3.088  1.00  0.00    -0.229 OA
ATOM     23  O   UNL     1       4.772  -8.308   0.582  1.00  0.00    -0.229 OA
BRANCH  11  24
ATOM     24  C   UNL     1       2.748  -3.585   2.152  1.00  0.00     0.132 A 
ATOM     25  C   UNL     1       0.669  -2.910   1.047  1.00  0.00     0.123 A 
ATOM     26  C   UNL     1      -0.060  -3.275   2.178  1.00  0.00     0.047 A 
ATOM     27  C   UNL     1       2.064  -3.083   1.027  1.00  0.00     0.098 A 
ATOM     28  C   UNL     1       0.590  -3.812   3.284  1.00  0.00     0.008 A 
ATOM     29  C   UNL     1       1.979  -3.964   3.266  1.00  0.00     0.052 A 
BRANCH  25  30
ATOM     30  O   UNL     1      -0.091  -2.571  -0.040  1.00  0.00    -0.497 OA
ATOM     31  C   UNL     1       0.281  -1.399  -0.755  1.00  0.00     0.278 C 
ENDBRANCH  25  30
ENDBRANCH  11  24
ENDBRANCH   9  10
ENDBRANCH   8   9
ENDBRANCH   6   8
ENDBRANCH   5   6
ENDBRANCH   4   5
ENDBRANCH   3   4
ENDBRANCH   2   3
ENDBRANCH   1   2
BRANCH   1  32
ATOM     32  C   UNL     1       2.742   1.105   4.428  1.00  0.00     0.188 C 
BRANCH  32  33
ATOM     33  O   UNL     1       3.208  -0.227   4.599  1.00  0.00    -0.376 OA
BRANCH  33  34
ATOM     34  C   UNL     1       2.216  -1.159   5.035  1.00  0.00     0.202 C 
BRANCH  34  35
ATOM     35  C   UNL     1       1.435  -0.940   6.352  1.00  0.00     0.261 C 
BRANCH  35  36
ATOM     36  O   UNL     1       1.212   0.429   6.698  1.00  0.00    -0.460 OA
BRANCH  36  37
ATOM     37  C   UNL     1       2.183   0.987   7.465  1.00  0.00     0.338 C 
ATOM     38  O   UNL     1       3.089   0.407   8.040  1.00  0.00    -0.246 OA
BRANCH  37  39
ATOM     39  C   UNL     1       2.136   2.458   7.265  1.00  0.00     0.060 A 
ATOM     40  C   UNL     1       3.360   3.123   7.080  1.00  0.00     0.016 A 
ATOM     41  C   UNL     1       0.929   3.145   7.107  1.00  0.00     0.016 A 
ATOM     42  C   UNL     1       3.381   4.471   6.733  1.00  0.00     0.010 A 
ATOM     43  C   UNL     1       0.950   4.510   6.814  1.00  0.00     0.010 A 
ATOM     44  C   UNL     1       2.177   5.180   6.657  1.00  0.00    -0.014 A 
BRANCH  44  45
ATOM     45  C   UNL     1       2.223   6.655   6.752  1.00  0.00     0.031 A 
ATOM     46  C   UNL     1       2.213   7.239   8.137  1.00  0.00     0.074 A 
ATOM     47  C   UNL     1       2.305   7.446   5.669  1.00  0.00     0.049 A 
ATOM     48  N   UNL     1       2.214   8.488   8.518  1.00  0.00    -0.248 NA
ATOM     49  C   UNL     1       2.202   6.270   9.249  1.00  0.00     0.031 C 
ATOM     50  C   UNL     1       2.379   6.989   4.284  1.00  0.00     0.029 A 
ATOM     51  N   UNL     1       2.335   8.815   5.578  1.00  0.00    -0.354 N 
ATOM     52  C   UNL     1       2.202   8.452   9.906  1.00  0.00     0.074 A 
ATOM     53  C   UNL     1       2.164   7.065  10.304  1.00  0.00     0.031 C 
ATOM     54  C   UNL     1       2.432   8.064   3.476  1.00  0.00     0.029 A 
ATOM     55  C   UNL     1       2.364   9.280   4.287  1.00  0.00     0.049 A 
ATOM     56  H   UNL     1       2.337   9.407   6.364  1.00  0.00     0.167 HD
ATOM     57  C   UNL     1       2.228   9.487  10.775  1.00  0.00     0.037 A 
ATOM     58  C   UNL     1       2.316  10.545   3.825  1.00  0.00     0.037 A 
ATOM     59  C   UNL     1       2.248  10.865  10.373  1.00  0.00     0.049 A 
ATOM     60  C   UNL     1       2.250  11.685   4.815  1.00  0.00     0.074 A 
ATOM     61  C   UNL     1       2.271  11.995  11.169  1.00  0.00     0.029 A 
ATOM     62  N   UNL     1       2.234  11.298   9.055  1.00  0.00    -0.354 N 
ATOM     63  N   UNL     1       2.260  11.649   6.127  1.00  0.00    -0.248 NA
ATOM     64  C   UNL     1       2.168  13.043   4.258  1.00  0.00     0.031 C 
ATOM     65  C   UNL     1       2.212  13.114  10.333  1.00  0.00     0.029 A 
ATOM     66  C   UNL     1       2.220  12.681   9.015  1.00  0.00     0.049 A 
ATOM     67  H   UNL     1       2.233  10.709   8.266  1.00  0.00     0.167 HD
ATOM     68  C   UNL     1       2.224  12.973   6.549  1.00  0.00     0.074 A 
ATOM     69  C   UNL     1       2.200  13.789   5.353  1.00  0.00     0.031 C 
ATOM     70  C   UNL     1       2.213  13.472   7.810  1.00  0.00     0.037 A 
BRANCH  57  71
ATOM     71  C   UNL     1       2.190   9.158  12.237  1.00  0.00     0.064 A 
ATOM     72  C   UNL     1       3.279   8.559  12.890  1.00  0.00     0.173 A 
ATOM     73  C   UNL     1       1.047   9.448  12.997  1.00  0.00     0.173 A 
ATOM     74  F   UNL     1       4.384   8.236  12.202  1.00  0.00    -0.203 F 
ATOM     75  C   UNL     1       3.214   8.241  14.244  1.00  0.00     0.198 A 
ATOM     76  C   UNL     1       0.999   9.158  14.357  1.00  0.00     0.198 A 
ATOM     77  F   UNL     1      -0.024  10.012  12.419  1.00  0.00    -0.203 F 
ATOM     78  F   UNL     1       4.244   7.619  14.834  1.00  0.00    -0.200 F 
ATOM     79  C   UNL     1       2.078   8.548  14.977  1.00  0.00     0.200 A 
ATOM     80  F   UNL     1      -0.097   9.463  15.066  1.00  0.00    -0.200 F 
ATOM     81  F   UNL     1       2.019   8.247  16.282  1.00  0.00    -0.200 F 
ENDBRANCH  57  71
BRANCH  58  82
ATOM     82  C   UNL     1       2.311  10.812   2.361  1.00  0.00     0.064 A 
ATOM     83  C   UNL     1       3.380  11.473   1.740  1.00  0.00     0.173 A 
ATOM     84  C   UNL     1       1.218  10.450   1.560  1.00  0.00     0.173 A 
ATOM     85  F   UNL     1       4.436  11.869   2.466  1.00  0.00    -0.203 F 
ATOM     86  C   UNL     1       3.347  11.780   0.380  1.00  0.00     0.198 A 
ATOM     87  C   UNL     1       1.198  10.731   0.195  1.00  0.00     0.198 A 
ATOM     88  F   UNL     1       0.163   9.826   2.104  1.00  0.00    -0.203 F 
ATOM     89  F   UNL     1       4.357  12.464  -0.175  1.00  0.00    -0.200 F 
ATOM     90  C   UNL     1       2.259  11.404  -0.392  1.00  0.00     0.200 A 
ATOM     91  F   UNL     1       0.147  10.360  -0.549  1.00  0.00    -0.200 F 
ATOM     92  F   UNL     1       2.225  11.704  -1.698  1.00  0.00    -0.200 F 
ENDBRANCH  58  82
BRANCH  70  93
ATOM     93  C   UNL     1       2.227  14.965   7.967  1.00  0.00     0.064 A 
ATOM     94  C   UNL     1       1.110  15.754   7.654  1.00  0.00     0.173 A 
ATOM     95  C   UNL     1       3.358  15.609   8.494  1.00  0.00     0.173 A 
ATOM     96  F   UNL     1       0.007  15.189   7.139  1.00  0.00    -0.203 F 
ATOM     97  C   UNL     1       1.136  17.134   7.836  1.00  0.00     0.198 A 
ATOM     98  C   UNL     1       3.368  16.984   8.707  1.00  0.00     0.198 A 
ATOM     99  F   UNL     1       4.448  14.899   8.822  1.00  0.00    -0.203 F 
ATOM    100  F   UNL     1       0.075  17.874   7.484  1.00  0.00    -0.200 F 
ATOM    101  C   UNL     1       2.260  17.746   8.370  1.00  0.00     0.200 A 
ATOM    102  F   UNL     1       4.448  17.570   9.241  1.00  0.00    -0.200 F 
ATOM    103  F   UNL     1       2.278  19.073   8.555  1.00  0.00    -0.200 F 
ENDBRANCH  70  93
ENDBRANCH  44  45
ENDBRANCH  37  39
ENDBRANCH  36  37
ENDBRANCH  35  36
ENDBRANCH  34  35
ENDBRANCH  33  34
ENDBRANCH  32  33
ENDBRANCH   1  32
TORSDOF 21
