REMARK SMILES O=C(C[C@@H](C(=O)OCCOCCOCCOC(=O)c1ccc(-c2c3nc(c(-c4c(F)c(F)c(F)c(F)c4F)c4ccc([nH]4)c(-c4c(F)c(F)c(F)c(F)c4F)c4nc(c(-c5c(F)c(F)c(F)c(F)c5F)c5ccc2[nH]5)C=C4)C=C3)cc1)[NH+]1CCN(c2cccc(Cl)c2)CC1)c1ccc(F)cc1
REMARK SMILES IDX 11 1 10 2 9 3 8 4 7 5 5 6 6 7 4 8 3 9 2 10 1 11 95 12 96 13
REMARK SMILES IDX 101 14 97 15 100 16 98 17 99 18 82 19 83 20 94 21 84 23
REMARK SMILES IDX 93 24 85 25 86 26 87 27 92 28 88 29 90 30 89 31 91 32 12 33
REMARK SMILES IDX 13 34 14 35 15 36 16 37 17 38 18 39 19 40 20 41 81 42 21 43
REMARK SMILES IDX 80 44 22 45 23 46 24 47 74 48 25 49 79 50 73 51 75 52 26 53
REMARK SMILES IDX 78 54 72 55 71 56 27 58 59 59 39 60 58 61 40 62 43 63 57 64
REMARK SMILES IDX 76 65 41 66 42 67 56 69 77 70 44 71 28 72 29 73 37 74 30 75
REMARK SMILES IDX 31 76 35 77 38 78 32 79 33 80 36 81 34 82 60 83 61 84 69 85
REMARK SMILES IDX 62 86 63 87 67 88 70 89 64 90 65 91 68 92 66 93 45 94 46 95
REMARK SMILES IDX 54 96 47 97 48 98 52 99 55 100 49 101 50 102 53 103 51 104
REMARK H PARENT 82 22 75 57 43 68
REMARK Flexibility Score: inf
ROOT
ATOM      1  C   UNL     1       7.050  -0.167  -0.541  1.00  0.00     0.188 C 
ENDROOT
BRANCH   1   2
ATOM      2  O   UNL     1       7.481  -1.497  -0.291  1.00  0.00    -0.376 OA
BRANCH   2   3
ATOM      3  C   UNL     1       6.534  -2.389   0.292  1.00  0.00     0.202 C 
BRANCH   3   4
ATOM      4  C   UNL     1       5.945  -1.928   1.629  1.00  0.00     0.261 C 
BRANCH   4   5
ATOM      5  O   UNL     1       4.895  -0.954   1.413  1.00  0.00    -0.459 OA
BRANCH   5   6
ATOM      6  C   UNL     1       4.431  -0.336   2.532  1.00  0.00     0.365 C 
ATOM      7  O   UNL     1       4.861  -0.578   3.656  1.00  0.00    -0.245 OA
BRANCH   6   8
ATOM      8  C   UNL     1       3.368   0.770   2.237  1.00  0.00     0.303 C 
BRANCH   8   9
ATOM      9  C   UNL     1       2.547   0.591   0.942  1.00  0.00     0.158 C 
BRANCH   9  10
ATOM     10  C   UNL     1       1.739  -0.689   0.885  1.00  0.00     0.169 C 
ATOM     11  O   UNL     1       0.767  -0.884   1.606  1.00  0.00    -0.294 OA
BRANCH  10  12
ATOM     12  C   UNL     1       2.158  -1.750  -0.060  1.00  0.00     0.018 A 
ATOM     13  C   UNL     1       2.757  -2.896   0.475  1.00  0.00     0.015 A 
ATOM     14  C   UNL     1       1.966  -1.628  -1.441  1.00  0.00     0.015 A 
ATOM     15  C   UNL     1       3.240  -3.888  -0.377  1.00  0.00     0.040 A 
ATOM     16  C   UNL     1       2.426  -2.643  -2.288  1.00  0.00     0.040 A 
ATOM     17  C   UNL     1       3.080  -3.749  -1.751  1.00  0.00     0.123 A 
ATOM     18  F   UNL     1       3.570  -4.691  -2.567  1.00  0.00    -0.207 F 
ENDBRANCH  10  12
ENDBRANCH   9  10
ENDBRANCH   8   9
BRANCH   8  19
ATOM     19  N   UNL     1       4.068   2.076   2.382  1.00  0.00    -0.320 N 
ATOM     20  C   UNL     1       4.751   2.622   1.211  1.00  0.00     0.284 C 
ATOM     21  C   UNL     1       3.387   3.140   3.144  1.00  0.00     0.284 C 
ATOM     22  H   UNL     1       4.809   1.729   2.991  1.00  0.00     0.348 HD
ATOM     23  C   UNL     1       3.848   3.496   0.323  1.00  0.00     0.178 C 
ATOM     24  C   UNL     1       2.722   4.322   2.368  1.00  0.00     0.178 C 
ATOM     25  N   UNL     1       3.387   4.638   1.097  1.00  0.00    -0.360 N 
BRANCH  25  26
ATOM     26  C   UNL     1       3.899   5.868   0.732  1.00  0.00     0.038 A 
ATOM     27  C   UNL     1       3.717   6.328  -0.588  1.00  0.00     0.026 A 
ATOM     28  C   UNL     1       4.701   6.637   1.579  1.00  0.00     0.046 A 
ATOM     29  C   UNL     1       4.337   7.485  -1.063  1.00  0.00     0.004 A 
ATOM     30  C   UNL     1       5.335   7.791   1.100  1.00  0.00     0.043 A 
ATOM     31  C   UNL     1       5.161   8.216  -0.216  1.00  0.00     0.020 A 
ATOM     32  Cl  UNL     1       6.385   8.678   2.138  1.00  0.00    -0.084 Cl
ENDBRANCH  25  26
ENDBRANCH   8  19
ENDBRANCH   6   8
ENDBRANCH   5   6
ENDBRANCH   4   5
ENDBRANCH   3   4
ENDBRANCH   2   3
ENDBRANCH   1   2
BRANCH   1  33
ATOM     33  C   UNL     1       5.730   0.024  -1.305  1.00  0.00     0.188 C 
BRANCH  33  34
ATOM     34  O   UNL     1       5.294  -0.953  -2.229  1.00  0.00    -0.376 OA
BRANCH  34  35
ATOM     35  C   UNL     1       6.209  -1.355  -3.237  1.00  0.00     0.202 C 
BRANCH  35  36
ATOM     36  C   UNL     1       6.559  -0.264  -4.250  1.00  0.00     0.261 C 
BRANCH  36  37
ATOM     37  O   UNL     1       7.392   0.754  -3.655  1.00  0.00    -0.460 OA
BRANCH  37  38
ATOM     38  C   UNL     1       6.949   2.019  -3.787  1.00  0.00     0.338 C 
ATOM     39  O   UNL     1       5.958   2.403  -4.414  1.00  0.00    -0.246 OA
BRANCH  38  40
ATOM     40  C   UNL     1       7.665   2.906  -2.861  1.00  0.00     0.060 A 
ATOM     41  C   UNL     1       6.918   3.477  -1.825  1.00  0.00     0.016 A 
ATOM     42  C   UNL     1       8.994   3.272  -3.047  1.00  0.00     0.016 A 
ATOM     43  C   UNL     1       7.469   4.435  -0.981  1.00  0.00     0.010 A 
ATOM     44  C   UNL     1       9.546   4.260  -2.219  1.00  0.00     0.010 A 
ATOM     45  C   UNL     1       8.775   4.871  -1.207  1.00  0.00    -0.014 A 
BRANCH  45  46
ATOM     46  C   UNL     1       9.236   6.133  -0.575  1.00  0.00     0.031 A 
ATOM     47  C   UNL     1       9.213   7.381  -1.413  1.00  0.00     0.074 A 
ATOM     48  C   UNL     1       9.610   6.200   0.715  1.00  0.00     0.049 A 
ATOM     49  N   UNL     1       9.754   8.550  -1.190  1.00  0.00    -0.248 NA
ATOM     50  C   UNL     1       8.479   7.291  -2.687  1.00  0.00     0.031 C 
ATOM     51  C   UNL     1       9.548   5.103   1.676  1.00  0.00     0.029 A 
ATOM     52  N   UNL     1      10.129   7.250   1.433  1.00  0.00    -0.354 N 
ATOM     53  C   UNL     1       9.461   9.318  -2.309  1.00  0.00     0.074 A 
ATOM     54  C   UNL     1       8.700   8.486  -3.213  1.00  0.00     0.031 C 
ATOM     55  C   UNL     1      10.035   5.530   2.856  1.00  0.00     0.029 A 
ATOM     56  C   UNL     1      10.499   6.909   2.711  1.00  0.00     0.049 A 
ATOM     57  H   UNL     1      10.226   8.158   1.067  1.00  0.00     0.167 HD
ATOM     58  C   UNL     1       9.804  10.603  -2.559  1.00  0.00     0.037 A 
ATOM     59  C   UNL     1      11.181   7.618   3.633  1.00  0.00     0.037 A 
ATOM     60  C   UNL     1      10.541  11.431  -1.643  1.00  0.00     0.049 A 
ATOM     61  C   UNL     1      11.638   9.018   3.295  1.00  0.00     0.074 A 
ATOM     62  C   UNL     1      10.986  12.729  -1.816  1.00  0.00     0.029 A 
ATOM     63  N   UNL     1      10.924  11.041  -0.369  1.00  0.00    -0.354 N 
ATOM     64  N   UNL     1      11.443   9.717   2.202  1.00  0.00    -0.248 NA
ATOM     65  C   UNL     1      12.422   9.726   4.318  1.00  0.00     0.031 C 
ATOM     66  C   UNL     1      11.672  13.113  -0.660  1.00  0.00     0.029 A 
ATOM     67  C   UNL     1      11.605  12.073   0.254  1.00  0.00     0.049 A 
ATOM     68  H   UNL     1      10.740  10.161   0.033  1.00  0.00     0.167 HD
ATOM     69  C   UNL     1      12.039  10.953   2.423  1.00  0.00     0.074 A 
ATOM     70  C   UNL     1      12.598  10.913   3.757  1.00  0.00     0.031 C 
ATOM     71  C   UNL     1      12.121  12.025   1.597  1.00  0.00     0.037 A 
BRANCH  58  72
ATOM     72  C   UNL     1       9.424  11.176  -3.892  1.00  0.00     0.064 A 
ATOM     73  C   UNL     1       8.096  11.489  -4.212  1.00  0.00     0.173 A 
ATOM     74  C   UNL     1      10.412  11.442  -4.853  1.00  0.00     0.173 A 
ATOM     75  F   UNL     1       7.111  11.229  -3.338  1.00  0.00    -0.203 F 
ATOM     76  C   UNL     1       7.768  12.033  -5.451  1.00  0.00     0.198 A 
ATOM     77  C   UNL     1      10.085  12.013  -6.079  1.00  0.00     0.198 A 
ATOM     78  F   UNL     1      11.698  11.156  -4.598  1.00  0.00    -0.203 F 
ATOM     79  F   UNL     1       6.486  12.282  -5.754  1.00  0.00    -0.200 F 
ATOM     80  C   UNL     1       8.763  12.303  -6.379  1.00  0.00     0.200 A 
ATOM     81  F   UNL     1      11.050  12.281  -6.970  1.00  0.00    -0.200 F 
ATOM     82  F   UNL     1       8.447  12.835  -7.568  1.00  0.00    -0.200 F 
ENDBRANCH  58  72
BRANCH  59  83
ATOM     83  C   UNL     1      11.546   7.008   4.943  1.00  0.00     0.064 A 
ATOM     84  C   UNL     1      11.059   7.530   6.150  1.00  0.00     0.173 A 
ATOM     85  C   UNL     1      12.451   5.938   5.019  1.00  0.00     0.173 A 
ATOM     86  F   UNL     1      10.217   8.575   6.137  1.00  0.00    -0.203 F 
ATOM     87  C   UNL     1      11.489   7.031   7.379  1.00  0.00     0.198 A 
ATOM     88  C   UNL     1      12.852   5.416   6.247  1.00  0.00     0.198 A 
ATOM     89  F   UNL     1      12.958   5.404   3.898  1.00  0.00    -0.203 F 
ATOM     90  F   UNL     1      11.066   7.601   8.516  1.00  0.00    -0.200 F 
ATOM     91  C   UNL     1      12.383   5.973   7.427  1.00  0.00     0.200 A 
ATOM     92  F   UNL     1      13.710   4.387   6.287  1.00  0.00    -0.200 F 
ATOM     93  F   UNL     1      12.805   5.501   8.608  1.00  0.00    -0.200 F 
ENDBRANCH  59  83
BRANCH  71  94
ATOM     94  C   UNL     1      12.769  13.269   2.135  1.00  0.00     0.064 A 
ATOM     95  C   UNL     1      14.152  13.353   2.350  1.00  0.00     0.173 A 
ATOM     96  C   UNL     1      11.993  14.411   2.391  1.00  0.00     0.173 A 
ATOM     97  F   UNL     1      14.936  12.286   2.130  1.00  0.00    -0.203 F 
ATOM     98  C   UNL     1      14.730  14.524   2.831  1.00  0.00     0.198 A 
ATOM     99  C   UNL     1      12.579  15.590   2.840  1.00  0.00     0.198 A 
ATOM    100  F   UNL     1      10.667  14.387   2.190  1.00  0.00    -0.203 F 
ATOM    101  F   UNL     1      16.047  14.567   3.077  1.00  0.00    -0.200 F 
ATOM    102  C   UNL     1      13.946  15.644   3.068  1.00  0.00     0.200 A 
ATOM    103  F   UNL     1      11.822  16.675   3.051  1.00  0.00    -0.200 F 
ATOM    104  F   UNL     1      14.507  16.773   3.522  1.00  0.00    -0.200 F 
ENDBRANCH  71  94
ENDBRANCH  45  46
ENDBRANCH  38  40
ENDBRANCH  37  38
ENDBRANCH  36  37
ENDBRANCH  35  36
ENDBRANCH  34  35
ENDBRANCH  33  34
ENDBRANCH   1  33
TORSDOF 22
