REMARK SMILES CC(C)n1c([C@H](O)CC(=O)OCCOCCOCCOC(=O)c2ccc(-c3c4nc(c(-c5c(F)c(F)c(F)c(F)c5F)c5ccc([nH]5)c(-c5c(F)c(F)c(F)c(F)c5F)c5nc(c(-c6c(F)c(F)c(F)c(F)c6F)c6ccc3[nH]6)C=C5)C=C4)cc2)nc2cc(Cl)ccc21
REMARK SMILES IDX 15 1 14 2 13 3 12 4 11 5 9 6 10 7 8 8 6 9 5 10 4 11 93 12
REMARK SMILES IDX 86 13 87 14 92 15 88 16 91 17 89 18 90 19 2 20 1 21 3 22
REMARK SMILES IDX 7 23 16 25 17 26 18 27 19 28 20 29 21 30 22 31 23 32 24 33
REMARK SMILES IDX 85 34 25 35 84 36 26 37 27 38 28 39 78 40 29 41 83 42 77 43
REMARK SMILES IDX 79 44 30 45 82 46 76 47 75 48 31 50 63 51 43 52 62 53 44 54
REMARK SMILES IDX 47 55 61 56 80 57 45 58 46 59 60 61 81 62 48 63 32 64 33 65
REMARK SMILES IDX 41 66 34 67 35 68 39 69 42 70 36 71 37 72 40 73 38 74 64 75
REMARK SMILES IDX 65 76 73 77 66 78 67 79 71 80 74 81 68 82 69 83 72 84 70 85
REMARK SMILES IDX 49 86 50 87 58 88 51 89 52 90 56 91 59 92 53 93 54 94 57 95
REMARK SMILES IDX 55 96
REMARK H PARENT 7 24 79 49 47 60
REMARK Flexibility Score: inf
ROOT
ATOM      1  C   UNL     1       1.132  -3.555   2.617  1.00  0.00     0.188 C 
ENDROOT
BRANCH   1   2
ATOM      2  O   UNL     1       1.164  -4.959   2.467  1.00  0.00    -0.376 OA
BRANCH   2   3
ATOM      3  C   UNL     1       0.103  -5.596   1.776  1.00  0.00     0.202 C 
BRANCH   3   4
ATOM      4  C   UNL     1      -1.303  -5.000   1.896  1.00  0.00     0.261 C 
BRANCH   4   5
ATOM      5  O   UNL     1      -1.370  -3.655   1.372  1.00  0.00    -0.463 OA
BRANCH   5   6
ATOM      6  C   UNL     1      -2.131  -2.805   2.102  1.00  0.00     0.308 C 
ATOM      7  O   UNL     1      -2.915  -3.194   2.965  1.00  0.00    -0.252 OA
BRANCH   6   8
ATOM      8  C   UNL     1      -1.742  -1.332   1.993  1.00  0.00     0.162 C 
BRANCH   8   9
ATOM      9  C   UNL     1      -1.702  -0.516   0.685  1.00  0.00     0.191 C 
BRANCH   9  10
ATOM     10  C   UNL     1      -2.633   0.707   0.479  1.00  0.00     0.139 A 
ATOM     11  N   UNL     1      -3.910   0.855   1.004  1.00  0.00    -0.323 N 
ATOM     12  C   UNL     1      -4.519   1.966   0.468  1.00  0.00     0.069 A 
ATOM     13  N   UNL     1      -2.305   1.885  -0.062  1.00  0.00    -0.230 NA
ATOM     14  C   UNL     1      -3.445   2.691  -0.013  1.00  0.00     0.090 A 
ATOM     15  C   UNL     1      -5.814   2.460   0.669  1.00  0.00     0.030 A 
ATOM     16  C   UNL     1      -3.655   4.057  -0.264  1.00  0.00     0.051 A 
ATOM     17  C   UNL     1      -6.001   3.813   0.431  1.00  0.00     0.023 A 
ATOM     18  C   UNL     1      -4.935   4.597  -0.016  1.00  0.00     0.043 A 
ATOM     19  Cl  UNL     1      -5.205   6.287  -0.219  1.00  0.00    -0.084 Cl
BRANCH  11  20
ATOM     20  C   UNL     1      -4.218   0.594   2.412  1.00  0.00     0.083 C 
ATOM     21  C   UNL     1      -4.727  -0.844   2.456  1.00  0.00     0.031 C 
ATOM     22  C   UNL     1      -3.092   1.324   3.191  1.00  0.00     0.031 C 
ENDBRANCH  11  20
ENDBRANCH   9  10
BRANCH   9  23
ATOM     23  O   UNL     1      -1.884  -1.367  -0.435  1.00  0.00    -0.385 OA
ATOM     24  H   UNL     1      -2.790  -1.712  -0.434  1.00  0.00     0.211 HD
ENDBRANCH   9  23
ENDBRANCH   8   9
ENDBRANCH   6   8
ENDBRANCH   5   6
ENDBRANCH   4   5
ENDBRANCH   3   4
ENDBRANCH   2   3
ENDBRANCH   1   2
BRANCH   1  25
ATOM     25  C   UNL     1       1.192  -2.661   1.357  1.00  0.00     0.188 C 
BRANCH  25  26
ATOM     26  O   UNL     1       1.526  -3.201   0.106  1.00  0.00    -0.376 OA
BRANCH  26  27
ATOM     27  C   UNL     1       2.809  -3.797   0.044  1.00  0.00     0.202 C 
BRANCH  27  28
ATOM     28  C   UNL     1       4.008  -3.022   0.654  1.00  0.00     0.261 C 
BRANCH  28  29
ATOM     29  O   UNL     1       3.825  -2.608   2.041  1.00  0.00    -0.460 OA
BRANCH  29  30
ATOM     30  C   UNL     1       4.037  -1.276   2.333  1.00  0.00     0.338 C 
ATOM     31  O   UNL     1       4.657  -0.501   1.665  1.00  0.00    -0.246 OA
BRANCH  30  32
ATOM     32  C   UNL     1       3.042  -0.841   3.393  1.00  0.00     0.060 A 
ATOM     33  C   UNL     1       2.828  -1.507   4.604  1.00  0.00     0.016 A 
ATOM     34  C   UNL     1       2.139   0.167   3.019  1.00  0.00     0.016 A 
ATOM     35  C   UNL     1       1.672  -1.234   5.379  1.00  0.00     0.010 A 
ATOM     36  C   UNL     1       0.977   0.411   3.773  1.00  0.00     0.010 A 
ATOM     37  C   UNL     1       0.703  -0.308   4.951  1.00  0.00    -0.014 A 
BRANCH  37  38
ATOM     38  C   UNL     1      -0.340   0.229   5.872  1.00  0.00     0.031 A 
ATOM     39  C   UNL     1       0.239   1.139   6.882  1.00  0.00     0.074 A 
ATOM     40  C   UNL     1      -1.691   0.086   5.949  1.00  0.00     0.049 A 
ATOM     41  N   UNL     1       0.184   0.920   8.155  1.00  0.00    -0.248 NA
ATOM     42  C   UNL     1       1.056   2.287   6.489  1.00  0.00     0.031 C 
ATOM     43  C   UNL     1      -2.559  -0.906   5.327  1.00  0.00     0.029 A 
ATOM     44  N   UNL     1      -2.615   0.885   6.625  1.00  0.00    -0.354 N 
ATOM     45  C   UNL     1       0.808   1.997   8.745  1.00  0.00     0.074 A 
ATOM     46  C   UNL     1       1.463   2.721   7.684  1.00  0.00     0.031 C 
ATOM     47  C   UNL     1      -3.858  -0.562   5.520  1.00  0.00     0.029 A 
ATOM     48  C   UNL     1      -3.940   0.715   6.212  1.00  0.00     0.049 A 
ATOM     49  H   UNL     1      -2.356   1.517   7.334  1.00  0.00     0.167 HD
ATOM     50  C   UNL     1       0.530   2.335  10.030  1.00  0.00     0.037 A 
ATOM     51  C   UNL     1      -5.125   1.290   6.581  1.00  0.00     0.037 A 
ATOM     52  C   UNL     1      -0.042   1.238  10.775  1.00  0.00     0.049 A 
ATOM     53  C   UNL     1      -4.985   1.505   8.028  1.00  0.00     0.074 A 
ATOM     54  C   UNL     1       0.353  -0.065  11.031  1.00  0.00     0.029 A 
ATOM     55  N   UNL     1      -1.370   1.278  11.121  1.00  0.00    -0.354 N 
ATOM     56  N   UNL     1      -4.988   0.511   8.868  1.00  0.00    -0.248 NA
ATOM     57  C   UNL     1      -4.384   2.744   8.492  1.00  0.00     0.031 C 
ATOM     58  C   UNL     1      -0.845  -0.837  11.033  1.00  0.00     0.029 A 
ATOM     59  C   UNL     1      -1.901   0.044  10.834  1.00  0.00     0.049 A 
ATOM     60  H   UNL     1      -1.851   2.046  11.505  1.00  0.00     0.167 HD
ATOM     61  C   UNL     1      -3.968   0.831   9.741  1.00  0.00     0.074 A 
ATOM     62  C   UNL     1      -3.702   2.253   9.528  1.00  0.00     0.031 C 
ATOM     63  C   UNL     1      -3.233  -0.152  10.333  1.00  0.00     0.037 A 
BRANCH  50  64
ATOM     64  C   UNL     1       0.509   3.764  10.483  1.00  0.00     0.064 A 
ATOM     65  C   UNL     1       0.508   4.065  11.853  1.00  0.00     0.173 A 
ATOM     66  C   UNL     1       0.256   4.849   9.613  1.00  0.00     0.173 A 
ATOM     67  F   UNL     1       0.665   3.093  12.764  1.00  0.00    -0.203 F 
ATOM     68  C   UNL     1       0.265   5.360  12.317  1.00  0.00     0.198 A 
ATOM     69  C   UNL     1       0.082   6.149  10.074  1.00  0.00     0.198 A 
ATOM     70  F   UNL     1       0.059   4.675   8.300  1.00  0.00    -0.203 F 
ATOM     71  F   UNL     1       0.169   5.585  13.634  1.00  0.00    -0.200 F 
ATOM     72  C   UNL     1       0.065   6.402  11.428  1.00  0.00     0.200 A 
ATOM     73  F   UNL     1      -0.141   7.136   9.195  1.00  0.00    -0.200 F 
ATOM     74  F   UNL     1      -0.200   7.636  11.874  1.00  0.00    -0.200 F 
ENDBRANCH  50  64
BRANCH  51  75
ATOM     75  C   UNL     1      -5.901   2.304   5.775  1.00  0.00     0.064 A 
ATOM     76  C   UNL     1      -7.302   2.378   5.878  1.00  0.00     0.173 A 
ATOM     77  C   UNL     1      -5.300   3.328   5.016  1.00  0.00     0.173 A 
ATOM     78  F   UNL     1      -7.960   1.509   6.659  1.00  0.00    -0.203 F 
ATOM     79  C   UNL     1      -8.051   3.368   5.216  1.00  0.00     0.198 A 
ATOM     80  C   UNL     1      -6.046   4.289   4.318  1.00  0.00     0.198 A 
ATOM     81  F   UNL     1      -3.967   3.471   5.010  1.00  0.00    -0.203 F 
ATOM     82  F   UNL     1      -9.381   3.425   5.376  1.00  0.00    -0.200 F 
ATOM     83  C   UNL     1      -7.423   4.309   4.418  1.00  0.00     0.200 A 
ATOM     84  F   UNL     1      -5.419   5.219   3.584  1.00  0.00    -0.200 F 
ATOM     85  F   UNL     1      -8.136   5.251   3.783  1.00  0.00    -0.200 F 
ENDBRANCH  51  75
BRANCH  63  86
ATOM     86  C   UNL     1      -3.715  -1.566  10.162  1.00  0.00     0.064 A 
ATOM     87  C   UNL     1      -3.565  -2.275   8.960  1.00  0.00     0.173 A 
ATOM     88  C   UNL     1      -4.205  -2.275  11.259  1.00  0.00     0.173 A 
ATOM     89  F   UNL     1      -2.954  -1.705   7.922  1.00  0.00    -0.203 F 
ATOM     90  C   UNL     1      -3.946  -3.608   8.833  1.00  0.00     0.198 A 
ATOM     91  C   UNL     1      -4.540  -3.626  11.151  1.00  0.00     0.198 A 
ATOM     92  F   UNL     1      -4.301  -1.674  12.454  1.00  0.00    -0.203 F 
ATOM     93  F   UNL     1      -3.799  -4.246   7.662  1.00  0.00    -0.200 F 
ATOM     94  C   UNL     1      -4.426  -4.288   9.936  1.00  0.00     0.200 A 
ATOM     95  F   UNL     1      -4.938  -4.300  12.238  1.00  0.00    -0.200 F 
ATOM     96  F   UNL     1      -4.734  -5.589   9.843  1.00  0.00    -0.200 F 
ENDBRANCH  63  86
ENDBRANCH  37  38
ENDBRANCH  30  32
ENDBRANCH  29  30
ENDBRANCH  28  29
ENDBRANCH  27  28
ENDBRANCH  26  27
ENDBRANCH  25  26
ENDBRANCH   1  25
TORSDOF 21
