REMARK SMILES O=C(OCCOCCOCCOC(=O)c1ccc(NC(=O)c2ccc([N+](=O)[O-])cc2Cl)cc1Cl)c1ccc(-c2c3nc(c(-c4c(F)c(F)c(F)c(F)c4F)c4ccc([nH]4)c(-c4c(F)c(F)c(F)c(F)c4F)c4nc(c(-c5c(F)c(F)c(F)c(F)c5F)c5ccc2[nH]5)C=C4)C=C3)cc1
REMARK SMILES IDX 8 1 7 2 6 3 5 4 4 5 3 6 2 7 1 8 35 9 36 10 97 11 37 12 96 13
REMARK SMILES IDX 38 14 39 15 40 16 90 17 41 18 95 19 89 20 91 21 42 22 94 23
REMARK SMILES IDX 88 24 87 25 43 27 75 28 55 29 74 30 56 31 59 32 73 33 92 34
REMARK SMILES IDX 57 35 58 36 72 38 93 39 60 40 44 41 45 42 53 43 46 44 47 45
REMARK SMILES IDX 51 46 54 47 48 48 49 49 52 50 50 51 76 52 77 53 85 54 78 55
REMARK SMILES IDX 79 56 83 57 86 58 80 59 81 60 84 61 82 62 61 63 62 64 70 65
REMARK SMILES IDX 63 66 64 67 68 68 71 69 65 70 66 71 69 72 67 73 9 74 10 75
REMARK SMILES IDX 11 76 12 77 13 78 14 79 15 80 16 81 33 82 17 83 32 84 34 85
REMARK SMILES IDX 18 86 19 87 20 88 21 90 22 91 23 92 30 93 24 94 29 95 31 96
REMARK SMILES IDX 25 97 26 98 27 99 28 100
REMARK H PARENT 91 26 59 37 19 89
REMARK Flexibility Score: inf
ROOT
ATOM      1  C   UNL     1       1.950  -1.794  -2.848  1.00  0.00     0.188 C 
ENDROOT
BRANCH   1   2
ATOM      2  C   UNL     1       2.453  -1.970  -1.411  1.00  0.00     0.188 C 
BRANCH   2   3
ATOM      3  O   UNL     1       3.707  -1.293  -1.244  1.00  0.00    -0.376 OA
BRANCH   3   4
ATOM      4  C   UNL     1       4.505  -1.811  -0.177  1.00  0.00     0.202 C 
BRANCH   4   5
ATOM      5  C   UNL     1       4.303  -1.080   1.155  1.00  0.00     0.261 C 
BRANCH   5   6
ATOM      6  O   UNL     1       2.921  -0.742   1.364  1.00  0.00    -0.460 OA
BRANCH   6   7
ATOM      7  C   UNL     1       2.327   0.447   1.095  1.00  0.00     0.338 C 
ATOM      8  O   UNL     1       1.112   0.569   1.231  1.00  0.00    -0.246 OA
BRANCH   7   9
ATOM      9  C   UNL     1       3.103   1.658   0.712  1.00  0.00     0.060 A 
ATOM     10  C   UNL     1       4.149   1.660  -0.212  1.00  0.00     0.016 A 
ATOM     11  C   UNL     1       2.691   2.881   1.257  1.00  0.00     0.016 A 
ATOM     12  C   UNL     1       4.854   2.826  -0.496  1.00  0.00     0.010 A 
ATOM     13  C   UNL     1       3.344   4.067   0.911  1.00  0.00     0.010 A 
ATOM     14  C   UNL     1       4.452   4.046   0.050  1.00  0.00    -0.014 A 
BRANCH  14  15
ATOM     15  C   UNL     1       5.232   5.276  -0.235  1.00  0.00     0.031 A 
ATOM     16  C   UNL     1       5.924   5.981   0.895  1.00  0.00     0.074 A 
ATOM     17  C   UNL     1       5.366   5.730  -1.497  1.00  0.00     0.049 A 
ATOM     18  N   UNL     1       6.572   7.117   0.896  1.00  0.00    -0.248 NA
ATOM     19  C   UNL     1       5.880   5.312   2.206  1.00  0.00     0.031 C 
ATOM     20  C   UNL     1       4.806   5.092  -2.689  1.00  0.00     0.029 A 
ATOM     21  N   UNL     1       6.024   6.830  -1.990  1.00  0.00    -0.354 N 
ATOM     22  C   UNL     1       6.986   7.310   2.207  1.00  0.00     0.074 A 
ATOM     23  C   UNL     1       6.490   6.194   2.981  1.00  0.00     0.031 C 
ATOM     24  C   UNL     1       5.163   5.798  -3.773  1.00  0.00     0.029 A 
ATOM     25  C   UNL     1       5.906   6.976  -3.350  1.00  0.00     0.049 A 
ATOM     26  H   UNL     1       6.533   7.453  -1.423  1.00  0.00     0.167 HD
ATOM     27  C   UNL     1       7.731   8.320   2.715  1.00  0.00     0.037 A 
ATOM     28  C   UNL     1       6.320   7.965  -4.165  1.00  0.00     0.037 A 
ATOM     29  C   UNL     1       8.248   9.409   1.934  1.00  0.00     0.049 A 
ATOM     30  C   UNL     1       7.083   9.114  -3.568  1.00  0.00     0.074 A 
ATOM     31  C   UNL     1       8.998  10.494   2.348  1.00  0.00     0.029 A 
ATOM     32  N   UNL     1       8.074   9.538   0.563  1.00  0.00    -0.354 N 
ATOM     33  N   UNL     1       7.441   9.305  -2.321  1.00  0.00    -0.248 NA
ATOM     34  C   UNL     1       7.503  10.182  -4.484  1.00  0.00     0.031 C 
ATOM     35  C   UNL     1       9.260  11.293   1.228  1.00  0.00     0.029 A 
ATOM     36  C   UNL     1       8.699  10.688   0.113  1.00  0.00     0.049 A 
ATOM     37  H   UNL     1       7.579   8.905  -0.006  1.00  0.00     0.167 HD
ATOM     38  C   UNL     1       8.151  10.495  -2.305  1.00  0.00     0.074 A 
ATOM     39  C   UNL     1       8.180  10.981  -3.671  1.00  0.00     0.031 C 
ATOM     40  C   UNL     1       8.728  11.131  -1.257  1.00  0.00     0.037 A 
BRANCH  27  41
ATOM     41  C   UNL     1       7.993   8.286   4.191  1.00  0.00     0.064 A 
ATOM     42  C   UNL     1       8.879   7.357   4.759  1.00  0.00     0.173 A 
ATOM     43  C   UNL     1       7.313   9.159   5.052  1.00  0.00     0.173 A 
ATOM     44  F   UNL     1       9.531   6.483   3.979  1.00  0.00    -0.203 F 
ATOM     45  C   UNL     1       9.042   7.277   6.140  1.00  0.00     0.198 A 
ATOM     46  C   UNL     1       7.498   9.092   6.431  1.00  0.00     0.198 A 
ATOM     47  F   UNL     1       6.452  10.062   4.559  1.00  0.00    -0.203 F 
ATOM     48  F   UNL     1       9.840   6.336   6.664  1.00  0.00    -0.200 F 
ATOM     49  C   UNL     1       8.352   8.144   6.974  1.00  0.00     0.200 A 
ATOM     50  F   UNL     1       6.832   9.931   7.236  1.00  0.00    -0.200 F 
ATOM     51  F   UNL     1       8.497   8.054   8.303  1.00  0.00    -0.200 F 
ENDBRANCH  27  41
BRANCH  28  52
ATOM     52  C   UNL     1       6.005   7.916  -5.619  1.00  0.00     0.064 A 
ATOM     53  C   UNL     1       7.014   7.749  -6.577  1.00  0.00     0.173 A 
ATOM     54  C   UNL     1       4.684   8.026  -6.082  1.00  0.00     0.173 A 
ATOM     55  F   UNL     1       8.294   7.649  -6.189  1.00  0.00    -0.203 F 
ATOM     56  C   UNL     1       6.719   7.715  -7.939  1.00  0.00     0.198 A 
ATOM     57  C   UNL     1       4.387   7.965  -7.442  1.00  0.00     0.198 A 
ATOM     58  F   UNL     1       3.672   8.162  -5.212  1.00  0.00    -0.203 F 
ATOM     59  F   UNL     1       7.708   7.593  -8.834  1.00  0.00    -0.200 F 
ATOM     60  C   UNL     1       5.405   7.819  -8.371  1.00  0.00     0.200 A 
ATOM     61  F   UNL     1       3.111   8.034  -7.848  1.00  0.00    -0.200 F 
ATOM     62  F   UNL     1       5.120   7.780  -9.679  1.00  0.00    -0.200 F 
ENDBRANCH  28  52
BRANCH  40  63
ATOM     63  C   UNL     1       9.476  12.393  -1.558  1.00  0.00     0.064 A 
ATOM     64  C   UNL     1       8.807  13.597  -1.815  1.00  0.00     0.173 A 
ATOM     65  C   UNL     1      10.879  12.402  -1.544  1.00  0.00     0.173 A 
ATOM     66  F   UNL     1       7.467  13.629  -1.857  1.00  0.00    -0.203 F 
ATOM     67  C   UNL     1       9.519  14.767  -2.063  1.00  0.00     0.198 A 
ATOM     68  C   UNL     1      11.586  13.578  -1.770  1.00  0.00     0.198 A 
ATOM     69  F   UNL     1      11.559  11.272  -1.300  1.00  0.00    -0.203 F 
ATOM     70  F   UNL     1       8.862  15.901  -2.342  1.00  0.00    -0.200 F 
ATOM     71  C   UNL     1      10.906  14.758  -2.034  1.00  0.00     0.200 A 
ATOM     72  F   UNL     1      12.925  13.569  -1.734  1.00  0.00    -0.200 F 
ATOM     73  F   UNL     1      11.589  15.887  -2.266  1.00  0.00    -0.200 F 
ENDBRANCH  40  63
ENDBRANCH  14  15
ENDBRANCH   7   9
ENDBRANCH   6   7
ENDBRANCH   5   6
ENDBRANCH   4   5
ENDBRANCH   3   4
ENDBRANCH   2   3
ENDBRANCH   1   2
BRANCH   1  74
ATOM     74  O   UNL     1       2.617  -2.610  -3.814  1.00  0.00    -0.376 OA
BRANCH  74  75
ATOM     75  C   UNL     1       4.004  -2.352  -4.018  1.00  0.00     0.202 C 
BRANCH  75  76
ATOM     76  C   UNL     1       4.333  -1.181  -4.949  1.00  0.00     0.261 C 
BRANCH  76  77
ATOM     77  O   UNL     1       3.742   0.075  -4.566  1.00  0.00    -0.460 OA
BRANCH  77  78
ATOM     78  C   UNL     1       2.842   0.564  -5.455  1.00  0.00     0.339 C 
ATOM     79  O   UNL     1       2.420   0.028  -6.464  1.00  0.00    -0.246 OA
BRANCH  78  80
ATOM     80  C   UNL     1       2.406   1.912  -5.067  1.00  0.00     0.078 A 
ATOM     81  C   UNL     1       1.304   2.054  -4.220  1.00  0.00     0.019 A 
ATOM     82  C   UNL     1       2.940   3.035  -5.696  1.00  0.00     0.057 A 
ATOM     83  C   UNL     1       0.736   3.319  -4.005  1.00  0.00     0.027 A 
ATOM     84  C   UNL     1       2.356   4.292  -5.486  1.00  0.00     0.047 A 
ATOM     85  Cl  UNL     1       4.310   2.945  -6.743  1.00  0.00    -0.083 Cl
ATOM     86  C   UNL     1       1.254   4.452  -4.635  1.00  0.00     0.043 A 
BRANCH  86  87
ATOM     87  N   UNL     1       0.721   5.754  -4.544  1.00  0.00    -0.322 N 
ATOM     88  C   UNL     1      -0.247   6.332  -3.756  1.00  0.00     0.257 C 
ATOM     89  H   UNL     1       1.130   6.385  -5.180  1.00  0.00     0.170 HD
ATOM     90  O   UNL     1      -0.685   7.448  -4.027  1.00  0.00    -0.269 OA
BRANCH  88  91
ATOM     91  C   UNL     1      -0.771   5.667  -2.558  1.00  0.00     0.059 A 
ATOM     92  C   UNL     1      -2.122   5.292  -2.553  1.00  0.00     0.022 A 
ATOM     93  C   UNL     1       0.029   5.451  -1.431  1.00  0.00     0.060 A 
ATOM     94  C   UNL     1      -2.650   4.616  -1.450  1.00  0.00     0.086 A 
ATOM     95  C   UNL     1      -0.487   4.757  -0.334  1.00  0.00     0.107 A 
ATOM     96  Cl  UNL     1       1.636   6.058  -1.330  1.00  0.00    -0.083 Cl
ATOM     97  C   UNL     1      -1.822   4.330  -0.354  1.00  0.00     0.270 A 
BRANCH  97  98
ATOM     98  N   UNL     1      -2.361   3.588   0.793  1.00  0.00     0.062 N 
ATOM     99  O   UNL     1      -3.546   3.232   0.740  1.00  0.00    -0.258 OA
ATOM    100  O   UNL     1      -1.598   3.371   1.744  1.00  0.00    -0.258 OA
ENDBRANCH  97  98
ENDBRANCH  88  91
ENDBRANCH  86  87
ENDBRANCH  78  80
ENDBRANCH  77  78
ENDBRANCH  76  77
ENDBRANCH  75  76
ENDBRANCH  74  75
ENDBRANCH   1  74
TORSDOF 20
