REMARK SMILES O=C(OCCOCCOCCOC(=O)c1ccc(Cn2nnc3ccccc32)nc1)c1ccc(-c2c3nc(c(-c4c(F)c(F)c(F)c(F)c4F)c4ccc([nH]4)c(-c4c(F)c(F)c(F)c(F)c4F)c4nc(c(-c5c(F)c(F)c(F)c(F)c5F)c5ccc2[nH]5)C=C4)C=C3)cc1
REMARK SMILES IDX 7 1 6 2 5 3 4 4 3 5 2 6 1 7 31 8 32 9 93 10 33 11 92 12
REMARK SMILES IDX 34 13 35 14 36 15 86 16 37 17 91 18 85 19 87 20 38 21 90 22
REMARK SMILES IDX 84 23 83 24 39 26 71 27 51 28 70 29 52 30 55 31 69 32 88 33
REMARK SMILES IDX 53 34 54 35 68 37 89 38 56 39 40 40 41 41 49 42 42 43 43 44
REMARK SMILES IDX 47 45 50 46 44 47 45 48 48 49 46 50 72 51 73 52 81 53 74 54
REMARK SMILES IDX 75 55 79 56 82 57 76 58 77 59 80 60 78 61 57 62 58 63 66 64
REMARK SMILES IDX 59 65 60 66 64 67 67 68 61 69 62 70 65 71 63 72 8 73 9 74
REMARK SMILES IDX 10 75 11 76 12 77 13 78 14 79 15 80 16 81 30 82 17 83 29 84
REMARK SMILES IDX 18 85 19 86 20 87 21 88 28 89 22 90 23 91 27 92 24 93 26 94
REMARK SMILES IDX 25 95
REMARK H PARENT 87 25 55 36
REMARK Flexibility Score: inf
ROOT
ATOM      1  C   UNL     1       1.869   1.379   0.503  1.00  0.00     0.188 C 
ENDROOT
BRANCH   1   2
ATOM      2  O   UNL     1       3.240   1.244   0.855  1.00  0.00    -0.376 OA
BRANCH   2   3
ATOM      3  C   UNL     1       4.133   1.740  -0.131  1.00  0.00     0.202 C 
BRANCH   3   4
ATOM      4  C   UNL     1       4.140   1.002  -1.481  1.00  0.00     0.261 C 
BRANCH   4   5
ATOM      5  O   UNL     1       3.490  -0.290  -1.609  1.00  0.00    -0.460 OA
BRANCH   5   6
ATOM      6  C   UNL     1       3.588  -1.406  -0.848  1.00  0.00     0.338 C 
ATOM      7  O   UNL     1       2.899  -2.396  -1.065  1.00  0.00    -0.246 OA
BRANCH   6   8
ATOM      8  C   UNL     1       4.439  -1.349   0.347  1.00  0.00     0.060 A 
ATOM      9  C   UNL     1       3.858  -1.724   1.556  1.00  0.00     0.016 A 
ATOM     10  C   UNL     1       5.727  -0.806   0.309  1.00  0.00     0.016 A 
ATOM     11  C   UNL     1       4.505  -1.378   2.730  1.00  0.00     0.010 A 
ATOM     12  C   UNL     1       6.330  -0.383   1.491  1.00  0.00     0.010 A 
ATOM     13  C   UNL     1       5.696  -0.627   2.707  1.00  0.00    -0.014 A 
BRANCH  13  14
ATOM     14  C   UNL     1       6.431  -0.536   3.974  1.00  0.00     0.031 A 
ATOM     15  C   UNL     1       6.897  -1.895   4.339  1.00  0.00     0.074 A 
ATOM     16  C   UNL     1       6.761   0.550   4.708  1.00  0.00     0.049 A 
ATOM     17  N   UNL     1       6.485  -2.628   5.318  1.00  0.00    -0.248 NA
ATOM     18  C   UNL     1       7.750  -2.603   3.364  1.00  0.00     0.031 C 
ATOM     19  C   UNL     1       6.613   1.955   4.329  1.00  0.00     0.029 A 
ATOM     20  N   UNL     1       7.364   0.632   5.946  1.00  0.00    -0.354 N 
ATOM     21  C   UNL     1       7.229  -3.796   5.211  1.00  0.00     0.074 A 
ATOM     22  C   UNL     1       7.800  -3.824   3.892  1.00  0.00     0.031 C 
ATOM     23  C   UNL     1       7.232   2.739   5.236  1.00  0.00     0.029 A 
ATOM     24  C   UNL     1       7.805   1.912   6.282  1.00  0.00     0.049 A 
ATOM     25  H   UNL     1       7.475  -0.145   6.540  1.00  0.00     0.167 HD
ATOM     26  C   UNL     1       7.662  -4.417   6.335  1.00  0.00     0.037 A 
ATOM     27  C   UNL     1       8.625   2.286   7.300  1.00  0.00     0.037 A 
ATOM     28  C   UNL     1       6.889  -4.053   7.486  1.00  0.00     0.049 A 
ATOM     29  C   UNL     1       8.570   1.238   8.346  1.00  0.00     0.074 A 
ATOM     30  C   UNL     1       5.707  -4.439   8.074  1.00  0.00     0.029 A 
ATOM     31  N   UNL     1       7.231  -2.844   8.020  1.00  0.00    -0.354 N 
ATOM     32  N   UNL     1       7.527   1.031   9.100  1.00  0.00    -0.248 NA
ATOM     33  C   UNL     1       9.583   0.184   8.373  1.00  0.00     0.031 C 
ATOM     34  C   UNL     1       5.335  -3.392   8.969  1.00  0.00     0.029 A 
ATOM     35  C   UNL     1       6.310  -2.403   8.928  1.00  0.00     0.049 A 
ATOM     36  H   UNL     1       8.047  -2.347   7.779  1.00  0.00     0.167 HD
ATOM     37  C   UNL     1       7.550  -0.325   9.335  1.00  0.00     0.074 A 
ATOM     38  C   UNL     1       8.904  -0.762   9.025  1.00  0.00     0.031 C 
ATOM     39  C   UNL     1       6.397  -1.045   9.405  1.00  0.00     0.037 A 
BRANCH  26  40
ATOM     40  C   UNL     1       9.090  -4.875   6.473  1.00  0.00     0.064 A 
ATOM     41  C   UNL     1       9.434  -5.767   7.499  1.00  0.00     0.173 A 
ATOM     42  C   UNL     1      10.173  -4.239   5.820  1.00  0.00     0.173 A 
ATOM     43  F   UNL     1       8.478  -6.360   8.229  1.00  0.00    -0.203 F 
ATOM     44  C   UNL     1      10.768  -6.003   7.843  1.00  0.00     0.198 A 
ATOM     45  C   UNL     1      11.499  -4.527   6.118  1.00  0.00     0.198 A 
ATOM     46  F   UNL     1       9.989  -3.229   4.960  1.00  0.00    -0.203 F 
ATOM     47  F   UNL     1      11.054  -6.784   8.893  1.00  0.00    -0.200 F 
ATOM     48  C   UNL     1      11.798  -5.394   7.145  1.00  0.00     0.200 A 
ATOM     49  F   UNL     1      12.477  -3.894   5.454  1.00  0.00    -0.200 F 
ATOM     50  F   UNL     1      13.074  -5.597   7.495  1.00  0.00    -0.200 F 
ENDBRANCH  26  40
BRANCH  27  51
ATOM     51  C   UNL     1       9.576   3.434   7.382  1.00  0.00     0.064 A 
ATOM     52  C   UNL     1      10.201   3.787   8.595  1.00  0.00     0.173 A 
ATOM     53  C   UNL     1      10.093   4.058   6.229  1.00  0.00     0.173 A 
ATOM     54  F   UNL     1       9.808   3.228   9.749  1.00  0.00    -0.203 F 
ATOM     55  C   UNL     1      11.291   4.666   8.641  1.00  0.00     0.198 A 
ATOM     56  C   UNL     1      11.167   4.949   6.277  1.00  0.00     0.198 A 
ATOM     57  F   UNL     1       9.631   3.755   5.009  1.00  0.00    -0.203 F 
ATOM     58  F   UNL     1      11.903   4.915   9.808  1.00  0.00    -0.200 F 
ATOM     59  C   UNL     1      11.781   5.237   7.480  1.00  0.00     0.200 A 
ATOM     60  F   UNL     1      11.641   5.476   5.139  1.00  0.00    -0.200 F 
ATOM     61  F   UNL     1      12.864   6.026   7.511  1.00  0.00    -0.200 F 
ENDBRANCH  27  51
BRANCH  39  62
ATOM     62  C   UNL     1       5.151  -0.353   9.848  1.00  0.00     0.064 A 
ATOM     63  C   UNL     1       4.506   0.671   9.138  1.00  0.00     0.173 A 
ATOM     64  C   UNL     1       4.547  -0.812  11.028  1.00  0.00     0.173 A 
ATOM     65  F   UNL     1       5.006   1.122   7.978  1.00  0.00    -0.203 F 
ATOM     66  C   UNL     1       3.312   1.220   9.609  1.00  0.00     0.198 A 
ATOM     67  C   UNL     1       3.337  -0.294  11.469  1.00  0.00     0.198 A 
ATOM     68  F   UNL     1       5.122  -1.797  11.737  1.00  0.00    -0.203 F 
ATOM     69  F   UNL     1       2.723   2.227   8.947  1.00  0.00    -0.200 F 
ATOM     70  C   UNL     1       2.722   0.725  10.763  1.00  0.00     0.200 A 
ATOM     71  F   UNL     1       2.764  -0.794  12.572  1.00  0.00    -0.200 F 
ATOM     72  F   UNL     1       1.555   1.224  11.194  1.00  0.00    -0.200 F 
ENDBRANCH  39  62
ENDBRANCH  13  14
ENDBRANCH   6   8
ENDBRANCH   5   6
ENDBRANCH   4   5
ENDBRANCH   3   4
ENDBRANCH   2   3
ENDBRANCH   1   2
BRANCH   1  73
ATOM     73  C   UNL     1       1.006   1.823   1.685  1.00  0.00     0.188 C 
BRANCH  73  74
ATOM     74  O   UNL     1       1.387   3.014   2.367  1.00  0.00    -0.376 OA
BRANCH  74  75
ATOM     75  C   UNL     1       2.683   3.073   2.943  1.00  0.00     0.202 C 
BRANCH  75  76
ATOM     76  C   UNL     1       3.150   1.980   3.917  1.00  0.00     0.261 C 
BRANCH  76  77
ATOM     77  O   UNL     1       2.361   0.794   4.003  1.00  0.00    -0.460 OA
BRANCH  77  78
ATOM     78  C   UNL     1       2.229   0.278   5.247  1.00  0.00     0.339 C 
ATOM     79  O   UNL     1       2.455   0.831   6.303  1.00  0.00    -0.246 OA
BRANCH  78  80
ATOM     80  C   UNL     1       1.939  -1.161   5.152  1.00  0.00     0.078 A 
ATOM     81  C   UNL     1       2.540  -2.035   6.060  1.00  0.00     0.019 A 
ATOM     82  C   UNL     1       1.136  -1.698   4.165  1.00  0.00     0.127 A 
ATOM     83  C   UNL     1       2.253  -3.397   5.997  1.00  0.00     0.027 A 
ATOM     84  N   UNL     1       0.875  -3.022   4.061  1.00  0.00    -0.258 NA
ATOM     85  C   UNL     1       1.378  -3.851   5.015  1.00  0.00     0.062 A 
BRANCH  85  86
ATOM     86  C   UNL     1       0.867  -5.271   5.030  1.00  0.00     0.202 C 
BRANCH  86  87
ATOM     87  N   UNL     1      -0.540  -5.277   5.389  1.00  0.00    -0.239 N 
ATOM     88  N   UNL     1      -0.919  -5.579   6.650  1.00  0.00    -0.066 NA
ATOM     89  C   UNL     1      -1.612  -4.915   4.612  1.00  0.00     0.089 A 
ATOM     90  N   UNL     1      -2.226  -5.356   6.736  1.00  0.00    -0.130 NA
ATOM     91  C   UNL     1      -2.669  -4.928   5.512  1.00  0.00     0.113 A 
ATOM     92  C   UNL     1      -1.752  -4.531   3.274  1.00  0.00     0.030 A 
ATOM     93  C   UNL     1      -3.941  -4.520   5.083  1.00  0.00     0.032 A 
ATOM     94  C   UNL     1      -3.022  -4.117   2.864  1.00  0.00     0.002 A 
ATOM     95  C   UNL     1      -4.100  -4.106   3.752  1.00  0.00     0.002 A 
ENDBRANCH  86  87
ENDBRANCH  85  86
ENDBRANCH  78  80
ENDBRANCH  77  78
ENDBRANCH  76  77
ENDBRANCH  75  76
ENDBRANCH  74  75
ENDBRANCH  73  74
ENDBRANCH   1  73
TORSDOF 19
