REMARK SMILES Cc1cc(-c2cc(C(=O)OCCOCCOCCOC(=O)c3ccc(-c4c5nc(c(-c6c(F)c(F)c(F)c(F)c6F)c6ccc([nH]6)c(-c6c(F)c(F)c(F)c(F)c6F)c6nc(c(-c7c(F)c(F)c(F)c(F)c7F)c7ccc4[nH]7)C=C6)C=C5)cc3)c[nH]c2=O)ccc1Cl
REMARK SMILES IDX 15 1 14 2 13 3 12 4 11 5 10 6 8 7 9 8 7 9 5 10 6 11 87 12
REMARK SMILES IDX 86 13 88 14 85 15 4 17 1 18 2 19 3 20 91 21 90 22 92 23
REMARK SMILES IDX 89 24 16 25 17 26 18 27 19 28 20 29 21 30 22 31 23 32 84 33
REMARK SMILES IDX 24 34 83 35 25 36 26 37 27 38 77 39 28 40 82 41 76 42 78 43
REMARK SMILES IDX 29 44 81 45 75 46 74 47 30 49 62 50 42 51 61 52 43 53 46 54
REMARK SMILES IDX 60 55 79 56 44 57 45 58 59 60 80 61 47 62 31 63 32 64 40 65
REMARK SMILES IDX 33 66 34 67 38 68 41 69 35 70 36 71 39 72 37 73 63 74 64 75
REMARK SMILES IDX 72 76 65 77 66 78 70 79 73 80 67 81 68 82 71 83 69 84 48 85
REMARK SMILES IDX 49 86 57 87 50 88 51 89 55 90 58 91 52 92 53 93 56 94 54 95
REMARK H PARENT 86 16 78 48 46 59
REMARK Flexibility Score: inf
ROOT
ATOM      1  C   UNL     1      -6.820   0.736   3.502  1.00  0.00     0.188 C 
ENDROOT
BRANCH   1   2
ATOM      2  C   UNL     1      -8.216   0.179   3.151  1.00  0.00     0.188 C 
BRANCH   2   3
ATOM      3  O   UNL     1      -8.871  -0.736   4.015  1.00  0.00    -0.376 OA
BRANCH   3   4
ATOM      4  C   UNL     1      -8.173  -1.859   4.534  1.00  0.00     0.202 C 
BRANCH   4   5
ATOM      5  C   UNL     1      -7.349  -2.774   3.613  1.00  0.00     0.261 C 
BRANCH   5   6
ATOM      6  O   UNL     1      -6.479  -2.098   2.693  1.00  0.00    -0.460 OA
BRANCH   6   7
ATOM      7  C   UNL     1      -6.819  -2.193   1.381  1.00  0.00     0.339 C 
ATOM      8  O   UNL     1      -7.746  -2.838   0.916  1.00  0.00    -0.246 OA
BRANCH   7   9
ATOM      9  C   UNL     1      -6.008  -1.239   0.580  1.00  0.00     0.077 A 
ATOM     10  C   UNL     1      -3.865  -0.237  -0.051  1.00  0.00     0.048 A 
ATOM     11  C   UNL     1      -4.574  -1.087   0.725  1.00  0.00     0.031 A 
ATOM     12  C   UNL     1      -4.629   0.640  -1.015  1.00  0.00     0.255 A 
ATOM     13  N   UNL     1      -5.992   0.446  -1.062  1.00  0.00    -0.328 N 
ATOM     14  O   UNL     1      -4.095   1.484  -1.726  1.00  0.00    -0.269 OA
ATOM     15  C   UNL     1      -6.667  -0.477  -0.306  1.00  0.00     0.101 A 
ATOM     16  H   UNL     1      -6.516   1.006  -1.679  1.00  0.00     0.169 HD
BRANCH  10  17
ATOM     17  C   UNL     1      -2.387  -0.216   0.015  1.00  0.00    -0.012 A 
ATOM     18  C   UNL     1       0.495   2.294   0.021  1.00  0.00     0.046 C 
ATOM     19  C   UNL     1      -0.248   0.987   0.036  1.00  0.00    -0.032 A 
ATOM     20  C   UNL     1      -1.657   0.984   0.026  1.00  0.00     0.014 A 
ATOM     21  C   UNL     1       0.429  -0.241   0.041  1.00  0.00     0.044 A 
ATOM     22  C   UNL     1      -0.281  -1.440   0.027  1.00  0.00     0.021 A 
ATOM     23  Cl  UNL     1       2.154  -0.329   0.050  1.00  0.00    -0.084 Cl
ATOM     24  C   UNL     1      -1.676  -1.426   0.008  1.00  0.00     0.010 A 
ENDBRANCH  10  17
ENDBRANCH   7   9
ENDBRANCH   6   7
ENDBRANCH   5   6
ENDBRANCH   4   5
ENDBRANCH   3   4
ENDBRANCH   2   3
ENDBRANCH   1   2
BRANCH   1  25
ATOM     25  O   UNL     1      -6.246   0.217   4.674  1.00  0.00    -0.376 OA
BRANCH  25  26
ATOM     26  C   UNL     1      -6.444   0.871   5.916  1.00  0.00     0.202 C 
BRANCH  26  27
ATOM     27  C   UNL     1      -7.536   1.919   6.222  1.00  0.00     0.261 C 
BRANCH  27  28
ATOM     28  O   UNL     1      -8.385   2.361   5.160  1.00  0.00    -0.460 OA
BRANCH  28  29
ATOM     29  C   UNL     1      -8.083   3.555   4.599  1.00  0.00     0.338 C 
ATOM     30  O   UNL     1      -7.128   4.276   4.852  1.00  0.00    -0.246 OA
BRANCH  29  31
ATOM     31  C   UNL     1      -9.014   3.789   3.481  1.00  0.00     0.060 A 
ATOM     32  C   UNL     1      -8.534   3.718   2.166  1.00  0.00     0.016 A 
ATOM     33  C   UNL     1     -10.356   4.080   3.731  1.00  0.00     0.016 A 
ATOM     34  C   UNL     1      -9.400   3.937   1.093  1.00  0.00     0.010 A 
ATOM     35  C   UNL     1     -11.216   4.321   2.656  1.00  0.00     0.010 A 
ATOM     36  C   UNL     1     -10.741   4.266   1.333  1.00  0.00    -0.014 A 
BRANCH  36  37
ATOM     37  C   UNL     1     -11.623   4.684   0.216  1.00  0.00     0.031 A 
ATOM     38  C   UNL     1     -11.858   6.149  -0.013  1.00  0.00     0.074 A 
ATOM     39  C   UNL     1     -12.225   3.774  -0.571  1.00  0.00     0.049 A 
ATOM     40  N   UNL     1     -12.666   6.742  -0.854  1.00  0.00    -0.248 NA
ATOM     41  C   UNL     1     -11.080   7.070   0.830  1.00  0.00     0.031 C 
ATOM     42  C   UNL     1     -12.053   2.327  -0.471  1.00  0.00     0.029 A 
ATOM     43  N   UNL     1     -13.126   3.939  -1.595  1.00  0.00    -0.354 N 
ATOM     44  C   UNL     1     -12.504   8.104  -0.634  1.00  0.00     0.074 A 
ATOM     45  C   UNL     1     -11.540   8.248   0.437  1.00  0.00     0.031 C 
ATOM     46  C   UNL     1     -12.846   1.733  -1.379  1.00  0.00     0.029 A 
ATOM     47  C   UNL     1     -13.610   2.755  -2.094  1.00  0.00     0.049 A 
ATOM     48  H   UNL     1     -13.398   4.821  -1.938  1.00  0.00     0.167 HD
ATOM     49  C   UNL     1     -13.102   9.139  -1.270  1.00  0.00     0.037 A 
ATOM     50  C   UNL     1     -14.585   2.525  -2.996  1.00  0.00     0.037 A 
ATOM     51  C   UNL     1     -14.066   8.990  -2.329  1.00  0.00     0.049 A 
ATOM     52  C   UNL     1     -15.295   3.691  -3.637  1.00  0.00     0.074 A 
ATOM     53  C   UNL     1     -14.704   9.977  -3.060  1.00  0.00     0.029 A 
ATOM     54  N   UNL     1     -14.546   7.775  -2.797  1.00  0.00    -0.354 N 
ATOM     55  N   UNL     1     -15.110   4.976  -3.454  1.00  0.00    -0.248 NA
ATOM     56  C   UNL     1     -16.351   3.374  -4.610  1.00  0.00     0.031 C 
ATOM     57  C   UNL     1     -15.619   9.362  -3.920  1.00  0.00     0.029 A 
ATOM     58  C   UNL     1     -15.502   7.989  -3.778  1.00  0.00     0.049 A 
ATOM     59  H   UNL     1     -14.251   6.891  -2.478  1.00  0.00     0.167 HD
ATOM     60  C   UNL     1     -16.004   5.618  -4.303  1.00  0.00     0.074 A 
ATOM     61  C   UNL     1     -16.721   4.581  -5.014  1.00  0.00     0.031 C 
ATOM     62  C   UNL     1     -16.211   6.947  -4.479  1.00  0.00     0.037 A 
BRANCH  49  63
ATOM     63  C   UNL     1     -12.760  10.526  -0.807  1.00  0.00     0.064 A 
ATOM     64  C   UNL     1     -11.492  11.088  -1.019  1.00  0.00     0.173 A 
ATOM     65  C   UNL     1     -13.724  11.313  -0.159  1.00  0.00     0.173 A 
ATOM     66  F   UNL     1     -10.529  10.375  -1.623  1.00  0.00    -0.203 F 
ATOM     67  C   UNL     1     -11.192  12.371  -0.567  1.00  0.00     0.198 A 
ATOM     68  C   UNL     1     -13.432  12.608   0.260  1.00  0.00     0.198 A 
ATOM     69  F   UNL     1     -14.955  10.828   0.064  1.00  0.00    -0.203 F 
ATOM     70  F   UNL     1      -9.956  12.865  -0.729  1.00  0.00    -0.200 F 
ATOM     71  C   UNL     1     -12.163  13.132   0.065  1.00  0.00     0.200 A 
ATOM     72  F   UNL     1     -14.377  13.347   0.858  1.00  0.00    -0.200 F 
ATOM     73  F   UNL     1     -11.874  14.368   0.496  1.00  0.00    -0.200 F 
ENDBRANCH  49  63
BRANCH  50  74
ATOM     74  C   UNL     1     -14.973   1.127  -3.323  1.00  0.00     0.064 A 
ATOM     75  C   UNL     1     -14.732   0.584  -4.592  1.00  0.00     0.173 A 
ATOM     76  C   UNL     1     -15.606   0.308  -2.374  1.00  0.00     0.173 A 
ATOM     77  F   UNL     1     -14.157   1.334  -5.543  1.00  0.00    -0.203 F 
ATOM     78  C   UNL     1     -15.122  -0.718  -4.905  1.00  0.00     0.198 A 
ATOM     79  C   UNL     1     -15.966  -1.003  -2.678  1.00  0.00     0.198 A 
ATOM     80  F   UNL     1     -15.865   0.781  -1.146  1.00  0.00    -0.203 F 
ATOM     81  F   UNL     1     -14.922  -1.196  -6.141  1.00  0.00    -0.200 F 
ATOM     82  C   UNL     1     -15.731  -1.512  -3.945  1.00  0.00     0.200 A 
ATOM     83  F   UNL     1     -16.543  -1.770  -1.743  1.00  0.00    -0.200 F 
ATOM     84  F   UNL     1     -16.099  -2.765  -4.244  1.00  0.00    -0.200 F 
ENDBRANCH  50  74
BRANCH  62  85
ATOM     85  C   UNL     1     -17.232   7.365  -5.501  1.00  0.00     0.064 A 
ATOM     86  C   UNL     1     -18.607   7.180  -5.291  1.00  0.00     0.173 A 
ATOM     87  C   UNL     1     -16.832   8.009  -6.683  1.00  0.00     0.173 A 
ATOM     88  F   UNL     1     -19.043   6.558  -4.185  1.00  0.00    -0.203 F 
ATOM     89  C   UNL     1     -19.540   7.603  -6.235  1.00  0.00     0.198 A 
ATOM     90  C   UNL     1     -17.769   8.461  -7.608  1.00  0.00     0.198 A 
ATOM     91  F   UNL     1     -15.531   8.219  -6.931  1.00  0.00    -0.203 F 
ATOM     92  F   UNL     1     -20.845   7.374  -6.034  1.00  0.00    -0.200 F 
ATOM     93  C   UNL     1     -19.121   8.251  -7.387  1.00  0.00     0.200 A 
ATOM     94  F   UNL     1     -17.363   9.102  -8.712  1.00  0.00    -0.200 F 
ATOM     95  F   UNL     1     -20.021   8.669  -8.288  1.00  0.00    -0.200 F 
ENDBRANCH  62  85
ENDBRANCH  36  37
ENDBRANCH  29  31
ENDBRANCH  28  29
ENDBRANCH  27  28
ENDBRANCH  26  27
ENDBRANCH  25  26
ENDBRANCH   1  25
TORSDOF 18
