REMARK SMILES O=C(N[C@H](CCBr)C(=O)OCCOCCOCCOC(=O)c1ccc(-c2c3nc(c(-c4c(F)c(F)c(F)c(F)c4F)c4ccc([nH]4)c(-c4c(F)c(F)c(F)c(F)c4F)c4nc(c(-c5c(F)c(F)c(F)c(F)c5F)c5ccc2[nH]5)C=C4)C=C3)cc1)OCc1ccccc1
REMARK SMILES IDX 14 1 13 2 12 3 11 4 10 5 8 6 9 7 4 8 3 9 1 10 2 11 85 13
REMARK SMILES IDX 86 14 87 15 88 16 92 17 89 18 91 19 90 20 5 21 6 22 7 23
REMARK SMILES IDX 15 24 16 25 17 26 18 27 19 28 20 29 21 30 22 31 23 32 84 33
REMARK SMILES IDX 24 34 83 35 25 36 26 37 27 38 77 39 28 40 82 41 76 42 78 43
REMARK SMILES IDX 29 44 81 45 75 46 74 47 30 49 62 50 42 51 61 52 43 53 46 54
REMARK SMILES IDX 60 55 79 56 44 57 45 58 59 60 80 61 47 62 31 63 32 64 40 65
REMARK SMILES IDX 33 66 34 67 38 68 41 69 35 70 36 71 39 72 37 73 63 74 64 75
REMARK SMILES IDX 72 76 65 77 66 78 70 79 73 80 67 81 68 82 71 83 69 84 48 85
REMARK SMILES IDX 49 86 57 87 50 88 51 89 55 90 58 91 52 92 53 93 56 94 54 95
REMARK H PARENT 3 12 78 48 46 59
REMARK Flexibility Score: inf
ROOT
ATOM      1  C   UNL     1       5.465   1.190  -3.519  1.00  0.00     0.188 C 
ENDROOT
BRANCH   1   2
ATOM      2  O   UNL     1       6.487   0.741  -4.401  1.00  0.00    -0.376 OA
BRANCH   2   3
ATOM      3  C   UNL     1       6.170  -0.371  -5.237  1.00  0.00     0.202 C 
BRANCH   3   4
ATOM      4  C   UNL     1       6.075  -1.731  -4.533  1.00  0.00     0.261 C 
BRANCH   4   5
ATOM      5  O   UNL     1       5.178  -1.720  -3.414  1.00  0.00    -0.462 OA
BRANCH   5   6
ATOM      6  C   UNL     1       5.740  -1.857  -2.188  1.00  0.00     0.328 C 
ATOM      7  O   UNL     1       6.918  -2.133  -1.978  1.00  0.00    -0.250 OA
BRANCH   6   8
ATOM      8  C   UNL     1       4.756  -1.603  -1.032  1.00  0.00     0.196 C 
BRANCH   8   9
ATOM      9  N   UNL     1       4.875  -2.809  -0.199  1.00  0.00    -0.308 N 
ATOM     10  O   UNL     1       4.266  -4.669   0.926  1.00  0.00    -0.225 OA
ATOM     11  C   UNL     1       3.954  -3.686   0.284  1.00  0.00     0.408 C 
ATOM     12  H   UNL     1       5.801  -3.023   0.060  1.00  0.00     0.168 HD
BRANCH  11  13
ATOM     13  O   UNL     1       2.697  -3.304   0.026  1.00  0.00    -0.445 OA
BRANCH  13  14
ATOM     14  C   UNL     1       1.823  -3.011   1.127  1.00  0.00     0.270 C 
BRANCH  14  15
ATOM     15  C   UNL     1       2.206  -1.800   1.969  1.00  0.00    -0.011 A 
ATOM     16  C   UNL     1       3.490  -1.601   2.500  1.00  0.00     0.007 A 
ATOM     17  C   UNL     1       1.235  -0.818   2.233  1.00  0.00     0.007 A 
ATOM     18  C   UNL     1       3.824  -0.410   3.158  1.00  0.00     0.000 A 
ATOM     19  C   UNL     1       1.562   0.363   2.909  1.00  0.00     0.000 A 
ATOM     20  C   UNL     1       2.864   0.578   3.349  1.00  0.00     0.000 A 
ENDBRANCH  14  15
ENDBRANCH  13  14
ENDBRANCH  11  13
ENDBRANCH   8   9
BRANCH   8  21
ATOM     21  C   UNL     1       3.372  -1.051  -1.435  1.00  0.00     0.048 C 
BRANCH  21  22
ATOM     22  C   UNL     1       3.018   0.226  -0.688  1.00  0.00     0.083 C 
ATOM     23  Br  UNL     1       1.126   0.624  -0.979  1.00  0.00    -0.093 Br
ENDBRANCH  21  22
ENDBRANCH   8  21
ENDBRANCH   6   8
ENDBRANCH   5   6
ENDBRANCH   4   5
ENDBRANCH   3   4
ENDBRANCH   2   3
ENDBRANCH   1   2
BRANCH   1  24
ATOM     24  C   UNL     1       4.112   1.490  -4.157  1.00  0.00     0.188 C 
BRANCH  24  25
ATOM     25  O   UNL     1       3.463   0.400  -4.782  1.00  0.00    -0.376 OA
BRANCH  25  26
ATOM     26  C   UNL     1       2.223   0.677  -5.438  1.00  0.00     0.202 C 
BRANCH  26  27
ATOM     27  C   UNL     1       1.828   2.104  -5.915  1.00  0.00     0.261 C 
BRANCH  27  28
ATOM     28  O   UNL     1       2.329   3.231  -5.160  1.00  0.00    -0.460 OA
BRANCH  28  29
ATOM     29  C   UNL     1       1.684   3.531  -4.011  1.00  0.00     0.338 C 
ATOM     30  O   UNL     1       0.644   3.028  -3.625  1.00  0.00    -0.246 OA
BRANCH  29  31
ATOM     31  C   UNL     1       2.541   4.389  -3.142  1.00  0.00     0.060 A 
ATOM     32  C   UNL     1       2.824   3.901  -1.861  1.00  0.00     0.016 A 
ATOM     33  C   UNL     1       2.988   5.661  -3.491  1.00  0.00     0.016 A 
ATOM     34  C   UNL     1       3.466   4.675  -0.899  1.00  0.00     0.010 A 
ATOM     35  C   UNL     1       3.615   6.463  -2.513  1.00  0.00     0.010 A 
ATOM     36  C   UNL     1       3.803   5.995  -1.192  1.00  0.00    -0.014 A 
BRANCH  36  37
ATOM     37  C   UNL     1       4.066   6.925  -0.053  1.00  0.00     0.031 A 
ATOM     38  C   UNL     1       2.989   7.915   0.319  1.00  0.00     0.074 A 
ATOM     39  C   UNL     1       5.157   6.827   0.732  1.00  0.00     0.049 A 
ATOM     40  N   UNL     1       3.010   8.894   1.190  1.00  0.00    -0.248 NA
ATOM     41  C   UNL     1       1.708   7.777  -0.392  1.00  0.00     0.031 C 
ATOM     42  C   UNL     1       6.222   5.838   0.591  1.00  0.00     0.029 A 
ATOM     43  N   UNL     1       5.541   7.578   1.821  1.00  0.00    -0.354 N 
ATOM     44  C   UNL     1       1.770   9.514   1.092  1.00  0.00     0.074 A 
ATOM     45  C   UNL     1       1.025   8.812   0.070  1.00  0.00     0.031 C 
ATOM     46  C   UNL     1       7.142   6.046   1.549  1.00  0.00     0.029 A 
ATOM     47  C   UNL     1       6.763   7.219   2.336  1.00  0.00     0.049 A 
ATOM     48  H   UNL     1       4.991   8.304   2.195  1.00  0.00     0.167 HD
ATOM     49  C   UNL     1       1.290  10.570   1.791  1.00  0.00     0.037 A 
ATOM     50  C   UNL     1       7.509   7.794   3.303  1.00  0.00     0.037 A 
ATOM     51  C   UNL     1       2.008  11.244   2.841  1.00  0.00     0.049 A 
ATOM     52  C   UNL     1       6.995   9.027   4.006  1.00  0.00     0.074 A 
ATOM     53  C   UNL     1       1.608  12.329   3.603  1.00  0.00     0.029 A 
ATOM     54  N   UNL     1       3.272  10.890   3.287  1.00  0.00    -0.354 N 
ATOM     55  N   UNL     1       5.849   9.649   3.865  1.00  0.00    -0.248 NA
ATOM     56  C   UNL     1       7.886   9.642   5.001  1.00  0.00     0.031 C 
ATOM     57  C   UNL     1       2.653  12.666   4.469  1.00  0.00     0.029 A 
ATOM     58  C   UNL     1       3.677  11.749   4.296  1.00  0.00     0.049 A 
ATOM     59  H   UNL     1       3.804  10.138   2.937  1.00  0.00     0.167 HD
ATOM     60  C   UNL     1       5.872  10.706   4.770  1.00  0.00     0.074 A 
ATOM     61  C   UNL     1       7.134  10.626   5.472  1.00  0.00     0.031 C 
ATOM     62  C   UNL     1       4.933  11.659   4.997  1.00  0.00     0.037 A 
BRANCH  49  63
ATOM     63  C   UNL     1      -0.063  11.099   1.404  1.00  0.00     0.064 A 
ATOM     64  C   UNL     1      -1.246  10.388   1.652  1.00  0.00     0.173 A 
ATOM     65  C   UNL     1      -0.172  12.354   0.783  1.00  0.00     0.173 A 
ATOM     66  F   UNL     1      -1.198   9.176   2.225  1.00  0.00    -0.203 F 
ATOM     67  C   UNL     1      -2.483  10.896   1.261  1.00  0.00     0.198 A 
ATOM     68  C   UNL     1      -1.413  12.876   0.428  1.00  0.00     0.198 A 
ATOM     69  F   UNL     1       0.927  13.079   0.525  1.00  0.00    -0.203 F 
ATOM     70  F   UNL     1      -3.594  10.171   1.453  1.00  0.00    -0.200 F 
ATOM     71  C   UNL     1      -2.566  12.142   0.657  1.00  0.00     0.200 A 
ATOM     72  F   UNL     1      -1.491  14.086  -0.142  1.00  0.00    -0.200 F 
ATOM     73  F   UNL     1      -3.758  12.632   0.288  1.00  0.00    -0.200 F 
ENDBRANCH  49  63
BRANCH  50  74
ATOM     74  C   UNL     1       8.855   7.249   3.640  1.00  0.00     0.064 A 
ATOM     75  C   UNL     1       9.128   6.716   4.908  1.00  0.00     0.173 A 
ATOM     76  C   UNL     1       9.911   7.301   2.718  1.00  0.00     0.173 A 
ATOM     77  F   UNL     1       8.164   6.676   5.840  1.00  0.00    -0.203 F 
ATOM     78  C   UNL     1      10.408   6.278   5.247  1.00  0.00     0.198 A 
ATOM     79  C   UNL     1      11.181   6.829   3.045  1.00  0.00     0.198 A 
ATOM     80  F   UNL     1       9.711   7.812   1.494  1.00  0.00    -0.203 F 
ATOM     81  F   UNL     1      10.655   5.832   6.486  1.00  0.00    -0.200 F 
ATOM     82  C   UNL     1      11.431   6.328   4.313  1.00  0.00     0.200 A 
ATOM     83  F   UNL     1      12.164   6.870   2.135  1.00  0.00    -0.200 F 
ATOM     84  F   UNL     1      12.661   5.906   4.638  1.00  0.00    -0.200 F 
ENDBRANCH  50  74
BRANCH  62  85
ATOM     85  C   UNL     1       5.214  12.664   6.080  1.00  0.00     0.064 A 
ATOM     86  C   UNL     1       6.222  13.633   5.952  1.00  0.00     0.173 A 
ATOM     87  C   UNL     1       4.455  12.666   7.261  1.00  0.00     0.173 A 
ATOM     88  F   UNL     1       6.985  13.671   4.849  1.00  0.00    -0.203 F 
ATOM     89  C   UNL     1       6.487  14.534   6.981  1.00  0.00     0.198 A 
ATOM     90  C   UNL     1       4.697  13.593   8.272  1.00  0.00     0.198 A 
ATOM     91  F   UNL     1       3.470  11.771   7.435  1.00  0.00    -0.203 F 
ATOM     92  F   UNL     1       7.500  15.403   6.863  1.00  0.00    -0.200 F 
ATOM     93  C   UNL     1       5.722  14.517   8.137  1.00  0.00     0.200 A 
ATOM     94  F   UNL     1       3.944  13.586   9.381  1.00  0.00    -0.200 F 
ATOM     95  F   UNL     1       5.979  15.383   9.127  1.00  0.00    -0.200 F 
ENDBRANCH  62  85
ENDBRANCH  36  37
ENDBRANCH  29  31
ENDBRANCH  28  29
ENDBRANCH  27  28
ENDBRANCH  26  27
ENDBRANCH  25  26
ENDBRANCH  24  25
ENDBRANCH   1  24
TORSDOF 23
