REMARK SMILES O=C(OCCOCCOCCOC(=O)[C@@H]1CCCN1S(=O)(=O)c1ccc2c3c(cccc13)C(=O)N2)c1ccc(-c2c3nc(c(-c4c(F)c(F)c(F)c(F)c4F)c4ccc([nH]4)c(-c4c(F)c(F)c(F)c(F)c4F)c4nc(c(-c5c(F)c(F)c(F)c(F)c5F)c5ccc2[nH]5)C=C4)C=C3)cc1
REMARK SMILES IDX 7 1 6 2 5 3 4 4 3 5 2 6 1 7 36 8 37 9 98 10 38 11 97 12
REMARK SMILES IDX 39 13 40 14 41 15 91 16 42 17 96 18 90 19 92 20 43 21 95 22
REMARK SMILES IDX 89 23 88 24 44 26 76 27 56 28 75 29 57 30 60 31 74 32 93 33
REMARK SMILES IDX 58 34 59 35 73 37 94 38 61 39 45 40 46 41 54 42 47 43 48 44
REMARK SMILES IDX 52 45 55 46 49 47 50 48 53 49 51 50 77 51 78 52 86 53 79 54
REMARK SMILES IDX 80 55 84 56 87 57 81 58 82 59 85 60 83 61 62 62 63 63 71 64
REMARK SMILES IDX 64 65 65 66 69 67 72 68 66 69 67 70 70 71 68 72 8 73 9 74
REMARK SMILES IDX 10 75 11 76 12 77 13 78 14 79 15 80 16 81 19 82 17 83 18 84
REMARK SMILES IDX 20 85 21 86 22 87 23 88 24 89 32 90 25 91 27 92 31 93 26 94
REMARK SMILES IDX 28 95 30 96 35 97 29 98 33 99 34 101
REMARK H PARENT 92 25 60 36 35 100
REMARK Flexibility Score: inf
ROOT
ATOM      1  C   UNL     1       1.531   1.740  -1.088  1.00  0.00     0.188 C 
ENDROOT
BRANCH   1   2
ATOM      2  O   UNL     1       2.732   1.030  -0.816  1.00  0.00    -0.376 OA
BRANCH   2   3
ATOM      3  C   UNL     1       2.830  -0.241  -1.455  1.00  0.00     0.202 C 
BRANCH   3   4
ATOM      4  C   UNL     1       3.051  -1.357  -0.425  1.00  0.00     0.261 C 
BRANCH   4   5
ATOM      5  O   UNL     1       1.821  -1.607   0.290  1.00  0.00    -0.460 OA
BRANCH   5   6
ATOM      6  C   UNL     1       1.324  -0.992   1.385  1.00  0.00     0.338 C 
ATOM      7  O   UNL     1       0.115  -1.062   1.606  1.00  0.00    -0.246 OA
BRANCH   6   8
ATOM      8  C   UNL     1       2.165  -0.332   2.427  1.00  0.00     0.060 A 
ATOM      9  C   UNL     1       3.269   0.469   2.166  1.00  0.00     0.016 A 
ATOM     10  C   UNL     1       1.728  -0.434   3.765  1.00  0.00     0.016 A 
ATOM     11  C   UNL     1       3.918   1.143   3.199  1.00  0.00     0.010 A 
ATOM     12  C   UNL     1       2.376   0.249   4.807  1.00  0.00     0.010 A 
ATOM     13  C   UNL     1       3.479   1.050   4.522  1.00  0.00    -0.014 A 
BRANCH  13  14
ATOM     14  C   UNL     1       4.312   1.707   5.556  1.00  0.00     0.031 A 
ATOM     15  C   UNL     1       5.538   0.985   6.019  1.00  0.00     0.074 A 
ATOM     16  C   UNL     1       4.085   2.982   5.926  1.00  0.00     0.049 A 
ATOM     17  N   UNL     1       6.448   1.368   6.873  1.00  0.00    -0.248 NA
ATOM     18  C   UNL     1       5.763  -0.358   5.455  1.00  0.00     0.031 C 
ATOM     19  C   UNL     1       2.957   3.791   5.481  1.00  0.00     0.029 A 
ATOM     20  N   UNL     1       4.837   3.853   6.680  1.00  0.00    -0.354 N 
ATOM     21  C   UNL     1       7.309   0.290   7.003  1.00  0.00     0.074 A 
ATOM     22  C   UNL     1       6.859  -0.737   6.092  1.00  0.00     0.031 C 
ATOM     23  C   UNL     1       3.168   5.070   5.836  1.00  0.00     0.029 A 
ATOM     24  C   UNL     1       4.392   5.157   6.629  1.00  0.00     0.049 A 
ATOM     25  H   UNL     1       5.619   3.571   7.207  1.00  0.00     0.167 HD
ATOM     26  C   UNL     1       8.342   0.159   7.864  1.00  0.00     0.037 A 
ATOM     27  C   UNL     1       4.920   6.278   7.167  1.00  0.00     0.037 A 
ATOM     28  C   UNL     1       8.756   1.195   8.769  1.00  0.00     0.049 A 
ATOM     29  C   UNL     1       6.087   6.110   8.114  1.00  0.00     0.074 A 
ATOM     30  C   UNL     1       9.705   1.139   9.771  1.00  0.00     0.029 A 
ATOM     31  N   UNL     1       8.241   2.484   8.771  1.00  0.00    -0.354 N 
ATOM     32  N   UNL     1       6.822   5.048   8.344  1.00  0.00    -0.248 NA
ATOM     33  C   UNL     1       6.435   7.269   8.951  1.00  0.00     0.031 C 
ATOM     34  C   UNL     1       9.729   2.379  10.414  1.00  0.00     0.029 A 
ATOM     35  C   UNL     1       8.839   3.228   9.773  1.00  0.00     0.049 A 
ATOM     36  H   UNL     1       7.553   2.819   8.152  1.00  0.00     0.167 HD
ATOM     37  C   UNL     1       7.680   5.393   9.379  1.00  0.00     0.074 A 
ATOM     38  C   UNL     1       7.430   6.786   9.683  1.00  0.00     0.031 C 
ATOM     39  C   UNL     1       8.560   4.613  10.054  1.00  0.00     0.037 A 
BRANCH  26  40
ATOM     40  C   UNL     1       8.988  -1.188   7.957  1.00  0.00     0.064 A 
ATOM     41  C   UNL     1       9.834  -1.687   6.959  1.00  0.00     0.173 A 
ATOM     42  C   UNL     1       8.738  -1.999   9.076  1.00  0.00     0.173 A 
ATOM     43  F   UNL     1      10.069  -0.968   5.851  1.00  0.00    -0.203 F 
ATOM     44  C   UNL     1      10.398  -2.955   7.072  1.00  0.00     0.198 A 
ATOM     45  C   UNL     1       9.326  -3.252   9.200  1.00  0.00     0.198 A 
ATOM     46  F   UNL     1       7.920  -1.573  10.051  1.00  0.00    -0.203 F 
ATOM     47  F   UNL     1      11.164  -3.437   6.082  1.00  0.00    -0.200 F 
ATOM     48  C   UNL     1      10.152  -3.732   8.195  1.00  0.00     0.200 A 
ATOM     49  F   UNL     1       9.087  -3.999  10.287  1.00  0.00    -0.200 F 
ATOM     50  F   UNL     1      10.699  -4.951   8.303  1.00  0.00    -0.200 F 
ENDBRANCH  26  40
BRANCH  27  51
ATOM     51  C   UNL     1       4.346   7.635   6.903  1.00  0.00     0.064 A 
ATOM     52  C   UNL     1       5.144   8.665   6.373  1.00  0.00     0.173 A 
ATOM     53  C   UNL     1       3.013   7.957   7.199  1.00  0.00     0.173 A 
ATOM     54  F   UNL     1       6.439   8.440   6.106  1.00  0.00    -0.203 F 
ATOM     55  C   UNL     1       4.633   9.946   6.152  1.00  0.00     0.198 A 
ATOM     56  C   UNL     1       2.489   9.222   6.931  1.00  0.00     0.198 A 
ATOM     57  F   UNL     1       2.204   7.040   7.748  1.00  0.00    -0.203 F 
ATOM     58  F   UNL     1       5.435  10.919   5.699  1.00  0.00    -0.200 F 
ATOM     59  C   UNL     1       3.301  10.219   6.416  1.00  0.00     0.200 A 
ATOM     60  F   UNL     1       1.196   9.473   7.177  1.00  0.00    -0.200 F 
ATOM     61  F   UNL     1       2.803  11.442   6.188  1.00  0.00    -0.200 F 
ENDBRANCH  27  51
BRANCH  39  62
ATOM     62  C   UNL     1       9.286   5.226  11.216  1.00  0.00     0.064 A 
ATOM     63  C   UNL     1       8.626   5.476  12.428  1.00  0.00     0.173 A 
ATOM     64  C   UNL     1      10.671   5.442  11.161  1.00  0.00     0.173 A 
ATOM     65  F   UNL     1       7.300   5.291  12.526  1.00  0.00    -0.203 F 
ATOM     66  C   UNL     1       9.327   5.922  13.544  1.00  0.00     0.198 A 
ATOM     67  C   UNL     1      11.372   5.860  12.287  1.00  0.00     0.198 A 
ATOM     68  F   UNL     1      11.348   5.205  10.027  1.00  0.00    -0.203 F 
ATOM     69  F   UNL     1       8.674   6.171  14.687  1.00  0.00    -0.200 F 
ATOM     70  C   UNL     1      10.701   6.100  13.477  1.00  0.00     0.200 A 
ATOM     71  F   UNL     1      12.703   6.011  12.227  1.00  0.00    -0.200 F 
ATOM     72  F   UNL     1      11.379   6.499  14.562  1.00  0.00    -0.200 F 
ENDBRANCH  39  62
ENDBRANCH  13  14
ENDBRANCH   6   8
ENDBRANCH   5   6
ENDBRANCH   4   5
ENDBRANCH   3   4
ENDBRANCH   2   3
ENDBRANCH   1   2
BRANCH   1  73
ATOM     73  C   UNL     1       1.641   2.805  -2.197  1.00  0.00     0.188 C 
BRANCH  73  74
ATOM     74  O   UNL     1       2.967   3.013  -2.692  1.00  0.00    -0.376 OA
BRANCH  74  75
ATOM     75  C   UNL     1       3.045   4.070  -3.662  1.00  0.00     0.202 C 
BRANCH  75  76
ATOM     76  C   UNL     1       4.154   5.097  -3.331  1.00  0.00     0.261 C 
BRANCH  76  77
ATOM     77  O   UNL     1       4.386   5.281  -1.919  1.00  0.00    -0.462 OA
BRANCH  77  78
ATOM     78  C   UNL     1       3.308   5.549  -1.176  1.00  0.00     0.324 C 
ATOM     79  O   UNL     1       2.300   6.081  -1.640  1.00  0.00    -0.250 OA
BRANCH  78  80
ATOM     80  C   UNL     1       3.394   5.121   0.255  1.00  0.00     0.183 C 
ATOM     81  C   UNL     1       3.367   6.412   1.081  1.00  0.00     0.034 C 
ATOM     82  N   UNL     1       4.238   4.188   1.079  1.00  0.00    -0.184 NA
ATOM     83  C   UNL     1       3.217   5.914   2.492  1.00  0.00     0.019 C 
ATOM     84  C   UNL     1       3.931   4.568   2.502  1.00  0.00     0.103 C 
BRANCH  82  85
ATOM     85  S   UNL     1       5.888   3.811   0.803  1.00  0.00     0.244 S 
ATOM     86  O   UNL     1       6.470   4.926   0.087  1.00  0.00    -0.207 OA
ATOM     87  O   UNL     1       6.447   3.407   2.078  1.00  0.00    -0.207 OA
BRANCH  85  88
ATOM     88  C   UNL     1       6.004   2.345  -0.246  1.00  0.00     0.090 A 
ATOM     89  C   UNL     1       5.700   2.563  -1.597  1.00  0.00     0.024 A 
ATOM     90  C   UNL     1       6.520   1.056   0.143  1.00  0.00     0.005 A 
ATOM     91  C   UNL     1       5.793   1.604  -2.610  1.00  0.00     0.028 A 
ATOM     92  C   UNL     1       6.584   0.141  -0.883  1.00  0.00     0.019 A 
ATOM     93  C   UNL     1       6.986   0.518   1.377  1.00  0.00     0.010 A 
ATOM     94  C   UNL     1       6.247   0.383  -2.196  1.00  0.00     0.050 A 
ATOM     95  C   UNL     1       6.957  -1.195  -0.803  1.00  0.00     0.050 A 
ATOM     96  C   UNL     1       7.388  -0.837   1.500  1.00  0.00     0.002 A 
ATOM     97  N   UNL     1       6.396  -0.785  -2.911  1.00  0.00    -0.321 N 
ATOM     98  C   UNL     1       7.363  -1.725   0.414  1.00  0.00     0.014 A 
ATOM     99  C   UNL     1       6.825  -1.837  -2.101  1.00  0.00     0.256 C 
ATOM    100  H   UNL     1       6.220  -0.867  -3.876  1.00  0.00     0.170 HD
ATOM    101  O   UNL     1       6.981  -2.985  -2.482  1.00  0.00    -0.269 OA
ENDBRANCH  85  88
ENDBRANCH  82  85
ENDBRANCH  78  80
ENDBRANCH  77  78
ENDBRANCH  76  77
ENDBRANCH  75  76
ENDBRANCH  74  75
ENDBRANCH  73  74
ENDBRANCH   1  73
TORSDOF 19
