REMARK SMILES C[C@]1(C(=O)NCc2ccc(C(=O)OCCOCCOCCOC(=O)c3ccc(-c4c5nc(c(-c6c(F)c(F)c(F)c(F)c6F)c6ccc([nH]6)c(-c6c(F)c(F)c(F)c(F)c6F)c6nc(c(-c7c(F)c(F)c(F)c(F)c7F)c7ccc4[nH]7)C=C6)C=C5)cc3)o2)CCC[NH2+]C1
REMARK SMILES IDX 17 1 16 2 15 3 14 4 13 5 11 6 12 7 10 8 7 9 8 10 88 11 9 12
REMARK SMILES IDX 6 13 5 14 3 15 4 16 2 18 1 19 89 20 93 21 90 22 92 23 91 24
REMARK SMILES IDX 18 27 19 28 20 29 21 30 22 31 23 32 24 33 25 34 26 35 87 36
REMARK SMILES IDX 27 37 86 38 28 39 29 40 30 41 80 42 31 43 85 44 79 45 81 46
REMARK SMILES IDX 32 47 84 48 78 49 77 50 33 52 65 53 45 54 64 55 46 56 49 57
REMARK SMILES IDX 63 58 82 59 47 60 48 61 62 63 83 64 50 65 34 66 35 67 43 68
REMARK SMILES IDX 36 69 37 70 41 71 44 72 38 73 39 74 42 75 40 76 66 77 67 78
REMARK SMILES IDX 75 79 68 80 69 81 73 82 76 83 70 84 71 85 74 86 72 87 51 88
REMARK SMILES IDX 52 89 60 90 53 91 54 92 58 93 61 94 55 95 56 96 59 97 57 98
REMARK H PARENT 5 17 92 25 92 26 81 51 49 62
REMARK Flexibility Score: inf
ROOT
ATOM      1  C   UNL     1       9.005  -1.048   2.058  1.00  0.00     0.188 C 
ENDROOT
BRANCH   1   2
ATOM      2  O   UNL     1       9.803  -1.689   3.048  1.00  0.00    -0.376 OA
BRANCH   2   3
ATOM      3  C   UNL     1       9.710  -3.098   3.219  1.00  0.00     0.202 C 
BRANCH   3   4
ATOM      4  C   UNL     1       8.388  -3.623   3.779  1.00  0.00     0.261 C 
BRANCH   4   5
ATOM      5  O   UNL     1       7.314  -3.468   2.837  1.00  0.00    -0.457 OA
BRANCH   5   6
ATOM      6  C   UNL     1       6.267  -2.691   3.243  1.00  0.00     0.374 C 
ATOM      7  O   UNL     1       6.122  -2.246   4.374  1.00  0.00    -0.242 OA
BRANCH   6   8
ATOM      8  C   UNL     1       5.446  -2.361   2.102  1.00  0.00     0.211 A 
ATOM      9  C   UNL     1       4.201  -0.989   0.899  1.00  0.00     0.124 A 
ATOM     10  C   UNL     1       4.389  -2.121   0.132  1.00  0.00     0.048 A 
ATOM     11  O   UNL     1       4.819  -1.143   2.103  1.00  0.00    -0.452 OA
ATOM     12  C   UNL     1       5.195  -2.998   0.899  1.00  0.00     0.058 A 
BRANCH   9  13
ATOM     13  C   UNL     1       3.527   0.318   0.676  1.00  0.00     0.191 C 
BRANCH  13  14
ATOM     14  N   UNL     1       2.394   0.125  -0.197  1.00  0.00    -0.348 N 
ATOM     15  C   UNL     1       1.065  -0.021   0.047  1.00  0.00     0.232 C 
ATOM     16  O   UNL     1       0.418  -0.474  -0.902  1.00  0.00    -0.274 OA
ATOM     17  H   UNL     1       2.629   0.092  -1.153  1.00  0.00     0.163 HD
BRANCH  15  18
ATOM     18  C   UNL     1       0.415   0.341   1.405  1.00  0.00     0.095 C 
ATOM     19  C   UNL     1       1.001  -0.560   2.513  1.00  0.00     0.028 C 
ATOM     20  C   UNL     1       0.612   1.833   1.758  1.00  0.00     0.028 C 
ATOM     21  C   UNL     1      -1.115   0.049   1.340  1.00  0.00     0.277 C 
ATOM     22  C   UNL     1      -0.232   2.755   0.877  1.00  0.00     0.063 C 
ATOM     23  N   UNL     1      -1.889   0.985   0.518  1.00  0.00    -0.345 N 
ATOM     24  C   UNL     1      -1.705   2.369   0.925  1.00  0.00     0.260 C 
ATOM     25  H   UNL     1      -1.593   0.888  -0.454  1.00  0.00     0.346 HD
ATOM     26  H   UNL     1      -2.876   0.756   0.634  1.00  0.00     0.346 HD
ENDBRANCH  15  18
ENDBRANCH  13  14
ENDBRANCH   9  13
ENDBRANCH   6   8
ENDBRANCH   5   6
ENDBRANCH   4   5
ENDBRANCH   3   4
ENDBRANCH   2   3
ENDBRANCH   1   2
BRANCH   1  27
ATOM     27  C   UNL     1       8.850  -1.702   0.673  1.00  0.00     0.188 C 
BRANCH  27  28
ATOM     28  O   UNL     1       9.902  -2.595   0.337  1.00  0.00    -0.376 OA
BRANCH  28  29
ATOM     29  C   UNL     1      10.683  -2.232  -0.793  1.00  0.00     0.202 C 
BRANCH  29  30
ATOM     30  C   UNL     1      11.812  -1.270  -0.419  1.00  0.00     0.261 C 
BRANCH  30  31
ATOM     31  O   UNL     1      11.364   0.002   0.075  1.00  0.00    -0.460 OA
BRANCH  31  32
ATOM     32  C   UNL     1      10.688   0.784  -0.793  1.00  0.00     0.338 C 
ATOM     33  O   UNL     1      10.404   0.536  -1.951  1.00  0.00    -0.246 OA
BRANCH  32  34
ATOM     34  C   UNL     1      10.212   1.972  -0.061  1.00  0.00     0.060 A 
ATOM     35  C   UNL     1       8.858   2.317  -0.138  1.00  0.00     0.016 A 
ATOM     36  C   UNL     1      11.107   2.752   0.675  1.00  0.00     0.016 A 
ATOM     37  C   UNL     1       8.400   3.470   0.501  1.00  0.00     0.010 A 
ATOM     38  C   UNL     1      10.651   3.913   1.300  1.00  0.00     0.010 A 
ATOM     39  C   UNL     1       9.303   4.292   1.191  1.00  0.00    -0.014 A 
BRANCH  39  40
ATOM     40  C   UNL     1       8.894   5.640   1.647  1.00  0.00     0.031 A 
ATOM     41  C   UNL     1       9.125   6.805   0.727  1.00  0.00     0.074 A 
ATOM     42  C   UNL     1       8.359   5.834   2.864  1.00  0.00     0.049 A 
ATOM     43  N   UNL     1       8.937   8.083   0.937  1.00  0.00    -0.248 NA
ATOM     44  C   UNL     1       9.646   6.484  -0.612  1.00  0.00     0.031 C 
ATOM     45  C   UNL     1       8.063   4.784   3.836  1.00  0.00     0.029 A 
ATOM     46  N   UNL     1       7.989   6.995   3.495  1.00  0.00    -0.354 N 
ATOM     47  C   UNL     1       9.316   8.716  -0.238  1.00  0.00     0.074 A 
ATOM     48  C   UNL     1       9.764   7.688  -1.152  1.00  0.00     0.031 C 
ATOM     49  C   UNL     1       7.574   5.353   4.953  1.00  0.00     0.029 A 
ATOM     50  C   UNL     1       7.551   6.805   4.782  1.00  0.00     0.049 A 
ATOM     51  H   UNL     1       8.034   7.880   3.066  1.00  0.00     0.167 HD
ATOM     52  C   UNL     1       9.291  10.037  -0.531  1.00  0.00     0.037 A 
ATOM     53  C   UNL     1       7.198   7.707   5.719  1.00  0.00     0.037 A 
ATOM     54  C   UNL     1       8.863  11.063   0.379  1.00  0.00     0.049 A 
ATOM     55  C   UNL     1       7.243   9.177   5.391  1.00  0.00     0.074 A 
ATOM     56  C   UNL     1       8.797  12.429   0.172  1.00  0.00     0.029 A 
ATOM     57  N   UNL     1       8.434  10.832   1.677  1.00  0.00    -0.354 N 
ATOM     58  N   UNL     1       7.578   9.767   4.270  1.00  0.00    -0.248 NA
ATOM     59  C   UNL     1       6.863  10.108   6.465  1.00  0.00     0.031 C 
ATOM     60  C   UNL     1       8.363  13.029   1.359  1.00  0.00     0.029 A 
ATOM     61  C   UNL     1       8.120  12.033   2.291  1.00  0.00     0.049 A 
ATOM     62  H   UNL     1       8.364   9.945   2.100  1.00  0.00     0.167 HD
ATOM     63  C   UNL     1       7.423  11.130   4.492  1.00  0.00     0.074 A 
ATOM     64  C   UNL     1       6.959  11.281   5.855  1.00  0.00     0.031 C 
ATOM     65  C   UNL     1       7.644  12.163   3.643  1.00  0.00     0.037 A 
BRANCH  52  66
ATOM     66  C   UNL     1       9.768  10.444  -1.891  1.00  0.00     0.064 A 
ATOM     67  C   UNL     1       8.987  10.224  -3.035  1.00  0.00     0.173 A 
ATOM     68  C   UNL     1      11.010  11.074  -2.050  1.00  0.00     0.173 A 
ATOM     69  F   UNL     1       7.800   9.607  -2.934  1.00  0.00    -0.203 F 
ATOM     70  C   UNL     1       9.444  10.603  -4.295  1.00  0.00     0.198 A 
ATOM     71  C   UNL     1      11.454  11.471  -3.308  1.00  0.00     0.198 A 
ATOM     72  F   UNL     1      11.793  11.303  -0.985  1.00  0.00    -0.203 F 
ATOM     73  F   UNL     1       8.701  10.346  -5.380  1.00  0.00    -0.200 F 
ATOM     74  C   UNL     1      10.674  11.230  -4.429  1.00  0.00     0.200 A 
ATOM     75  F   UNL     1      12.640  12.081  -3.436  1.00  0.00    -0.200 F 
ATOM     76  F   UNL     1      11.112  11.595  -5.642  1.00  0.00    -0.200 F 
ENDBRANCH  52  66
BRANCH  53  77
ATOM     77  C   UNL     1       6.783   7.250   7.069  1.00  0.00     0.064 A 
ATOM     78  C   UNL     1       5.450   7.358   7.489  1.00  0.00     0.173 A 
ATOM     79  C   UNL     1       7.714   6.724   7.977  1.00  0.00     0.173 A 
ATOM     80  F   UNL     1       4.531   7.884   6.665  1.00  0.00    -0.203 F 
ATOM     81  C   UNL     1       5.066   6.971   8.771  1.00  0.00     0.198 A 
ATOM     82  C   UNL     1       7.324   6.316   9.251  1.00  0.00     0.198 A 
ATOM     83  F   UNL     1       9.003   6.608   7.625  1.00  0.00    -0.203 F 
ATOM     84  F   UNL     1       3.794   7.127   9.162  1.00  0.00    -0.200 F 
ATOM     85  C   UNL     1       6.003   6.446   9.649  1.00  0.00     0.200 A 
ATOM     86  F   UNL     1       8.231   5.806  10.095  1.00  0.00    -0.200 F 
ATOM     87  F   UNL     1       5.633   6.078  10.883  1.00  0.00    -0.200 F 
ENDBRANCH  53  77
BRANCH  65  88
ATOM     88  C   UNL     1       7.349  13.545   4.143  1.00  0.00     0.064 A 
ATOM     89  C   UNL     1       8.205  14.201   5.039  1.00  0.00     0.173 A 
ATOM     90  C   UNL     1       6.226  14.243   3.673  1.00  0.00     0.173 A 
ATOM     91  F   UNL     1       9.284  13.569   5.525  1.00  0.00    -0.203 F 
ATOM     92  C   UNL     1       7.938  15.501   5.458  1.00  0.00     0.198 A 
ATOM     93  C   UNL     1       5.975  15.550   4.077  1.00  0.00     0.198 A 
ATOM     94  F   UNL     1       5.380  13.660   2.810  1.00  0.00    -0.203 F 
ATOM     95  F   UNL     1       8.752  16.099   6.340  1.00  0.00    -0.200 F 
ATOM     96  C   UNL     1       6.829  16.177   4.972  1.00  0.00     0.200 A 
ATOM     97  F   UNL     1       4.908  16.206   3.599  1.00  0.00    -0.200 F 
ATOM     98  F   UNL     1       6.579  17.432   5.371  1.00  0.00    -0.200 F 
ENDBRANCH  65  88
ENDBRANCH  39  40
ENDBRANCH  32  34
ENDBRANCH  31  32
ENDBRANCH  30  31
ENDBRANCH  29  30
ENDBRANCH  28  29
ENDBRANCH  27  28
ENDBRANCH   1  27
TORSDOF 20
