REMARK SMILES O=C(COC[C@@H]1COc2ccccc2O1)OCCOCCOCCOC(=O)c1ccc(-c2c3nc(c(-c4c(F)c(F)c(F)c(F)c4F)c4ccc([nH]4)c(-c4c(F)c(F)c(F)c(F)c4F)c4nc(c(-c5c(F)c(F)c(F)c(F)c5F)c5ccc2[nH]5)C=C4)C=C3)cc1
REMARK SMILES IDX 20 1 19 2 18 3 17 4 16 5 2 6 1 7 3 8 4 9 5 10 6 11 7 12
REMARK SMILES IDX 15 13 8 14 14 15 9 16 13 17 10 18 12 19 11 20 21 21 22 22
REMARK SMILES IDX 23 23 24 24 25 25 26 26 27 27 28 28 29 29 90 30 30 31 89 32
REMARK SMILES IDX 31 33 32 34 33 35 83 36 34 37 88 38 82 39 84 40 35 41 87 42
REMARK SMILES IDX 81 43 80 44 36 46 68 47 48 48 67 49 49 50 52 51 66 52 85 53
REMARK SMILES IDX 50 54 51 55 65 57 86 58 53 59 37 60 38 61 46 62 39 63 40 64
REMARK SMILES IDX 44 65 47 66 41 67 42 68 45 69 43 70 69 71 70 72 78 73 71 74
REMARK SMILES IDX 72 75 76 76 79 77 73 78 74 79 77 80 75 81 54 82 55 83 63 84
REMARK SMILES IDX 56 85 57 86 61 87 64 88 58 89 59 90 62 91 60 92
REMARK H PARENT 84 45 52 56
REMARK Flexibility Score: inf
ROOT
ATOM      1  C   UNL     1       3.134  -1.211   1.363  1.00  0.00     0.188 C 
ENDROOT
BRANCH   1   2
ATOM      2  O   UNL     1       4.499  -1.519   1.163  1.00  0.00    -0.376 OA
BRANCH   2   3
ATOM      3  C   UNL     1       5.524  -0.542   1.050  1.00  0.00     0.202 C 
BRANCH   3   4
ATOM      4  C   UNL     1       5.342   0.873   0.487  1.00  0.00     0.261 C 
BRANCH   4   5
ATOM      5  O   UNL     1       4.013   1.348   0.336  1.00  0.00    -0.462 OA
BRANCH   5   6
ATOM      6  C   UNL     1       3.383   1.308  -0.868  1.00  0.00     0.332 C 
ATOM      7  O   UNL     1       2.496   2.127  -1.089  1.00  0.00    -0.250 OA
BRANCH   6   8
ATOM      8  C   UNL     1       3.712   0.112  -1.806  1.00  0.00     0.282 C 
BRANCH   8   9
ATOM      9  O   UNL     1       3.642   0.237  -3.220  1.00  0.00    -0.366 OA
BRANCH   9  10
ATOM     10  C   UNL     1       2.428   0.780  -3.727  1.00  0.00     0.209 C 
BRANCH  10  11
ATOM     11  C   UNL     1       1.262  -0.209  -3.930  1.00  0.00     0.236 C 
ATOM     12  C   UNL     1      -0.050   0.561  -4.089  1.00  0.00     0.277 C 
ATOM     13  O   UNL     1       1.147  -1.225  -2.921  1.00  0.00    -0.481 OA
ATOM     14  O   UNL     1      -0.423   1.201  -2.860  1.00  0.00    -0.486 OA
ATOM     15  C   UNL     1       0.312  -0.897  -1.887  1.00  0.00     0.161 A 
ATOM     16  C   UNL     1      -0.394   0.304  -1.824  1.00  0.00     0.161 A 
ATOM     17  C   UNL     1       0.209  -1.823  -0.850  1.00  0.00     0.050 A 
ATOM     18  C   UNL     1      -1.109   0.629  -0.673  1.00  0.00     0.050 A 
ATOM     19  C   UNL     1      -0.550  -1.521   0.281  1.00  0.00     0.004 A 
ATOM     20  C   UNL     1      -1.187  -0.283   0.381  1.00  0.00     0.004 A 
ENDBRANCH  10  11
ENDBRANCH   9  10
ENDBRANCH   8   9
ENDBRANCH   6   8
ENDBRANCH   5   6
ENDBRANCH   4   5
ENDBRANCH   3   4
ENDBRANCH   2   3
ENDBRANCH   1   2
BRANCH   1  21
ATOM     21  C   UNL     1       2.525  -1.022   2.760  1.00  0.00     0.188 C 
BRANCH  21  22
ATOM     22  O   UNL     1       3.264  -0.366   3.766  1.00  0.00    -0.376 OA
BRANCH  22  23
ATOM     23  C   UNL     1       4.418  -1.007   4.287  1.00  0.00     0.202 C 
BRANCH  23  24
ATOM     24  C   UNL     1       4.405  -2.506   4.618  1.00  0.00     0.261 C 
BRANCH  24  25
ATOM     25  O   UNL     1       4.160  -3.364   3.487  1.00  0.00    -0.460 OA
BRANCH  25  26
ATOM     26  C   UNL     1       3.081  -4.175   3.602  1.00  0.00     0.338 C 
ATOM     27  O   UNL     1       2.305  -4.244   4.540  1.00  0.00    -0.246 OA
BRANCH  26  28
ATOM     28  C   UNL     1       2.848  -4.925   2.354  1.00  0.00     0.060 A 
ATOM     29  C   UNL     1       1.620  -4.761   1.696  1.00  0.00     0.016 A 
ATOM     30  C   UNL     1       3.750  -5.900   1.934  1.00  0.00     0.016 A 
ATOM     31  C   UNL     1       1.274  -5.597   0.632  1.00  0.00     0.010 A 
ATOM     32  C   UNL     1       3.393  -6.752   0.884  1.00  0.00     0.010 A 
ATOM     33  C   UNL     1       2.142  -6.628   0.251  1.00  0.00    -0.014 A 
BRANCH  33  34
ATOM     34  C   UNL     1       1.691  -7.703  -0.666  1.00  0.00     0.031 A 
ATOM     35  C   UNL     1       1.139  -8.969  -0.075  1.00  0.00     0.074 A 
ATOM     36  C   UNL     1       1.819  -7.589  -1.998  1.00  0.00     0.049 A 
ATOM     37  N   UNL     1       0.868 -10.112  -0.652  1.00  0.00    -0.248 NA
ATOM     38  C   UNL     1       0.863  -8.940   1.369  1.00  0.00     0.031 C 
ATOM     39  C   UNL     1       2.276  -6.397  -2.704  1.00  0.00     0.029 A 
ATOM     40  N   UNL     1       1.604  -8.514  -2.992  1.00  0.00    -0.354 N 
ATOM     41  C   UNL     1       0.412 -10.945   0.360  1.00  0.00     0.074 A 
ATOM     42  C   UNL     1       0.449 -10.179   1.588  1.00  0.00     0.031 C 
ATOM     43  C   UNL     1       2.351  -6.674  -4.017  1.00  0.00     0.029 A 
ATOM     44  C   UNL     1       1.992  -8.077  -4.234  1.00  0.00     0.049 A 
ATOM     45  H   UNL     1       1.212  -9.402  -2.829  1.00  0.00     0.167 HD
ATOM     46  C   UNL     1       0.010 -12.236   0.276  1.00  0.00     0.037 A 
ATOM     47  C   UNL     1       2.094  -8.746  -5.399  1.00  0.00     0.037 A 
ATOM     48  C   UNL     1      -0.013 -13.001  -0.942  1.00  0.00     0.049 A 
ATOM     49  C   UNL     1       1.725 -10.207  -5.460  1.00  0.00     0.074 A 
ATOM     50  C   UNL     1      -0.414 -14.312  -1.131  1.00  0.00     0.029 A 
ATOM     51  N   UNL     1       0.397 -12.526  -2.179  1.00  0.00    -0.354 N 
ATOM     52  N   UNL     1       1.294 -10.994  -4.504  1.00  0.00    -0.248 NA
ATOM     53  C   UNL     1       1.865 -10.876  -6.763  1.00  0.00     0.031 C 
ATOM     54  C   UNL     1      -0.192 -14.648  -2.471  1.00  0.00     0.029 A 
ATOM     55  C   UNL     1       0.288 -13.527  -3.131  1.00  0.00     0.049 A 
ATOM     56  H   UNL     1       0.719 -11.612  -2.355  1.00  0.00     0.167 HD
ATOM     57  C   UNL     1       1.081 -12.235  -5.093  1.00  0.00     0.074 A 
ATOM     58  C   UNL     1       1.432 -12.099  -6.490  1.00  0.00     0.031 C 
ATOM     59  C   UNL     1       0.627 -13.380  -4.524  1.00  0.00     0.037 A 
BRANCH  46  60
ATOM     60  C   UNL     1      -0.379 -12.916   1.556  1.00  0.00     0.064 A 
ATOM     61  C   UNL     1      -1.554 -12.583   2.247  1.00  0.00     0.173 A 
ATOM     62  C   UNL     1       0.445 -13.912   2.103  1.00  0.00     0.173 A 
ATOM     63  F   UNL     1      -2.367 -11.627   1.774  1.00  0.00    -0.203 F 
ATOM     64  C   UNL     1      -1.868 -13.194   3.458  1.00  0.00     0.198 A 
ATOM     65  C   UNL     1       0.111 -14.542   3.298  1.00  0.00     0.198 A 
ATOM     66  F   UNL     1       1.577 -14.271   1.481  1.00  0.00    -0.203 F 
ATOM     67  F   UNL     1      -2.963 -12.815   4.133  1.00  0.00    -0.200 F 
ATOM     68  C   UNL     1      -1.038 -14.175   3.981  1.00  0.00     0.200 A 
ATOM     69  F   UNL     1       0.908 -15.498   3.795  1.00  0.00    -0.200 F 
ATOM     70  F   UNL     1      -1.340 -14.757   5.149  1.00  0.00    -0.200 F 
ENDBRANCH  46  60
BRANCH  47  71
ATOM     71  C   UNL     1       2.607  -8.042  -6.602  1.00  0.00     0.064 A 
ATOM     72  C   UNL     1       1.762  -7.739  -7.678  1.00  0.00     0.173 A 
ATOM     73  C   UNL     1       3.951  -7.650  -6.694  1.00  0.00     0.173 A 
ATOM     74  F   UNL     1       0.477  -8.120  -7.648  1.00  0.00    -0.203 F 
ATOM     75  C   UNL     1       2.244  -7.072  -8.803  1.00  0.00     0.198 A 
ATOM     76  C   UNL     1       4.425  -6.961  -7.808  1.00  0.00     0.198 A 
ATOM     77  F   UNL     1       4.801  -7.923  -5.694  1.00  0.00    -0.203 F 
ATOM     78  F   UNL     1       1.424  -6.824  -9.833  1.00  0.00    -0.200 F 
ATOM     79  C   UNL     1       3.572  -6.676  -8.864  1.00  0.00     0.200 A 
ATOM     80  F   UNL     1       5.706  -6.571  -7.858  1.00  0.00    -0.200 F 
ATOM     81  F   UNL     1       4.030  -6.025  -9.941  1.00  0.00    -0.200 F 
ENDBRANCH  47  71
BRANCH  59  82
ATOM     82  C   UNL     1       0.430 -14.575  -5.413  1.00  0.00     0.064 A 
ATOM     83  C   UNL     1       1.511 -15.317  -5.909  1.00  0.00     0.173 A 
ATOM     84  C   UNL     1      -0.867 -15.027  -5.707  1.00  0.00     0.173 A 
ATOM     85  F   UNL     1       2.769 -14.921  -5.668  1.00  0.00    -0.203 F 
ATOM     86  C   UNL     1       1.301 -16.462  -6.675  1.00  0.00     0.198 A 
ATOM     87  C   UNL     1      -1.072 -16.187  -6.450  1.00  0.00     0.198 A 
ATOM     88  F   UNL     1      -1.936 -14.357  -5.252  1.00  0.00    -0.203 F 
ATOM     89  F   UNL     1       2.349 -17.140  -7.165  1.00  0.00    -0.200 F 
ATOM     90  C   UNL     1       0.011 -16.901  -6.936  1.00  0.00     0.200 A 
ATOM     91  F   UNL     1      -2.319 -16.617  -6.688  1.00  0.00    -0.200 F 
ATOM     92  F   UNL     1      -0.187 -18.012  -7.659  1.00  0.00    -0.200 F 
ENDBRANCH  59  82
ENDBRANCH  33  34
ENDBRANCH  26  28
ENDBRANCH  25  26
ENDBRANCH  24  25
ENDBRANCH  23  24
ENDBRANCH  22  23
ENDBRANCH  21  22
ENDBRANCH   1  21
TORSDOF 20
