REMARK SMILES Cc1ccc(C2=NN(C(=O)CCC(=O)OCCOCCOCCOC(=O)c3ccc(-c4c5nc(c(-c6c(F)c(F)c(F)c(F)c6F)c6ccc([nH]6)c(-c6c(F)c(F)c(F)c(F)c6F)c6nc(c(-c7c(F)c(F)c(F)c(F)c7F)c7ccc4[nH]7)C=C6)C=C5)cc3)[C@H](C[C@@H]3C=c4cccc(C)c4=NC3=O)C2)cc1
REMARK SMILES IDX 18 1 17 2 16 3 15 4 13 5 14 6 12 7 11 8 9 9 10 10 8 11 6 12
REMARK SMILES IDX 7 13 104 14 90 15 5 16 1 17 2 18 3 19 106 20 4 21 105 22
REMARK SMILES IDX 91 23 92 24 93 25 102 26 94 27 101 28 103 29 95 30 100 31
REMARK SMILES IDX 96 32 98 33 97 34 99 35 19 36 20 37 21 38 22 39 23 40 24 41
REMARK SMILES IDX 25 42 26 43 27 44 28 45 89 46 29 47 88 48 30 49 31 50 32 51
REMARK SMILES IDX 82 52 33 53 87 54 81 55 83 56 34 57 86 58 80 59 79 60 35 62
REMARK SMILES IDX 67 63 47 64 66 65 48 66 51 67 65 68 84 69 49 70 50 71 64 73
REMARK SMILES IDX 85 74 52 75 36 76 37 77 45 78 38 79 39 80 43 81 46 82 40 83
REMARK SMILES IDX 41 84 44 85 42 86 68 87 69 88 77 89 70 90 71 91 75 92 78 93
REMARK SMILES IDX 72 94 73 95 76 96 74 97 53 98 54 99 62 100 55 101 56 102
REMARK SMILES IDX 60 103 63 104 57 105 58 106 61 107 59 108
REMARK H PARENT 83 61 51 72
REMARK Flexibility Score: inf
ROOT
ATOM      1  O   UNL     1      -5.782   2.477  -3.205  1.00  0.00    -0.376 OA
ENDROOT
BRANCH   1   2
ATOM      2  C   UNL     1      -4.529   2.208  -2.539  1.00  0.00     0.202 C 
BRANCH   2   3
ATOM      3  C   UNL     1      -4.179   2.852  -1.012  1.00  0.00     0.261 C 
BRANCH   3   4
ATOM      4  O   UNL     1      -4.443   2.227   0.413  1.00  0.00    -0.463 OA
BRANCH   4   5
ATOM      5  C   UNL     1      -5.657   1.639   0.564  1.00  0.00     0.306 C 
ATOM      6  O   UNL     1      -6.239   1.651  -0.520  1.00  0.00    -0.252 OA
BRANCH   5   7
ATOM      7  C   UNL     1      -6.373   0.735   2.091  1.00  0.00     0.132 C 
BRANCH   7   8
ATOM      8  C   UNL     1      -5.983  -0.580   2.690  1.00  0.00     0.114 C 
BRANCH   8   9
ATOM      9  C   UNL     1      -4.920  -1.429   2.083  1.00  0.00     0.243 C 
ATOM     10  O   UNL     1      -4.498  -2.317   2.842  1.00  0.00    -0.273 OA
BRANCH   9  11
ATOM     11  N   UNL     1      -4.328  -1.193   0.848  1.00  0.00    -0.230 N 
ATOM     12  C   UNL     1      -2.404  -0.678   0.039  1.00  0.00     0.070 C 
ATOM     13  N   UNL     1      -3.012  -0.974   1.125  1.00  0.00    -0.174 NA
ATOM     14  C   UNL     1      -3.162  -0.788  -1.252  1.00  0.00     0.086 C 
ATOM     15  C   UNL     1      -4.574  -0.682  -0.673  1.00  0.00     0.118 C 
BRANCH  12  16
ATOM     16  C   UNL     1      -1.000  -0.384   0.093  1.00  0.00    -0.002 A 
ATOM     17  C   UNL     1       3.187   0.100  -0.083  1.00  0.00     0.044 C 
ATOM     18  C   UNL     1       1.707  -0.038   0.067  1.00  0.00    -0.051 A 
ATOM     19  C   UNL     1       1.172  -1.333   0.119  1.00  0.00     0.004 A 
ATOM     20  C   UNL     1       0.867   1.087   0.128  1.00  0.00     0.004 A 
ATOM     21  C   UNL     1      -0.192  -1.508   0.153  1.00  0.00     0.010 A 
ATOM     22  C   UNL     1      -0.511   0.918   0.155  1.00  0.00     0.010 A 
ENDBRANCH  12  16
BRANCH  15  23
ATOM     23  C   UNL     1      -5.998  -0.669  -1.747  1.00  0.00     0.045 C 
BRANCH  23  24
ATOM     24  C   UNL     1      -7.877  -0.908  -1.606  1.00  0.00     0.106 C 
ATOM     25  C   UNL     1      -8.837  -1.674   0.223  1.00  0.00    -0.003 C 
ATOM     26  C   UNL     1      -8.633  -2.019  -3.135  1.00  0.00     0.253 C 
ATOM     27  C   UNL     1      -9.548  -2.967   0.262  1.00  0.00    -0.003 A 
ATOM     28  N   UNL     1      -9.539  -3.451  -2.657  1.00  0.00    -0.212 NA
ATOM     29  O   UNL     1      -8.637  -1.642  -4.301  1.00  0.00    -0.272 OA
ATOM     30  C   UNL     1      -9.383  -3.712   1.496  1.00  0.00     0.010 A 
ATOM     31  C   UNL     1      -9.816  -3.893  -1.304  1.00  0.00     0.077 A 
ATOM     32  C   UNL     1      -9.395  -5.044   1.487  1.00  0.00     0.001 A 
ATOM     33  C   UNL     1      -9.991  -5.367  -0.930  1.00  0.00    -0.025 A 
ATOM     34  C   UNL     1      -9.756  -5.816   0.324  1.00  0.00     0.005 A 
ATOM     35  C   UNL     1     -10.219  -6.355  -2.023  1.00  0.00     0.047 C 
ENDBRANCH  23  24
ENDBRANCH  15  23
ENDBRANCH   9  11
ENDBRANCH   8   9
ENDBRANCH   7   8
ENDBRANCH   5   7
ENDBRANCH   4   5
ENDBRANCH   3   4
ENDBRANCH   2   3
ENDBRANCH   1   2
BRANCH   1  36
ATOM     36  C   UNL     1      -6.518   1.542  -4.062  1.00  0.00     0.188 C 
BRANCH  36  37
ATOM     37  C   UNL     1      -6.005   0.390  -5.027  1.00  0.00     0.188 C 
BRANCH  37  38
ATOM     38  O   UNL     1      -6.085  -0.961  -4.545  1.00  0.00    -0.376 OA
BRANCH  38  39
ATOM     39  C   UNL     1      -4.930  -1.818  -4.540  1.00  0.00     0.202 C 
BRANCH  39  40
ATOM     40  C   UNL     1      -5.321  -3.242  -3.956  1.00  0.00     0.261 C 
BRANCH  40  41
ATOM     41  O   UNL     1      -5.940  -3.138  -2.622  1.00  0.00    -0.460 OA
BRANCH  41  42
ATOM     42  C   UNL     1      -7.116  -3.785  -2.317  1.00  0.00     0.338 C 
ATOM     43  O   UNL     1      -7.413  -4.840  -2.838  1.00  0.00    -0.246 OA
BRANCH  42  44
ATOM     44  C   UNL     1      -8.003  -2.736  -1.269  1.00  0.00     0.060 A 
ATOM     45  C   UNL     1      -9.643  -1.555  -1.484  1.00  0.00     0.016 A 
ATOM     46  C   UNL     1      -6.861  -2.211  -0.225  1.00  0.00     0.016 A 
ATOM     47  C   UNL     1      -9.708   0.102  -0.741  1.00  0.00     0.010 A 
ATOM     48  C   UNL     1      -7.119  -0.529   0.284  1.00  0.00     0.010 A 
ATOM     49  C   UNL     1      -8.389   0.731   0.132  1.00  0.00    -0.014 A 
BRANCH  49  50
ATOM     50  C   UNL     1      -8.059   2.483   0.702  1.00  0.00     0.031 A 
ATOM     51  C   UNL     1      -7.024   3.238   2.075  1.00  0.00     0.074 A 
ATOM     52  C   UNL     1      -7.993   3.406  -0.326  1.00  0.00     0.049 A 
ATOM     53  N   UNL     1      -7.102   4.436   2.671  1.00  0.00    -0.248 NA
ATOM     54  C   UNL     1      -5.733   2.716   2.868  1.00  0.00     0.031 C 
ATOM     55  C   UNL     1      -6.958   4.473  -0.392  1.00  0.00     0.029 A 
ATOM     56  N   UNL     1      -8.504   3.452  -1.643  1.00  0.00    -0.354 N 
ATOM     57  C   UNL     1      -5.976   4.459   3.621  1.00  0.00     0.074 A 
ATOM     58  C   UNL     1      -5.933   3.153   4.106  1.00  0.00     0.031 C 
ATOM     59  C   UNL     1      -7.033   5.156  -1.545  1.00  0.00     0.029 A 
ATOM     60  C   UNL     1      -8.302   4.795  -2.105  1.00  0.00     0.049 A 
ATOM     61  H   UNL     1      -8.915   2.711  -2.144  1.00  0.00     0.167 HD
ATOM     62  C   UNL     1      -4.729   5.099   3.463  1.00  0.00     0.037 A 
ATOM     63  C   UNL     1      -9.333   5.695  -2.196  1.00  0.00     0.037 A 
ATOM     64  C   UNL     1      -4.824   6.034   2.385  1.00  0.00     0.049 A 
ATOM     65  C   UNL     1      -9.204   6.857  -1.209  1.00  0.00     0.074 A 
ATOM     66  C   UNL     1      -4.187   6.397   1.218  1.00  0.00     0.029 A 
ATOM     67  N   UNL     1      -6.002   6.711   2.403  1.00  0.00    -0.354 N 
ATOM     68  N   UNL     1      -8.342   6.840  -0.223  1.00  0.00    -0.248 NA
ATOM     69  C   UNL     1      -9.907   8.138  -1.246  1.00  0.00     0.031 C 
ATOM     70  C   UNL     1      -5.069   7.324   0.545  1.00  0.00     0.029 A 
ATOM     71  C   UNL     1      -6.179   7.531   1.351  1.00  0.00     0.049 A 
ATOM     72  H   UNL     1      -6.668   6.610   3.121  1.00  0.00     0.167 HD
ATOM     73  C   UNL     1      -8.315   8.030   0.437  1.00  0.00     0.074 A 
ATOM     74  C   UNL     1      -9.349   8.799  -0.209  1.00  0.00     0.031 C 
ATOM     75  C   UNL     1      -7.413   8.287   1.429  1.00  0.00     0.037 A 
BRANCH  62  76
ATOM     76  C   UNL     1      -3.363   4.790   4.212  1.00  0.00     0.064 A 
ATOM     77  C   UNL     1      -2.398   5.819   4.324  1.00  0.00     0.173 A 
ATOM     78  C   UNL     1      -2.927   3.576   4.826  1.00  0.00     0.173 A 
ATOM     79  F   UNL     1      -2.588   6.996   3.712  1.00  0.00    -0.203 F 
ATOM     80  C   UNL     1      -1.199   5.689   5.059  1.00  0.00     0.198 A 
ATOM     81  C   UNL     1      -1.763   3.465   5.615  1.00  0.00     0.198 A 
ATOM     82  F   UNL     1      -3.544   2.404   4.634  1.00  0.00    -0.203 F 
ATOM     83  F   UNL     1      -0.330   6.709   5.104  1.00  0.00    -0.200 F 
ATOM     84  C   UNL     1      -0.902   4.528   5.742  1.00  0.00     0.200 A 
ATOM     85  F   UNL     1      -1.480   2.307   6.233  1.00  0.00    -0.200 F 
ATOM     86  F   UNL     1       0.211   4.422   6.483  1.00  0.00    -0.200 F 
ENDBRANCH  62  76
BRANCH  63  87
ATOM     87  C   UNL     1     -10.519   5.029  -2.816  1.00  0.00     0.064 A 
ATOM     88  C   UNL     1     -10.314   4.632  -4.161  1.00  0.00     0.173 A 
ATOM     89  C   UNL     1     -11.295   4.178  -2.014  1.00  0.00     0.173 A 
ATOM     90  F   UNL     1      -9.638   5.438  -4.996  1.00  0.00    -0.203 F 
ATOM     91  C   UNL     1     -10.582   3.326  -4.574  1.00  0.00     0.198 A 
ATOM     92  C   UNL     1     -11.607   2.886  -2.454  1.00  0.00     0.198 A 
ATOM     93  F   UNL     1     -11.537   4.498  -0.735  1.00  0.00    -0.203 F 
ATOM     94  F   UNL     1     -10.155   2.903  -5.774  1.00  0.00    -0.200 F 
ATOM     95  C   UNL     1     -11.174   2.437  -3.696  1.00  0.00     0.200 A 
ATOM     96  F   UNL     1     -12.220   2.031  -1.622  1.00  0.00    -0.200 F 
ATOM     97  F   UNL     1     -11.274   1.138  -4.017  1.00  0.00    -0.200 F 
ENDBRANCH  63  87
BRANCH  75  98
ATOM     98  C   UNL     1      -7.715   9.064   2.732  1.00  0.00     0.064 A 
ATOM     99  C   UNL     1      -8.969   9.611   3.034  1.00  0.00     0.173 A 
ATOM    100  C   UNL     1      -6.789   9.109   3.828  1.00  0.00     0.173 A 
ATOM    101  F   UNL     1      -9.995   9.528   2.182  1.00  0.00    -0.203 F 
ATOM    102  C   UNL     1      -9.242  10.230   4.261  1.00  0.00     0.198 A 
ATOM    103  C   UNL     1      -7.105   9.625   5.085  1.00  0.00     0.198 A 
ATOM    104  F   UNL     1      -5.545   8.617   3.748  1.00  0.00    -0.203 F 
ATOM    105  F   UNL     1     -10.432  10.816   4.445  1.00  0.00    -0.200 F 
ATOM    106  C   UNL     1      -8.319  10.229   5.287  1.00  0.00     0.200 A 
ATOM    107  F   UNL     1      -6.224   9.519   6.092  1.00  0.00    -0.200 F 
ATOM    108  F   UNL     1      -8.600  10.803   6.464  1.00  0.00    -0.200 F 
ENDBRANCH  75  98
ENDBRANCH  49  50
ENDBRANCH  42  44
ENDBRANCH  41  42
ENDBRANCH  40  41
ENDBRANCH  39  40
ENDBRANCH  38  39
ENDBRANCH  37  38
ENDBRANCH  36  37
ENDBRANCH   1  36
TORSDOF 23
