REMARK SMILES O=C(OCCOCCOCCOC(=O)[C@H]1C[C@H](O)CN1C(=O)CS[C@H]1CCS(=O)(=O)C1)c1ccc(-c2c3nc(c(-c4c(F)c(F)c(F)c(F)c4F)c4ccc([nH]4)c(-c4c(F)c(F)c(F)c(F)c4F)c4nc(c(-c5c(F)c(F)c(F)c(F)c5F)c5ccc2[nH]5)C=C4)C=C3)cc1
REMARK SMILES IDX 8 1 7 2 6 3 5 4 4 5 3 6 2 7 1 8 32 9 33 10 94 11 34 12 93 13
REMARK SMILES IDX 35 14 36 15 37 16 87 17 38 18 92 19 86 20 88 21 39 22 91 23
REMARK SMILES IDX 85 24 84 25 40 27 72 28 52 29 71 30 53 31 56 32 70 33 89 34
REMARK SMILES IDX 54 35 55 36 69 38 90 39 57 40 41 41 42 42 50 43 43 44 44 45
REMARK SMILES IDX 48 46 51 47 45 48 46 49 49 50 47 51 73 52 74 53 82 54 75 55
REMARK SMILES IDX 76 56 80 57 83 58 77 59 78 60 81 61 79 62 58 63 59 64 67 65
REMARK SMILES IDX 60 66 61 67 65 68 68 69 62 70 63 71 66 72 64 73 9 74 10 75
REMARK SMILES IDX 11 76 12 77 13 78 14 79 15 80 16 81 20 82 17 83 19 84 21 85
REMARK SMILES IDX 22 86 23 87 24 88 25 89 26 90 31 91 27 92 28 93 29 94 30 95
REMARK SMILES IDX 18 96
REMARK H PARENT 88 26 56 37 18 97
REMARK Flexibility Score: inf
ROOT
ATOM      1  C   UNL     1       1.712   8.235   1.008  1.00  0.00     0.188 C 
ENDROOT
BRANCH   1   2
ATOM      2  C   UNL     1       1.118   8.903   2.248  1.00  0.00     0.188 C 
BRANCH   2   3
ATOM      3  O   UNL     1       0.403  10.109   1.954  1.00  0.00    -0.376 OA
BRANCH   3   4
ATOM      4  C   UNL     1       0.617  11.167   2.895  1.00  0.00     0.202 C 
BRANCH   4   5
ATOM      5  C   UNL     1       0.078  10.945   4.322  1.00  0.00     0.261 C 
BRANCH   5   6
ATOM      6  O   UNL     1      -0.028   9.563   4.709  1.00  0.00    -0.460 OA
BRANCH   6   7
ATOM      7  C   UNL     1      -1.109   8.744   4.659  1.00  0.00     0.338 C 
ATOM      8  O   UNL     1      -1.051   7.658   5.231  1.00  0.00    -0.246 OA
BRANCH   7   9
ATOM      9  C   UNL     1      -2.373   9.087   3.938  1.00  0.00     0.060 A 
ATOM     10  C   UNL     1      -2.486  10.067   2.956  1.00  0.00     0.016 A 
ATOM     11  C   UNL     1      -3.524   8.338   4.245  1.00  0.00     0.016 A 
ATOM     12  C   UNL     1      -3.703  10.401   2.392  1.00  0.00     0.010 A 
ATOM     13  C   UNL     1      -4.754   8.630   3.646  1.00  0.00     0.010 A 
ATOM     14  C   UNL     1      -4.849   9.707   2.759  1.00  0.00    -0.014 A 
BRANCH  14  15
ATOM     15  C   UNL     1      -6.137  10.297   2.355  1.00  0.00     0.031 A 
ATOM     16  C   UNL     1      -6.904  11.062   3.391  1.00  0.00     0.074 A 
ATOM     17  C   UNL     1      -6.485  10.314   1.057  1.00  0.00     0.049 A 
ATOM     18  N   UNL     1      -8.036  11.703   3.286  1.00  0.00    -0.248 NA
ATOM     19  C   UNL     1      -6.296  11.134   4.732  1.00  0.00     0.031 C 
ATOM     20  C   UNL     1      -5.702   9.720  -0.029  1.00  0.00     0.029 A 
ATOM     21  N   UNL     1      -7.553  10.887   0.425  1.00  0.00    -0.354 N 
ATOM     22  C   UNL     1      -8.294  12.213   4.551  1.00  0.00     0.074 A 
ATOM     23  C   UNL     1      -7.207  11.811   5.410  1.00  0.00     0.031 C 
ATOM     24  C   UNL     1      -6.302   9.988  -1.200  1.00  0.00     0.029 A 
ATOM     25  C   UNL     1      -7.544  10.706  -0.936  1.00  0.00     0.049 A 
ATOM     26  H   UNL     1      -8.259  11.383   0.900  1.00  0.00     0.167 HD
ATOM     27  C   UNL     1      -9.359  12.945   4.951  1.00  0.00     0.037 A 
ATOM     28  C   UNL     1      -8.465  11.060  -1.850  1.00  0.00     0.037 A 
ATOM     29  C   UNL     1     -10.419  13.329   4.061  1.00  0.00     0.049 A 
ATOM     30  C   UNL     1      -9.692  11.782  -1.360  1.00  0.00     0.074 A 
ATOM     31  C   UNL     1     -11.583  14.018   4.341  1.00  0.00     0.029 A 
ATOM     32  N   UNL     1     -10.436  13.043   2.699  1.00  0.00    -0.354 N 
ATOM     33  N   UNL     1      -9.977  12.204  -0.149  1.00  0.00    -0.248 NA
ATOM     34  C   UNL     1     -10.730  12.069  -2.356  1.00  0.00     0.031 C 
ATOM     35  C   UNL     1     -12.332  14.093   3.162  1.00  0.00     0.029 A 
ATOM     36  C   UNL     1     -11.602  13.521   2.129  1.00  0.00     0.049 A 
ATOM     37  H   UNL     1      -9.722  12.571   2.213  1.00  0.00     0.167 HD
ATOM     38  C   UNL     1     -11.211  12.831  -0.240  1.00  0.00     0.074 A 
ATOM     39  C   UNL     1     -11.611  12.745  -1.632  1.00  0.00     0.031 C 
ATOM     40  C   UNL     1     -11.949  13.426   0.731  1.00  0.00     0.037 A 
BRANCH  27  41
ATOM     41  C   UNL     1      -9.453  13.267   6.415  1.00  0.00     0.064 A 
ATOM     42  C   UNL     1      -8.564  14.146   7.054  1.00  0.00     0.173 A 
ATOM     43  C   UNL     1     -10.413  12.620   7.209  1.00  0.00     0.173 A 
ATOM     44  F   UNL     1      -7.604  14.766   6.350  1.00  0.00    -0.203 F 
ATOM     45  C   UNL     1      -8.603  14.328   8.436  1.00  0.00     0.198 A 
ATOM     46  C   UNL     1     -10.472  12.831   8.584  1.00  0.00     0.198 A 
ATOM     47  F   UNL     1     -11.283  11.764   6.655  1.00  0.00    -0.203 F 
ATOM     48  F   UNL     1      -7.690  15.107   9.034  1.00  0.00    -0.200 F 
ATOM     49  C   UNL     1      -9.557  13.672   9.199  1.00  0.00     0.200 A 
ATOM     50  F   UNL     1     -11.399  12.200   9.318  1.00  0.00    -0.200 F 
ATOM     51  F   UNL     1      -9.584  13.836  10.529  1.00  0.00    -0.200 F 
ENDBRANCH  27  41
BRANCH  28  52
ATOM     52  C   UNL     1      -8.277  10.711  -3.285  1.00  0.00     0.064 A 
ATOM     53  C   UNL     1      -8.138  11.704  -4.263  1.00  0.00     0.173 A 
ATOM     54  C   UNL     1      -8.243   9.373  -3.711  1.00  0.00     0.173 A 
ATOM     55  F   UNL     1      -8.185  12.999  -3.916  1.00  0.00    -0.203 F 
ATOM     56  C   UNL     1      -7.991  11.375  -5.611  1.00  0.00     0.198 A 
ATOM     57  C   UNL     1      -8.064   9.044  -5.054  1.00  0.00     0.198 A 
ATOM     58  F   UNL     1      -8.381   8.381  -2.820  1.00  0.00    -0.203 F 
ATOM     59  F   UNL     1      -7.913  12.347  -6.530  1.00  0.00    -0.200 F 
ATOM     60  C   UNL     1      -7.948  10.045  -6.004  1.00  0.00     0.200 A 
ATOM     61  F   UNL     1      -8.020   7.758  -5.427  1.00  0.00    -0.200 F 
ATOM     62  F   UNL     1      -7.812   9.731  -7.300  1.00  0.00    -0.200 F 
ENDBRANCH  28  52
BRANCH  40  63
ATOM     63  C   UNL     1     -13.226  14.086   0.303  1.00  0.00     0.064 A 
ATOM     64  C   UNL     1     -14.346  13.347  -0.100  1.00  0.00     0.173 A 
ATOM     65  C   UNL     1     -13.337  15.485   0.342  1.00  0.00     0.173 A 
ATOM     66  F   UNL     1     -14.285  12.008  -0.166  1.00  0.00    -0.203 F 
ATOM     67  C   UNL     1     -15.523  13.986  -0.480  1.00  0.00     0.198 A 
ATOM     68  C   UNL     1     -14.526  16.118  -0.000  1.00  0.00     0.198 A 
ATOM     69  F   UNL     1     -12.295  16.236   0.732  1.00  0.00    -0.203 F 
ATOM     70  F   UNL     1     -16.563  13.264  -0.917  1.00  0.00    -0.200 F 
ATOM     71  C   UNL     1     -15.614  15.369  -0.421  1.00  0.00     0.200 A 
ATOM     72  F   UNL     1     -14.618  17.453   0.077  1.00  0.00    -0.200 F 
ATOM     73  F   UNL     1     -16.751  15.982  -0.777  1.00  0.00    -0.200 F 
ENDBRANCH  40  63
ENDBRANCH  14  15
ENDBRANCH   7   9
ENDBRANCH   6   7
ENDBRANCH   5   6
ENDBRANCH   4   5
ENDBRANCH   3   4
ENDBRANCH   2   3
ENDBRANCH   1   2
BRANCH   1  74
ATOM     74  O   UNL     1       2.736   8.939   0.309  1.00  0.00    -0.376 OA
BRANCH  74  75
ATOM     75  C   UNL     1       2.484  10.294  -0.041  1.00  0.00     0.202 C 
BRANCH  75  76
ATOM     76  C   UNL     1       1.410  10.581  -1.102  1.00  0.00     0.261 C 
BRANCH  76  77
ATOM     77  O   UNL     1       0.169   9.888  -0.899  1.00  0.00    -0.462 OA
BRANCH  77  78
ATOM     78  C   UNL     1      -0.048   8.845  -1.746  1.00  0.00     0.329 C 
ATOM     79  O   UNL     1       0.655   8.573  -2.715  1.00  0.00    -0.250 OA
BRANCH  78  80
ATOM     80  C   UNL     1      -1.316   8.055  -1.366  1.00  0.00     0.197 C 
ATOM     81  C   UNL     1      -2.516   8.536  -2.158  1.00  0.00     0.070 C 
ATOM     82  N   UNL     1      -1.149   6.676  -1.843  1.00  0.00    -0.325 N 
ATOM     83  C   UNL     1      -2.291   7.913  -3.539  1.00  0.00     0.136 C 
ATOM     84  C   UNL     1      -1.532   6.602  -3.253  1.00  0.00     0.152 C 
BRANCH  82  85
ATOM     85  C   UNL     1      -0.595   5.705  -1.035  1.00  0.00     0.233 C 
ATOM     86  O   UNL     1      -0.439   5.908   0.172  1.00  0.00    -0.274 OA
BRANCH  85  87
ATOM     87  C   UNL     1      -0.198   4.372  -1.654  1.00  0.00     0.169 C 
BRANCH  87  88
ATOM     88  S   UNL     1      -1.265   2.987  -1.090  1.00  0.00    -0.148 SA
BRANCH  88  89
ATOM     89  C   UNL     1      -2.826   3.474  -1.861  1.00  0.00     0.063 C 
ATOM     90  C   UNL     1      -3.778   2.318  -2.182  1.00  0.00     0.031 C 
ATOM     91  C   UNL     1      -3.647   4.410  -0.984  1.00  0.00     0.151 C 
ATOM     92  C   UNL     1      -5.041   2.990  -2.738  1.00  0.00     0.138 C 
ATOM     93  S   UNL     1      -5.146   4.583  -1.918  1.00  0.00     0.151 S 
ATOM     94  O   UNL     1      -4.916   5.638  -2.888  1.00  0.00    -0.229 OA
ATOM     95  O   UNL     1      -6.270   4.598  -1.006  1.00  0.00    -0.229 OA
ENDBRANCH  88  89
ENDBRANCH  87  88
ENDBRANCH  85  87
ENDBRANCH  82  85
BRANCH  83  96
ATOM     96  O   UNL     1      -3.532   7.714  -4.198  1.00  0.00    -0.391 OA
ATOM     97  H   UNL     1      -4.103   7.152  -3.650  1.00  0.00     0.211 HD
ENDBRANCH  83  96
ENDBRANCH  78  80
ENDBRANCH  77  78
ENDBRANCH  76  77
ENDBRANCH  75  76
ENDBRANCH  74  75
ENDBRANCH   1  74
TORSDOF 22
