REMARK SMILES Cc1cc(NC(=O)Nc2sc(C)c(C)c2C(=O)OCCOCCOCCOC(=O)c2ccc(-c3c4nc(c(-c5c(F)c(F)c(F)c(F)c5F)c5ccc([nH]5)c(-c5c(F)c(F)c(F)c(F)c5F)c5nc(c(-c6c(F)c(F)c(F)c(F)c6F)c6ccc3[nH]6)C=C5)C=C4)cc2)ccn1
REMARK SMILES IDX 22 1 21 2 20 3 19 4 18 5 16 6 17 7 15 8 9 9 10 10 11 11
REMARK SMILES IDX 13 12 12 13 14 14 8 15 5 16 6 17 7 19 4 21 1 22 2 23 3 24
REMARK SMILES IDX 95 25 94 26 93 27 23 28 24 29 25 30 26 31 27 32 28 33 29 34
REMARK SMILES IDX 30 35 31 36 92 37 32 38 91 39 33 40 34 41 35 42 85 43 36 44
REMARK SMILES IDX 90 45 84 46 86 47 37 48 89 49 83 50 82 51 38 53 70 54 50 55
REMARK SMILES IDX 69 56 51 57 54 58 68 59 87 60 52 61 53 62 67 64 88 65 55 66
REMARK SMILES IDX 39 67 40 68 48 69 41 70 42 71 46 72 49 73 43 74 44 75 47 76
REMARK SMILES IDX 45 77 71 78 72 79 80 80 73 81 74 82 78 83 81 84 75 85 76 86
REMARK SMILES IDX 79 87 77 88 56 89 57 90 65 91 58 92 59 93 63 94 66 95 60 96
REMARK SMILES IDX 61 97 64 98 62 99
REMARK H PARENT 5 18 8 20 86 52 54 63
REMARK Flexibility Score: inf
ROOT
ATOM      1  C   UNL     1      -4.681   1.795   3.911  1.00  0.00     0.188 C 
ENDROOT
BRANCH   1   2
ATOM      2  O   UNL     1      -6.066   2.106   3.766  1.00  0.00    -0.376 OA
BRANCH   2   3
ATOM      3  C   UNL     1      -7.000   1.088   3.451  1.00  0.00     0.202 C 
BRANCH   3   4
ATOM      4  C   UNL     1      -7.261   0.940   1.950  1.00  0.00     0.261 C 
BRANCH   4   5
ATOM      5  O   UNL     1      -6.062   0.759   1.171  1.00  0.00    -0.460 OA
BRANCH   5   6
ATOM      6  C   UNL     1      -5.525   1.917   0.677  1.00  0.00     0.341 C 
ATOM      7  O   UNL     1      -6.030   3.023   0.837  1.00  0.00    -0.246 OA
BRANCH   6   8
ATOM      8  C   UNL     1      -4.274   1.736  -0.070  1.00  0.00     0.098 A 
ATOM      9  C   UNL     1      -3.720   0.538  -0.503  1.00  0.00     0.112 A 
ATOM     10  S   UNL     1      -2.586   0.819  -1.746  1.00  0.00    -0.122 S 
ATOM     11  C   UNL     1      -2.319   2.410  -1.199  1.00  0.00     0.007 A 
ATOM     12  C   UNL     1      -3.323   2.816  -0.334  1.00  0.00    -0.021 A 
ATOM     13  C   UNL     1      -1.123   3.164  -1.674  1.00  0.00     0.057 C 
ATOM     14  C   UNL     1      -3.391   4.170   0.307  1.00  0.00     0.046 C 
BRANCH   9  15
ATOM     15  N   UNL     1      -4.048  -0.760  -0.160  1.00  0.00    -0.298 N 
ATOM     16  N   UNL     1      -1.996  -1.997  -0.351  1.00  0.00    -0.308 N 
ATOM     17  C   UNL     1      -3.352  -1.915  -0.323  1.00  0.00     0.324 C 
ATOM     18  H   UNL     1      -1.665  -2.783  -0.843  1.00  0.00     0.171 HD
ATOM     19  O   UNL     1      -3.989  -2.969  -0.425  1.00  0.00    -0.248 OA
ATOM     20  H   UNL     1      -4.926  -0.864   0.271  1.00  0.00     0.172 HD
BRANCH  16  21
ATOM     21  C   UNL     1      -0.959  -1.195   0.175  1.00  0.00     0.046 A 
ATOM     22  C   UNL     1       2.772  -0.767  -0.347  1.00  0.00     0.067 C 
ATOM     23  C   UNL     1       1.371  -0.586   0.155  1.00  0.00     0.039 A 
ATOM     24  C   UNL     1       0.343  -1.423  -0.279  1.00  0.00     0.049 A 
ATOM     25  N   UNL     1       1.157   0.456   0.988  1.00  0.00    -0.261 NA
ATOM     26  C   UNL     1      -0.098   0.627   1.440  1.00  0.00     0.113 A 
ATOM     27  C   UNL     1      -1.163  -0.190   1.109  1.00  0.00     0.046 A 
ENDBRANCH  16  21
ENDBRANCH   9  15
ENDBRANCH   6   8
ENDBRANCH   5   6
ENDBRANCH   4   5
ENDBRANCH   3   4
ENDBRANCH   2   3
ENDBRANCH   1   2
BRANCH   1  28
ATOM     28  C   UNL     1      -4.141   0.380   3.659  1.00  0.00     0.188 C 
BRANCH  28  29
ATOM     29  O   UNL     1      -4.796  -0.616   4.435  1.00  0.00    -0.376 OA
BRANCH  29  30
ATOM     30  C   UNL     1      -3.970  -1.317   5.359  1.00  0.00     0.202 C 
BRANCH  30  31
ATOM     31  C   UNL     1      -3.907  -0.591   6.707  1.00  0.00     0.261 C 
BRANCH  31  32
ATOM     32  O   UNL     1      -3.244   0.684   6.644  1.00  0.00    -0.460 OA
BRANCH  32  33
ATOM     33  C   UNL     1      -1.924   0.647   6.362  1.00  0.00     0.338 C 
ATOM     34  O   UNL     1      -1.237  -0.342   6.179  1.00  0.00    -0.246 OA
BRANCH  33  35
ATOM     35  C   UNL     1      -1.458   2.027   6.129  1.00  0.00     0.060 A 
ATOM     36  C   UNL     1      -0.706   2.280   4.978  1.00  0.00     0.016 A 
ATOM     37  C   UNL     1      -1.728   3.052   7.038  1.00  0.00     0.016 A 
ATOM     38  C   UNL     1      -0.206   3.559   4.734  1.00  0.00     0.010 A 
ATOM     39  C   UNL     1      -1.206   4.327   6.808  1.00  0.00     0.010 A 
ATOM     40  C   UNL     1      -0.425   4.581   5.667  1.00  0.00    -0.014 A 
BRANCH  40  41
ATOM     41  C   UNL     1       0.300   5.867   5.543  1.00  0.00     0.031 A 
ATOM     42  C   UNL     1       1.633   6.011   6.221  1.00  0.00     0.074 A 
ATOM     43  C   UNL     1      -0.218   6.893   4.847  1.00  0.00     0.049 A 
ATOM     44  N   UNL     1       2.423   7.052   6.290  1.00  0.00    -0.248 NA
ATOM     45  C   UNL     1       2.143   4.818   6.915  1.00  0.00     0.031 C 
ATOM     46  C   UNL     1      -1.483   6.870   4.119  1.00  0.00     0.029 A 
ATOM     47  N   UNL     1       0.263   8.164   4.653  1.00  0.00    -0.354 N 
ATOM     48  C   UNL     1       3.524   6.639   7.026  1.00  0.00     0.074 A 
ATOM     49  C   UNL     1       3.290   5.262   7.407  1.00  0.00     0.031 C 
ATOM     50  C   UNL     1      -1.688   8.079   3.567  1.00  0.00     0.029 A 
ATOM     51  C   UNL     1      -0.580   8.965   3.925  1.00  0.00     0.049 A 
ATOM     52  H   UNL     1       1.131   8.471   5.003  1.00  0.00     0.167 HD
ATOM     53  C   UNL     1       4.635   7.340   7.351  1.00  0.00     0.037 A 
ATOM     54  C   UNL     1      -0.475  10.269   3.605  1.00  0.00     0.037 A 
ATOM     55  C   UNL     1       4.866   8.714   6.994  1.00  0.00     0.049 A 
ATOM     56  C   UNL     1       0.729  11.055   4.058  1.00  0.00     0.074 A 
ATOM     57  C   UNL     1       5.966   9.506   7.271  1.00  0.00     0.029 A 
ATOM     58  N   UNL     1       3.970   9.504   6.290  1.00  0.00    -0.354 N 
ATOM     59  N   UNL     1       1.780  10.650   4.728  1.00  0.00    -0.248 NA
ATOM     60  C   UNL     1       0.756  12.484   3.710  1.00  0.00     0.031 C 
ATOM     61  C   UNL     1       5.717  10.789   6.770  1.00  0.00     0.029 A 
ATOM     62  C   UNL     1       4.481  10.783   6.146  1.00  0.00     0.049 A 
ATOM     63  H   UNL     1       3.099   9.200   5.944  1.00  0.00     0.167 HD
ATOM     64  C   UNL     1       2.602  11.762   4.859  1.00  0.00     0.074 A 
ATOM     65  C   UNL     1       1.933  12.859   4.192  1.00  0.00     0.031 C 
ATOM     66  C   UNL     1       3.806  11.863   5.474  1.00  0.00     0.037 A 
BRANCH  53  67
ATOM     67  C   UNL     1       5.679   6.630   8.157  1.00  0.00     0.064 A 
ATOM     68  C   UNL     1       6.508   5.655   7.582  1.00  0.00     0.173 A 
ATOM     69  C   UNL     1       5.861   6.934   9.513  1.00  0.00     0.173 A 
ATOM     70  F   UNL     1       6.359   5.318   6.292  1.00  0.00    -0.203 F 
ATOM     71  C   UNL     1       7.468   4.995   8.343  1.00  0.00     0.198 A 
ATOM     72  C   UNL     1       6.837   6.288  10.266  1.00  0.00     0.198 A 
ATOM     73  F   UNL     1       5.092   7.858  10.108  1.00  0.00    -0.203 F 
ATOM     74  F   UNL     1       8.221   4.037   7.785  1.00  0.00    -0.200 F 
ATOM     75  C   UNL     1       7.635   5.315   9.682  1.00  0.00     0.200 A 
ATOM     76  F   UNL     1       7.001   6.601  11.558  1.00  0.00    -0.200 F 
ATOM     77  F   UNL     1       8.559   4.678  10.414  1.00  0.00    -0.200 F 
ENDBRANCH  53  67
BRANCH  54  78
ATOM     78  C   UNL     1      -1.547  10.928   2.817  1.00  0.00     0.064 A 
ATOM     79  C   UNL     1      -1.327  11.319   1.490  1.00  0.00     0.173 A 
ATOM     80  C   UNL     1      -2.800  11.204   3.383  1.00  0.00     0.173 A 
ATOM     81  F   UNL     1      -0.133  11.102   0.918  1.00  0.00    -0.203 F 
ATOM     82  C   UNL     1      -2.316  11.975   0.760  1.00  0.00     0.198 A 
ATOM     83  C   UNL     1      -3.796  11.840   2.645  1.00  0.00     0.198 A 
ATOM     84  F   UNL     1      -3.055  10.857   4.653  1.00  0.00    -0.203 F 
ATOM     85  F   UNL     1      -2.066  12.376  -0.493  1.00  0.00    -0.200 F 
ATOM     86  C   UNL     1      -3.551  12.231   1.337  1.00  0.00     0.200 A 
ATOM     87  F   UNL     1      -4.989  12.083   3.205  1.00  0.00    -0.200 F 
ATOM     88  F   UNL     1      -4.502  12.864   0.636  1.00  0.00    -0.200 F 
ENDBRANCH  54  78
BRANCH  66  89
ATOM     89  C   UNL     1       4.495  13.195   5.430  1.00  0.00     0.064 A 
ATOM     90  C   UNL     1       4.067  14.270   6.223  1.00  0.00     0.173 A 
ATOM     91  C   UNL     1       5.627  13.383   4.622  1.00  0.00     0.173 A 
ATOM     92  F   UNL     1       2.982  14.144   7.000  1.00  0.00    -0.203 F 
ATOM     93  C   UNL     1       4.737  15.490   6.194  1.00  0.00     0.198 A 
ATOM     94  C   UNL     1       6.309  14.597   4.614  1.00  0.00     0.198 A 
ATOM     95  F   UNL     1       6.079  12.384   3.849  1.00  0.00    -0.203 F 
ATOM     96  F   UNL     1       4.290  16.515   6.933  1.00  0.00    -0.200 F 
ATOM     97  C   UNL     1       5.861  15.650   5.396  1.00  0.00     0.200 A 
ATOM     98  F   UNL     1       7.400  14.746   3.850  1.00  0.00    -0.200 F 
ATOM     99  F   UNL     1       6.509  16.823   5.377  1.00  0.00    -0.200 F 
ENDBRANCH  66  89
ENDBRANCH  40  41
ENDBRANCH  33  35
ENDBRANCH  32  33
ENDBRANCH  31  32
ENDBRANCH  30  31
ENDBRANCH  29  30
ENDBRANCH  28  29
ENDBRANCH   1  28
TORSDOF 19
