REMARK SMILES COc1ccc(/C=C(\CCC(=O)OCCOCCOCCOC(=O)c2ccc(-c3c4nc(c(-c5c(F)c(F)c(F)c(F)c5F)c5ccc([nH]5)c(-c5c(F)c(F)c(F)c(F)c5F)c5nc(c(-c6c(F)c(F)c(F)c(F)c6F)c6ccc3[nH]6)C=C5)C=C4)cc2)c2nc3ccccc3s2)cc1F
REMARK SMILES IDX 17 1 16 2 15 3 14 4 13 5 11 6 12 7 10 8 9 9 8 10 7 11 6 12
REMARK SMILES IDX 3 13 4 14 98 15 5 16 97 17 99 18 2 19 1 20 88 21 89 22 96 23
REMARK SMILES IDX 90 24 95 25 91 26 94 27 92 28 93 29 18 30 19 31 20 32 21 33
REMARK SMILES IDX 22 34 23 35 24 36 25 37 26 38 87 39 27 40 86 41 28 42 29 43
REMARK SMILES IDX 30 44 80 45 31 46 85 47 79 48 81 49 32 50 84 51 78 52 77 53
REMARK SMILES IDX 33 55 65 56 45 57 64 58 46 59 49 60 63 61 82 62 47 63 48 64
REMARK SMILES IDX 62 66 83 67 50 68 34 69 35 70 43 71 36 72 37 73 41 74 44 75
REMARK SMILES IDX 38 76 39 77 42 78 40 79 66 80 67 81 75 82 68 83 69 84 73 85
REMARK SMILES IDX 76 86 70 87 71 88 74 89 72 90 51 91 52 92 60 93 53 94 54 95
REMARK SMILES IDX 58 96 61 97 55 98 56 99 59 100 57 101
REMARK H PARENT 81 54 49 65
REMARK Flexibility Score: inf
ROOT
ATOM      1  C   UNL     1      -2.489   6.918   6.880  1.00  0.00     0.188 C 
ENDROOT
BRANCH   1   2
ATOM      2  O   UNL     1      -3.074   7.076   8.169  1.00  0.00    -0.376 OA
BRANCH   2   3
ATOM      3  C   UNL     1      -2.173   6.707   9.212  1.00  0.00     0.202 C 
BRANCH   3   4
ATOM      4  C   UNL     1      -2.138   5.191   9.470  1.00  0.00     0.261 C 
BRANCH   4   5
ATOM      5  O   UNL     1      -1.368   4.482   8.479  1.00  0.00    -0.463 OA
BRANCH   5   6
ATOM      6  C   UNL     1      -2.034   3.879   7.469  1.00  0.00     0.306 C 
ATOM      7  O   UNL     1      -3.252   3.796   7.378  1.00  0.00    -0.252 OA
BRANCH   6   8
ATOM      8  C   UNL     1      -1.088   3.330   6.425  1.00  0.00     0.127 C 
BRANCH   8   9
ATOM      9  C   UNL     1      -0.451   4.350   5.473  1.00  0.00     0.050 C 
BRANCH   9  10
ATOM     10  C   UNL     1       1.016   4.813   5.634  1.00  0.00    -0.011 C 
ATOM     11  C   UNL     1       1.925   4.579   4.646  1.00  0.00     0.015 C 
BRANCH  11  12
ATOM     12  C   UNL     1       1.733   3.896   3.349  1.00  0.00    -0.022 A 
ATOM     13  C   UNL     1       1.324   2.361   1.024  1.00  0.00     0.154 A 
ATOM     14  C   UNL     1       0.434   3.380   1.354  1.00  0.00     0.050 A 
ATOM     15  C   UNL     1       2.480   2.204   1.788  1.00  0.00     0.165 A 
ATOM     16  C   UNL     1       0.659   4.167   2.489  1.00  0.00     0.012 A 
ATOM     17  C   UNL     1       2.684   2.956   2.944  1.00  0.00     0.051 A 
ATOM     18  F   UNL     1       3.427   1.322   1.437  1.00  0.00    -0.203 F 
BRANCH  13  19
ATOM     19  O   UNL     1       0.990   1.611  -0.071  1.00  0.00    -0.494 OA
ATOM     20  C   UNL     1       1.285   0.222   0.070  1.00  0.00     0.278 C 
ENDBRANCH  13  19
ENDBRANCH  11  12
BRANCH  10  21
ATOM     21  C   UNL     1       1.476   5.614   6.771  1.00  0.00     0.120 A 
ATOM     22  N   UNL     1       1.088   5.487   8.027  1.00  0.00    -0.236 NA
ATOM     23  S   UNL     1       2.595   6.946   6.559  1.00  0.00    -0.114 S 
ATOM     24  C   UNL     1       1.504   6.562   8.809  1.00  0.00     0.082 A 
ATOM     25  C   UNL     1       2.316   7.487   8.164  1.00  0.00     0.055 A 
ATOM     26  C   UNL     1       1.122   6.828  10.145  1.00  0.00     0.030 A 
ATOM     27  C   UNL     1       2.748   8.670   8.795  1.00  0.00     0.021 A 
ATOM     28  C   UNL     1       1.455   8.049  10.745  1.00  0.00     0.002 A 
ATOM     29  C   UNL     1       2.260   8.960  10.074  1.00  0.00     0.002 A 
ENDBRANCH  10  21
ENDBRANCH   9  10
ENDBRANCH   8   9
ENDBRANCH   6   8
ENDBRANCH   5   6
ENDBRANCH   4   5
ENDBRANCH   3   4
ENDBRANCH   2   3
ENDBRANCH   1   2
BRANCH   1  30
ATOM     30  C   UNL     1      -1.980   8.224   6.313  1.00  0.00     0.188 C 
BRANCH  30  31
ATOM     31  O   UNL     1      -0.589   8.444   6.544  1.00  0.00    -0.376 OA
BRANCH  31  32
ATOM     32  C   UNL     1      -0.272   9.744   7.038  1.00  0.00     0.202 C 
BRANCH  32  33
ATOM     33  C   UNL     1      -0.497  10.937   6.094  1.00  0.00     0.261 C 
BRANCH  33  34
ATOM     34  O   UNL     1      -1.831  10.982   5.569  1.00  0.00    -0.460 OA
BRANCH  34  35
ATOM     35  C   UNL     1      -1.959  10.522   4.299  1.00  0.00     0.338 C 
ATOM     36  O   UNL     1      -1.059  10.294   3.506  1.00  0.00    -0.246 OA
BRANCH  35  37
ATOM     37  C   UNL     1      -3.358  10.084   4.074  1.00  0.00     0.060 A 
ATOM     38  C   UNL     1      -3.553   8.928   3.300  1.00  0.00     0.016 A 
ATOM     39  C   UNL     1      -4.451  10.736   4.653  1.00  0.00     0.016 A 
ATOM     40  C   UNL     1      -4.836   8.462   3.046  1.00  0.00     0.010 A 
ATOM     41  C   UNL     1      -5.744  10.285   4.376  1.00  0.00     0.010 A 
ATOM     42  C   UNL     1      -5.936   9.183   3.524  1.00  0.00    -0.014 A 
BRANCH  42  43
ATOM     43  C   UNL     1      -7.241   8.972   2.862  1.00  0.00     0.031 A 
ATOM     44  C   UNL     1      -7.562   9.854   1.687  1.00  0.00     0.074 A 
ATOM     45  C   UNL     1      -8.072   7.983   3.227  1.00  0.00     0.049 A 
ATOM     46  N   UNL     1      -8.610   9.856   0.905  1.00  0.00    -0.248 NA
ATOM     47  C   UNL     1      -6.556  10.874   1.343  1.00  0.00     0.031 C 
ATOM     48  C   UNL     1      -7.833   7.034   4.310  1.00  0.00     0.029 A 
ATOM     49  N   UNL     1      -9.286   7.611   2.708  1.00  0.00    -0.354 N 
ATOM     50  C   UNL     1      -8.386  10.872  -0.015  1.00  0.00     0.074 A 
ATOM     51  C   UNL     1      -7.127  11.492   0.323  1.00  0.00     0.031 C 
ATOM     52  C   UNL     1      -8.871   6.181   4.374  1.00  0.00     0.029 A 
ATOM     53  C   UNL     1      -9.854   6.542   3.352  1.00  0.00     0.049 A 
ATOM     54  H   UNL     1      -9.709   8.068   1.945  1.00  0.00     0.167 HD
ATOM     55  C   UNL     1      -9.157  11.244  -1.061  1.00  0.00     0.037 A 
ATOM     56  C   UNL     1     -11.037   5.933   3.138  1.00  0.00     0.037 A 
ATOM     57  C   UNL     1     -10.409  10.622  -1.391  1.00  0.00     0.049 A 
ATOM     58  C   UNL     1     -11.916   6.409   2.009  1.00  0.00     0.074 A 
ATOM     59  C   UNL     1     -11.272  10.921  -2.427  1.00  0.00     0.029 A 
ATOM     60  N   UNL     1     -10.979   9.575  -0.679  1.00  0.00    -0.354 N 
ATOM     61  N   UNL     1     -11.700   7.366   1.138  1.00  0.00    -0.248 NA
ATOM     62  C   UNL     1     -13.197   5.713   1.827  1.00  0.00     0.031 C 
ATOM     63  C   UNL     1     -12.394  10.096  -2.309  1.00  0.00     0.029 A 
ATOM     64  C   UNL     1     -12.197   9.232  -1.242  1.00  0.00     0.049 A 
ATOM     65  H   UNL     1     -10.577   9.141   0.107  1.00  0.00     0.167 HD
ATOM     66  C   UNL     1     -12.800   7.370   0.289  1.00  0.00     0.074 A 
ATOM     67  C   UNL     1     -13.678   6.312   0.745  1.00  0.00     0.031 C 
ATOM     68  C   UNL     1     -13.055   8.172  -0.775  1.00  0.00     0.037 A 
BRANCH  55  69
ATOM     69  C   UNL     1      -8.681  12.393  -1.899  1.00  0.00     0.064 A 
ATOM     70  C   UNL     1      -9.368  13.616  -1.877  1.00  0.00     0.173 A 
ATOM     71  C   UNL     1      -7.564  12.284  -2.742  1.00  0.00     0.173 A 
ATOM     72  F   UNL     1     -10.438  13.776  -1.084  1.00  0.00    -0.203 F 
ATOM     73  C   UNL     1      -8.964  14.681  -2.677  1.00  0.00     0.198 A 
ATOM     74  C   UNL     1      -7.142  13.362  -3.516  1.00  0.00     0.198 A 
ATOM     75  F   UNL     1      -6.856  11.145  -2.782  1.00  0.00    -0.203 F 
ATOM     76  F   UNL     1      -9.653  15.830  -2.659  1.00  0.00    -0.200 F 
ATOM     77  C   UNL     1      -7.848  14.555  -3.491  1.00  0.00     0.200 A 
ATOM     78  F   UNL     1      -6.044  13.250  -4.277  1.00  0.00    -0.200 F 
ATOM     79  F   UNL     1      -7.449  15.588  -4.246  1.00  0.00    -0.200 F 
ENDBRANCH  55  69
BRANCH  56  80
ATOM     80  C   UNL     1     -11.436   4.792   4.003  1.00  0.00     0.064 A 
ATOM     81  C   UNL     1     -11.750   4.982   5.357  1.00  0.00     0.173 A 
ATOM     82  C   UNL     1     -11.474   3.484   3.503  1.00  0.00     0.173 A 
ATOM     83  F   UNL     1     -11.736   6.216   5.882  1.00  0.00    -0.203 F 
ATOM     84  C   UNL     1     -12.057   3.904   6.184  1.00  0.00     0.198 A 
ATOM     85  C   UNL     1     -11.806   2.408   4.325  1.00  0.00     0.198 A 
ATOM     86  F   UNL     1     -11.210   3.253   2.208  1.00  0.00    -0.203 F 
ATOM     87  F   UNL     1     -12.318   4.110   7.482  1.00  0.00    -0.200 F 
ATOM     88  C   UNL     1     -12.086   2.618   5.667  1.00  0.00     0.200 A 
ATOM     89  F   UNL     1     -11.860   1.170   3.816  1.00  0.00    -0.200 F 
ATOM     90  F   UNL     1     -12.387   1.581   6.461  1.00  0.00    -0.200 F 
ENDBRANCH  56  80
BRANCH  68  91
ATOM     91  C   UNL     1     -14.317   7.925  -1.552  1.00  0.00     0.064 A 
ATOM     92  C   UNL     1     -14.253   7.446  -2.871  1.00  0.00     0.173 A 
ATOM     93  C   UNL     1     -15.580   8.238  -1.029  1.00  0.00     0.173 A 
ATOM     94  F   UNL     1     -13.068   7.146  -3.425  1.00  0.00    -0.203 F 
ATOM     95  C   UNL     1     -15.404   7.304  -3.640  1.00  0.00     0.198 A 
ATOM     96  C   UNL     1     -16.733   8.061  -1.790  1.00  0.00     0.198 A 
ATOM     97  F   UNL     1     -15.697   8.693   0.227  1.00  0.00    -0.203 F 
ATOM     98  F   UNL     1     -15.312   6.884  -4.910  1.00  0.00    -0.200 F 
ATOM     99  C   UNL     1     -16.643   7.605  -3.097  1.00  0.00     0.200 A 
ATOM    100  F   UNL     1     -17.933   8.329  -1.257  1.00  0.00    -0.200 F 
ATOM    101  F   UNL     1     -17.753   7.453  -3.833  1.00  0.00    -0.200 F 
ENDBRANCH  68  91
ENDBRANCH  42  43
ENDBRANCH  35  37
ENDBRANCH  34  35
ENDBRANCH  33  34
ENDBRANCH  32  33
ENDBRANCH  31  32
ENDBRANCH  30  31
ENDBRANCH   1  30
TORSDOF 22
