REMARK SMILES C[C@]12CC[C@@H]3[C@@H](CCC4=C/C(=N\OCC(=O)N5CCC[C@@H]5C(=O)OCCOCCOCCOC(=O)c5ccc(-c6c7nc(c(-c8c(F)c(F)c(F)c(F)c8F)c8ccc([nH]8)c(-c8c(F)c(F)c(F)c(F)c8F)c8nc(c(-c9c(F)c(F)c(F)c(F)c9F)c9ccc6[nH]9)C=C8)C=C7)cc5)CC[C@@]43C)[C@@H]1CC[C@@H]2O
REMARK SMILES IDX 27 1 26 2 25 3 24 4 22 5 23 6 21 7 17 8 18 9 19 10 20 11
REMARK SMILES IDX 15 12 16 13 14 14 13 15 12 16 1 17 2 18 3 19 103 20 106 21
REMARK SMILES IDX 4 22 6 23 104 24 105 25 5 26 7 27 101 28 8 29 9 30 100 31
REMARK SMILES IDX 102 32 10 33 99 34 11 35 107 36 28 38 29 39 30 40 31 41
REMARK SMILES IDX 32 42 33 43 34 44 35 45 36 46 37 47 98 48 38 49 97 50 39 51
REMARK SMILES IDX 40 52 41 53 91 54 42 55 96 56 90 57 92 58 43 59 95 60 89 61
REMARK SMILES IDX 88 62 44 64 76 65 56 66 75 67 57 68 60 69 74 70 93 71 58 72
REMARK SMILES IDX 59 73 73 75 94 76 61 77 45 78 46 79 54 80 47 81 48 82 52 83
REMARK SMILES IDX 55 84 49 85 50 86 53 87 51 88 77 89 78 90 86 91 79 92 80 93
REMARK SMILES IDX 84 94 87 95 81 96 82 97 85 98 83 99 62 100 63 101 71 102
REMARK SMILES IDX 64 103 65 104 69 105 72 106 66 107 67 108 70 109 68 110
REMARK H PARENT 107 37 92 63 60 74
REMARK Flexibility Score: inf
ROOT
ATOM      1  O   UNL     1       3.053   8.539   2.700  1.00  0.00    -0.376 OA
ENDROOT
BRANCH   1   2
ATOM      2  C   UNL     1       2.034   7.575   2.839  1.00  0.00     0.202 C 
BRANCH   2   3
ATOM      3  C   UNL     1       1.890   6.806   4.157  1.00  0.00     0.261 C 
BRANCH   3   4
ATOM      4  O   UNL     1       2.575   7.215   5.340  1.00  0.00    -0.462 OA
BRANCH   4   5
ATOM      5  C   UNL     1       3.639   6.529   5.817  1.00  0.00     0.328 C 
ATOM      6  O   UNL     1       4.282   5.681   5.215  1.00  0.00    -0.250 OA
BRANCH   5   7
ATOM      7  C   UNL     1       3.997   7.018   7.226  1.00  0.00     0.195 C 
ATOM      8  N   UNL     1       3.016   7.898   7.866  1.00  0.00    -0.326 N 
ATOM      9  C   UNL     1       3.620   9.141   8.316  1.00  0.00     0.120 C 
ATOM     10  C   UNL     1       4.876   9.299   7.487  1.00  0.00     0.024 C 
ATOM     11  C   UNL     1       5.282   7.869   7.138  1.00  0.00     0.039 C 
BRANCH   8  12
ATOM     12  C   UNL     1       1.705   7.613   8.187  1.00  0.00     0.264 C 
ATOM     13  O   UNL     1       1.001   8.498   8.696  1.00  0.00    -0.271 OA
BRANCH  12  14
ATOM     14  C   UNL     1       1.104   6.180   8.042  1.00  0.00     0.363 C 
BRANCH  14  15
ATOM     15  O   UNL     1       1.560   5.148   7.167  1.00  0.00    -0.385 OA
BRANCH  15  16
ATOM     16  N   UNL     1       0.612   5.003   6.143  1.00  0.00    -0.091 NA
ATOM     17  C   UNL     1       0.105   0.261  -0.940  1.00  0.00     0.014 C 
ATOM     18  C   UNL     1      -0.141   0.920   0.454  1.00  0.00    -0.003 C 
ATOM     19  C   UNL     1      -0.121   2.416   0.142  1.00  0.00     0.010 C 
ATOM     20  C   UNL     1       0.828   0.417   1.574  1.00  0.00     0.001 C 
ATOM     21  C   UNL     1      -1.415   0.411   1.147  1.00  0.00     0.120 C 
ATOM     22  C   UNL     1       1.317   2.933   0.084  1.00  0.00     0.005 C 
ATOM     23  C   UNL     1       2.254   0.911   1.418  1.00  0.00    -0.003 C 
ATOM     24  C   UNL     1       0.456  -1.081   1.633  1.00  0.00     0.007 C 
ATOM     25  C   UNL     1      -1.081  -1.076   1.341  1.00  0.00     0.032 C 
ATOM     26  C   UNL     1       2.234   2.439   1.234  1.00  0.00     0.002 C 
ATOM     27  C   UNL     1       3.265   0.586   2.538  1.00  0.00     0.008 C 
ATOM     28  C   UNL     1       2.072   3.295   2.578  1.00  0.00    -0.008 C 
ATOM     29  C   UNL     1       3.155   1.333   3.881  1.00  0.00     0.032 C 
ATOM     30  C   UNL     1       2.366   2.611   3.912  1.00  0.00    -0.062 C 
ATOM     31  C   UNL     1       0.606   3.810   2.703  1.00  0.00     0.018 C 
ATOM     32  C   UNL     1       3.166   4.369   2.321  1.00  0.00     0.016 C 
ATOM     33  C   UNL     1       1.925   3.086   5.110  1.00  0.00     0.027 C 
ATOM     34  C   UNL     1      -0.026   4.260   4.010  1.00  0.00     0.061 C 
ATOM     35  C   UNL     1       0.887   4.154   5.202  1.00  0.00     0.080 C 
BRANCH  21  36
ATOM     36  O   UNL     1      -2.607   0.696   0.466  1.00  0.00    -0.393 OA
ATOM     37  H   UNL     1      -2.573   0.307  -0.422  1.00  0.00     0.210 HD
ENDBRANCH  21  36
ENDBRANCH  15  16
ENDBRANCH  14  15
ENDBRANCH  12  14
ENDBRANCH   8  12
ENDBRANCH   5   7
ENDBRANCH   4   5
ENDBRANCH   3   4
ENDBRANCH   2   3
ENDBRANCH   1   2
BRANCH   1  38
ATOM     38  C   UNL     1       3.390   9.271   3.864  1.00  0.00     0.188 C 
BRANCH  38  39
ATOM     39  C   UNL     1       2.257   9.829   4.775  1.00  0.00     0.188 C 
BRANCH  39  40
ATOM     40  O   UNL     1       0.975   9.292   4.510  1.00  0.00    -0.376 OA
BRANCH  40  41
ATOM     41  C   UNL     1      -0.031  10.161   4.032  1.00  0.00     0.202 C 
BRANCH  41  42
ATOM     42  C   UNL     1       0.220  10.905   2.709  1.00  0.00     0.261 C 
BRANCH  42  43
ATOM     43  O   UNL     1       1.566  11.338   2.457  1.00  0.00    -0.460 OA
BRANCH  43  44
ATOM     44  C   UNL     1       1.994  12.461   3.089  1.00  0.00     0.338 C 
ATOM     45  O   UNL     1       1.363  13.165   3.839  1.00  0.00    -0.246 OA
BRANCH  44  46
ATOM     46  C   UNL     1       3.468  12.526   2.900  1.00  0.00     0.060 A 
ATOM     47  C   UNL     1       4.306  12.446   4.027  1.00  0.00     0.016 A 
ATOM     48  C   UNL     1       4.016  12.555   1.617  1.00  0.00     0.016 A 
ATOM     49  C   UNL     1       5.691  12.354   3.870  1.00  0.00     0.010 A 
ATOM     50  C   UNL     1       5.404  12.546   1.464  1.00  0.00     0.010 A 
ATOM     51  C   UNL     1       6.246  12.460   2.589  1.00  0.00    -0.014 A 
BRANCH  51  52
ATOM     52  C   UNL     1       7.677  12.810   2.441  1.00  0.00     0.031 A 
ATOM     53  C   UNL     1       8.013  14.275   2.463  1.00  0.00     0.074 A 
ATOM     54  C   UNL     1       8.640  11.889   2.268  1.00  0.00     0.049 A 
ATOM     55  N   UNL     1       9.139  14.879   2.197  1.00  0.00    -0.248 NA
ATOM     56  C   UNL     1       6.912  15.183   2.831  1.00  0.00     0.031 C 
ATOM     57  C   UNL     1       8.452  10.442   2.306  1.00  0.00     0.029 A 
ATOM     58  N   UNL     1       9.979  12.050   2.003  1.00  0.00    -0.354 N 
ATOM     59  C   UNL     1       8.876  16.234   2.347  1.00  0.00     0.074 A 
ATOM     60  C   UNL     1       7.486  16.368   2.714  1.00  0.00     0.031 C 
ATOM     61  C   UNL     1       9.629   9.845   2.042  1.00  0.00     0.029 A 
ATOM     62  C   UNL     1      10.638  10.868   1.768  1.00  0.00     0.049 A 
ATOM     63  H   UNL     1      10.423  12.929   1.983  1.00  0.00     0.167 HD
ATOM     64  C   UNL     1       9.720  17.277   2.186  1.00  0.00     0.037 A 
ATOM     65  C   UNL     1      11.899  10.652   1.339  1.00  0.00     0.037 A 
ATOM     66  C   UNL     1      11.096  17.137   1.799  1.00  0.00     0.049 A 
ATOM     67  C   UNL     1      12.795  11.837   1.059  1.00  0.00     0.074 A 
ATOM     68  C   UNL     1      12.039  18.127   1.599  1.00  0.00     0.029 A 
ATOM     69  N   UNL     1      11.718  15.925   1.540  1.00  0.00    -0.354 N 
ATOM     70  N   UNL     1      12.548  13.117   1.201  1.00  0.00    -0.248 NA
ATOM     71  C   UNL     1      14.145  11.546   0.550  1.00  0.00     0.031 C 
ATOM     72  C   UNL     1      13.217  17.518   1.158  1.00  0.00     0.029 A 
ATOM     73  C   UNL     1      13.029  16.144   1.155  1.00  0.00     0.049 A 
ATOM     74  H   UNL     1      11.291  15.041   1.618  1.00  0.00     0.167 HD
ATOM     75  C   UNL     1      13.717  13.779   0.840  1.00  0.00     0.074 A 
ATOM     76  C   UNL     1      14.675  12.759   0.473  1.00  0.00     0.031 C 
ATOM     77  C   UNL     1      13.975  15.110   0.819  1.00  0.00     0.037 A 
BRANCH  64  78
ATOM     78  C   UNL     1       9.157  18.654   2.375  1.00  0.00     0.064 A 
ATOM     79  C   UNL     1       8.767  19.129   3.637  1.00  0.00     0.173 A 
ATOM     80  C   UNL     1       9.008  19.512   1.275  1.00  0.00     0.173 A 
ATOM     81  F   UNL     1       8.865  18.338   4.716  1.00  0.00    -0.203 F 
ATOM     82  C   UNL     1       8.223  20.402   3.785  1.00  0.00     0.198 A 
ATOM     83  C   UNL     1       8.497  20.796   1.433  1.00  0.00     0.198 A 
ATOM     84  F   UNL     1       9.360  19.105   0.046  1.00  0.00    -0.203 F 
ATOM     85  F   UNL     1       7.803  20.813   4.989  1.00  0.00    -0.200 F 
ATOM     86  C   UNL     1       8.097  21.237   2.685  1.00  0.00     0.200 A 
ATOM     87  F   UNL     1       8.385  21.606   0.370  1.00  0.00    -0.200 F 
ATOM     88  F   UNL     1       7.579  22.465   2.830  1.00  0.00    -0.200 F 
ENDBRANCH  64  78
BRANCH  65  89
ATOM     89  C   UNL     1      12.388   9.264   1.108  1.00  0.00     0.064 A 
ATOM     90  C   UNL     1      13.420   8.721   1.887  1.00  0.00     0.173 A 
ATOM     91  C   UNL     1      11.862   8.465   0.082  1.00  0.00     0.173 A 
ATOM     92  F   UNL     1      13.980   9.455   2.861  1.00  0.00    -0.203 F 
ATOM     93  C   UNL     1      13.918   7.444   1.637  1.00  0.00     0.198 A 
ATOM     94  C   UNL     1      12.339   7.175  -0.147  1.00  0.00     0.198 A 
ATOM     95  F   UNL     1      10.881   8.937  -0.702  1.00  0.00    -0.203 F 
ATOM     96  F   UNL     1      14.942   6.972   2.362  1.00  0.00    -0.200 F 
ATOM     97  C   UNL     1      13.373   6.669   0.625  1.00  0.00     0.200 A 
ATOM     98  F   UNL     1      11.803   6.427  -1.121  1.00  0.00    -0.200 F 
ATOM     99  F   UNL     1      13.852   5.441   0.385  1.00  0.00    -0.200 F 
ENDBRANCH  65  89
BRANCH  77 100
ATOM    100  C   UNL     1      15.363  15.553   0.453  1.00  0.00     0.064 A 
ATOM    101  C   UNL     1      15.842  15.484  -0.862  1.00  0.00     0.173 A 
ATOM    102  C   UNL     1      16.189  16.143   1.424  1.00  0.00     0.173 A 
ATOM    103  F   UNL     1      15.097  14.920  -1.824  1.00  0.00    -0.203 F 
ATOM    104  C   UNL     1      17.103  15.978  -1.190  1.00  0.00     0.198 A 
ATOM    105  C   UNL     1      17.433  16.666   1.086  1.00  0.00     0.198 A 
ATOM    106  F   UNL     1      15.773  16.244   2.695  1.00  0.00    -0.203 F 
ATOM    107  F   UNL     1      17.555  15.872  -2.447  1.00  0.00    -0.200 F 
ATOM    108  C   UNL     1      17.891  16.579  -0.220  1.00  0.00     0.200 A 
ATOM    109  F   UNL     1      18.183  17.265   2.021  1.00  0.00    -0.200 F 
ATOM    110  F   UNL     1      19.094  17.075  -0.543  1.00  0.00    -0.200 F 
ENDBRANCH  77 100
ENDBRANCH  51  52
ENDBRANCH  44  46
ENDBRANCH  43  44
ENDBRANCH  42  43
ENDBRANCH  41  42
ENDBRANCH  40  41
ENDBRANCH  39  40
ENDBRANCH  38  39
ENDBRANCH   1  38
TORSDOF 22
