REMARK SMILES Cc1c(NCc2ccccn2)cccc1C(=O)N1CCOC[C@@H]1CC(=O)OCCOCCOCCOC(=O)c1ccc(-c2c3nc(c(-c4c(F)c(F)c(F)c(F)c4F)c4ccc([nH]4)c(-c4c(F)c(F)c(F)c(F)c4F)c4nc(c(-c5c(F)c(F)c(F)c(F)c5F)c5ccc2[nH]5)C=C4)C=C3)cc1
REMARK SMILES IDX 29 1 28 2 27 3 25 4 26 5 24 6 23 7 18 8 19 9 20 10 22 11
REMARK SMILES IDX 21 12 16 13 17 14 15 15 1 16 2 17 3 18 12 19 14 20 13 21
REMARK SMILES IDX 4 22 5 24 6 25 7 26 11 27 8 28 10 29 9 30 30 31 31 32 32 33
REMARK SMILES IDX 33 34 34 35 35 36 36 37 37 38 38 39 39 40 40 41 101 42 41 43
REMARK SMILES IDX 100 44 42 45 43 46 44 47 94 48 45 49 99 50 93 51 95 52 46 53
REMARK SMILES IDX 98 54 92 55 91 56 47 58 79 59 59 60 78 61 60 62 63 63 77 64
REMARK SMILES IDX 96 65 61 66 62 67 76 69 97 70 64 71 48 72 49 73 57 74 50 75
REMARK SMILES IDX 51 76 55 77 58 78 52 79 53 80 56 81 54 82 80 83 81 84 89 85
REMARK SMILES IDX 82 86 83 87 87 88 90 89 84 90 85 91 88 92 86 93 65 94 66 95
REMARK SMILES IDX 74 96 67 97 68 98 72 99 75 100 69 101 70 102 73 103 71 104
REMARK H PARENT 4 23 95 57 63 68
REMARK Flexibility Score: inf
ROOT
ATOM      1  C   UNL     1      -0.300  -1.386   3.027  1.00  0.00     0.202 C 
ENDROOT
BRANCH   1   2
ATOM      2  C   UNL     1      -0.625  -0.085   2.253  1.00  0.00     0.261 C 
BRANCH   2   3
ATOM      3  O   UNL     1       0.404   0.435   1.349  1.00  0.00    -0.463 OA
BRANCH   3   4
ATOM      4  C   UNL     1      -0.014   1.543   0.655  1.00  0.00     0.308 C 
ATOM      5  O   UNL     1      -1.203   1.860   0.609  1.00  0.00    -0.252 OA
BRANCH   4   6
ATOM      6  C   UNL     1       1.055   2.535   0.143  1.00  0.00     0.150 C 
BRANCH   6   7
ATOM      7  C   UNL     1       2.169   2.583  -0.915  1.00  0.00     0.122 C 
ATOM      8  N   UNL     1       2.102   1.645  -2.020  1.00  0.00    -0.330 N 
ATOM      9  C   UNL     1       3.199   1.803  -2.979  1.00  0.00     0.148 C 
ATOM     10  C   UNL     1       4.550   1.782  -2.269  1.00  0.00     0.181 C 
ATOM     11  C   UNL     1       3.606   2.713  -0.332  1.00  0.00     0.185 C 
ATOM     12  O   UNL     1       4.609   2.880  -1.350  1.00  0.00    -0.377 OA
BRANCH   8  13
ATOM     13  C   UNL     1       0.847   1.429  -2.566  1.00  0.00     0.254 C 
ATOM     14  O   UNL     1       0.356   2.193  -3.389  1.00  0.00    -0.269 OA
BRANCH  13  15
ATOM     15  C   UNL     1       0.083   0.276  -2.001  1.00  0.00     0.045 A 
ATOM     16  C   UNL     1       2.185  -1.044  -1.381  1.00  0.00     0.047 C 
ATOM     17  C   UNL     1       0.685  -0.865  -1.403  1.00  0.00    -0.015 A 
ATOM     18  C   UNL     1      -0.147  -1.819  -0.767  1.00  0.00     0.038 A 
ATOM     19  C   UNL     1      -1.537  -1.623  -0.773  1.00  0.00     0.026 A 
ATOM     20  C   UNL     1      -1.310   0.446  -1.971  1.00  0.00     0.014 A 
ATOM     21  C   UNL     1      -2.116  -0.493  -1.343  1.00  0.00     0.003 A 
BRANCH  18  22
ATOM     22  N   UNL     1       0.396  -2.950  -0.177  1.00  0.00    -0.379 N 
ATOM     23  H   UNL     1       1.211  -2.848   0.366  1.00  0.00     0.160 HD
BRANCH  22  24
ATOM     24  C   UNL     1      -0.179  -4.280  -0.320  1.00  0.00     0.169 C 
BRANCH  24  25
ATOM     25  C   UNL     1       0.264  -5.012  -1.576  1.00  0.00     0.059 A 
ATOM     26  C   UNL     1       0.644  -4.348  -2.744  1.00  0.00     0.026 A 
ATOM     27  N   UNL     1       0.221  -6.368  -1.517  1.00  0.00    -0.259 NA
ATOM     28  C   UNL     1       1.010  -5.082  -3.867  1.00  0.00     0.004 A 
ATOM     29  C   UNL     1       0.562  -7.057  -2.629  1.00  0.00     0.111 A 
ATOM     30  C   UNL     1       0.965  -6.465  -3.813  1.00  0.00     0.020 A 
ENDBRANCH  24  25
ENDBRANCH  22  24
ENDBRANCH  18  22
ENDBRANCH  13  15
ENDBRANCH   8  13
ENDBRANCH   6   7
ENDBRANCH   4   6
ENDBRANCH   3   4
ENDBRANCH   2   3
ENDBRANCH   1   2
BRANCH   1  31
ATOM     31  O   UNL     1       0.152  -1.258   4.381  1.00  0.00    -0.376 OA
BRANCH  31  32
ATOM     32  C   UNL     1       1.540  -1.075   4.612  1.00  0.00     0.188 C 
BRANCH  32  33
ATOM     33  C   UNL     1       2.499  -2.171   4.144  1.00  0.00     0.188 C 
BRANCH  33  34
ATOM     34  O   UNL     1       2.619  -2.101   2.725  1.00  0.00    -0.376 OA
BRANCH  34  35
ATOM     35  C   UNL     1       3.609  -2.950   2.149  1.00  0.00     0.202 C 
BRANCH  35  36
ATOM     36  C   UNL     1       5.057  -2.473   2.389  1.00  0.00     0.261 C 
BRANCH  36  37
ATOM     37  O   UNL     1       5.201  -1.130   1.869  1.00  0.00    -0.460 OA
BRANCH  37  38
ATOM     38  C   UNL     1       5.770  -0.196   2.695  1.00  0.00     0.338 C 
ATOM     39  O   UNL     1       6.771  -0.358   3.354  1.00  0.00    -0.246 OA
BRANCH  38  40
ATOM     40  C   UNL     1       4.854   0.994   2.797  1.00  0.00     0.060 A 
ATOM     41  C   UNL     1       5.137   2.211   3.447  1.00  0.00     0.016 A 
ATOM     42  C   UNL     1       3.558   0.805   2.388  1.00  0.00     0.016 A 
ATOM     43  C   UNL     1       4.110   3.201   3.696  1.00  0.00     0.010 A 
ATOM     44  C   UNL     1       2.590   1.726   2.735  1.00  0.00     0.010 A 
ATOM     45  C   UNL     1       2.782   2.955   3.352  1.00  0.00    -0.014 A 
BRANCH  45  46
ATOM     46  C   UNL     1       1.453   3.543   3.772  1.00  0.00     0.031 A 
ATOM     47  C   UNL     1       0.434   4.269   2.900  1.00  0.00     0.074 A 
ATOM     48  C   UNL     1       0.902   2.765   4.747  1.00  0.00     0.049 A 
ATOM     49  N   UNL     1      -0.840   4.178   3.116  1.00  0.00    -0.248 NA
ATOM     50  C   UNL     1       0.672   5.103   1.718  1.00  0.00     0.031 C 
ATOM     51  C   UNL     1      -0.485   2.378   5.010  1.00  0.00     0.029 A 
ATOM     52  N   UNL     1       1.585   2.141   5.789  1.00  0.00    -0.354 N 
ATOM     53  C   UNL     1      -1.563   4.587   2.020  1.00  0.00     0.074 A 
ATOM     54  C   UNL     1      -0.567   5.208   1.182  1.00  0.00     0.031 C 
ATOM     55  C   UNL     1      -0.594   1.922   6.264  1.00  0.00     0.029 A 
ATOM     56  C   UNL     1       0.688   2.135   6.885  1.00  0.00     0.049 A 
ATOM     57  H   UNL     1       2.500   1.780   5.768  1.00  0.00     0.167 HD
ATOM     58  C   UNL     1      -2.903   4.275   1.984  1.00  0.00     0.037 A 
ATOM     59  C   UNL     1       0.975   3.029   7.878  1.00  0.00     0.037 A 
ATOM     60  C   UNL     1      -3.392   4.073   3.349  1.00  0.00     0.049 A 
ATOM     61  C   UNL     1       0.048   4.238   7.801  1.00  0.00     0.074 A 
ATOM     62  C   UNL     1      -3.916   3.094   4.171  1.00  0.00     0.029 A 
ATOM     63  N   UNL     1      -3.188   5.155   4.167  1.00  0.00    -0.354 N 
ATOM     64  N   UNL     1      -1.163   4.219   7.296  1.00  0.00    -0.248 NA
ATOM     65  C   UNL     1       0.451   5.588   8.191  1.00  0.00     0.031 C 
ATOM     66  C   UNL     1      -3.806   3.581   5.531  1.00  0.00     0.029 A 
ATOM     67  C   UNL     1      -3.273   4.861   5.501  1.00  0.00     0.049 A 
ATOM     68  H   UNL     1      -2.998   6.059   3.826  1.00  0.00     0.167 HD
ATOM     69  C   UNL     1      -1.607   5.507   7.124  1.00  0.00     0.074 A 
ATOM     70  C   UNL     1      -0.587   6.324   7.762  1.00  0.00     0.031 C 
ATOM     71  C   UNL     1      -2.711   5.866   6.396  1.00  0.00     0.037 A 
BRANCH  58  72
ATOM     72  C   UNL     1      -3.850   4.229   0.799  1.00  0.00     0.064 A 
ATOM     73  C   UNL     1      -5.247   4.064   0.999  1.00  0.00     0.173 A 
ATOM     74  C   UNL     1      -3.444   4.209  -0.548  1.00  0.00     0.173 A 
ATOM     75  F   UNL     1      -5.783   4.065   2.229  1.00  0.00    -0.203 F 
ATOM     76  C   UNL     1      -6.152   3.886  -0.054  1.00  0.00     0.198 A 
ATOM     77  C   UNL     1      -4.358   4.052  -1.604  1.00  0.00     0.198 A 
ATOM     78  F   UNL     1      -2.153   4.322  -0.886  1.00  0.00    -0.203 F 
ATOM     79  F   UNL     1      -7.456   3.708   0.207  1.00  0.00    -0.200 F 
ATOM     80  C   UNL     1      -5.708   3.884  -1.357  1.00  0.00     0.200 A 
ATOM     81  F   UNL     1      -3.920   4.056  -2.872  1.00  0.00    -0.200 F 
ATOM     82  F   UNL     1      -6.574   3.718  -2.368  1.00  0.00    -0.200 F 
ENDBRANCH  58  72
BRANCH  59  83
ATOM     83  C   UNL     1       2.463   2.925   8.130  1.00  0.00     0.064 A 
ATOM     84  C   UNL     1       2.910   1.616   8.468  1.00  0.00     0.173 A 
ATOM     85  C   UNL     1       3.401   3.764   7.504  1.00  0.00     0.173 A 
ATOM     86  F   UNL     1       2.051   0.744   9.024  1.00  0.00    -0.203 F 
ATOM     87  C   UNL     1       4.129   1.116   8.009  1.00  0.00     0.198 A 
ATOM     88  C   UNL     1       4.657   3.272   7.118  1.00  0.00     0.198 A 
ATOM     89  F   UNL     1       3.058   4.994   7.097  1.00  0.00    -0.203 F 
ATOM     90  F   UNL     1       4.400  -0.193   8.126  1.00  0.00    -0.200 F 
ATOM     91  C   UNL     1       4.992   1.940   7.314  1.00  0.00     0.200 A 
ATOM     92  F   UNL     1       5.501   4.063   6.437  1.00  0.00    -0.200 F 
ATOM     93  F   UNL     1       6.114   1.437   6.777  1.00  0.00    -0.200 F 
ENDBRANCH  59  83
BRANCH  71  94
ATOM     94  C   UNL     1      -3.208   7.304   6.376  1.00  0.00     0.064 A 
ATOM     95  C   UNL     1      -3.292   8.029   7.576  1.00  0.00     0.173 A 
ATOM     96  C   UNL     1      -3.691   7.982   5.231  1.00  0.00     0.173 A 
ATOM     97  F   UNL     1      -2.949   7.460   8.742  1.00  0.00    -0.203 F 
ATOM     98  C   UNL     1      -3.725   9.356   7.614  1.00  0.00     0.198 A 
ATOM     99  C   UNL     1      -4.182   9.286   5.280  1.00  0.00     0.198 A 
ATOM    100  F   UNL     1      -3.675   7.436   4.008  1.00  0.00    -0.203 F 
ATOM    101  F   UNL     1      -3.697  10.028   8.772  1.00  0.00    -0.200 F 
ATOM    102  C   UNL     1      -4.174   9.983   6.467  1.00  0.00     0.200 A 
ATOM    103  F   UNL     1      -4.643   9.863   4.161  1.00  0.00    -0.200 F 
ATOM    104  F   UNL     1      -4.591  11.255   6.504  1.00  0.00    -0.200 F 
ENDBRANCH  71  94
ENDBRANCH  45  46
ENDBRANCH  38  40
ENDBRANCH  37  38
ENDBRANCH  36  37
ENDBRANCH  35  36
ENDBRANCH  34  35
ENDBRANCH  33  34
ENDBRANCH  32  33
ENDBRANCH  31  32
ENDBRANCH   1  31
TORSDOF 23
