REMARK SMILES COCCn1cc(NC(=O)N[C@H]2C=C[C@H](C(=O)OCCOCCOCCOC(=O)c3ccc(-c4c5nc(c(-c6c(F)c(F)c(F)c(F)c6F)c6ccc([nH]6)c(-c6c(F)c(F)c(F)c(F)c6F)c6nc(c(-c7c(F)c(F)c(F)c(F)c7F)c7ccc4[nH]7)C=C6)C=C5)cc3)C2)cn1
REMARK SMILES IDX 21 1 20 2 19 3 18 4 16 5 17 6 15 7 12 8 13 9 93 10 14 11
REMARK SMILES IDX 11 12 8 13 9 14 10 16 7 18 5 19 6 20 95 21 94 22 4 23 3 24
REMARK SMILES IDX 2 25 1 26 22 27 23 28 24 29 25 30 26 31 27 32 28 33 29 34
REMARK SMILES IDX 30 35 31 36 92 37 32 38 91 39 33 40 34 41 35 42 85 43 36 44
REMARK SMILES IDX 90 45 84 46 86 47 37 48 89 49 83 50 82 51 38 53 70 54 50 55
REMARK SMILES IDX 69 56 51 57 54 58 68 59 87 60 52 61 53 62 67 64 88 65 55 66
REMARK SMILES IDX 39 67 40 68 48 69 41 70 42 71 46 72 49 73 43 74 44 75 47 76
REMARK SMILES IDX 45 77 71 78 72 79 80 80 73 81 74 82 78 83 81 84 75 85 76 86
REMARK SMILES IDX 79 87 77 88 56 89 57 90 65 91 58 92 59 93 63 94 66 95 60 96
REMARK SMILES IDX 61 97 64 98 62 99
REMARK H PARENT 8 15 11 17 86 52 54 63
REMARK Flexibility Score: inf
ROOT
ATOM      1  O   UNL     1       1.558  -3.574   0.286  1.00  0.00    -0.376 OA
ENDROOT
BRANCH   1   2
ATOM      2  C   UNL     1       0.239  -3.109   0.022  1.00  0.00     0.202 C 
BRANCH   2   3
ATOM      3  C   UNL     1      -0.619  -2.568   1.187  1.00  0.00     0.261 C 
BRANCH   3   4
ATOM      4  O   UNL     1      -0.147  -1.388   1.893  1.00  0.00    -0.463 OA
BRANCH   4   5
ATOM      5  C   UNL     1       0.290  -1.576   3.167  1.00  0.00     0.312 C 
ATOM      6  O   UNL     1       0.399  -2.684   3.688  1.00  0.00    -0.252 OA
BRANCH   5   7
ATOM      7  C   UNL     1       0.673  -0.295   3.935  1.00  0.00     0.124 C 
ATOM      8  C   UNL     1       1.776   1.786   3.107  1.00  0.00     0.107 C 
ATOM      9  C   UNL     1       2.729   0.863   3.809  1.00  0.00    -0.006 C 
ATOM     10  C   UNL     1       0.410   1.106   3.340  1.00  0.00     0.048 C 
ATOM     11  C   UNL     1       2.144  -0.260   4.242  1.00  0.00    -0.014 C 
BRANCH   8  12
ATOM     12  N   UNL     1       1.932   3.107   3.689  1.00  0.00    -0.332 N 
ATOM     13  N   UNL     1       0.754   4.673   2.324  1.00  0.00    -0.305 N 
ATOM     14  C   UNL     1       1.476   4.339   3.410  1.00  0.00     0.319 C 
ATOM     15  H   UNL     1       0.044   5.330   2.508  1.00  0.00     0.171 HD
ATOM     16  O   UNL     1       1.636   5.198   4.284  1.00  0.00    -0.248 OA
ATOM     17  H   UNL     1       2.514   3.097   4.482  1.00  0.00     0.165 HD
BRANCH  13  18
ATOM     18  C   UNL     1       0.812   4.278   1.007  1.00  0.00     0.081 A 
ATOM     19  N   UNL     1       0.220   3.904  -1.082  1.00  0.00    -0.268 N 
ATOM     20  C   UNL     1      -0.154   4.562   0.062  1.00  0.00     0.135 A 
ATOM     21  N   UNL     1       1.500   3.500  -1.019  1.00  0.00    -0.179 NA
ATOM     22  C   UNL     1       1.840   3.689   0.262  1.00  0.00     0.161 A 
BRANCH  19  23
ATOM     23  C   UNL     1      -0.522   3.787  -2.330  1.00  0.00     0.172 C 
BRANCH  23  24
ATOM     24  C   UNL     1      -0.733   2.361  -2.865  1.00  0.00     0.183 C 
BRANCH  24  25
ATOM     25  O   UNL     1      -1.856   1.716  -2.256  1.00  0.00    -0.383 OA
ATOM     26  C   UNL     1      -1.615   0.382  -1.814  1.00  0.00     0.194 C 
ENDBRANCH  24  25
ENDBRANCH  23  24
ENDBRANCH  19  23
ENDBRANCH  13  18
ENDBRANCH   8  12
ENDBRANCH   5   7
ENDBRANCH   4   5
ENDBRANCH   3   4
ENDBRANCH   2   3
ENDBRANCH   1   2
BRANCH   1  27
ATOM     27  C   UNL     1       2.462  -2.736   0.984  1.00  0.00     0.188 C 
BRANCH  27  28
ATOM     28  C   UNL     1       2.492  -1.239   0.676  1.00  0.00     0.188 C 
BRANCH  28  29
ATOM     29  O   UNL     1       1.493  -0.826  -0.241  1.00  0.00    -0.376 OA
BRANCH  29  30
ATOM     30  C   UNL     1       1.534   0.551  -0.568  1.00  0.00     0.202 C 
BRANCH  30  31
ATOM     31  C   UNL     1       2.184   0.696  -1.922  1.00  0.00     0.261 C 
BRANCH  31  32
ATOM     32  O   UNL     1       3.495   0.202  -1.858  1.00  0.00    -0.460 OA
BRANCH  32  33
ATOM     33  C   UNL     1       4.334   0.770  -0.969  1.00  0.00     0.338 C 
ATOM     34  O   UNL     1       4.149   1.654  -0.165  1.00  0.00    -0.246 OA
BRANCH  33  35
ATOM     35  C   UNL     1       5.627   0.175  -1.257  1.00  0.00     0.060 A 
ATOM     36  C   UNL     1       6.704   0.898  -0.753  1.00  0.00     0.016 A 
ATOM     37  C   UNL     1       5.686  -0.656  -2.385  1.00  0.00     0.016 A 
ATOM     38  C   UNL     1       7.773   1.042  -1.586  1.00  0.00     0.010 A 
ATOM     39  C   UNL     1       6.686  -0.414  -3.260  1.00  0.00     0.010 A 
ATOM     40  C   UNL     1       7.682   0.469  -2.859  1.00  0.00    -0.014 A 
BRANCH  40  41
ATOM     41  C   UNL     1       8.827   0.520  -3.708  1.00  0.00     0.031 A 
ATOM     42  C   UNL     1       9.766  -0.523  -3.261  1.00  0.00     0.074 A 
ATOM     43  C   UNL     1       8.864   1.289  -4.800  1.00  0.00     0.049 A 
ATOM     44  N   UNL     1      10.688  -0.371  -2.367  1.00  0.00    -0.248 NA
ATOM     45  C   UNL     1       9.387  -1.934  -3.487  1.00  0.00     0.031 C 
ATOM     46  C   UNL     1       7.797   2.079  -5.413  1.00  0.00     0.029 A 
ATOM     47  N   UNL     1       9.907   1.445  -5.645  1.00  0.00    -0.354 N 
ATOM     48  C   UNL     1      11.189  -1.650  -2.182  1.00  0.00     0.074 A 
ATOM     49  C   UNL     1      10.131  -2.539  -2.558  1.00  0.00     0.031 C 
ATOM     50  C   UNL     1       8.191   2.463  -6.651  1.00  0.00     0.029 A 
ATOM     51  C   UNL     1       9.572   2.058  -6.843  1.00  0.00     0.049 A 
ATOM     52  H   UNL     1      10.822   1.150  -5.429  1.00  0.00     0.167 HD
ATOM     53  C   UNL     1      12.534  -1.848  -2.240  1.00  0.00     0.037 A 
ATOM     54  C   UNL     1      10.404   2.105  -7.910  1.00  0.00     0.037 A 
ATOM     55  C   UNL     1      13.214  -0.572  -2.141  1.00  0.00     0.049 A 
ATOM     56  C   UNL     1      11.780   1.857  -7.388  1.00  0.00     0.074 A 
ATOM     57  C   UNL     1      13.359   0.397  -1.169  1.00  0.00     0.029 A 
ATOM     58  N   UNL     1      13.443   0.035  -3.354  1.00  0.00    -0.354 N 
ATOM     59  N   UNL     1      12.397   2.681  -6.582  1.00  0.00    -0.248 NA
ATOM     60  C   UNL     1      12.292   0.491  -7.379  1.00  0.00     0.031 C 
ATOM     61  C   UNL     1      13.451   1.641  -1.865  1.00  0.00     0.029 A 
ATOM     62  C   UNL     1      13.430   1.398  -3.240  1.00  0.00     0.049 A 
ATOM     63  H   UNL     1      13.597  -0.451  -4.196  1.00  0.00     0.167 HD
ATOM     64  C   UNL     1      13.066   1.865  -5.679  1.00  0.00     0.074 A 
ATOM     65  C   UNL     1      13.092   0.549  -6.308  1.00  0.00     0.031 C 
ATOM     66  C   UNL     1      13.241   2.270  -4.384  1.00  0.00     0.037 A 
BRANCH  53  67
ATOM     67  C   UNL     1      13.189  -3.034  -2.927  1.00  0.00     0.064 A 
ATOM     68  C   UNL     1      14.592  -3.131  -2.862  1.00  0.00     0.173 A 
ATOM     69  C   UNL     1      12.575  -3.897  -3.868  1.00  0.00     0.173 A 
ATOM     70  F   UNL     1      15.288  -2.367  -2.006  1.00  0.00    -0.203 F 
ATOM     71  C   UNL     1      15.320  -3.948  -3.732  1.00  0.00     0.198 A 
ATOM     72  C   UNL     1      13.302  -4.739  -4.705  1.00  0.00     0.198 A 
ATOM     73  F   UNL     1      11.263  -3.914  -4.111  1.00  0.00    -0.203 F 
ATOM     74  F   UNL     1      16.658  -3.914  -3.709  1.00  0.00    -0.200 F 
ATOM     75  C   UNL     1      14.675  -4.742  -4.661  1.00  0.00     0.200 A 
ATOM     76  F   UNL     1      12.649  -5.484  -5.610  1.00  0.00    -0.200 F 
ATOM     77  F   UNL     1      15.370  -5.477  -5.538  1.00  0.00    -0.200 F 
ENDBRANCH  53  67
BRANCH  54  78
ATOM     78  C   UNL     1      10.053   2.010  -9.341  1.00  0.00     0.064 A 
ATOM     79  C   UNL     1      10.955   2.414 -10.336  1.00  0.00     0.173 A 
ATOM     80  C   UNL     1       8.933   1.270  -9.768  1.00  0.00     0.173 A 
ATOM     81  F   UNL     1      12.070   3.080 -10.002  1.00  0.00    -0.203 F 
ATOM     82  C   UNL     1      10.759   2.080 -11.680  1.00  0.00     0.198 A 
ATOM     83  C   UNL     1       8.736   0.940 -11.109  1.00  0.00     0.198 A 
ATOM     84  F   UNL     1       8.060   0.771  -8.881  1.00  0.00    -0.203 F 
ATOM     85  F   UNL     1      11.671   2.433 -12.596  1.00  0.00    -0.200 F 
ATOM     86  C   UNL     1       9.655   1.335 -12.063  1.00  0.00     0.200 A 
ATOM     87  F   UNL     1       7.687   0.183 -11.460  1.00  0.00    -0.200 F 
ATOM     88  F   UNL     1       9.499   0.963 -13.341  1.00  0.00    -0.200 F 
ENDBRANCH  54  78
BRANCH  66  89
ATOM     89  C   UNL     1      13.079   3.740  -4.105  1.00  0.00     0.064 A 
ATOM     90  C   UNL     1      11.868   4.445  -4.201  1.00  0.00     0.173 A 
ATOM     91  C   UNL     1      14.195   4.439  -3.629  1.00  0.00     0.173 A 
ATOM     92  F   UNL     1      10.738   3.826  -4.563  1.00  0.00    -0.203 F 
ATOM     93  C   UNL     1      11.793   5.801  -3.879  1.00  0.00     0.198 A 
ATOM     94  C   UNL     1      14.111   5.780  -3.271  1.00  0.00     0.198 A 
ATOM     95  F   UNL     1      15.367   3.803  -3.471  1.00  0.00    -0.203 F 
ATOM     96  F   UNL     1      10.630   6.458  -3.998  1.00  0.00    -0.200 F 
ATOM     97  C   UNL     1      12.914   6.465  -3.408  1.00  0.00     0.200 A 
ATOM     98  F   UNL     1      15.187   6.404  -2.772  1.00  0.00    -0.200 F 
ATOM     99  F   UNL     1      12.837   7.758  -3.065  1.00  0.00    -0.200 F 
ENDBRANCH  66  89
ENDBRANCH  40  41
ENDBRANCH  33  35
ENDBRANCH  32  33
ENDBRANCH  31  32
ENDBRANCH  30  31
ENDBRANCH  29  30
ENDBRANCH  28  29
ENDBRANCH  27  28
ENDBRANCH   1  27
TORSDOF 22
