REMARK SMILES O=C(OCCOCCOCCOC(=O)c1ccc(-c2c3nc(c(-c4c(F)c(F)c(F)c(F)c4F)c4ccc([nH]4)c(-c4c(F)c(F)c(F)c(F)c4F)c4nc(c(-c5c(F)c(F)c(F)c(F)c5F)c5ccc2[nH]5)C=C4)C=C3)cc1)c1ccc(NC(=O)[C@@H]2CC=CC[C@H]2C(=O)Nc2cccc([N+](=O)[O-])c2)cc1
REMARK SMILES IDX 6 1 5 2 4 3 3 4 2 5 1 6 78 7 79 8 104 9 80 10 103 11 81 12
REMARK SMILES IDX 82 13 83 14 84 16 85 17 86 18 90 19 87 20 89 21 88 22 91 23
REMARK SMILES IDX 92 24 93 25 94 27 95 28 102 29 96 30 98 31 97 32 99 33
REMARK SMILES IDX 100 34 101 35 7 36 8 37 9 38 10 39 11 40 12 41 13 42 14 43
REMARK SMILES IDX 15 44 16 45 77 46 17 47 76 48 18 49 19 50 20 51 70 52 21 53
REMARK SMILES IDX 75 54 69 55 71 56 22 57 74 58 68 59 67 60 23 62 55 63 35 64
REMARK SMILES IDX 54 65 36 66 39 67 53 68 72 69 37 70 38 71 52 73 73 74 40 75
REMARK SMILES IDX 24 76 25 77 33 78 26 79 27 80 31 81 34 82 28 83 29 84 32 85
REMARK SMILES IDX 30 86 56 87 57 88 65 89 58 90 59 91 63 92 66 93 60 94 61 95
REMARK SMILES IDX 64 96 62 97 41 98 42 99 50 100 43 101 44 102 48 103 51 104
REMARK SMILES IDX 45 105 46 106 49 107 47 108
REMARK H PARENT 82 15 93 26 71 61 39 72
REMARK Flexibility Score: inf
ROOT
ATOM      1  O   UNL     1       3.906   8.020   3.251  1.00  0.00    -0.376 OA
ENDROOT
BRANCH   1   2
ATOM      2  C   UNL     1       3.445   8.487   4.516  1.00  0.00     0.202 C 
BRANCH   2   3
ATOM      3  C   UNL     1       4.553   9.032   5.417  1.00  0.00     0.261 C 
BRANCH   3   4
ATOM      4  O   UNL     1       5.338  10.056   4.783  1.00  0.00    -0.460 OA
BRANCH   4   5
ATOM      5  C   UNL     1       6.575  10.017   4.235  1.00  0.00     0.338 C 
ATOM      6  O   UNL     1       7.126  11.097   4.014  1.00  0.00    -0.246 OA
BRANCH   5   7
ATOM      7  C   UNL     1       7.286   8.780   3.758  1.00  0.00     0.060 A 
ATOM      8  C   UNL     1       6.953   7.458   4.028  1.00  0.00     0.018 A 
ATOM      9  C   UNL     1       8.402   8.981   2.925  1.00  0.00     0.018 A 
ATOM     10  C   UNL     1       7.637   6.388   3.419  1.00  0.00     0.027 A 
ATOM     11  C   UNL     1       9.045   7.911   2.280  1.00  0.00     0.027 A 
ATOM     12  C   UNL     1       8.593   6.601   2.446  1.00  0.00     0.041 A 
BRANCH  12  13
ATOM     13  N   UNL     1       9.108   5.635   1.568  1.00  0.00    -0.326 N 
ATOM     14  C   UNL     1       8.774   4.378   1.157  1.00  0.00     0.228 C 
ATOM     15  H   UNL     1       9.932   5.948   1.131  1.00  0.00     0.169 HD
ATOM     16  O   UNL     1       9.505   3.924   0.266  1.00  0.00    -0.274 OA
BRANCH  14  17
ATOM     17  C   UNL     1       7.616   3.529   1.713  1.00  0.00     0.095 C 
ATOM     18  C   UNL     1       7.964   2.038   1.440  1.00  0.00     0.041 C 
ATOM     19  C   UNL     1       6.218   3.893   1.147  1.00  0.00     0.095 C 
ATOM     20  C   UNL     1       6.840   1.064   1.588  1.00  0.00    -0.030 C 
ATOM     21  C   UNL     1       5.148   2.780   1.015  1.00  0.00     0.041 C 
ATOM     22  C   UNL     1       5.566   1.401   1.380  1.00  0.00    -0.030 C 
BRANCH  19  23
ATOM     23  C   UNL     1       5.514   5.112   1.740  1.00  0.00     0.228 C 
ATOM     24  O   UNL     1       5.562   6.168   1.095  1.00  0.00    -0.274 OA
ATOM     25  N   UNL     1       4.736   5.110   2.869  1.00  0.00    -0.326 N 
ATOM     26  H   UNL     1       4.142   5.894   2.908  1.00  0.00     0.169 HD
BRANCH  25  27
ATOM     27  C   UNL     1       4.572   4.268   3.993  1.00  0.00     0.048 A 
ATOM     28  C   UNL     1       3.393   4.397   4.739  1.00  0.00     0.026 A 
ATOM     29  C   UNL     1       5.545   3.405   4.486  1.00  0.00     0.111 A 
ATOM     30  C   UNL     1       3.193   3.669   5.924  1.00  0.00     0.009 A 
ATOM     31  C   UNL     1       5.381   2.725   5.704  1.00  0.00     0.271 A 
ATOM     32  C   UNL     1       4.194   2.837   6.422  1.00  0.00     0.086 A 
BRANCH  31  33
ATOM     33  N   UNL     1       6.506   1.947   6.246  1.00  0.00     0.062 N 
ATOM     34  O   UNL     1       6.311   1.293   7.279  1.00  0.00    -0.258 OA
ATOM     35  O   UNL     1       7.592   2.014   5.650  1.00  0.00    -0.258 OA
ENDBRANCH  31  33
ENDBRANCH  25  27
ENDBRANCH  19  23
ENDBRANCH  14  17
ENDBRANCH  12  13
ENDBRANCH   5   7
ENDBRANCH   4   5
ENDBRANCH   3   4
ENDBRANCH   2   3
ENDBRANCH   1   2
BRANCH   1  36
ATOM     36  C   UNL     1       3.860   9.009   2.210  1.00  0.00     0.188 C 
BRANCH  36  37
ATOM     37  C   UNL     1       2.456   9.521   1.845  1.00  0.00     0.188 C 
BRANCH  37  38
ATOM     38  O   UNL     1       1.412   8.641   2.260  1.00  0.00    -0.376 OA
BRANCH  38  39
ATOM     39  C   UNL     1       0.822   7.875   1.212  1.00  0.00     0.202 C 
BRANCH  39  40
ATOM     40  C   UNL     1       1.661   6.658   0.815  1.00  0.00     0.261 C 
BRANCH  40  41
ATOM     41  O   UNL     1       2.877   6.974   0.117  1.00  0.00    -0.460 OA
BRANCH  41  42
ATOM     42  C   UNL     1       2.747   7.518  -1.110  1.00  0.00     0.338 C 
ATOM     43  O   UNL     1       1.714   7.811  -1.682  1.00  0.00    -0.246 OA
BRANCH  42  44
ATOM     44  C   UNL     1       4.084   7.750  -1.681  1.00  0.00     0.060 A 
ATOM     45  C   UNL     1       4.596   9.049  -1.734  1.00  0.00     0.016 A 
ATOM     46  C   UNL     1       4.773   6.688  -2.271  1.00  0.00     0.016 A 
ATOM     47  C   UNL     1       5.785   9.295  -2.427  1.00  0.00     0.010 A 
ATOM     48  C   UNL     1       5.966   6.936  -2.956  1.00  0.00     0.010 A 
ATOM     49  C   UNL     1       6.459   8.246  -3.074  1.00  0.00    -0.014 A 
BRANCH  49  50
ATOM     50  C   UNL     1       7.609   8.543  -3.969  1.00  0.00     0.031 A 
ATOM     51  C   UNL     1       7.410   8.531  -5.463  1.00  0.00     0.074 A 
ATOM     52  C   UNL     1       8.816   8.847  -3.461  1.00  0.00     0.049 A 
ATOM     53  N   UNL     1       8.270   8.780  -6.420  1.00  0.00    -0.248 NA
ATOM     54  C   UNL     1       6.062   8.190  -5.943  1.00  0.00     0.031 C 
ATOM     55  C   UNL     1       9.146   8.892  -2.038  1.00  0.00     0.029 A 
ATOM     56  N   UNL     1       9.993   9.172  -4.091  1.00  0.00    -0.354 N 
ATOM     57  C   UNL     1       7.567   8.636  -7.610  1.00  0.00     0.074 A 
ATOM     58  C   UNL     1       6.223   8.230  -7.258  1.00  0.00     0.031 C 
ATOM     59  C   UNL     1      10.441   9.225  -1.902  1.00  0.00     0.029 A 
ATOM     60  C   UNL     1      11.037   9.392  -3.227  1.00  0.00     0.049 A 
ATOM     61  H   UNL     1      10.079   9.240  -5.069  1.00  0.00     0.167 HD
ATOM     62  C   UNL     1       7.993   8.843  -8.880  1.00  0.00     0.037 A 
ATOM     63  C   UNL     1      12.328   9.686  -3.478  1.00  0.00     0.037 A 
ATOM     64  C   UNL     1       9.332   9.236  -9.239  1.00  0.00     0.049 A 
ATOM     65  C   UNL     1      12.789   9.867  -4.903  1.00  0.00     0.074 A 
ATOM     66  C   UNL     1       9.854   9.477 -10.499  1.00  0.00     0.029 A 
ATOM     67  N   UNL     1      10.365   9.439  -8.336  1.00  0.00    -0.354 N 
ATOM     68  N   UNL     1      12.104   9.774  -6.017  1.00  0.00    -0.248 NA
ATOM     69  C   UNL     1      14.205  10.211  -5.101  1.00  0.00     0.031 C 
ATOM     70  C   UNL     1      11.213   9.783 -10.362  1.00  0.00     0.029 A 
ATOM     71  C   UNL     1      11.525   9.785  -9.013  1.00  0.00     0.049 A 
ATOM     72  H   UNL     1      10.286   9.350  -7.359  1.00  0.00     0.167 HD
ATOM     73  C   UNL     1      12.995  10.069  -7.041  1.00  0.00     0.074 A 
ATOM     74  C   UNL     1      14.264  10.372  -6.415  1.00  0.00     0.031 C 
ATOM     75  C   UNL     1      12.784  10.083  -8.381  1.00  0.00     0.037 A 
BRANCH  62  76
ATOM     76  C   UNL     1       6.996   8.647  -9.986  1.00  0.00     0.064 A 
ATOM     77  C   UNL     1       5.939   9.549 -10.187  1.00  0.00     0.173 A 
ATOM     78  C   UNL     1       7.125   7.577 -10.886  1.00  0.00     0.173 A 
ATOM     79  F   UNL     1       5.766  10.582  -9.349  1.00  0.00    -0.203 F 
ATOM     80  C   UNL     1       5.036   9.374 -11.232  1.00  0.00     0.198 A 
ATOM     81  C   UNL     1       6.236   7.423 -11.947  1.00  0.00     0.198 A 
ATOM     82  F   UNL     1       8.121   6.690 -10.744  1.00  0.00    -0.203 F 
ATOM     83  F   UNL     1       4.011  10.225 -11.379  1.00  0.00    -0.200 F 
ATOM     84  C   UNL     1       5.190   8.317 -12.116  1.00  0.00     0.200 A 
ATOM     85  F   UNL     1       6.394   6.409 -12.809  1.00  0.00    -0.200 F 
ATOM     86  F   UNL     1       4.326   8.156 -13.128  1.00  0.00    -0.200 F 
ENDBRANCH  62  76
BRANCH  63  87
ATOM     87  C   UNL     1      13.290   9.826  -2.352  1.00  0.00     0.064 A 
ATOM     88  C   UNL     1      13.872  11.064  -2.042  1.00  0.00     0.173 A 
ATOM     89  C   UNL     1      13.672   8.716  -1.585  1.00  0.00     0.173 A 
ATOM     90  F   UNL     1      13.558  12.150  -2.764  1.00  0.00    -0.203 F 
ATOM     91  C   UNL     1      14.820  11.180  -1.028  1.00  0.00     0.198 A 
ATOM     92  C   UNL     1      14.596   8.840  -0.549  1.00  0.00     0.198 A 
ATOM     93  F   UNL     1      13.143   7.510  -1.838  1.00  0.00    -0.203 F 
ATOM     94  F   UNL     1      15.403  12.363  -0.791  1.00  0.00    -0.200 F 
ATOM     95  C   UNL     1      15.177  10.069  -0.279  1.00  0.00     0.200 A 
ATOM     96  F   UNL     1      14.926   7.767   0.182  1.00  0.00    -0.200 F 
ATOM     97  F   UNL     1      16.088  10.181   0.698  1.00  0.00    -0.200 F 
ENDBRANCH  63  87
BRANCH  75  98
ATOM     98  C   UNL     1      13.946  10.465  -9.256  1.00  0.00     0.064 A 
ATOM     99  C   UNL     1      15.061   9.626  -9.410  1.00  0.00     0.173 A 
ATOM    100  C   UNL     1      13.942  11.681  -9.956  1.00  0.00     0.173 A 
ATOM    101  F   UNL     1      15.122   8.457  -8.754  1.00  0.00    -0.203 F 
ATOM    102  C   UNL     1      16.145  10.009 -10.197  1.00  0.00     0.198 A 
ATOM    103  C   UNL     1      15.013  12.046 -10.768  1.00  0.00     0.198 A 
ATOM    104  F   UNL     1      12.898  12.518  -9.854  1.00  0.00    -0.203 F 
ATOM    105  F   UNL     1      17.225   9.220 -10.276  1.00  0.00    -0.200 F 
ATOM    106  C   UNL     1      16.118  11.217 -10.878  1.00  0.00     0.200 A 
ATOM    107  F   UNL     1      14.979  13.207 -11.438  1.00  0.00    -0.200 F 
ATOM    108  F   UNL     1      17.163  11.585 -11.632  1.00  0.00    -0.200 F 
ENDBRANCH  75  98
ENDBRANCH  49  50
ENDBRANCH  42  44
ENDBRANCH  41  42
ENDBRANCH  40  41
ENDBRANCH  39  40
ENDBRANCH  38  39
ENDBRANCH  37  38
ENDBRANCH  36  37
ENDBRANCH   1  36
TORSDOF 22
