REMARK SMILES Cc1ccccc1CSCC(=O)Nc1ccc(C)c(C(=O)OCCOCCOCCOC(=O)c2ccc(-c3c4nc(c(-c5c(F)c(F)c(F)c(F)c5F)c5ccc([nH]5)c(-c5c(F)c(F)c(F)c(F)c5F)c5nc(c(-c6c(F)c(F)c(F)c(F)c6F)c6ccc3[nH]6)C=C5)C=C4)cc2)c1
REMARK SMILES IDX 25 1 24 2 23 3 22 4 20 5 21 6 19 7 14 8 15 9 97 10 16 11
REMARK SMILES IDX 17 12 18 13 13 14 11 15 12 16 10 18 9 19 8 20 7 21 1 22 2 23
REMARK SMILES IDX 3 24 4 25 6 26 5 27 26 28 27 29 28 30 29 31 30 32 31 33
REMARK SMILES IDX 32 34 33 35 34 36 35 37 96 38 36 39 95 40 37 41 38 42 39 43
REMARK SMILES IDX 89 44 40 45 94 46 88 47 90 48 41 49 93 50 87 51 86 52 42 54
REMARK SMILES IDX 74 55 54 56 73 57 55 58 58 59 72 60 91 61 56 62 57 63 71 65
REMARK SMILES IDX 92 66 59 67 43 68 44 69 52 70 45 71 46 72 50 73 53 74 47 75
REMARK SMILES IDX 48 76 51 77 49 78 75 79 76 80 84 81 77 82 78 83 82 84 85 85
REMARK SMILES IDX 79 86 80 87 83 88 81 89 60 90 61 91 69 92 62 93 63 94 67 95
REMARK SMILES IDX 70 96 64 97 65 98 68 99 66 100
REMARK H PARENT 13 17 90 53 58 64
REMARK Flexibility Score: inf
ROOT
ATOM      1  O   UNL     1       5.489  10.590  -6.651  1.00  0.00    -0.376 OA
ENDROOT
BRANCH   1   2
ATOM      2  C   UNL     1       4.417  11.331  -6.051  1.00  0.00     0.202 C 
BRANCH   2   3
ATOM      3  C   UNL     1       2.980  10.706  -5.808  1.00  0.00     0.261 C 
BRANCH   3   4
ATOM      4  O   UNL     1       2.813   9.651  -4.783  1.00  0.00    -0.460 OA
BRANCH   4   5
ATOM      5  C   UNL     1       1.707   9.395  -3.983  1.00  0.00     0.338 C 
ATOM      6  O   UNL     1       0.710  10.100  -4.073  1.00  0.00    -0.246 OA
BRANCH   5   7
ATOM      7  C   UNL     1       1.766   8.166  -2.860  1.00  0.00     0.065 A 
ATOM      8  C   UNL     1       2.138   5.720  -2.113  1.00  0.00     0.042 A 
ATOM      9  C   UNL     1       1.694   6.019  -0.858  1.00  0.00     0.026 A 
ATOM     10  C   UNL     1       2.195   6.799  -3.016  1.00  0.00     0.042 A 
ATOM     11  C   UNL     1       1.304   7.346  -0.592  1.00  0.00     0.006 A 
ATOM     12  C   UNL     1       1.325   8.404  -1.564  1.00  0.00    -0.036 A 
ATOM     13  C   UNL     1       1.009   9.788  -1.093  1.00  0.00     0.045 C 
BRANCH   8  14
ATOM     14  N   UNL     1       2.746   4.488  -2.474  1.00  0.00    -0.325 N 
ATOM     15  C   UNL     1       2.281   3.201  -2.586  1.00  0.00     0.234 C 
ATOM     16  O   UNL     1       3.119   2.304  -2.756  1.00  0.00    -0.274 OA
ATOM     17  H   UNL     1       3.703   4.575  -2.688  1.00  0.00     0.169 HD
BRANCH  15  18
ATOM     18  C   UNL     1       0.808   2.863  -2.727  1.00  0.00     0.170 C 
BRANCH  18  19
ATOM     19  S   UNL     1      -0.231   3.389  -1.358  1.00  0.00    -0.147 SA
BRANCH  19  20
ATOM     20  C   UNL     1       0.549   2.430  -0.009  1.00  0.00     0.105 C 
BRANCH  20  21
ATOM     21  C   UNL     1       0.036   1.012   0.064  1.00  0.00    -0.035 A 
ATOM     22  C   UNL     1       2.362  -0.111  -0.044  1.00  0.00     0.044 C 
ATOM     23  C   UNL     1       0.859  -0.133   0.033  1.00  0.00    -0.047 A 
ATOM     24  C   UNL     1       0.253  -1.405   0.070  1.00  0.00     0.004 A 
ATOM     25  C   UNL     1      -1.131  -1.552   0.165  1.00  0.00     0.000 A 
ATOM     26  C   UNL     1      -1.359   0.836   0.202  1.00  0.00     0.005 A 
ATOM     27  C   UNL     1      -1.938  -0.428   0.242  1.00  0.00     0.000 A 
ENDBRANCH  20  21
ENDBRANCH  19  20
ENDBRANCH  18  19
ENDBRANCH  15  18
ENDBRANCH   8  14
ENDBRANCH   5   7
ENDBRANCH   4   5
ENDBRANCH   3   4
ENDBRANCH   2   3
ENDBRANCH   1   2
BRANCH   1  28
ATOM     28  C   UNL     1       6.399   9.887  -5.816  1.00  0.00     0.188 C 
BRANCH  28  29
ATOM     29  C   UNL     1       7.151  10.585  -4.694  1.00  0.00     0.188 C 
BRANCH  29  30
ATOM     30  O   UNL     1       6.242  10.986  -3.678  1.00  0.00    -0.376 OA
BRANCH  30  31
ATOM     31  C   UNL     1       6.837  11.727  -2.617  1.00  0.00     0.202 C 
BRANCH  31  32
ATOM     32  C   UNL     1       7.889  10.941  -1.802  1.00  0.00     0.261 C 
BRANCH  32  33
ATOM     33  O   UNL     1       7.286   9.783  -1.173  1.00  0.00    -0.460 OA
BRANCH  33  34
ATOM     34  C   UNL     1       7.679   8.537  -1.607  1.00  0.00     0.338 C 
ATOM     35  O   UNL     1       8.825   8.164  -1.697  1.00  0.00    -0.246 OA
BRANCH  34  36
ATOM     36  C   UNL     1       6.494   7.814  -2.201  1.00  0.00     0.060 A 
ATOM     37  C   UNL     1       6.541   6.648  -2.980  1.00  0.00     0.016 A 
ATOM     38  C   UNL     1       5.349   8.534  -2.286  1.00  0.00     0.016 A 
ATOM     39  C   UNL     1       5.539   6.370  -3.998  1.00  0.00     0.010 A 
ATOM     40  C   UNL     1       4.582   8.369  -3.435  1.00  0.00     0.010 A 
ATOM     41  C   UNL     1       4.570   7.304  -4.375  1.00  0.00    -0.014 A 
BRANCH  41  42
ATOM     42  C   UNL     1       3.646   7.264  -5.731  1.00  0.00     0.031 A 
ATOM     43  C   UNL     1       2.027   7.367  -5.982  1.00  0.00     0.074 A 
ATOM     44  C   UNL     1       4.323   7.486  -6.878  1.00  0.00     0.049 A 
ATOM     45  N   UNL     1       1.472   8.290  -6.730  1.00  0.00    -0.248 NA
ATOM     46  C   UNL     1       0.921   6.529  -5.409  1.00  0.00     0.031 C 
ATOM     47  C   UNL     1       3.829   7.964  -8.168  1.00  0.00     0.029 A 
ATOM     48  N   UNL     1       5.638   7.112  -7.165  1.00  0.00    -0.354 N 
ATOM     49  C   UNL     1       0.095   8.295  -6.585  1.00  0.00     0.074 A 
ATOM     50  C   UNL     1      -0.194   7.242  -5.642  1.00  0.00     0.031 C 
ATOM     51  C   UNL     1       4.644   7.528  -9.136  1.00  0.00     0.029 A 
ATOM     52  C   UNL     1       5.593   6.644  -8.502  1.00  0.00     0.049 A 
ATOM     53  H   UNL     1       6.421   7.162  -6.571  1.00  0.00     0.167 HD
ATOM     54  C   UNL     1      -0.750   8.647  -7.596  1.00  0.00     0.037 A 
ATOM     55  C   UNL     1       5.724   5.303  -8.704  1.00  0.00     0.037 A 
ATOM     56  C   UNL     1      -0.215   8.165  -8.847  1.00  0.00     0.049 A 
ATOM     57  C   UNL     1       4.414   4.670  -9.151  1.00  0.00     0.074 A 
ATOM     58  C   UNL     1       0.595   8.643  -9.852  1.00  0.00     0.029 A 
ATOM     59  N   UNL     1      -0.267   6.799  -9.009  1.00  0.00    -0.354 N 
ATOM     60  N   UNL     1       3.314   5.342  -9.385  1.00  0.00    -0.248 NA
ATOM     61  C   UNL     1       4.214   3.236  -9.328  1.00  0.00     0.031 C 
ATOM     62  C   UNL     1       1.205   7.494 -10.466  1.00  0.00     0.029 A 
ATOM     63  C   UNL     1       0.713   6.343  -9.862  1.00  0.00     0.049 A 
ATOM     64  H   UNL     1      -0.926   6.217  -8.567  1.00  0.00     0.167 HD
ATOM     65  C   UNL     1       2.287   4.492  -9.672  1.00  0.00     0.074 A 
ATOM     66  C   UNL     1       2.903   3.175  -9.627  1.00  0.00     0.031 C 
ATOM     67  C   UNL     1       1.002   4.908  -9.893  1.00  0.00     0.037 A 
BRANCH  54  68
ATOM     68  C   UNL     1      -2.118   9.268  -7.412  1.00  0.00     0.064 A 
ATOM     69  C   UNL     1      -2.874   9.674  -8.535  1.00  0.00     0.173 A 
ATOM     70  C   UNL     1      -2.660   9.640  -6.162  1.00  0.00     0.173 A 
ATOM     71  F   UNL     1      -2.472   9.374  -9.779  1.00  0.00    -0.203 F 
ATOM     72  C   UNL     1      -4.049  10.428  -8.420  1.00  0.00     0.198 A 
ATOM     73  C   UNL     1      -3.847  10.383  -6.049  1.00  0.00     0.198 A 
ATOM     74  F   UNL     1      -2.053   9.303  -5.016  1.00  0.00    -0.203 F 
ATOM     75  F   UNL     1      -4.700  10.824  -9.525  1.00  0.00    -0.200 F 
ATOM     76  C   UNL     1      -4.531  10.791  -7.178  1.00  0.00     0.200 A 
ATOM     77  F   UNL     1      -4.317  10.718  -4.838  1.00  0.00    -0.200 F 
ATOM     78  F   UNL     1      -5.642  11.535  -7.071  1.00  0.00    -0.200 F 
ENDBRANCH  54  68
BRANCH  55  79
ATOM     79  C   UNL     1       6.809   4.780  -7.801  1.00  0.00     0.064 A 
ATOM     80  C   UNL     1       8.045   5.483  -7.855  1.00  0.00     0.173 A 
ATOM     81  C   UNL     1       6.558   4.050  -6.635  1.00  0.00     0.173 A 
ATOM     82  F   UNL     1       8.352   6.206  -8.945  1.00  0.00    -0.203 F 
ATOM     83  C   UNL     1       8.855   5.637  -6.731  1.00  0.00     0.198 A 
ATOM     84  C   UNL     1       7.436   4.126  -5.540  1.00  0.00     0.198 A 
ATOM     85  F   UNL     1       5.390   3.413  -6.469  1.00  0.00    -0.203 F 
ATOM     86  F   UNL     1       9.865   6.519  -6.750  1.00  0.00    -0.200 F 
ATOM     87  C   UNL     1       8.536   4.975  -5.565  1.00  0.00     0.200 A 
ATOM     88  F   UNL     1       7.110   3.523  -4.386  1.00  0.00    -0.200 F 
ATOM     89  F   UNL     1       9.230   5.217  -4.443  1.00  0.00    -0.200 F 
ENDBRANCH  55  79
BRANCH  67  90
ATOM     90  C   UNL     1      -0.099   3.913 -10.137  1.00  0.00     0.064 A 
ATOM     91  C   UNL     1       0.006   2.948 -11.148  1.00  0.00     0.173 A 
ATOM     92  C   UNL     1      -1.319   3.942  -9.430  1.00  0.00     0.173 A 
ATOM     93  F   UNL     1       1.120   2.860 -11.890  1.00  0.00    -0.203 F 
ATOM     94  C   UNL     1      -1.029   2.049 -11.409  1.00  0.00     0.198 A 
ATOM     95  C   UNL     1      -2.382   3.101  -9.748  1.00  0.00     0.198 A 
ATOM     96  F   UNL     1      -1.503   4.768  -8.388  1.00  0.00    -0.203 F 
ATOM     97  F   UNL     1      -0.855   1.087 -12.325  1.00  0.00    -0.200 F 
ATOM     98  C   UNL     1      -2.230   2.140 -10.726  1.00  0.00     0.200 A 
ATOM     99  F   UNL     1      -3.544   3.222  -9.091  1.00  0.00    -0.200 F 
ATOM    100  F   UNL     1      -3.232   1.295 -10.998  1.00  0.00    -0.200 F 
ENDBRANCH  67  90
ENDBRANCH  41  42
ENDBRANCH  34  36
ENDBRANCH  33  34
ENDBRANCH  32  33
ENDBRANCH  31  32
ENDBRANCH  30  31
ENDBRANCH  29  30
ENDBRANCH  28  29
ENDBRANCH   1  28
TORSDOF 22
