REMARK SMILES O=C(C[C@@H]1CN(C(=O)[C@H]2C[C@H](O)C[NH2+]2)CCO1)OCCOCCOCCOC(=O)c1ccc(-c2c3nc(c(-c4c(F)c(F)c(F)c(F)c4F)c4ccc([nH]4)c(-c4c(F)c(F)c(F)c(F)c4F)c4nc(c(-c5c(F)c(F)c(F)c(F)c5F)c5ccc2[nH]5)C=C4)C=C3)cc1
REMARK SMILES IDX 22 1 21 2 20 3 19 4 18 5 2 6 1 7 3 8 4 9 5 10 17 11 6 12
REMARK SMILES IDX 16 13 15 14 7 15 8 16 9 17 10 18 14 19 11 20 13 21 12 24
REMARK SMILES IDX 23 26 24 27 25 28 26 29 27 30 28 31 29 32 30 33 31 34 92 35
REMARK SMILES IDX 32 36 91 37 33 38 34 39 35 40 85 41 36 42 90 43 84 44 86 45
REMARK SMILES IDX 37 46 89 47 83 48 82 49 38 51 70 52 50 53 69 54 51 55 54 56
REMARK SMILES IDX 68 57 87 58 52 59 53 60 67 62 88 63 55 64 39 65 40 66 48 67
REMARK SMILES IDX 41 68 42 69 46 70 49 71 43 72 44 73 47 74 45 75 71 76 72 77
REMARK SMILES IDX 80 78 73 79 74 80 78 81 81 82 75 83 76 84 79 85 77 86 56 87
REMARK SMILES IDX 57 88 65 89 58 90 59 91 63 92 66 93 60 94 61 95 64 96 62 97
REMARK H PARENT 14 22 14 23 12 25 86 50 54 61
REMARK Flexibility Score: inf
ROOT
ATOM      1  C   UNL     1       3.085   2.277  -1.293  1.00  0.00     0.188 C 
ENDROOT
BRANCH   1   2
ATOM      2  O   UNL     1       4.487   2.119  -1.249  1.00  0.00    -0.376 OA
BRANCH   2   3
ATOM      3  C   UNL     1       4.997   1.072  -0.453  1.00  0.00     0.202 C 
BRANCH   3   4
ATOM      4  C   UNL     1       4.327  -0.292  -0.566  1.00  0.00     0.261 C 
BRANCH   4   5
ATOM      5  O   UNL     1       2.900  -0.395  -0.341  1.00  0.00    -0.463 OA
BRANCH   5   6
ATOM      6  C   UNL     1       2.130  -0.079   0.716  1.00  0.00     0.308 C 
ATOM      7  O   UNL     1       0.932  -0.354   0.692  1.00  0.00    -0.252 OA
BRANCH   6   8
ATOM      8  C   UNL     1       2.717   0.638   1.897  1.00  0.00     0.156 C 
BRANCH   8   9
ATOM      9  C   UNL     1       3.756  -0.159   2.656  1.00  0.00     0.148 C 
ATOM     10  C   UNL     1       3.403  -1.651   2.722  1.00  0.00     0.152 C 
ATOM     11  O   UNL     1       3.855   0.406   3.975  1.00  0.00    -0.374 OA
ATOM     12  N   UNL     1       4.363  -2.378   3.532  1.00  0.00    -0.333 N 
ATOM     13  C   UNL     1       4.873  -0.265   4.734  1.00  0.00     0.182 C 
ATOM     14  C   UNL     1       4.575  -1.765   4.853  1.00  0.00     0.148 C 
BRANCH  12  15
ATOM     15  C   UNL     1       4.936  -3.609   3.246  1.00  0.00     0.281 C 
ATOM     16  O   UNL     1       5.678  -4.146   4.077  1.00  0.00    -0.268 OA
BRANCH  15  17
ATOM     17  C   UNL     1       4.740  -4.307   1.866  1.00  0.00     0.275 C 
ATOM     18  C   UNL     1       3.324  -4.543   1.341  1.00  0.00     0.113 C 
ATOM     19  N   UNL     1       5.507  -3.611   0.799  1.00  0.00    -0.334 N 
ATOM     20  C   UNL     1       3.325  -3.995  -0.084  1.00  0.00     0.175 C 
ATOM     21  C   UNL     1       4.803  -3.925  -0.448  1.00  0.00     0.293 C 
ATOM     22  H   UNL     1       6.466  -3.956   0.765  1.00  0.00     0.347 HD
ATOM     23  H   UNL     1       5.562  -2.606   0.963  1.00  0.00     0.347 HD
BRANCH  20  24
ATOM     24  O   UNL     1       2.591  -4.840  -0.952  1.00  0.00    -0.387 OA
ATOM     25  H   UNL     1       2.967  -5.734  -0.927  1.00  0.00     0.211 HD
ENDBRANCH  20  24
ENDBRANCH  15  17
ENDBRANCH  12  15
ENDBRANCH   8   9
ENDBRANCH   6   8
ENDBRANCH   5   6
ENDBRANCH   4   5
ENDBRANCH   3   4
ENDBRANCH   2   3
ENDBRANCH   1   2
BRANCH   1  26
ATOM     26  C   UNL     1       2.406   1.699  -2.544  1.00  0.00     0.188 C 
BRANCH  26  27
ATOM     27  O   UNL     1       3.199   0.988  -3.481  1.00  0.00    -0.376 OA
BRANCH  27  28
ATOM     28  C   UNL     1       4.398   1.574  -3.978  1.00  0.00     0.202 C 
BRANCH  28  29
ATOM     29  C   UNL     1       4.475   3.069  -4.355  1.00  0.00     0.261 C 
BRANCH  29  30
ATOM     30  O   UNL     1       4.050   4.007  -3.346  1.00  0.00    -0.460 OA
BRANCH  30  31
ATOM     31  C   UNL     1       2.939   4.733  -3.631  1.00  0.00     0.338 C 
ATOM     32  O   UNL     1       2.292   4.705  -4.665  1.00  0.00    -0.246 OA
BRANCH  31  33
ATOM     33  C   UNL     1       2.453   5.430  -2.414  1.00  0.00     0.060 A 
ATOM     34  C   UNL     1       1.138   5.172  -1.996  1.00  0.00     0.016 A 
ATOM     35  C   UNL     1       3.264   6.290  -1.669  1.00  0.00     0.016 A 
ATOM     36  C   UNL     1       0.618   5.801  -0.864  1.00  0.00     0.010 A 
ATOM     37  C   UNL     1       2.730   6.949  -0.550  1.00  0.00     0.010 A 
ATOM     38  C   UNL     1       1.393   6.737  -0.165  1.00  0.00    -0.014 A 
BRANCH  38  39
ATOM     39  C   UNL     1       0.711   7.652   0.789  1.00  0.00     0.031 A 
ATOM     40  C   UNL     1       0.207   8.971   0.261  1.00  0.00     0.074 A 
ATOM     41  C   UNL     1       0.468   7.311   2.068  1.00  0.00     0.049 A 
ATOM     42  N   UNL     1      -0.467   9.914   0.870  1.00  0.00    -0.248 NA
ATOM     43  C   UNL     1       0.503   9.261  -1.152  1.00  0.00     0.031 C 
ATOM     44  C   UNL     1       0.870   6.059   2.703  1.00  0.00     0.029 A 
ATOM     45  N   UNL     1      -0.185   7.999   3.063  1.00  0.00    -0.354 N 
ATOM     46  C   UNL     1      -0.692  10.893  -0.089  1.00  0.00     0.074 A 
ATOM     47  C   UNL     1      -0.041  10.458  -1.305  1.00  0.00     0.031 C 
ATOM     48  C   UNL     1       0.465   6.072   3.986  1.00  0.00     0.029 A 
ATOM     49  C   UNL     1      -0.213   7.338   4.267  1.00  0.00     0.049 A 
ATOM     50  H   UNL     1      -0.595   8.883   2.925  1.00  0.00     0.167 HD
ATOM     51  C   UNL     1      -1.397  12.045   0.021  1.00  0.00     0.037 A 
ATOM     52  C   UNL     1      -0.719   7.718   5.458  1.00  0.00     0.037 A 
ATOM     53  C   UNL     1      -2.029  12.499   1.230  1.00  0.00     0.049 A 
ATOM     54  C   UNL     1      -1.435   9.044   5.576  1.00  0.00     0.074 A 
ATOM     55  C   UNL     1      -2.754  13.659   1.442  1.00  0.00     0.029 A 
ATOM     56  N   UNL     1      -2.004  11.818   2.437  1.00  0.00    -0.354 N 
ATOM     57  N   UNL     1      -1.672   9.947   4.655  1.00  0.00    -0.248 NA
ATOM     58  C   UNL     1      -1.969   9.394   6.902  1.00  0.00     0.031 C 
ATOM     59  C   UNL     1      -3.126  13.703   2.790  1.00  0.00     0.029 A 
ATOM     60  C   UNL     1      -2.683  12.543   3.404  1.00  0.00     0.049 A 
ATOM     61  H   UNL     1      -1.568  10.948   2.586  1.00  0.00     0.167 HD
ATOM     62  C   UNL     1      -2.400  10.953   5.281  1.00  0.00     0.074 A 
ATOM     63  C   UNL     1      -2.591  10.537   6.653  1.00  0.00     0.031 C 
ATOM     64  C   UNL     1      -2.866  12.120   4.768  1.00  0.00     0.037 A 
BRANCH  51  65
ATOM     65  C   UNL     1      -1.508  12.903  -1.205  1.00  0.00     0.064 A 
ATOM     66  C   UNL     1      -2.296  12.516  -2.301  1.00  0.00     0.173 A 
ATOM     67  C   UNL     1      -0.850  14.139  -1.274  1.00  0.00     0.173 A 
ATOM     68  F   UNL     1      -2.930  11.333  -2.292  1.00  0.00    -0.203 F 
ATOM     69  C   UNL     1      -2.403  13.326  -3.427  1.00  0.00     0.198 A 
ATOM     70  C   UNL     1      -0.984  14.961  -2.389  1.00  0.00     0.198 A 
ATOM     71  F   UNL     1      -0.085  14.555  -0.254  1.00  0.00    -0.203 F 
ATOM     72  F   UNL     1      -3.125  12.916  -4.480  1.00  0.00    -0.200 F 
ATOM     73  C   UNL     1      -1.755  14.552  -3.467  1.00  0.00     0.200 A 
ATOM     74  F   UNL     1      -0.366  16.149  -2.422  1.00  0.00    -0.200 F 
ATOM     75  F   UNL     1      -1.868  15.336  -4.548  1.00  0.00    -0.200 F 
ENDBRANCH  51  65
BRANCH  52  76
ATOM     76  C   UNL     1      -0.559   6.847   6.655  1.00  0.00     0.064 A 
ATOM     77  C   UNL     1      -1.665   6.255   7.284  1.00  0.00     0.173 A 
ATOM     78  C   UNL     1       0.703   6.637   7.231  1.00  0.00     0.173 A 
ATOM     79  F   UNL     1      -2.898   6.451   6.793  1.00  0.00    -0.203 F 
ATOM     80  C   UNL     1      -1.518   5.515   8.456  1.00  0.00     0.198 A 
ATOM     81  C   UNL     1       0.852   5.869   8.384  1.00  0.00     0.198 A 
ATOM     82  F   UNL     1       1.794   7.185   6.676  1.00  0.00    -0.203 F 
ATOM     83  F   UNL     1      -2.600   5.018   9.072  1.00  0.00    -0.200 F 
ATOM     84  C   UNL     1      -0.259   5.318   9.003  1.00  0.00     0.200 A 
ATOM     85  F   UNL     1       2.072   5.674   8.903  1.00  0.00    -0.200 F 
ATOM     86  F   UNL     1      -0.119   4.611  10.132  1.00  0.00    -0.200 F 
ENDBRANCH  52  76
BRANCH  64  87
ATOM     87  C   UNL     1      -3.651  13.014   5.688  1.00  0.00     0.064 A 
ATOM     88  C   UNL     1      -3.044  13.685   6.761  1.00  0.00     0.173 A 
ATOM     89  C   UNL     1      -5.025  13.216   5.485  1.00  0.00     0.173 A 
ATOM     90  F   UNL     1      -1.735  13.522   7.006  1.00  0.00    -0.203 F 
ATOM     91  C   UNL     1      -3.791  14.487   7.621  1.00  0.00     0.198 A 
ATOM     92  C   UNL     1      -5.762  14.046   6.325  1.00  0.00     0.198 A 
ATOM     93  F   UNL     1      -5.655  12.610   4.467  1.00  0.00    -0.203 F 
ATOM     94  F   UNL     1      -3.202  15.064   8.677  1.00  0.00    -0.200 F 
ATOM     95  C   UNL     1      -5.148  14.670   7.400  1.00  0.00     0.200 A 
ATOM     96  F   UNL     1      -7.069  14.236   6.100  1.00  0.00    -0.200 F 
ATOM     97  F   UNL     1      -5.866  15.440   8.230  1.00  0.00    -0.200 F 
ENDBRANCH  64  87
ENDBRANCH  38  39
ENDBRANCH  31  33
ENDBRANCH  30  31
ENDBRANCH  29  30
ENDBRANCH  28  29
ENDBRANCH  27  28
ENDBRANCH  26  27
ENDBRANCH   1  26
TORSDOF 21
