REMARK SMILES O=C(N[C@H]1CCCCC[C@@H]1C(=O)OCCOCCOCCOC(=O)c1ccc(-c2c3nc(c(-c4c(F)c(F)c(F)c(F)c4F)c4ccc([nH]4)c(-c4c(F)c(F)c(F)c(F)c4F)c4nc(c(-c5c(F)c(F)c(F)c(F)c5F)c5ccc2[nH]5)C=C4)C=C3)cc1)c1cncc(Br)c1
REMARK SMILES IDX 17 1 16 2 15 3 14 4 13 5 11 6 12 7 10 8 4 9 3 10 1 11 2 12
REMARK SMILES IDX 88 14 89 15 94 16 90 17 92 18 91 19 93 20 5 21 6 22 9 24
REMARK SMILES IDX 8 25 7 26 18 28 19 29 20 30 21 31 22 32 23 33 24 34 25 35
REMARK SMILES IDX 26 36 87 37 27 38 86 39 28 40 29 41 30 42 80 43 31 44 85 45
REMARK SMILES IDX 79 46 81 47 32 48 84 49 78 50 77 51 33 53 65 54 45 55 64 56
REMARK SMILES IDX 46 57 49 58 63 59 82 60 47 61 48 62 62 64 83 65 50 66 34 67
REMARK SMILES IDX 35 68 43 69 36 70 37 71 41 72 44 73 38 74 39 75 42 76 40 77
REMARK SMILES IDX 66 78 67 79 75 80 68 81 69 82 73 83 76 84 70 85 71 86 74 87
REMARK SMILES IDX 72 88 51 89 52 90 60 91 53 92 54 93 58 94 61 95 55 96 56 97
REMARK SMILES IDX 59 98 57 99
REMARK H PARENT 3 13 81 52 49 63
REMARK Flexibility Score: 100.00
ROOT
ATOM      1  C   UNL     1       1.872  -0.273   2.475  1.00  0.00     0.188 C 
ENDROOT
BRANCH   1   2
ATOM      2  O   UNL     1       1.221   0.599   3.386  1.00  0.00    -0.376 OA
BRANCH   2   3
ATOM      3  C   UNL     1       1.340   1.997   3.188  1.00  0.00     0.202 C 
BRANCH   3   4
ATOM      4  C   UNL     1       2.719   2.600   2.911  1.00  0.00     0.261 C 
BRANCH   4   5
ATOM      5  O   UNL     1       3.484   2.036   1.825  1.00  0.00    -0.463 OA
BRANCH   5   6
ATOM      6  C   UNL     1       4.628   1.381   2.160  1.00  0.00     0.311 C 
ATOM      7  O   UNL     1       4.971   1.157   3.316  1.00  0.00    -0.252 OA
BRANCH   6   8
ATOM      8  C   UNL     1       5.437   0.858   0.964  1.00  0.00     0.121 C 
BRANCH   8   9
ATOM      9  C   UNL     1       5.028   1.412  -0.427  1.00  0.00     0.096 C 
BRANCH   9  10
ATOM     10  N   UNL     1       5.709   2.666  -0.855  1.00  0.00    -0.348 N 
ATOM     11  O   UNL     1       5.936   4.884  -1.111  1.00  0.00    -0.269 OA
ATOM     12  C   UNL     1       5.762   3.938  -0.347  1.00  0.00     0.253 C 
ATOM     13  H   UNL     1       6.234   2.558  -1.681  1.00  0.00     0.164 HD
BRANCH  12  14
ATOM     14  C   UNL     1       5.668   4.223   1.082  1.00  0.00     0.059 A 
ATOM     15  C   UNL     1       6.644   3.760   1.952  1.00  0.00     0.124 A 
ATOM     16  C   UNL     1       4.682   5.077   1.576  1.00  0.00     0.032 A 
ATOM     17  N   UNL     1       6.621   3.981   3.287  1.00  0.00    -0.263 NA
ATOM     18  C   UNL     1       4.651   5.338   2.943  1.00  0.00     0.037 A 
ATOM     19  C   UNL     1       5.608   4.747   3.758  1.00  0.00     0.126 A 
ATOM     20  Br  UNL     1       3.296   6.421   3.687  1.00  0.00    -0.049 Br
ENDBRANCH  12  14
ENDBRANCH   9  10
BRANCH   9  21
ATOM     21  C   UNL     1       5.222   0.387  -1.581  1.00  0.00     0.026 C 
BRANCH  21  22
ATOM     22  C   UNL     1       6.645  -0.173  -1.703  1.00  0.00     0.002 CG0
ATOM     23  G   UNL     1       6.864  -1.461  -0.915  1.00  0.00     0.000 G0
ENDBRANCH  21  22
ENDBRANCH   9  21
ENDBRANCH   8   9
BRANCH   8  24
ATOM     24  C   UNL     1       5.449  -0.690   1.083  1.00  0.00     0.017 C 
BRANCH  24  25
ATOM     25  C   UNL     1       6.756  -1.315   0.597  1.00  0.00     0.001 C 
BRANCH  25  26
ATOM     26  C   UNL     1       6.864  -1.461  -0.915  1.00  0.00     0.000 CG0
ATOM     27  G   UNL     1       6.645  -0.173  -1.703  1.00  0.00     0.000 G0
ENDBRANCH  25  26
ENDBRANCH  24  25
ENDBRANCH   8  24
ENDBRANCH   6   8
ENDBRANCH   5   6
ENDBRANCH   4   5
ENDBRANCH   3   4
ENDBRANCH   2   3
ENDBRANCH   1   2
BRANCH   1  28
ATOM     28  C   UNL     1       1.701  -0.034   0.958  1.00  0.00     0.188 C 
BRANCH  28  29
ATOM     29  O   UNL     1       0.887   1.068   0.636  1.00  0.00    -0.376 OA
BRANCH  29  30
ATOM     30  C   UNL     1      -0.467   0.827   0.291  1.00  0.00     0.202 C 
BRANCH  30  31
ATOM     31  C   UNL     1      -1.335  -0.238   0.999  1.00  0.00     0.261 C 
BRANCH  31  32
ATOM     32  O   UNL     1      -0.679  -1.381   1.570  1.00  0.00    -0.460 OA
BRANCH  32  33
ATOM     33  C   UNL     1      -0.401  -2.430   0.762  1.00  0.00     0.338 C 
ATOM     34  O   UNL     1      -0.659  -2.525  -0.426  1.00  0.00    -0.246 OA
BRANCH  33  35
ATOM     35  C   UNL     1       0.513  -3.344   1.496  1.00  0.00     0.060 A 
ATOM     36  C   UNL     1       1.782  -3.600   0.952  1.00  0.00     0.016 A 
ATOM     37  C   UNL     1       0.164  -3.890   2.734  1.00  0.00     0.016 A 
ATOM     38  C   UNL     1       2.686  -4.428   1.623  1.00  0.00     0.010 A 
ATOM     39  C   UNL     1       1.059  -4.746   3.392  1.00  0.00     0.010 A 
ATOM     40  C   UNL     1       2.310  -5.048   2.822  1.00  0.00    -0.014 A 
BRANCH  40  41
ATOM     41  C   UNL     1       3.110  -6.197   3.325  1.00  0.00     0.031 A 
ATOM     42  C   UNL     1       2.677  -7.582   2.914  1.00  0.00     0.074 A 
ATOM     43  C   UNL     1       4.220  -6.038   4.070  1.00  0.00     0.049 A 
ATOM     44  N   UNL     1       3.183  -8.747   3.231  1.00  0.00    -0.248 NA
ATOM     45  C   UNL     1       1.514  -7.659   2.013  1.00  0.00     0.031 C 
ATOM     46  C   UNL     1       4.787  -4.759   4.490  1.00  0.00     0.029 A 
ATOM     47  N   UNL     1       5.071  -6.976   4.609  1.00  0.00    -0.354 N 
ATOM     48  C   UNL     1       2.408  -9.688   2.564  1.00  0.00     0.074 A 
ATOM     49  C   UNL     1       1.374  -8.966   1.857  1.00  0.00     0.031 C 
ATOM     50  C   UNL     1       5.886  -4.992   5.232  1.00  0.00     0.029 A 
ATOM     51  C   UNL     1       6.083  -6.436   5.365  1.00  0.00     0.049 A 
ATOM     52  H   UNL     1       4.964  -7.944   4.465  1.00  0.00     0.167 HD
ATOM     53  C   UNL     1       2.551 -11.033   2.527  1.00  0.00     0.037 A 
ATOM     54  C   UNL     1       7.041  -7.043   6.097  1.00  0.00     0.037 A 
ATOM     55  C   UNL     1       3.567 -11.761   3.236  1.00  0.00     0.049 A 
ATOM     56  C   UNL     1       7.109  -8.554   6.126  1.00  0.00     0.074 A 
ATOM     57  C   UNL     1       3.776 -13.129   3.282  1.00  0.00     0.029 A 
ATOM     58  N   UNL     1       4.545 -11.180   4.028  1.00  0.00    -0.354 N 
ATOM     59  N   UNL     1       6.379  -9.434   5.484  1.00  0.00    -0.248 NA
ATOM     60  C   UNL     1       8.143  -9.154   6.984  1.00  0.00     0.031 C 
ATOM     61  C   UNL     1       4.853 -13.379   4.138  1.00  0.00     0.029 A 
ATOM     62  C   UNL     1       5.351 -12.164   4.579  1.00  0.00     0.049 A 
ATOM     63  H   UNL     1       4.651 -10.213   4.177  1.00  0.00     0.167 HD
ATOM     64  C   UNL     1       6.891 -10.681   5.827  1.00  0.00     0.074 A 
ATOM     65  C   UNL     1       8.005 -10.445   6.718  1.00  0.00     0.031 C 
ATOM     66  C   UNL     1       6.474 -11.913   5.443  1.00  0.00     0.037 A 
BRANCH  53  67
ATOM     67  C   UNL     1       1.574 -11.812   1.697  1.00  0.00     0.064 A 
ATOM     68  C   UNL     1       1.618 -11.782   0.295  1.00  0.00     0.173 A 
ATOM     69  C   UNL     1       0.617 -12.636   2.308  1.00  0.00     0.173 A 
ATOM     70  F   UNL     1       2.501 -10.994  -0.336  1.00  0.00    -0.203 F 
ATOM     71  C   UNL     1       0.731 -12.541  -0.464  1.00  0.00     0.198 A 
ATOM     72  C   UNL     1      -0.248 -13.415   1.546  1.00  0.00     0.198 A 
ATOM     73  F   UNL     1       0.534 -12.698   3.646  1.00  0.00    -0.203 F 
ATOM     74  F   UNL     1       0.767 -12.469  -1.802  1.00  0.00    -0.200 F 
ATOM     75  C   UNL     1      -0.193 -13.364   0.161  1.00  0.00     0.200 A 
ATOM     76  F   UNL     1      -1.133 -14.219   2.151  1.00  0.00    -0.200 F 
ATOM     77  F   UNL     1      -1.035 -14.106  -0.572  1.00  0.00    -0.200 F 
ENDBRANCH  53  67
BRANCH  54  78
ATOM     78  C   UNL     1       8.011  -6.244   6.899  1.00  0.00     0.064 A 
ATOM     79  C   UNL     1       9.387  -6.283   6.625  1.00  0.00     0.173 A 
ATOM     80  C   UNL     1       7.593  -5.501   8.013  1.00  0.00     0.173 A 
ATOM     81  F   UNL     1       9.843  -7.006   5.591  1.00  0.00    -0.203 F 
ATOM     82  C   UNL     1      10.307  -5.646   7.456  1.00  0.00     0.198 A 
ATOM     83  C   UNL     1       8.512  -4.834   8.823  1.00  0.00     0.198 A 
ATOM     84  F   UNL     1       6.292  -5.438   8.329  1.00  0.00    -0.203 F 
ATOM     85  F   UNL     1      11.620  -5.769   7.216  1.00  0.00    -0.200 F 
ATOM     86  C   UNL     1       9.869  -4.920   8.553  1.00  0.00     0.200 A 
ATOM     87  F   UNL     1       8.083  -4.130   9.879  1.00  0.00    -0.200 F 
ATOM     88  F   UNL     1      10.755  -4.323   9.361  1.00  0.00    -0.200 F 
ENDBRANCH  54  78
BRANCH  66  89
ATOM     89  C   UNL     1       7.260 -13.098   5.932  1.00  0.00     0.064 A 
ATOM     90  C   UNL     1       7.244 -13.495   7.277  1.00  0.00     0.173 A 
ATOM     91  C   UNL     1       8.017 -13.866   5.032  1.00  0.00     0.173 A 
ATOM     92  F   UNL     1       6.545 -12.792   8.181  1.00  0.00    -0.203 F 
ATOM     93  C   UNL     1       7.986 -14.593   7.709  1.00  0.00     0.198 A 
ATOM     94  C   UNL     1       8.728 -14.983   5.461  1.00  0.00     0.198 A 
ATOM     95  F   UNL     1       8.058 -13.539   3.731  1.00  0.00    -0.203 F 
ATOM     96  F   UNL     1       8.002 -14.917   9.009  1.00  0.00    -0.200 F 
ATOM     97  C   UNL     1       8.721 -15.339   6.801  1.00  0.00     0.200 A 
ATOM     98  F   UNL     1       9.423 -15.713   4.578  1.00  0.00    -0.200 F 
ATOM     99  F   UNL     1       9.431 -16.396   7.218  1.00  0.00    -0.200 F 
ENDBRANCH  66  89
ENDBRANCH  40  41
ENDBRANCH  33  35
ENDBRANCH  32  33
ENDBRANCH  31  32
ENDBRANCH  30  31
ENDBRANCH  29  30
ENDBRANCH  28  29
ENDBRANCH   1  28
TORSDOF 19
