REMARK SMILES C[NH2+][C@]1(C(=O)OCCOCCOCCOC(=O)c2ccc(-c3c4nc(c(-c5c(F)c(F)c(F)c(F)c5F)c5ccc([nH]5)c(-c5c(F)c(F)c(F)c(F)c5F)c5nc(c(-c6c(F)c(F)c(F)c(F)c6F)c6ccc3[nH]6)C=C5)C=C4)cc2)CC[C@H]([N@@H+]2CCC[N@H+]3CCC[C@@H]3C2)C1
REMARK SMILES IDX 9 1 8 2 7 3 6 4 4 5 5 6 3 7 81 8 94 9 82 10 83 11 2 12 1 13
REMARK SMILES IDX 84 16 85 18 86 19 87 20 88 21 89 22 92 23 90 25 91 26 93 28
REMARK SMILES IDX 10 30 11 31 12 32 13 33 14 34 15 35 16 36 17 37 18 38 19 39
REMARK SMILES IDX 80 40 20 41 79 42 21 43 22 44 23 45 73 46 24 47 78 48 72 49
REMARK SMILES IDX 74 50 25 51 77 52 71 53 70 54 26 56 58 57 38 58 57 59 39 60
REMARK SMILES IDX 42 61 56 62 75 63 40 64 41 65 55 67 76 68 43 69 27 70 28 71
REMARK SMILES IDX 36 72 29 73 30 74 34 75 37 76 31 77 32 78 35 79 33 80 59 81
REMARK SMILES IDX 60 82 68 83 61 84 62 85 66 86 69 87 63 88 64 89 67 90 65 91
REMARK SMILES IDX 44 92 45 93 53 94 46 95 47 96 51 97 54 98 48 99 49 100
REMARK SMILES IDX 52 101 50 102
REMARK H PARENT 2 14 2 15 84 17 88 24 74 55 42 66
REMARK Flexibility Score: 80.00
ROOT
ATOM      1  O   UNL     1       3.499   0.459  -0.703  1.00  0.00    -0.376 OA
ENDROOT
BRANCH   1   2
ATOM      2  C   UNL     1       3.824  -0.278  -1.885  1.00  0.00     0.202 C 
BRANCH   2   3
ATOM      3  C   UNL     1       2.892  -1.438  -2.284  1.00  0.00     0.261 C 
BRANCH   3   4
ATOM      4  O   UNL     1       1.500  -1.071  -2.406  1.00  0.00    -0.459 OA
BRANCH   4   5
ATOM      5  C   UNL     1       0.645  -1.821  -1.661  1.00  0.00     0.368 C 
ATOM      6  O   UNL     1       0.975  -2.850  -1.072  1.00  0.00    -0.245 OA
BRANCH   5   7
ATOM      7  C   UNL     1      -0.780  -1.226  -1.522  1.00  0.00     0.200 C 
ATOM      8  C   UNL     1      -1.264  -0.197  -2.562  1.00  0.00     0.087 C 
ATOM      9  C   UNL     1      -1.723  -2.401  -1.873  1.00  0.00     0.146 C 
ATOM     10  C   UNL     1      -2.798  -0.333  -2.575  1.00  0.00     0.072 C 
ATOM     11  C   UNL     1      -3.082  -1.820  -2.299  1.00  0.00     0.191 C 
BRANCH   7  12
ATOM     12  N   UNL     1      -0.947  -0.550  -0.198  1.00  0.00    -0.334 N 
ATOM     13  C   UNL     1      -0.509  -1.293   0.976  1.00  0.00     0.331 C 
ATOM     14  H   UNL     1      -0.419   0.322  -0.227  1.00  0.00     0.347 HD
ATOM     15  H   UNL     1      -1.954  -0.435  -0.081  1.00  0.00     0.347 HD
ENDBRANCH   7  12
BRANCH  11  16
ATOM     16  N   UNL     1      -4.190  -2.161  -1.383  1.00  0.00    -0.327 N 
ATOM     17  H   UNL     1      -4.255  -3.179  -1.413  1.00  0.00     0.348 HD
BRANCH  16  18
ATOM     18  C   UNL     1      -5.485  -1.639  -1.838  1.00  0.00     0.268 C 
BRANCH  18  19
ATOM     19  C   UNL     1      -6.641  -2.421  -1.213  1.00  0.00     0.123 C 
BRANCH  19  20
ATOM     20  C   UNL     1      -7.117  -1.944   0.166  1.00  0.00     0.268 C 
BRANCH  20  21
ATOM     21  N   UNL     1      -6.113  -1.561   1.158  1.00  0.00    -0.328 N 
ATOM     22  C   UNL     1      -6.617  -1.663   2.531  1.00  0.00     0.262 C 
ATOM     23  C   UNL     1      -4.869  -2.321   1.105  1.00  0.00     0.240 CG0
ATOM     24  H   UNL     1      -5.912  -0.593   0.906  1.00  0.00     0.348 HD
ATOM     25  C   UNL     1      -5.386  -1.805   3.416  1.00  0.00     0.068 C 
ATOM     26  C   UNL     1      -4.228  -2.000   2.461  1.00  0.00     0.077 C 
ATOM     27  G   UNL     1      -3.919  -1.810   0.013  1.00  0.00     0.000 G0
ENDBRANCH  20  21
ENDBRANCH  19  20
ENDBRANCH  18  19
ENDBRANCH  16  18
BRANCH  16  28
ATOM     28  C   UNL     1      -3.919  -1.810   0.013  1.00  0.00     0.328 CG0
ATOM     29  G   UNL     1      -4.869  -2.321   1.105  1.00  0.00     0.000 G0
ENDBRANCH  16  28
ENDBRANCH  11  16
ENDBRANCH   5   7
ENDBRANCH   4   5
ENDBRANCH   3   4
ENDBRANCH   2   3
ENDBRANCH   1   2
BRANCH   1  30
ATOM     30  C   UNL     1       2.172   0.967  -0.618  1.00  0.00     0.188 C 
BRANCH  30  31
ATOM     31  C   UNL     1       1.741   1.919  -1.734  1.00  0.00     0.188 C 
BRANCH  31  32
ATOM     32  O   UNL     1       2.248   1.608  -3.013  1.00  0.00    -0.376 OA
BRANCH  32  33
ATOM     33  C   UNL     1       2.471   2.656  -3.950  1.00  0.00     0.202 C 
BRANCH  33  34
ATOM     34  C   UNL     1       3.119   3.997  -3.520  1.00  0.00     0.261 C 
BRANCH  34  35
ATOM     35  O   UNL     1       2.647   4.643  -2.319  1.00  0.00    -0.460 OA
BRANCH  35  36
ATOM     36  C   UNL     1       1.335   4.964  -2.244  1.00  0.00     0.338 C 
ATOM     37  O   UNL     1       0.542   4.963  -3.174  1.00  0.00    -0.246 OA
BRANCH  36  38
ATOM     38  C   UNL     1       0.938   5.059  -0.805  1.00  0.00     0.060 A 
ATOM     39  C   UNL     1      -0.261   4.447  -0.408  1.00  0.00     0.016 A 
ATOM     40  C   UNL     1       1.741   5.674   0.162  1.00  0.00     0.016 A 
ATOM     41  C   UNL     1      -0.689   4.499   0.926  1.00  0.00     0.010 A 
ATOM     42  C   UNL     1       1.304   5.742   1.496  1.00  0.00     0.010 A 
ATOM     43  C   UNL     1       0.066   5.192   1.881  1.00  0.00    -0.014 A 
BRANCH  43  44
ATOM     44  C   UNL     1      -0.525   5.535   3.208  1.00  0.00     0.031 A 
ATOM     45  C   UNL     1      -1.096   6.920   3.393  1.00  0.00     0.074 A 
ATOM     46  C   UNL     1      -0.577   4.663   4.232  1.00  0.00     0.049 A 
ATOM     47  N   UNL     1      -1.577   7.493   4.469  1.00  0.00    -0.248 NA
ATOM     48  C   UNL     1      -1.121   7.774   2.196  1.00  0.00     0.031 C 
ATOM     49  C   UNL     1      -0.120   3.278   4.192  1.00  0.00     0.029 A 
ATOM     50  N   UNL     1      -1.030   4.830   5.522  1.00  0.00    -0.354 N 
ATOM     51  C   UNL     1      -1.946   8.775   4.080  1.00  0.00     0.074 A 
ATOM     52  C   UNL     1      -1.607   8.906   2.680  1.00  0.00     0.031 C 
ATOM     53  C   UNL     1      -0.296   2.725   5.406  1.00  0.00     0.029 A 
ATOM     54  C   UNL     1      -0.844   3.728   6.321  1.00  0.00     0.049 A 
ATOM     55  H   UNL     1      -1.449   5.662   5.841  1.00  0.00     0.167 HD
ATOM     56  C   UNL     1      -2.522   9.756   4.817  1.00  0.00     0.037 A 
ATOM     57  C   UNL     1      -1.061   3.558   7.643  1.00  0.00     0.037 A 
ATOM     58  C   UNL     1      -2.865   9.635   6.210  1.00  0.00     0.049 A 
ATOM     59  C   UNL     1      -1.621   4.695   8.467  1.00  0.00     0.074 A 
ATOM     60  C   UNL     1      -3.467  10.572   7.033  1.00  0.00     0.029 A 
ATOM     61  N   UNL     1      -2.629   8.513   6.989  1.00  0.00    -0.354 N 
ATOM     62  N   UNL     1      -1.983   5.897   8.089  1.00  0.00    -0.248 NA
ATOM     63  C   UNL     1      -1.803   4.447   9.907  1.00  0.00     0.031 C 
ATOM     64  C   UNL     1      -3.538  10.040   8.324  1.00  0.00     0.029 A 
ATOM     65  C   UNL     1      -3.045   8.746   8.290  1.00  0.00     0.049 A 
ATOM     66  H   UNL     1      -2.225   7.675   6.665  1.00  0.00     0.167 HD
ATOM     67  C   UNL     1      -2.466   6.531   9.230  1.00  0.00     0.074 A 
ATOM     68  C   UNL     1      -2.362   5.578  10.313  1.00  0.00     0.031 C 
ATOM     69  C   UNL     1      -2.953   7.789   9.364  1.00  0.00     0.037 A 
BRANCH  56  70
ATOM     70  C   UNL     1      -2.788  11.068   4.136  1.00  0.00     0.064 A 
ATOM     71  C   UNL     1      -3.779  11.205   3.152  1.00  0.00     0.173 A 
ATOM     72  C   UNL     1      -2.063  12.213   4.499  1.00  0.00     0.173 A 
ATOM     73  F   UNL     1      -4.492  10.138   2.759  1.00  0.00    -0.203 F 
ATOM     74  C   UNL     1      -4.013  12.432   2.536  1.00  0.00     0.198 A 
ATOM     75  C   UNL     1      -2.322  13.445   3.905  1.00  0.00     0.198 A 
ATOM     76  F   UNL     1      -1.108  12.140   5.438  1.00  0.00    -0.203 F 
ATOM     77  F   UNL     1      -4.927  12.527   1.561  1.00  0.00    -0.200 F 
ATOM     78  C   UNL     1      -3.290  13.552   2.918  1.00  0.00     0.200 A 
ATOM     79  F   UNL     1      -1.634  14.530   4.288  1.00  0.00    -0.200 F 
ATOM     80  F   UNL     1      -3.522  14.734   2.331  1.00  0.00    -0.200 F 
ENDBRANCH  56  70
BRANCH  57  81
ATOM     81  C   UNL     1      -0.727   2.261   8.295  1.00  0.00     0.064 A 
ATOM     82  C   UNL     1      -1.729   1.440   8.834  1.00  0.00     0.173 A 
ATOM     83  C   UNL     1       0.603   1.837   8.435  1.00  0.00     0.173 A 
ATOM     84  F   UNL     1      -3.014   1.816   8.759  1.00  0.00    -0.203 F 
ATOM     85  C   UNL     1      -1.413   0.258   9.502  1.00  0.00     0.198 A 
ATOM     86  C   UNL     1       0.916   0.639   9.075  1.00  0.00     0.198 A 
ATOM     87  F   UNL     1       1.602   2.590   7.951  1.00  0.00    -0.203 F 
ATOM     88  F   UNL     1      -2.386  -0.477  10.057  1.00  0.00    -0.200 F 
ATOM     89  C   UNL     1      -0.091  -0.145   9.616  1.00  0.00     0.200 A 
ATOM     90  F   UNL     1       2.194   0.251   9.176  1.00  0.00    -0.200 F 
ATOM     91  F   UNL     1       0.213  -1.281  10.258  1.00  0.00    -0.200 F 
ENDBRANCH  57  81
BRANCH  69  92
ATOM     92  C   UNL     1      -3.464   8.204  10.717  1.00  0.00     0.064 A 
ATOM     93  C   UNL     1      -2.603   8.419  11.804  1.00  0.00     0.173 A 
ATOM     94  C   UNL     1      -4.835   8.437  10.915  1.00  0.00     0.173 A 
ATOM     95  F   UNL     1      -1.286   8.201  11.675  1.00  0.00    -0.203 F 
ATOM     96  C   UNL     1      -3.098   8.823  13.043  1.00  0.00     0.198 A 
ATOM     97  C   UNL     1      -5.322   8.873  12.145  1.00  0.00     0.198 A 
ATOM     98  F   UNL     1      -5.704   8.257   9.909  1.00  0.00    -0.203 F 
ATOM     99  F   UNL     1      -2.261   8.973  14.079  1.00  0.00    -0.200 F 
ATOM    100  C   UNL     1      -4.454   9.057  13.210  1.00  0.00     0.200 A 
ATOM    101  F   UNL     1      -6.631   9.117  12.298  1.00  0.00    -0.200 F 
ATOM    102  F   UNL     1      -4.926   9.456  14.400  1.00  0.00    -0.200 F 
ENDBRANCH  69  92
ENDBRANCH  43  44
ENDBRANCH  36  38
ENDBRANCH  35  36
ENDBRANCH  34  35
ENDBRANCH  33  34
ENDBRANCH  32  33
ENDBRANCH  31  32
ENDBRANCH  30  31
ENDBRANCH   1  30
TORSDOF 19
