REMARK SMILES Cc1c(CC(=O)N[C@H](CO)C(=O)OCCOCCOCCOC(=O)c2ccc(-c3c4nc(c(-c5c(F)c(F)c(F)c(F)c5F)c5ccc([nH]5)c(-c5c(F)c(F)c(F)c(F)c5F)c5nc(c(-c6c(F)c(F)c(F)c(F)c6F)c6ccc3[nH]6)C=C5)C=C4)cc2)cc(-c2ccc(S(C)(=O)=O)cc2)n1-c1cccc(F)c1
REMARK SMILES IDX 16 1 15 2 14 3 13 4 11 5 12 6 8 7 7 8 5 9 6 10 4 12 3 13
REMARK SMILES IDX 1 14 2 15 100 16 88 17 89 18 101 19 102 20 107 21 103 22
REMARK SMILES IDX 105 23 104 24 106 25 90 26 91 27 99 28 92 29 98 30 93 31
REMARK SMILES IDX 94 32 95 33 96 34 97 35 9 36 10 37 17 39 18 40 19 41 20 42
REMARK SMILES IDX 21 43 22 44 23 45 24 46 25 47 26 48 87 49 27 50 86 51 28 52
REMARK SMILES IDX 29 53 30 54 80 55 31 56 85 57 79 58 81 59 32 60 84 61 78 62
REMARK SMILES IDX 77 63 33 65 65 66 45 67 64 68 46 69 49 70 63 71 82 72 47 73
REMARK SMILES IDX 48 74 62 76 83 77 50 78 34 79 35 80 43 81 36 82 37 83 41 84
REMARK SMILES IDX 44 85 38 86 39 87 42 88 40 89 66 90 67 91 75 92 68 93 69 94
REMARK SMILES IDX 73 95 76 96 70 97 71 98 74 99 72 100 51 101 52 102 60 103
REMARK SMILES IDX 53 104 54 105 58 106 61 107 55 108 56 109 59 110 57 111
REMARK H PARENT 7 11 10 38 81 64 49 75
REMARK Flexibility Score: inf
ROOT
ATOM      1  O   UNL     1       0.358  -7.769  -3.417  1.00  0.00    -0.376 OA
ENDROOT
BRANCH   1   2
ATOM      2  C   UNL     1      -0.823  -7.610  -4.202  1.00  0.00     0.202 C 
BRANCH   2   3
ATOM      3  C   UNL     1      -1.988  -6.715  -3.764  1.00  0.00     0.261 C 
BRANCH   3   4
ATOM      4  O   UNL     1      -1.586  -5.389  -3.401  1.00  0.00    -0.462 OA
BRANCH   4   5
ATOM      5  C   UNL     1      -2.071  -4.947  -2.210  1.00  0.00     0.331 C 
ATOM      6  O   UNL     1      -2.848  -5.580  -1.501  1.00  0.00    -0.250 OA
BRANCH   5   7
ATOM      7  C   UNL     1      -1.470  -3.607  -1.773  1.00  0.00     0.218 C 
BRANCH   7   8
ATOM      8  N   UNL     1      -2.533  -2.890  -1.057  1.00  0.00    -0.341 N 
ATOM      9  C   UNL     1      -2.464  -1.818  -0.226  1.00  0.00     0.225 C 
ATOM     10  O   UNL     1      -3.516  -1.385   0.251  1.00  0.00    -0.275 OA
ATOM     11  H   UNL     1      -3.441  -3.244  -1.201  1.00  0.00     0.164 HD
BRANCH   9  12
ATOM     12  C   UNL     1      -1.125  -1.183   0.104  1.00  0.00     0.137 C 
BRANCH  12  13
ATOM     13  C   UNL     1      -0.237  -2.077   0.923  1.00  0.00    -0.017 A 
ATOM     14  C   UNL     1      -1.840  -2.592   2.888  1.00  0.00     0.065 C 
ATOM     15  C   UNL     1      -0.562  -2.711   2.116  1.00  0.00     0.024 A 
ATOM     16  N   UNL     1       0.546  -3.425   2.552  1.00  0.00    -0.313 N 
ATOM     17  C   UNL     1       1.119  -2.396   0.648  1.00  0.00     0.033 A 
ATOM     18  C   UNL     1       1.592  -3.234   1.644  1.00  0.00     0.053 A 
BRANCH  16  19
ATOM     19  C   UNL     1       0.617  -4.215   3.732  1.00  0.00     0.049 A 
ATOM     20  C   UNL     1       1.676  -4.026   4.632  1.00  0.00     0.027 A 
ATOM     21  C   UNL     1      -0.326  -5.224   3.946  1.00  0.00     0.065 A 
ATOM     22  C   UNL     1       1.804  -4.863   5.740  1.00  0.00     0.005 A 
ATOM     23  C   UNL     1      -0.174  -6.056   5.048  1.00  0.00     0.125 A 
ATOM     24  C   UNL     1       0.881  -5.888   5.943  1.00  0.00     0.039 A 
ATOM     25  F   UNL     1      -1.043  -7.056   5.242  1.00  0.00    -0.207 F 
ENDBRANCH  16  19
BRANCH  18  26
ATOM     26  C   UNL     1       2.920  -3.858   1.755  1.00  0.00    -0.001 A 
ATOM     27  C   UNL     1       3.058  -5.249   1.894  1.00  0.00     0.011 A 
ATOM     28  C   UNL     1       4.068  -3.055   1.786  1.00  0.00     0.011 A 
ATOM     29  C   UNL     1       4.310  -5.822   2.134  1.00  0.00     0.021 A 
ATOM     30  C   UNL     1       5.325  -3.622   2.020  1.00  0.00     0.021 A 
ATOM     31  C   UNL     1       5.436  -4.999   2.218  1.00  0.00     0.067 A 
BRANCH  31  32
ATOM     32  S   UNL     1       7.018  -5.741   2.544  1.00  0.00     0.175 S 
ATOM     33  C   UNL     1       6.898  -6.322   4.215  1.00  0.00     0.163 C 
ATOM     34  O   UNL     1       7.148  -6.881   1.680  1.00  0.00    -0.224 OA
ATOM     35  O   UNL     1       8.015  -4.669   2.538  1.00  0.00    -0.224 OA
ENDBRANCH  31  32
ENDBRANCH  18  26
ENDBRANCH  12  13
ENDBRANCH   9  12
ENDBRANCH   7   8
BRANCH   7  36
ATOM     36  C   UNL     1      -0.844  -2.788  -2.914  1.00  0.00     0.193 C 
BRANCH  36  37
ATOM     37  O   UNL     1      -1.804  -2.009  -3.624  1.00  0.00    -0.394 OA
ATOM     38  H   UNL     1      -2.458  -2.597  -4.033  1.00  0.00     0.210 HD
ENDBRANCH  36  37
ENDBRANCH   7  36
ENDBRANCH   5   7
ENDBRANCH   4   5
ENDBRANCH   3   4
ENDBRANCH   2   3
ENDBRANCH   1   2
BRANCH   1  39
ATOM     39  C   UNL     1       0.929  -6.682  -2.711  1.00  0.00     0.188 C 
BRANCH  39  40
ATOM     40  C   UNL     1       1.854  -5.688  -3.438  1.00  0.00     0.188 C 
BRANCH  40  41
ATOM     41  O   UNL     1       1.595  -5.420  -4.799  1.00  0.00    -0.376 OA
BRANCH  41  42
ATOM     42  C   UNL     1       2.026  -6.414  -5.732  1.00  0.00     0.202 C 
BRANCH  42  43
ATOM     43  C   UNL     1       3.520  -6.854  -5.807  1.00  0.00     0.261 C 
BRANCH  43  44
ATOM     44  O   UNL     1       4.051  -7.916  -4.923  1.00  0.00    -0.460 OA
BRANCH  44  45
ATOM     45  C   UNL     1       5.281  -7.669  -4.345  1.00  0.00     0.338 C 
ATOM     46  O   UNL     1       5.706  -6.533  -4.164  1.00  0.00    -0.246 OA
BRANCH  45  47
ATOM     47  C   UNL     1       6.153  -8.876  -3.938  1.00  0.00     0.060 A 
ATOM     48  C   UNL     1       6.286  -9.229  -2.600  1.00  0.00     0.016 A 
ATOM     49  C   UNL     1       7.131  -9.460  -4.779  1.00  0.00     0.016 A 
ATOM     50  C   UNL     1       7.306 -10.158  -2.153  1.00  0.00     0.010 A 
ATOM     51  C   UNL     1       8.211 -10.363  -4.306  1.00  0.00     0.010 A 
ATOM     52  C   UNL     1       8.354 -10.754  -2.960  1.00  0.00    -0.014 A 
BRANCH  52  53
ATOM     53  C   UNL     1       9.705 -11.317  -2.172  1.00  0.00     0.031 A 
ATOM     54  C   UNL     1       9.887 -10.279  -1.117  1.00  0.00     0.074 A 
ATOM     55  C   UNL     1      10.753 -12.265  -2.168  1.00  0.00     0.049 A 
ATOM     56  N   UNL     1       9.999  -9.022  -1.453  1.00  0.00    -0.248 NA
ATOM     57  C   UNL     1       9.580 -10.515   0.294  1.00  0.00     0.031 C 
ATOM     58  C   UNL     1      11.039 -13.322  -3.158  1.00  0.00     0.029 A 
ATOM     59  N   UNL     1      11.852 -12.529  -1.251  1.00  0.00    -0.354 N 
ATOM     60  C   UNL     1      10.118  -8.337  -0.273  1.00  0.00     0.074 A 
ATOM     61  C   UNL     1       9.593  -9.251   0.731  1.00  0.00     0.031 C 
ATOM     62  C   UNL     1      12.055 -14.152  -2.762  1.00  0.00     0.029 A 
ATOM     63  C   UNL     1      12.639 -13.732  -1.486  1.00  0.00     0.049 A 
ATOM     64  H   UNL     1      12.055 -11.921  -0.504  1.00  0.00     0.167 HD
ATOM     65  C   UNL     1      11.202  -7.513  -0.188  1.00  0.00     0.037 A 
ATOM     66  C   UNL     1      13.709 -14.319  -0.790  1.00  0.00     0.037 A 
ATOM     67  C   UNL     1      12.230  -8.042   0.663  1.00  0.00     0.049 A 
ATOM     68  C   UNL     1      14.364 -13.252  -0.025  1.00  0.00     0.074 A 
ATOM     69  C   UNL     1      12.213  -8.717   1.867  1.00  0.00     0.029 A 
ATOM     70  N   UNL     1      13.443  -8.320   0.078  1.00  0.00    -0.354 N 
ATOM     71  N   UNL     1      15.186 -12.425  -0.593  1.00  0.00    -0.248 NA
ATOM     72  C   UNL     1      14.287 -13.162   1.430  1.00  0.00     0.031 C 
ATOM     73  C   UNL     1      13.124  -9.780   1.686  1.00  0.00     0.029 A 
ATOM     74  C   UNL     1      13.933  -9.497   0.594  1.00  0.00     0.049 A 
ATOM     75  H   UNL     1      13.889  -7.766  -0.601  1.00  0.00     0.167 HD
ATOM     76  C   UNL     1      15.293 -11.427   0.317  1.00  0.00     0.074 A 
ATOM     77  C   UNL     1      14.986 -12.036   1.598  1.00  0.00     0.031 C 
ATOM     78  C   UNL     1      14.942 -10.207  -0.150  1.00  0.00     0.037 A 
BRANCH  65  79
ATOM     79  C   UNL     1      11.477  -6.732  -1.445  1.00  0.00     0.064 A 
ATOM     80  C   UNL     1      11.271  -5.351  -1.452  1.00  0.00     0.173 A 
ATOM     81  C   UNL     1      11.833  -7.341  -2.668  1.00  0.00     0.173 A 
ATOM     82  F   UNL     1      11.028  -4.701  -0.305  1.00  0.00    -0.203 F 
ATOM     83  C   UNL     1      11.333  -4.627  -2.643  1.00  0.00     0.198 A 
ATOM     84  C   UNL     1      11.819  -6.632  -3.862  1.00  0.00     0.198 A 
ATOM     85  F   UNL     1      12.222  -8.627  -2.708  1.00  0.00    -0.203 F 
ATOM     86  F   UNL     1      11.171  -3.296  -2.624  1.00  0.00    -0.200 F 
ATOM     87  C   UNL     1      11.562  -5.273  -3.850  1.00  0.00     0.200 A 
ATOM     88  F   UNL     1      12.067  -7.263  -5.019  1.00  0.00    -0.200 F 
ATOM     89  F   UNL     1      11.573  -4.580  -4.997  1.00  0.00    -0.200 F 
ENDBRANCH  65  79
BRANCH  66  90
ATOM     90  C   UNL     1      14.610 -15.605  -0.630  1.00  0.00     0.064 A 
ATOM     91  C   UNL     1      15.994 -15.514  -0.213  1.00  0.00     0.173 A 
ATOM     92  C   UNL     1      14.072 -16.885  -0.430  1.00  0.00     0.173 A 
ATOM     93  F   UNL     1      16.702 -14.388  -0.376  1.00  0.00    -0.203 F 
ATOM     94  C   UNL     1      16.697 -16.536   0.453  1.00  0.00     0.198 A 
ATOM     95  C   UNL     1      14.801 -17.933   0.203  1.00  0.00     0.198 A 
ATOM     96  F   UNL     1      12.797 -17.128  -0.758  1.00  0.00    -0.203 F 
ATOM     97  F   UNL     1      17.932 -16.310   0.933  1.00  0.00    -0.200 F 
ATOM     98  C   UNL     1      16.091 -17.746   0.680  1.00  0.00     0.200 A 
ATOM     99  F   UNL     1      14.215 -19.120   0.418  1.00  0.00    -0.200 F 
ATOM    100  F   UNL     1      16.727 -18.705   1.373  1.00  0.00    -0.200 F 
ENDBRANCH  66  90
BRANCH  78 101
ATOM    101  C   UNL     1      15.473  -9.810  -1.516  1.00  0.00     0.064 A 
ATOM    102  C   UNL     1      15.395 -10.547  -2.724  1.00  0.00     0.173 A 
ATOM    103  C   UNL     1      16.162  -8.590  -1.585  1.00  0.00     0.173 A 
ATOM    104  F   UNL     1      14.684 -11.678  -2.832  1.00  0.00    -0.203 F 
ATOM    105  C   UNL     1      16.028 -10.111  -3.892  1.00  0.00     0.198 A 
ATOM    106  C   UNL     1      16.739  -8.131  -2.766  1.00  0.00     0.198 A 
ATOM    107  F   UNL     1      16.249  -7.812  -0.495  1.00  0.00    -0.203 F 
ATOM    108  F   UNL     1      15.982 -10.863  -5.003  1.00  0.00    -0.200 F 
ATOM    109  C   UNL     1      16.691  -8.899  -3.914  1.00  0.00     0.200 A 
ATOM    110  F   UNL     1      17.332  -6.930  -2.787  1.00  0.00    -0.200 F 
ATOM    111  F   UNL     1      17.264  -8.461  -5.043  1.00  0.00    -0.200 F 
ENDBRANCH  78 101
ENDBRANCH  52  53
ENDBRANCH  45  47
ENDBRANCH  44  45
ENDBRANCH  43  44
ENDBRANCH  42  43
ENDBRANCH  41  42
ENDBRANCH  40  41
ENDBRANCH  39  40
ENDBRANCH   1  39
TORSDOF 25
