REMARK SMILES O=C(COc1ccccc1[C@@H]1[NH2+]CCc2cc(O)c(O)cc21)OCCOCCOCCOC(=O)c1ccc(-c2c3nc(c(-c4c(F)c(F)c(F)c(F)c4F)c4ccc([nH]4)c(-c4c(F)c(F)c(F)c(F)c4F)c4nc(c(-c5c(F)c(F)c(F)c(F)c5F)c5ccc2[nH]5)C=C4)C=C3)cc1
REMARK SMILES IDX 27 1 26 2 25 3 24 4 23 5 2 6 1 7 3 8 4 9 5 10 6 11 10 12
REMARK SMILES IDX 7 13 9 14 8 15 11 16 12 17 22 18 13 19 15 22 21 23 14 24
REMARK SMILES IDX 16 25 19 26 17 27 20 28 18 30 28 32 29 33 30 34 31 35 32 36
REMARK SMILES IDX 33 37 34 38 35 39 36 40 97 41 37 42 96 43 38 44 39 45 40 46
REMARK SMILES IDX 90 47 41 48 95 49 89 50 91 51 42 52 94 53 88 54 87 55 43 57
REMARK SMILES IDX 75 58 55 59 74 60 56 61 59 62 73 63 92 64 57 65 58 66 72 68
REMARK SMILES IDX 93 69 60 70 44 71 45 72 53 73 46 74 47 75 51 76 54 77 48 78
REMARK SMILES IDX 49 79 52 80 50 81 76 82 77 83 85 84 78 85 79 86 83 87 86 88
REMARK SMILES IDX 80 89 81 90 84 91 82 92 61 93 62 94 70 95 63 96 64 97 68 98
REMARK SMILES IDX 71 99 65 100 66 101 69 102 67 103
REMARK H PARENT 12 20 12 21 20 29 18 31 91 56 59 67
REMARK Flexibility Score: inf
ROOT
ATOM      1  C   UNL     1       3.740  -1.898  -1.045  1.00  0.00     0.188 C 
ENDROOT
BRANCH   1   2
ATOM      2  O   UNL     1       4.719  -1.898  -0.009  1.00  0.00    -0.376 OA
BRANCH   2   3
ATOM      3  C   UNL     1       5.799  -1.001  -0.229  1.00  0.00     0.202 C 
BRANCH   3   4
ATOM      4  C   UNL     1       5.947  -0.067   0.982  1.00  0.00     0.261 C 
BRANCH   4   5
ATOM      5  O   UNL     1       4.723   0.296   1.657  1.00  0.00    -0.461 OA
BRANCH   5   6
ATOM      6  C   UNL     1       3.585   0.594   0.991  1.00  0.00     0.344 C 
ATOM      7  O   UNL     1       2.512   0.155   1.397  1.00  0.00    -0.248 OA
BRANCH   6   8
ATOM      8  C   UNL     1       3.723   1.472  -0.267  1.00  0.00     0.351 C 
BRANCH   8   9
ATOM      9  O   UNL     1       3.837   2.862  -0.303  1.00  0.00    -0.481 OA
BRANCH   9  10
ATOM     10  C   UNL     1       3.052   3.704   0.417  1.00  0.00     0.129 A 
ATOM     11  C   UNL     1       3.806   4.859   0.715  1.00  0.00     0.047 A 
ATOM     12  C   UNL     1       1.701   3.611   0.816  1.00  0.00     0.056 A 
ATOM     13  C   UNL     1       3.293   5.891   1.484  1.00  0.00     0.004 A 
ATOM     14  C   UNL     1       1.224   4.660   1.641  1.00  0.00     0.014 A 
ATOM     15  C   UNL     1       2.004   5.777   1.972  1.00  0.00     0.001 A 
BRANCH  12  16
ATOM     16  C   UNL     1       0.751   2.449   0.508  1.00  0.00     0.249 C 
ATOM     17  N   UNL     1       0.911   1.846  -0.833  1.00  0.00    -0.336 N 
ATOM     18  C   UNL     1      -0.762   2.616   0.699  1.00  0.00     0.021 A 
ATOM     19  C   UNL     1       0.371   2.677  -1.922  1.00  0.00     0.266 C 
ATOM     20  H   UNL     1       0.428   0.948  -0.842  1.00  0.00     0.347 HD
ATOM     21  H   UNL     1       1.913   1.750  -0.999  1.00  0.00     0.347 HD
ATOM     22  C   UNL     1      -1.498   3.186  -0.366  1.00  0.00    -0.029 A 
ATOM     23  C   UNL     1      -1.436   1.988   1.758  1.00  0.00     0.060 A 
ATOM     24  C   UNL     1      -0.702   3.708  -1.532  1.00  0.00     0.097 C 
ATOM     25  C   UNL     1      -2.892   3.133  -0.372  1.00  0.00     0.054 A 
ATOM     26  C   UNL     1      -2.821   1.898   1.714  1.00  0.00     0.157 A 
ATOM     27  C   UNL     1      -3.537   2.464   0.658  1.00  0.00     0.157 A 
BRANCH  26  28
ATOM     28  O   UNL     1      -3.527   1.198   2.654  1.00  0.00    -0.504 OA
ATOM     29  H   UNL     1      -4.461   1.152   2.601  1.00  0.00     0.293 HD
ENDBRANCH  26  28
BRANCH  27  30
ATOM     30  O   UNL     1      -4.893   2.304   0.597  1.00  0.00    -0.504 OA
ATOM     31  H   UNL     1      -5.378   2.683  -0.110  1.00  0.00     0.293 HD
ENDBRANCH  27  30
ENDBRANCH  12  16
ENDBRANCH   9  10
ENDBRANCH   8   9
ENDBRANCH   6   8
ENDBRANCH   5   6
ENDBRANCH   4   5
ENDBRANCH   3   4
ENDBRANCH   2   3
ENDBRANCH   1   2
BRANCH   1  32
ATOM     32  C   UNL     1       2.638  -2.922  -0.763  1.00  0.00     0.188 C 
BRANCH  32  33
ATOM     33  O   UNL     1       2.996  -4.269  -0.469  1.00  0.00    -0.376 OA
BRANCH  33  34
ATOM     34  C   UNL     1       4.278  -4.733  -0.857  1.00  0.00     0.202 C 
BRANCH  34  35
ATOM     35  C   UNL     1       4.462  -5.029  -2.351  1.00  0.00     0.261 C 
BRANCH  35  36
ATOM     36  O   UNL     1       4.141  -3.931  -3.230  1.00  0.00    -0.460 OA
BRANCH  36  37
ATOM     37  C   UNL     1       2.965  -4.037  -3.899  1.00  0.00     0.338 C 
ATOM     38  O   UNL     1       2.172  -4.958  -3.856  1.00  0.00    -0.246 OA
BRANCH  37  39
ATOM     39  C   UNL     1       2.692  -2.802  -4.670  1.00  0.00     0.060 A 
ATOM     40  C   UNL     1       1.521  -2.080  -4.398  1.00  0.00     0.016 A 
ATOM     41  C   UNL     1       3.497  -2.441  -5.752  1.00  0.00     0.016 A 
ATOM     42  C   UNL     1       1.136  -1.015  -5.222  1.00  0.00     0.010 A 
ATOM     43  C   UNL     1       3.098  -1.388  -6.588  1.00  0.00     0.010 A 
ATOM     44  C   UNL     1       1.901  -0.686  -6.348  1.00  0.00    -0.014 A 
BRANCH  44  45
ATOM     45  C   UNL     1       1.407   0.290  -7.358  1.00  0.00     0.031 A 
ATOM     46  C   UNL     1       0.735  -0.221  -8.606  1.00  0.00     0.074 A 
ATOM     47  C   UNL     1       1.593   1.614  -7.204  1.00  0.00     0.049 A 
ATOM     48  N   UNL     1       0.402   0.424  -9.696  1.00  0.00    -0.248 NA
ATOM     49  C   UNL     1       0.396  -1.652  -8.627  1.00  0.00     0.031 C 
ATOM     50  C   UNL     1       2.172   2.256  -6.027  1.00  0.00     0.029 A 
ATOM     51  N   UNL     1       1.342   2.655  -8.068  1.00  0.00    -0.354 N 
ATOM     52  C   UNL     1      -0.160  -0.524 -10.541  1.00  0.00     0.074 A 
ATOM     53  C   UNL     1      -0.126  -1.789  -9.838  1.00  0.00     0.031 C 
ATOM     54  C   UNL     1       2.277   3.576  -6.260  1.00  0.00     0.029 A 
ATOM     55  C   UNL     1       1.815   3.864  -7.619  1.00  0.00     0.049 A 
ATOM     56  H   UNL     1       0.869   2.544  -8.925  1.00  0.00     0.167 HD
ATOM     57  C   UNL     1      -0.651  -0.357 -11.792  1.00  0.00     0.037 A 
ATOM     58  C   UNL     1       1.917   5.053  -8.249  1.00  0.00     0.037 A 
ATOM     59  C   UNL     1      -0.708   0.901 -12.489  1.00  0.00     0.049 A 
ATOM     60  C   UNL     1       1.445   5.192  -9.678  1.00  0.00     0.074 A 
ATOM     61  C   UNL     1      -1.249   1.171 -13.736  1.00  0.00     0.029 A 
ATOM     62  N   UNL     1      -0.196   2.095 -12.010  1.00  0.00    -0.354 N 
ATOM     63  N   UNL     1       0.886   4.301 -10.458  1.00  0.00    -0.248 NA
ATOM     64  C   UNL     1       1.633   6.505 -10.317  1.00  0.00     0.031 C 
ATOM     65  C   UNL     1      -1.007   2.514 -14.037  1.00  0.00     0.029 A 
ATOM     66  C   UNL     1      -0.365   3.094 -12.956  1.00  0.00     0.049 A 
ATOM     67  H   UNL     1       0.225   2.216 -11.128  1.00  0.00     0.167 HD
ATOM     68  C   UNL     1       0.635   4.948 -11.663  1.00  0.00     0.074 A 
ATOM     69  C   UNL     1       1.088   6.312 -11.510  1.00  0.00     0.031 C 
ATOM     70  C   UNL     1       0.082   4.453 -12.797  1.00  0.00     0.037 A 
BRANCH  57  71
ATOM     71  C   UNL     1      -1.141  -1.570 -12.525  1.00  0.00     0.064 A 
ATOM     72  C   UNL     1      -2.367  -2.176 -12.218  1.00  0.00     0.173 A 
ATOM     73  C   UNL     1      -0.410  -2.074 -13.612  1.00  0.00     0.173 A 
ATOM     74  F   UNL     1      -3.098  -1.734 -11.184  1.00  0.00    -0.203 F 
ATOM     75  C   UNL     1      -2.839  -3.251 -12.968  1.00  0.00     0.198 A 
ATOM     76  C   UNL     1      -0.896  -3.132 -14.374  1.00  0.00     0.198 A 
ATOM     77  F   UNL     1       0.765  -1.521 -13.951  1.00  0.00    -0.203 F 
ATOM     78  F   UNL     1      -4.003  -3.831 -12.644  1.00  0.00    -0.200 F 
ATOM     79  C   UNL     1      -2.109  -3.721 -14.050  1.00  0.00     0.200 A 
ATOM     80  F   UNL     1      -0.196  -3.574 -15.428  1.00  0.00    -0.200 F 
ATOM     81  F   UNL     1      -2.574  -4.742 -14.782  1.00  0.00    -0.200 F 
ENDBRANCH  57  71
BRANCH  58  82
ATOM     82  C   UNL     1       2.562   6.208  -7.568  1.00  0.00     0.064 A 
ATOM     83  C   UNL     1       1.833   7.361  -7.246  1.00  0.00     0.173 A 
ATOM     84  C   UNL     1       3.937   6.207  -7.287  1.00  0.00     0.173 A 
ATOM     85  F   UNL     1       0.524   7.425  -7.528  1.00  0.00    -0.203 F 
ATOM     86  C   UNL     1       2.460   8.478  -6.695  1.00  0.00     0.198 A 
ATOM     87  C   UNL     1       4.556   7.312  -6.707  1.00  0.00     0.198 A 
ATOM     88  F   UNL     1       4.684   5.133  -7.586  1.00  0.00    -0.203 F 
ATOM     89  F   UNL     1       1.752   9.591  -6.459  1.00  0.00    -0.200 F 
ATOM     90  C   UNL     1       3.819   8.451  -6.422  1.00  0.00     0.200 A 
ATOM     91  F   UNL     1       5.868   7.278  -6.439  1.00  0.00    -0.200 F 
ATOM     92  F   UNL     1       4.422   9.528  -5.902  1.00  0.00    -0.200 F 
ENDBRANCH  58  82
BRANCH  70  93
ATOM     93  C   UNL     1      -0.093   5.387 -13.960  1.00  0.00     0.064 A 
ATOM     94  C   UNL     1       1.001   5.817 -14.726  1.00  0.00     0.173 A 
ATOM     95  C   UNL     1      -1.373   5.807 -14.352  1.00  0.00     0.173 A 
ATOM     96  F   UNL     1       2.247   5.456 -14.385  1.00  0.00    -0.203 F 
ATOM     97  C   UNL     1       0.820   6.643 -15.833  1.00  0.00     0.198 A 
ATOM     98  C   UNL     1      -1.553   6.609 -15.476  1.00  0.00     0.198 A 
ATOM     99  F   UNL     1      -2.454   5.420 -13.658  1.00  0.00    -0.203 F 
ATOM    100  F   UNL     1       1.882   7.069 -16.530  1.00  0.00    -0.200 F 
ATOM    101  C   UNL     1      -0.457   7.030 -16.213  1.00  0.00     0.200 A 
ATOM    102  F   UNL     1      -2.789   6.971 -15.849  1.00  0.00    -0.200 F 
ATOM    103  F   UNL     1      -0.630   7.813 -17.287  1.00  0.00    -0.200 F 
ENDBRANCH  70  93
ENDBRANCH  44  45
ENDBRANCH  37  39
ENDBRANCH  36  37
ENDBRANCH  35  36
ENDBRANCH  34  35
ENDBRANCH  33  34
ENDBRANCH  32  33
ENDBRANCH   1  32
TORSDOF 22
