REMARK SMILES O=C(OCCOCCOCCOC(=O)c1ccccc1/C=C1/SC(=S)N(C2CCCCC2)C1=O)c1ccc(-c2c3nc(c(-c4c(F)c(F)c(F)c(F)c4F)c4ccc([nH]4)c(-c4c(F)c(F)c(F)c(F)c4F)c4nc(c(-c5c(F)c(F)c(F)c(F)c5F)c5ccc2[nH]5)C=C4)C=C3)cc1
REMARK SMILES IDX 7 1 6 2 5 3 4 4 3 5 2 6 1 7 35 8 36 9 97 10 37 11 96 12
REMARK SMILES IDX 38 13 39 14 40 15 90 16 41 17 95 18 89 19 91 20 42 21 94 22
REMARK SMILES IDX 88 23 87 24 43 26 75 27 55 28 74 29 56 30 59 31 73 32 92 33
REMARK SMILES IDX 57 34 58 35 72 37 93 38 60 39 44 40 45 41 53 42 46 43 47 44
REMARK SMILES IDX 51 45 54 46 48 47 49 48 52 49 50 50 76 51 77 52 85 53 78 54
REMARK SMILES IDX 79 55 83 56 86 57 80 58 81 59 84 60 82 61 61 62 62 63 70 64
REMARK SMILES IDX 63 65 64 66 68 67 71 68 65 69 66 70 69 71 67 72 8 73 9 74
REMARK SMILES IDX 10 75 11 76 12 77 13 78 14 79 15 80 16 81 20 82 17 83 19 84
REMARK SMILES IDX 18 85 21 86 22 87 23 88 33 89 24 90 26 91 34 92 25 93 27 94
REMARK SMILES IDX 28 95 32 96 29 97 31 98 30 99
REMARK H PARENT 91 25 59 36
REMARK Flexibility Score: inf
ROOT
ATOM      1  C   UNL     1       2.573  -2.201  -0.841  1.00  0.00     0.188 C 
ENDROOT
BRANCH   1   2
ATOM      2  O   UNL     1       3.750  -1.381  -0.837  1.00  0.00    -0.376 OA
BRANCH   2   3
ATOM      3  C   UNL     1       4.644  -1.670   0.238  1.00  0.00     0.202 C 
BRANCH   3   4
ATOM      4  C   UNL     1       4.429  -0.770   1.458  1.00  0.00     0.261 C 
BRANCH   4   5
ATOM      5  O   UNL     1       3.039  -0.454   1.646  1.00  0.00    -0.460 OA
BRANCH   5   6
ATOM      6  C   UNL     1       2.361   0.618   1.164  1.00  0.00     0.338 C 
ATOM      7  O   UNL     1       1.149   0.691   1.355  1.00  0.00    -0.246 OA
BRANCH   6   8
ATOM      8  C   UNL     1       3.029   1.780   0.501  1.00  0.00     0.060 A 
ATOM      9  C   UNL     1       4.141   1.698  -0.339  1.00  0.00     0.016 A 
ATOM     10  C   UNL     1       2.452   3.044   0.711  1.00  0.00     0.016 A 
ATOM     11  C   UNL     1       4.758   2.847  -0.828  1.00  0.00     0.010 A 
ATOM     12  C   UNL     1       3.027   4.197   0.169  1.00  0.00     0.010 A 
ATOM     13  C   UNL     1       4.220   4.106  -0.557  1.00  0.00    -0.014 A 
BRANCH  13  14
ATOM     14  C   UNL     1       4.988   5.316  -0.925  1.00  0.00     0.031 A 
ATOM     15  C   UNL     1       5.676   6.089   0.160  1.00  0.00     0.074 A 
ATOM     16  C   UNL     1       5.148   5.660  -2.214  1.00  0.00     0.049 A 
ATOM     17  N   UNL     1       6.369   7.194   0.081  1.00  0.00    -0.248 NA
ATOM     18  C   UNL     1       5.583   5.532   1.520  1.00  0.00     0.031 C 
ATOM     19  C   UNL     1       4.612   4.916  -3.350  1.00  0.00     0.029 A 
ATOM     20  N   UNL     1       5.822   6.707  -2.787  1.00  0.00    -0.354 N 
ATOM     21  C   UNL     1       6.782   7.470   1.376  1.00  0.00     0.074 A 
ATOM     22  C   UNL     1       6.247   6.431   2.228  1.00  0.00     0.031 C 
ATOM     23  C   UNL     1       4.984   5.526  -4.487  1.00  0.00     0.029 A 
ATOM     24  C   UNL     1       5.734   6.731  -4.157  1.00  0.00     0.049 A 
ATOM     25  H   UNL     1       6.321   7.378  -2.267  1.00  0.00     0.167 HD
ATOM     26  C   UNL     1       7.545   8.499   1.813  1.00  0.00     0.037 A 
ATOM     27  C   UNL     1       6.185   7.638  -5.043  1.00  0.00     0.037 A 
ATOM     28  C   UNL     1       8.069   9.527   0.956  1.00  0.00     0.049 A 
ATOM     29  C   UNL     1       6.949   8.825  -4.526  1.00  0.00     0.074 A 
ATOM     30  C   UNL     1       8.806  10.646   1.294  1.00  0.00     0.029 A 
ATOM     31  N   UNL     1       7.907   9.551  -0.422  1.00  0.00    -0.354 N 
ATOM     32  N   UNL     1       7.292   9.108  -3.292  1.00  0.00    -0.248 NA
ATOM     33  C   UNL     1       7.384   9.818  -5.515  1.00  0.00     0.031 C 
ATOM     34  C   UNL     1       9.063  11.366   0.121  1.00  0.00     0.029 A 
ATOM     35  C   UNL     1       8.518  10.675  -0.951  1.00  0.00     0.049 A 
ATOM     36  H   UNL     1       7.428   8.870  -0.947  1.00  0.00     0.167 HD
ATOM     37  C   UNL     1       7.997  10.300  -3.356  1.00  0.00     0.074 A 
ATOM     38  C   UNL     1       8.045  10.680  -4.754  1.00  0.00     0.031 C 
ATOM     39  C   UNL     1       8.553  11.018  -2.349  1.00  0.00     0.037 A 
BRANCH  26  40
ATOM     40  C   UNL     1       7.800   8.571   3.288  1.00  0.00     0.064 A 
ATOM     41  C   UNL     1       8.681   7.687   3.928  1.00  0.00     0.173 A 
ATOM     42  C   UNL     1       7.119   9.508   4.078  1.00  0.00     0.173 A 
ATOM     43  F   UNL     1       9.333   6.753   3.219  1.00  0.00    -0.203 F 
ATOM     44  C   UNL     1       8.847   7.718   5.311  1.00  0.00     0.198 A 
ATOM     45  C   UNL     1       7.304   9.552   5.457  1.00  0.00     0.198 A 
ATOM     46  F   UNL     1       6.259  10.370   3.514  1.00  0.00    -0.203 F 
ATOM     47  F   UNL     1       9.647   6.824   5.909  1.00  0.00    -0.200 F 
ATOM     48  C   UNL     1       8.159   8.651   6.073  1.00  0.00     0.200 A 
ATOM     49  F   UNL     1       6.638  10.453   6.193  1.00  0.00    -0.200 F 
ATOM     50  F   UNL     1       8.308   8.670   7.405  1.00  0.00    -0.200 F 
ENDBRANCH  26  40
BRANCH  27  51
ATOM     51  C   UNL     1       5.899   7.468  -6.492  1.00  0.00     0.064 A 
ATOM     52  C   UNL     1       6.921   7.189  -7.408  1.00  0.00     0.173 A 
ATOM     53  C   UNL     1       4.589   7.567  -6.989  1.00  0.00     0.173 A 
ATOM     54  F   UNL     1       8.191   7.100  -6.987  1.00  0.00    -0.203 F 
ATOM     55  C   UNL     1       6.647   7.025  -8.766  1.00  0.00     0.198 A 
ATOM     56  C   UNL     1       4.313   7.377  -8.341  1.00  0.00     0.198 A 
ATOM     57  F   UNL     1       3.571   7.827  -6.154  1.00  0.00    -0.203 F 
ATOM     58  F   UNL     1       7.647   6.789  -9.625  1.00  0.00    -0.200 F 
ATOM     59  C   UNL     1       5.343   7.112  -9.230  1.00  0.00     0.200 A 
ATOM     60  F   UNL     1       3.048   7.444  -8.780  1.00  0.00    -0.200 F 
ATOM     61  F   UNL     1       5.079   6.943 -10.533  1.00  0.00    -0.200 F 
ENDBRANCH  27  51
BRANCH  39  62
ATOM     62  C   UNL     1       9.278  12.271  -2.732  1.00  0.00     0.064 A 
ATOM     63  C   UNL     1       8.584  13.437  -3.082  1.00  0.00     0.173 A 
ATOM     64  C   UNL     1      10.679  12.315  -2.702  1.00  0.00     0.173 A 
ATOM     65  F   UNL     1       7.244  13.433  -3.140  1.00  0.00    -0.203 F 
ATOM     66  C   UNL     1       9.270  14.604  -3.404  1.00  0.00     0.198 A 
ATOM     67  C   UNL     1      11.361  13.489  -3.003  1.00  0.00     0.198 A 
ATOM     68  F   UNL     1      11.383  11.222  -2.370  1.00  0.00    -0.203 F 
ATOM     69  F   UNL     1       8.591  15.699  -3.769  1.00  0.00    -0.200 F 
ATOM     70  C   UNL     1      10.657  14.631  -3.357  1.00  0.00     0.200 A 
ATOM     71  F   UNL     1      12.700  13.517  -2.950  1.00  0.00    -0.200 F 
ATOM     72  F   UNL     1      11.316  15.757  -3.660  1.00  0.00    -0.200 F 
ENDBRANCH  39  62
ENDBRANCH  13  14
ENDBRANCH   6   8
ENDBRANCH   5   6
ENDBRANCH   4   5
ENDBRANCH   3   4
ENDBRANCH   2   3
ENDBRANCH   1   2
BRANCH   1  73
ATOM     73  C   UNL     1       2.034  -2.320  -2.265  1.00  0.00     0.188 C 
BRANCH  73  74
ATOM     74  O   UNL     1       2.802  -3.155  -3.136  1.00  0.00    -0.376 OA
BRANCH  74  75
ATOM     75  C   UNL     1       4.173  -2.828  -3.331  1.00  0.00     0.202 C 
BRANCH  75  76
ATOM     76  C   UNL     1       4.502  -1.703  -4.322  1.00  0.00     0.261 C 
BRANCH  76  77
ATOM     77  O   UNL     1       3.954  -0.402  -4.053  1.00  0.00    -0.460 OA
BRANCH  77  78
ATOM     78  C   UNL     1       2.763  -0.181  -4.660  1.00  0.00     0.338 C 
ATOM     79  O   UNL     1       2.034  -1.022  -5.158  1.00  0.00    -0.246 OA
BRANCH  78  80
ATOM     80  C   UNL     1       2.458   1.256  -4.745  1.00  0.00     0.067 A 
ATOM     81  C   UNL     1       1.474   1.760  -3.887  1.00  0.00     0.016 A 
ATOM     82  C   UNL     1       3.004   2.053  -5.773  1.00  0.00    -0.010 A 
ATOM     83  C   UNL     1       1.025   3.070  -4.046  1.00  0.00     0.001 A 
ATOM     84  C   UNL     1       2.518   3.357  -5.933  1.00  0.00     0.009 A 
ATOM     85  C   UNL     1       1.535   3.861  -5.075  1.00  0.00     0.001 A 
BRANCH  82  86
ATOM     86  C   UNL     1       4.091   1.601  -6.660  1.00  0.00     0.030 C 
ATOM     87  C   UNL     1       4.014   0.580  -7.523  1.00  0.00     0.081 C 
ATOM     88  S   UNL     1       5.375  -0.140  -8.281  1.00  0.00    -0.054 SA
ATOM     89  C   UNL     1       2.813  -0.237  -7.820  1.00  0.00     0.266 C 
ATOM     90  C   UNL     1       4.516  -1.675  -8.507  1.00  0.00     0.148 C 
ATOM     91  N   UNL     1       3.199  -1.537  -8.114  1.00  0.00    -0.290 N 
ATOM     92  O   UNL     1       1.681   0.224  -7.846  1.00  0.00    -0.268 OA
ATOM     93  S   UNL     1       5.325  -3.006  -9.102  1.00  0.00    -0.052 S 
BRANCH  91  94
ATOM     94  C   UNL     1       2.150  -2.576  -8.040  1.00  0.00     0.092 C 
ATOM     95  C   UNL     1       1.643  -3.005  -9.421  1.00  0.00     0.025 C 
ATOM     96  C   UNL     1       2.511  -3.777  -7.144  1.00  0.00     0.025 C 
ATOM     97  C   UNL     1       0.505  -4.017  -9.298  1.00  0.00     0.002 C 
ATOM     98  C   UNL     1       1.372  -4.790  -7.062  1.00  0.00     0.002 C 
ATOM     99  C   UNL     1       0.910  -5.219  -8.450  1.00  0.00     0.000 C 
ENDBRANCH  91  94
ENDBRANCH  82  86
ENDBRANCH  78  80
ENDBRANCH  77  78
ENDBRANCH  76  77
ENDBRANCH  75  76
ENDBRANCH  74  75
ENDBRANCH  73  74
ENDBRANCH   1  73
TORSDOF 19
