REMARK SMILES Cc1c(Cl)cccc1NC(=O)C[C@](C)(C(=O)OCCOCCOCCOC(=O)c1ccc(-c2c3nc(c(-c4c(F)c(F)c(F)c(F)c4F)c4ccc([nH]4)c(-c4c(F)c(F)c(F)c(F)c4F)c4nc(c(-c5c(F)c(F)c(F)c(F)c5F)c5ccc2[nH]5)C=C4)C=C3)cc1)c1ccccc1
REMARK SMILES IDX 21 1 20 2 19 3 18 4 17 5 15 6 16 7 13 8 14 9 12 10 10 11
REMARK SMILES IDX 9 12 11 14 8 15 1 16 2 17 3 18 4 19 5 20 7 21 6 22 92 23
REMARK SMILES IDX 93 24 97 25 94 26 96 27 95 28 22 29 23 30 24 31 25 32 26 33
REMARK SMILES IDX 27 34 28 35 29 36 30 37 91 38 31 39 90 40 32 41 33 42 34 43
REMARK SMILES IDX 84 44 35 45 89 46 83 47 85 48 36 49 88 50 82 51 81 52 37 54
REMARK SMILES IDX 69 55 49 56 68 57 50 58 53 59 67 60 86 61 51 62 52 63 66 65
REMARK SMILES IDX 87 66 54 67 38 68 39 69 47 70 40 71 41 72 45 73 48 74 42 75
REMARK SMILES IDX 43 76 46 77 44 78 70 79 71 80 79 81 72 82 73 83 77 84 80 85
REMARK SMILES IDX 74 86 75 87 78 88 76 89 55 90 56 91 64 92 57 93 58 94 62 95
REMARK SMILES IDX 65 96 59 97 60 98 63 99 61 100
REMARK H PARENT 9 13 85 53 53 64
REMARK Flexibility Score: inf
ROOT
ATOM      1  C   UNL     1      -7.966  -0.879  -1.766  1.00  0.00     0.188 C 
ENDROOT
BRANCH   1   2
ATOM      2  O   UNL     1      -8.288  -2.264  -1.840  1.00  0.00    -0.376 OA
BRANCH   2   3
ATOM      3  C   UNL     1      -7.433  -3.187  -1.171  1.00  0.00     0.202 C 
BRANCH   3   4
ATOM      4  C   UNL     1      -5.935  -3.097  -1.476  1.00  0.00     0.261 C 
BRANCH   4   5
ATOM      5  O   UNL     1      -5.327  -1.828  -1.149  1.00  0.00    -0.463 OA
BRANCH   5   6
ATOM      6  C   UNL     1      -4.346  -1.413  -1.992  1.00  0.00     0.316 C 
ATOM      7  O   UNL     1      -3.964  -2.091  -2.943  1.00  0.00    -0.251 OA
BRANCH   6   8
ATOM      8  C   UNL     1      -3.738  -0.013  -1.674  1.00  0.00     0.099 C 
ATOM      9  C   UNL     1      -4.301   0.715  -0.422  1.00  0.00     0.029 C 
BRANCH   8  10
ATOM     10  C   UNL     1      -2.205  -0.229  -1.438  1.00  0.00     0.123 C 
BRANCH  10  11
ATOM     11  C   UNL     1      -1.666  -1.654  -1.299  1.00  0.00     0.225 C 
ATOM     12  N   UNL     1      -2.066  -2.561  -0.362  1.00  0.00    -0.326 N 
ATOM     13  H   UNL     1      -1.728  -3.467  -0.547  1.00  0.00     0.169 HD
ATOM     14  O   UNL     1      -0.815  -2.048  -2.107  1.00  0.00    -0.275 OA
BRANCH  12  15
ATOM     15  C   UNL     1      -2.848  -2.507   0.807  1.00  0.00     0.045 A 
ATOM     16  C   UNL     1      -3.395  -5.015   0.586  1.00  0.00     0.048 C 
ATOM     17  C   UNL     1      -3.535  -3.667   1.254  1.00  0.00    -0.009 A 
ATOM     18  C   UNL     1      -4.393  -3.554   2.373  1.00  0.00     0.046 A 
ATOM     19  Cl  UNL     1      -5.324  -4.894   2.957  1.00  0.00    -0.084 Cl
ATOM     20  C   UNL     1      -4.539  -2.346   3.054  1.00  0.00     0.021 A 
ATOM     21  C   UNL     1      -2.937  -1.335   1.562  1.00  0.00     0.026 A 
ATOM     22  C   UNL     1      -3.789  -1.246   2.666  1.00  0.00     0.004 A 
ENDBRANCH  12  15
ENDBRANCH  10  11
ENDBRANCH   8  10
BRANCH   8  23
ATOM     23  C   UNL     1      -4.017   0.991  -2.848  1.00  0.00    -0.030 A 
ATOM     24  C   UNL     1      -3.597   2.337  -2.760  1.00  0.00     0.005 A 
ATOM     25  C   UNL     1      -4.783   0.639  -3.977  1.00  0.00     0.005 A 
ATOM     26  C   UNL     1      -3.960   3.281  -3.730  1.00  0.00     0.000 A 
ATOM     27  C   UNL     1      -5.120   1.578  -4.957  1.00  0.00     0.000 A 
ATOM     28  C   UNL     1      -4.724   2.902  -4.827  1.00  0.00     0.000 A 
ENDBRANCH   8  23
ENDBRANCH   6   8
ENDBRANCH   5   6
ENDBRANCH   4   5
ENDBRANCH   3   4
ENDBRANCH   2   3
ENDBRANCH   1   2
BRANCH   1  29
ATOM     29  C   UNL     1      -7.588  -0.294  -0.397  1.00  0.00     0.188 C 
BRANCH  29  30
ATOM     30  O   UNL     1      -7.721  -1.190   0.681  1.00  0.00    -0.376 OA
BRANCH  30  31
ATOM     31  C   UNL     1      -8.684  -0.895   1.673  1.00  0.00     0.202 C 
BRANCH  31  32
ATOM     32  C   UNL     1     -10.139  -0.654   1.240  1.00  0.00     0.261 C 
BRANCH  32  33
ATOM     33  O   UNL     1     -10.338   0.120   0.045  1.00  0.00    -0.460 OA
BRANCH  33  34
ATOM     34  C   UNL     1     -10.202   1.465   0.118  1.00  0.00     0.338 C 
ATOM     35  O   UNL     1      -9.948   2.126   1.110  1.00  0.00    -0.246 OA
BRANCH  34  36
ATOM     36  C   UNL     1     -10.150   1.962  -1.280  1.00  0.00     0.060 A 
ATOM     37  C   UNL     1      -9.027   2.688  -1.709  1.00  0.00     0.016 A 
ATOM     38  C   UNL     1     -11.150   1.613  -2.192  1.00  0.00     0.016 A 
ATOM     39  C   UNL     1      -8.901   3.059  -3.052  1.00  0.00     0.010 A 
ATOM     40  C   UNL     1     -11.039   2.014  -3.525  1.00  0.00     0.010 A 
ATOM     41  C   UNL     1      -9.924   2.751  -3.959  1.00  0.00    -0.014 A 
BRANCH  41  42
ATOM     42  C   UNL     1      -9.952   3.361  -5.310  1.00  0.00     0.031 A 
ATOM     43  C   UNL     1     -10.681   4.662  -5.475  1.00  0.00     0.074 A 
ATOM     44  C   UNL     1      -9.393   2.760  -6.374  1.00  0.00     0.049 A 
ATOM     45  N   UNL     1     -10.976   5.323  -6.564  1.00  0.00    -0.248 NA
ATOM     46  C   UNL     1     -11.155   5.298  -4.234  1.00  0.00     0.031 C 
ATOM     47  C   UNL     1      -8.623   1.522  -6.338  1.00  0.00     0.029 A 
ATOM     48  N   UNL     1      -9.403   3.114  -7.702  1.00  0.00    -0.354 N 
ATOM     49  C   UNL     1     -11.679   6.443  -6.142  1.00  0.00     0.074 A 
ATOM     50  C   UNL     1     -11.783   6.364  -4.701  1.00  0.00     0.031 C 
ATOM     51  C   UNL     1      -8.231   1.216  -7.588  1.00  0.00     0.029 A 
ATOM     52  C   UNL     1      -8.769   2.209  -8.518  1.00  0.00     0.049 A 
ATOM     53  H   UNL     1      -9.825   3.937  -8.037  1.00  0.00     0.167 HD
ATOM     54  C   UNL     1     -12.197   7.445  -6.890  1.00  0.00     0.037 A 
ATOM     55  C   UNL     1      -8.668   2.175  -9.862  1.00  0.00     0.037 A 
ATOM     56  C   UNL     1     -12.117   7.506  -8.323  1.00  0.00     0.049 A 
ATOM     57  C   UNL     1      -9.351   3.244 -10.681  1.00  0.00     0.074 A 
ATOM     58  C   UNL     1     -12.613   8.476  -9.175  1.00  0.00     0.029 A 
ATOM     59  N   UNL     1     -11.513   6.544  -9.119  1.00  0.00    -0.354 N 
ATOM     60  N   UNL     1     -10.007   4.306 -10.281  1.00  0.00    -0.248 NA
ATOM     61  C   UNL     1      -9.299   3.092 -12.144  1.00  0.00     0.031 C 
ATOM     62  C   UNL     1     -12.355   8.074 -10.490  1.00  0.00     0.029 A 
ATOM     63  C   UNL     1     -11.652   6.880 -10.455  1.00  0.00     0.049 A 
ATOM     64  H   UNL     1     -11.053   5.740  -8.783  1.00  0.00     0.167 HD
ATOM     65  C   UNL     1     -10.426   4.958 -11.435  1.00  0.00     0.074 A 
ATOM     66  C   UNL     1      -9.938   4.180 -12.554  1.00  0.00     0.031 C 
ATOM     67  C   UNL     1     -11.153   6.096 -11.557  1.00  0.00     0.037 A 
BRANCH  54  68
ATOM     68  C   UNL     1     -12.936   8.526  -6.160  1.00  0.00     0.064 A 
ATOM     69  C   UNL     1     -12.270   9.452  -5.342  1.00  0.00     0.173 A 
ATOM     70  C   UNL     1     -14.331   8.628  -6.268  1.00  0.00     0.173 A 
ATOM     71  F   UNL     1     -10.939   9.382  -5.188  1.00  0.00    -0.203 F 
ATOM     72  C   UNL     1     -12.978  10.417  -4.631  1.00  0.00     0.198 A 
ATOM     73  C   UNL     1     -15.032   9.615  -5.580  1.00  0.00     0.198 A 
ATOM     74  F   UNL     1     -15.016   7.767  -7.035  1.00  0.00    -0.203 F 
ATOM     75  F   UNL     1     -12.328  11.250  -3.807  1.00  0.00    -0.200 F 
ATOM     76  C   UNL     1     -14.357  10.501  -4.754  1.00  0.00     0.200 A 
ATOM     77  F   UNL     1     -16.364   9.699  -5.706  1.00  0.00    -0.200 F 
ATOM     78  F   UNL     1     -15.037  11.428  -4.066  1.00  0.00    -0.200 F 
ENDBRANCH  54  68
BRANCH  55  79
ATOM     79  C   UNL     1      -7.912   1.083 -10.533  1.00  0.00     0.064 A 
ATOM     80  C   UNL     1      -6.727   1.357 -11.230  1.00  0.00     0.173 A 
ATOM     81  C   UNL     1      -8.367  -0.243 -10.520  1.00  0.00     0.173 A 
ATOM     82  F   UNL     1      -6.269   2.616 -11.302  1.00  0.00    -0.203 F 
ATOM     83  C   UNL     1      -6.033   0.350 -11.898  1.00  0.00     0.198 A 
ATOM     84  C   UNL     1      -7.657  -1.255 -11.164  1.00  0.00     0.198 A 
ATOM     85  F   UNL     1      -9.502  -0.558  -9.880  1.00  0.00    -0.203 F 
ATOM     86  F   UNL     1      -4.930   0.649 -12.598  1.00  0.00    -0.200 F 
ATOM     87  C   UNL     1      -6.495  -0.957 -11.859  1.00  0.00     0.200 A 
ATOM     88  F   UNL     1      -8.105  -2.517 -11.120  1.00  0.00    -0.200 F 
ATOM     89  F   UNL     1      -5.828  -1.926 -12.501  1.00  0.00    -0.200 F 
ENDBRANCH  55  79
BRANCH  67  90
ATOM     90  C   UNL     1     -11.447   6.590 -12.945  1.00  0.00     0.064 A 
ATOM     91  C   UNL     1     -12.386   5.952 -13.768  1.00  0.00     0.173 A 
ATOM     92  C   UNL     1     -10.834   7.756 -13.428  1.00  0.00     0.173 A 
ATOM     93  F   UNL     1     -12.989   4.826 -13.359  1.00  0.00    -0.203 F 
ATOM     94  C   UNL     1     -12.691   6.458 -15.030  1.00  0.00     0.198 A 
ATOM     95  C   UNL     1     -11.162   8.274 -14.677  1.00  0.00     0.198 A 
ATOM     96  F   UNL     1      -9.934   8.408 -12.676  1.00  0.00    -0.203 F 
ATOM     97  F   UNL     1     -13.567   5.814 -15.814  1.00  0.00    -0.200 F 
ATOM     98  C   UNL     1     -12.087   7.623 -15.479  1.00  0.00     0.200 A 
ATOM     99  F   UNL     1     -10.589   9.409 -15.102  1.00  0.00    -0.200 F 
ATOM    100  F   UNL     1     -12.394   8.117 -16.686  1.00  0.00    -0.200 F 
ENDBRANCH  67  90
ENDBRANCH  41  42
ENDBRANCH  34  36
ENDBRANCH  33  34
ENDBRANCH  32  33
ENDBRANCH  31  32
ENDBRANCH  30  31
ENDBRANCH  29  30
ENDBRANCH   1  29
TORSDOF 21
