REMARK SMILES CCS(=O)(=O)Nc1ccc(N2CC[NH+](C)CC2)cc1C(=O)OCCOCCOCCOC(=O)c1ccc(-c2c3nc(c(-c4c(F)c(F)c(F)c(F)c4F)c4ccc([nH]4)c(-c4c(F)c(F)c(F)c(F)c4F)c4nc(c(-c5c(F)c(F)c(F)c(F)c5F)c5ccc2[nH]5)C=C4)C=C3)cc1
REMARK SMILES IDX 26 1 25 2 24 3 23 4 22 5 20 6 21 7 19 8 7 9 8 10 9 11 18 12
REMARK SMILES IDX 10 13 6 14 3 16 4 17 5 18 2 19 1 20 11 21 12 22 17 23 13 24
REMARK SMILES IDX 16 25 14 26 15 27 27 29 28 30 29 31 30 32 31 33 32 34 33 35
REMARK SMILES IDX 34 36 35 37 96 38 36 39 95 40 37 41 38 42 39 43 89 44 40 45
REMARK SMILES IDX 94 46 88 47 90 48 41 49 93 50 87 51 86 52 42 54 74 55 54 56
REMARK SMILES IDX 73 57 55 58 58 59 72 60 91 61 56 62 57 63 71 65 92 66 59 67
REMARK SMILES IDX 43 68 44 69 52 70 45 71 46 72 50 73 53 74 47 75 48 76 51 77
REMARK SMILES IDX 49 78 75 79 76 80 84 81 77 82 78 83 82 84 85 85 79 86 80 87
REMARK SMILES IDX 83 88 81 89 60 90 61 91 69 92 62 93 63 94 67 95 70 96 64 97
REMARK SMILES IDX 65 98 68 99 66 100
REMARK H PARENT 6 15 14 28 90 53 58 64
REMARK Flexibility Score: inf
ROOT
ATOM      1  C   UNL     1       1.950   0.524   3.354  1.00  0.00     0.188 C 
ENDROOT
BRANCH   1   2
ATOM      2  O   UNL     1       0.658   0.042   3.686  1.00  0.00    -0.376 OA
BRANCH   2   3
ATOM      3  C   UNL     1      -0.304   0.102   2.646  1.00  0.00     0.202 C 
BRANCH   3   4
ATOM      4  C   UNL     1      -0.074  -0.915   1.538  1.00  0.00     0.261 C 
BRANCH   4   5
ATOM      5  O   UNL     1       1.185  -0.822   0.846  1.00  0.00    -0.460 OA
BRANCH   5   6
ATOM      6  C   UNL     1       1.565   0.299   0.196  1.00  0.00     0.340 C 
ATOM      7  O   UNL     1       1.004   1.380   0.223  1.00  0.00    -0.246 OA
BRANCH   6   8
ATOM      8  C   UNL     1       2.801   0.019  -0.587  1.00  0.00     0.086 A 
ATOM      9  C   UNL     1       3.064  -1.245  -1.151  1.00  0.00     0.063 A 
ATOM     10  C   UNL     1       4.207  -1.419  -1.926  1.00  0.00     0.030 A 
ATOM     11  C   UNL     1       5.087  -0.345  -2.122  1.00  0.00     0.028 A 
ATOM     12  C   UNL     1       3.699   1.082  -0.786  1.00  0.00     0.043 A 
ATOM     13  C   UNL     1       4.858   0.916  -1.550  1.00  0.00     0.038 A 
BRANCH   9  14
ATOM     14  N   UNL     1       2.289  -2.386  -0.810  1.00  0.00    -0.283 N 
ATOM     15  H   UNL     1       2.534  -2.841   0.028  1.00  0.00     0.180 HD
BRANCH  14  16
ATOM     16  S   UNL     1       1.028  -3.039  -1.651  1.00  0.00     0.232 S 
ATOM     17  O   UNL     1       0.090  -3.427  -0.614  1.00  0.00    -0.207 OA
ATOM     18  O   UNL     1       1.589  -4.051  -2.523  1.00  0.00    -0.207 OA
BRANCH  16  19
ATOM     19  C   UNL     1       0.170  -1.876  -2.712  1.00  0.00     0.156 C 
ATOM     20  C   UNL     1      -0.042  -0.451  -2.282  1.00  0.00     0.023 C 
ENDBRANCH  16  19
ENDBRANCH  14  16
ENDBRANCH   9  14
BRANCH  13  21
ATOM     21  N   UNL     1       5.740   1.949  -1.756  1.00  0.00    -0.360 N 
ATOM     22  C   UNL     1       6.286   2.781  -0.677  1.00  0.00     0.178 C 
ATOM     23  C   UNL     1       6.042   2.411  -3.117  1.00  0.00     0.178 C 
ATOM     24  C   UNL     1       5.927   4.270  -0.887  1.00  0.00     0.283 C 
ATOM     25  C   UNL     1       5.654   3.905  -3.263  1.00  0.00     0.283 C 
ATOM     26  N   UNL     1       6.288   4.763  -2.236  1.00  0.00    -0.334 N 
ATOM     27  C   UNL     1       5.894   6.160  -2.400  1.00  0.00     0.332 C 
ATOM     28  H   UNL     1       7.301   4.714  -2.348  1.00  0.00     0.347 HD
ENDBRANCH  13  21
ENDBRANCH   6   8
ENDBRANCH   5   6
ENDBRANCH   4   5
ENDBRANCH   3   4
ENDBRANCH   2   3
ENDBRANCH   1   2
BRANCH   1  29
ATOM     29  C   UNL     1       3.007  -0.576   3.109  1.00  0.00     0.188 C 
BRANCH  29  30
ATOM     30  O   UNL     1       2.788  -1.897   3.578  1.00  0.00    -0.376 OA
BRANCH  30  31
ATOM     31  C   UNL     1       2.200  -2.075   4.858  1.00  0.00     0.202 C 
BRANCH  31  32
ATOM     32  C   UNL     1       2.883  -1.439   6.082  1.00  0.00     0.261 C 
BRANCH  32  33
ATOM     33  O   UNL     1       3.200  -0.039   5.949  1.00  0.00    -0.460 OA
BRANCH  33  34
ATOM     34  C   UNL     1       4.516   0.270   5.825  1.00  0.00     0.338 C 
ATOM     35  O   UNL     1       5.463  -0.494   5.923  1.00  0.00    -0.246 OA
BRANCH  34  36
ATOM     36  C   UNL     1       4.668   1.655   5.309  1.00  0.00     0.060 A 
ATOM     37  C   UNL     1       5.405   1.840   4.128  1.00  0.00     0.016 A 
ATOM     38  C   UNL     1       4.117   2.757   5.964  1.00  0.00     0.016 A 
ATOM     39  C   UNL     1       5.619   3.120   3.615  1.00  0.00     0.010 A 
ATOM     40  C   UNL     1       4.364   4.047   5.470  1.00  0.00     0.010 A 
ATOM     41  C   UNL     1       5.146   4.236   4.313  1.00  0.00    -0.014 A 
BRANCH  41  42
ATOM     42  C   UNL     1       5.701   5.576   3.992  1.00  0.00     0.031 A 
ATOM     43  C   UNL     1       6.911   6.034   4.763  1.00  0.00     0.074 A 
ATOM     44  C   UNL     1       5.193   6.358   3.023  1.00  0.00     0.049 A 
ATOM     45  N   UNL     1       7.544   7.178   4.727  1.00  0.00    -0.248 NA
ATOM     46  C   UNL     1       7.485   5.058   5.705  1.00  0.00     0.031 C 
ATOM     47  C   UNL     1       4.073   6.015   2.152  1.00  0.00     0.029 A 
ATOM     48  N   UNL     1       5.559   7.621   2.620  1.00  0.00    -0.354 N 
ATOM     49  C   UNL     1       8.580   7.063   5.646  1.00  0.00     0.074 A 
ATOM     50  C   UNL     1       8.478   5.748   6.240  1.00  0.00     0.031 C 
ATOM     51  C   UNL     1       3.828   7.052   1.330  1.00  0.00     0.029 A 
ATOM     52  C   UNL     1       4.749   8.145   1.643  1.00  0.00     0.049 A 
ATOM     53  H   UNL     1       6.331   8.103   2.996  1.00  0.00     0.167 HD
ATOM     54  C   UNL     1       9.534   7.968   5.968  1.00  0.00     0.037 A 
ATOM     55  C   UNL     1       4.735   9.377   1.095  1.00  0.00     0.037 A 
ATOM     56  C   UNL     1       9.636   9.279   5.388  1.00  0.00     0.049 A 
ATOM     57  C   UNL     1       5.744  10.409   1.542  1.00  0.00     0.074 A 
ATOM     58  C   UNL     1      10.569  10.267   5.648  1.00  0.00     0.029 A 
ATOM     59  N   UNL     1       8.767   9.789   4.436  1.00  0.00    -0.354 N 
ATOM     60  N   UNL     1       6.722  10.293   2.408  1.00  0.00    -0.248 NA
ATOM     61  C   UNL     1       5.643  11.745   0.934  1.00  0.00     0.031 C 
ATOM     62  C   UNL     1      10.231  11.396   4.894  1.00  0.00     0.029 A 
ATOM     63  C   UNL     1       9.125  11.089   4.118  1.00  0.00     0.049 A 
ATOM     64  H   UNL     1       8.008   9.300   4.043  1.00  0.00     0.167 HD
ATOM     65  C   UNL     1       7.369  11.525   2.425  1.00  0.00     0.074 A 
ATOM     66  C   UNL     1       6.679  12.371   1.476  1.00  0.00     0.031 C 
ATOM     67  C   UNL     1       8.438  11.919   3.160  1.00  0.00     0.037 A 
BRANCH  54  68
ATOM     68  C   UNL     1      10.519   7.579   7.031  1.00  0.00     0.064 A 
ATOM     69  C   UNL     1      11.507   6.608   6.805  1.00  0.00     0.173 A 
ATOM     70  C   UNL     1      10.479   8.194   8.291  1.00  0.00     0.173 A 
ATOM     71  F   UNL     1      11.574   5.976   5.623  1.00  0.00    -0.203 F 
ATOM     72  C   UNL     1      12.399   6.248   7.811  1.00  0.00     0.198 A 
ATOM     73  C   UNL     1      11.392   7.854   9.284  1.00  0.00     0.198 A 
ATOM     74  F   UNL     1       9.553   9.128   8.559  1.00  0.00    -0.203 F 
ATOM     75  F   UNL     1      13.298   5.279   7.591  1.00  0.00    -0.200 F 
ATOM     76  C   UNL     1      12.345   6.875   9.047  1.00  0.00     0.200 A 
ATOM     77  F   UNL     1      11.346   8.469  10.474  1.00  0.00    -0.200 F 
ATOM     78  F   UNL     1      13.207   6.529  10.014  1.00  0.00    -0.200 F 
ENDBRANCH  54  68
BRANCH  55  79
ATOM     79  C   UNL     1       3.709   9.730   0.076  1.00  0.00     0.064 A 
ATOM     80  C   UNL     1       4.069   9.988  -1.255  1.00  0.00     0.173 A 
ATOM     81  C   UNL     1       2.356   9.857   0.420  1.00  0.00     0.173 A 
ATOM     82  F   UNL     1       5.355   9.905  -1.628  1.00  0.00    -0.203 F 
ATOM     83  C   UNL     1       3.118  10.378  -2.196  1.00  0.00     0.198 A 
ATOM     84  C   UNL     1       1.401  10.218  -0.528  1.00  0.00     0.198 A 
ATOM     85  F   UNL     1       1.959   9.629   1.681  1.00  0.00    -0.203 F 
ATOM     86  F   UNL     1       3.498  10.667  -3.448  1.00  0.00    -0.200 F 
ATOM     87  C   UNL     1       1.784  10.487  -1.833  1.00  0.00     0.200 A 
ATOM     88  F   UNL     1       0.111  10.312  -0.176  1.00  0.00    -0.200 F 
ATOM     89  F   UNL     1       0.870  10.861  -2.739  1.00  0.00    -0.200 F 
ENDBRANCH  55  79
BRANCH  67  90
ATOM     90  C   UNL     1       8.966  13.309   2.940  1.00  0.00     0.064 A 
ATOM     91  C   UNL     1       8.269  14.444   3.378  1.00  0.00     0.173 A 
ATOM     92  C   UNL     1      10.216  13.503   2.329  1.00  0.00     0.173 A 
ATOM     93  F   UNL     1       7.066  14.316   3.956  1.00  0.00    -0.203 F 
ATOM     94  C   UNL     1       8.791  15.722   3.191  1.00  0.00     0.198 A 
ATOM     95  C   UNL     1      10.749  14.779   2.172  1.00  0.00     0.198 A 
ATOM     96  F   UNL     1      10.929  12.451   1.900  1.00  0.00    -0.203 F 
ATOM     97  F   UNL     1       8.086  16.795   3.576  1.00  0.00    -0.200 F 
ATOM     98  C   UNL     1      10.034  15.888   2.596  1.00  0.00     0.200 A 
ATOM     99  F   UNL     1      11.957  14.935   1.613  1.00  0.00    -0.200 F 
ATOM    100  F   UNL     1      10.539  17.118   2.427  1.00  0.00    -0.200 F 
ENDBRANCH  67  90
ENDBRANCH  41  42
ENDBRANCH  34  36
ENDBRANCH  33  34
ENDBRANCH  32  33
ENDBRANCH  31  32
ENDBRANCH  30  31
ENDBRANCH  29  30
ENDBRANCH   1  29
TORSDOF 21
