REMARK SMILES COc1ccc([C@@H](CC(=O)OCCOCCOCCOC(=O)c2ccc(-c3c4nc(c(-c5c(F)c(F)c(F)c(F)c5F)c5ccc([nH]5)c(-c5c(F)c(F)c(F)c(F)c5F)c5nc(c(-c6c(F)c(F)c(F)c(F)c6F)c6ccc3[nH]6)C=C5)C=C4)cc2)NC(=O)c2ccc(Cl)c([N+](=O)[O-])c2)cc1
REMARK SMILES IDX 15 1 14 2 13 3 12 4 11 5 9 6 10 7 8 8 7 9 6 10 3 11 4 12
REMARK SMILES IDX 100 13 5 14 99 15 2 16 1 17 86 18 87 19 88 21 89 22 90 23
REMARK SMILES IDX 98 24 91 25 94 26 92 27 93 28 95 29 96 30 97 31 16 32 17 33
REMARK SMILES IDX 18 34 19 35 20 36 21 37 22 38 23 39 24 40 85 41 25 42 84 43
REMARK SMILES IDX 26 44 27 45 28 46 78 47 29 48 83 49 77 50 79 51 30 52 82 53
REMARK SMILES IDX 76 54 75 55 31 57 63 58 43 59 62 60 44 61 47 62 61 63 80 64
REMARK SMILES IDX 45 65 46 66 60 68 81 69 48 70 32 71 33 72 41 73 34 74 35 75
REMARK SMILES IDX 39 76 42 77 36 78 37 79 40 80 38 81 64 82 65 83 73 84 66 85
REMARK SMILES IDX 67 86 71 87 74 88 68 89 69 90 72 91 70 92 49 93 50 94 58 95
REMARK SMILES IDX 51 96 52 97 56 98 59 99 53 100 54 101 57 102 55 103
REMARK H PARENT 86 20 79 56 47 67
REMARK Flexibility Score: inf
ROOT
ATOM      1  C   UNL     1      -2.465  -4.780  -6.906  1.00  0.00     0.188 C 
ENDROOT
BRANCH   1   2
ATOM      2  O   UNL     1      -3.389  -4.797  -5.837  1.00  0.00    -0.376 OA
BRANCH   2   3
ATOM      3  C   UNL     1      -2.888  -5.078  -4.527  1.00  0.00     0.202 C 
BRANCH   3   4
ATOM      4  C   UNL     1      -1.535  -5.781  -4.391  1.00  0.00     0.261 C 
BRANCH   4   5
ATOM      5  O   UNL     1      -0.466  -4.881  -4.766  1.00  0.00    -0.463 OA
BRANCH   5   6
ATOM      6  C   UNL     1       0.702  -5.475  -5.075  1.00  0.00     0.308 C 
ATOM      7  O   UNL     1       0.840  -6.695  -5.132  1.00  0.00    -0.252 OA
BRANCH   6   8
ATOM      8  C   UNL     1       1.836  -4.557  -5.470  1.00  0.00     0.152 C 
BRANCH   8   9
ATOM      9  C   UNL     1       1.964  -3.064  -5.123  1.00  0.00     0.123 C 
BRANCH   9  10
ATOM     10  C   UNL     1       1.688  -2.589  -3.706  1.00  0.00    -0.025 A 
ATOM     11  C   UNL     1       1.234  -1.584  -1.113  1.00  0.00     0.118 A 
ATOM     12  C   UNL     1       0.176  -2.082  -1.861  1.00  0.00     0.047 A 
ATOM     13  C   UNL     1       2.522  -1.585  -1.637  1.00  0.00     0.047 A 
ATOM     14  C   UNL     1       0.398  -2.545  -3.160  1.00  0.00     0.010 A 
ATOM     15  C   UNL     1       2.746  -2.085  -2.924  1.00  0.00     0.010 A 
BRANCH  11  16
ATOM     16  O   UNL     1       0.965  -1.151   0.155  1.00  0.00    -0.497 OA
ATOM     17  C   UNL     1       1.199   0.251   0.285  1.00  0.00     0.278 C 
ENDBRANCH  11  16
ENDBRANCH   9  10
BRANCH   9  18
ATOM     18  N   UNL     1       1.342  -2.173  -6.100  1.00  0.00    -0.345 N 
ATOM     19  C   UNL     1       1.919  -1.206  -6.890  1.00  0.00     0.252 C 
ATOM     20  H   UNL     1       0.370  -2.280  -6.208  1.00  0.00     0.164 HD
ATOM     21  O   UNL     1       1.230  -0.288  -7.327  1.00  0.00    -0.269 OA
BRANCH  19  22
ATOM     22  C   UNL     1       3.353  -1.219  -7.285  1.00  0.00     0.046 A 
ATOM     23  C   UNL     1       3.981   0.012  -7.513  1.00  0.00     0.016 A 
ATOM     24  C   UNL     1       4.058  -2.392  -7.558  1.00  0.00     0.101 A 
ATOM     25  C   UNL     1       5.313   0.067  -7.938  1.00  0.00     0.028 A 
ATOM     26  C   UNL     1       5.413  -2.339  -7.960  1.00  0.00     0.288 A 
ATOM     27  C   UNL     1       6.050  -1.106  -8.143  1.00  0.00     0.118 A 
ATOM     28  Cl  UNL     1       7.706  -0.883  -8.577  1.00  0.00    -0.077 Cl
BRANCH  26  29
ATOM     29  N   UNL     1       6.096  -3.623  -8.151  1.00  0.00     0.064 N 
ATOM     30  O   UNL     1       7.082  -3.679  -8.891  1.00  0.00    -0.258 OA
ATOM     31  O   UNL     1       5.607  -4.604  -7.569  1.00  0.00    -0.258 OA
ENDBRANCH  26  29
ENDBRANCH  19  22
ENDBRANCH   9  18
ENDBRANCH   8   9
ENDBRANCH   6   8
ENDBRANCH   5   6
ENDBRANCH   4   5
ENDBRANCH   3   4
ENDBRANCH   2   3
ENDBRANCH   1   2
BRANCH   1  32
ATOM     32  C   UNL     1      -1.757  -3.456  -7.195  1.00  0.00     0.188 C 
BRANCH  32  33
ATOM     33  O   UNL     1      -1.533  -2.498  -6.172  1.00  0.00    -0.376 OA
BRANCH  33  34
ATOM     34  C   UNL     1      -2.636  -1.761  -5.647  1.00  0.00     0.202 C 
BRANCH  34  35
ATOM     35  C   UNL     1      -3.566  -0.941  -6.561  1.00  0.00     0.261 C 
BRANCH  35  36
ATOM     36  O   UNL     1      -3.332  -1.088  -7.957  1.00  0.00    -0.460 OA
BRANCH  36  37
ATOM     37  C   UNL     1      -2.309  -0.354  -8.456  1.00  0.00     0.338 C 
ATOM     38  O   UNL     1      -1.725   0.565  -7.920  1.00  0.00    -0.246 OA
BRANCH  37  39
ATOM     39  C   UNL     1      -1.921  -1.025  -9.716  1.00  0.00     0.060 A 
ATOM     40  C   UNL     1      -0.610  -1.497  -9.852  1.00  0.00     0.016 A 
ATOM     41  C   UNL     1      -2.881  -1.316 -10.688  1.00  0.00     0.016 A 
ATOM     42  C   UNL     1      -0.247  -2.255 -10.964  1.00  0.00     0.010 A 
ATOM     43  C   UNL     1      -2.517  -2.062 -11.807  1.00  0.00     0.010 A 
ATOM     44  C   UNL     1      -1.195  -2.518 -11.957  1.00  0.00    -0.014 A 
BRANCH  44  45
ATOM     45  C   UNL     1      -0.783  -3.092 -13.256  1.00  0.00     0.031 A 
ATOM     46  C   UNL     1      -0.534  -2.138 -14.385  1.00  0.00     0.074 A 
ATOM     47  C   UNL     1      -0.672  -4.419 -13.438  1.00  0.00     0.049 A 
ATOM     48  N   UNL     1      -0.337  -2.383 -15.653  1.00  0.00    -0.248 NA
ATOM     49  C   UNL     1      -0.516  -0.708 -14.034  1.00  0.00     0.031 C 
ATOM     50  C   UNL     1      -0.828  -5.436 -12.400  1.00  0.00     0.029 A 
ATOM     51  N   UNL     1      -0.419  -5.137 -14.580  1.00  0.00    -0.354 N 
ATOM     52  C   UNL     1      -0.201  -1.139 -16.253  1.00  0.00     0.074 A 
ATOM     53  C   UNL     1      -0.344  -0.141 -15.217  1.00  0.00     0.031 C 
ATOM     54  C   UNL     1      -0.687  -6.652 -12.959  1.00  0.00     0.029 A 
ATOM     55  C   UNL     1      -0.481  -6.497 -14.398  1.00  0.00     0.049 A 
ATOM     56  H   UNL     1      -0.213  -4.717 -15.446  1.00  0.00     0.167 HD
ATOM     57  C   UNL     1       0.021  -0.858 -17.557  1.00  0.00     0.037 A 
ATOM     58  C   UNL     1      -0.418  -7.492 -15.304  1.00  0.00     0.037 A 
ATOM     59  C   UNL     1       0.174  -1.856 -18.579  1.00  0.00     0.049 A 
ATOM     60  C   UNL     1      -0.258  -7.148 -16.765  1.00  0.00     0.074 A 
ATOM     61  C   UNL     1       0.434  -1.679 -19.925  1.00  0.00     0.029 A 
ATOM     62  N   UNL     1       0.072  -3.222 -18.363  1.00  0.00    -0.354 N 
ATOM     63  N   UNL     1      -0.117  -5.973 -17.331  1.00  0.00    -0.248 NA
ATOM     64  C   UNL     1      -0.265  -8.270 -17.716  1.00  0.00     0.031 C 
ATOM     65  C   UNL     1       0.440  -2.937 -20.535  1.00  0.00     0.029 A 
ATOM     66  C   UNL     1       0.232  -3.900 -19.559  1.00  0.00     0.049 A 
ATOM     67  H   UNL     1      -0.090  -3.646 -17.490  1.00  0.00     0.167 HD
ATOM     68  C   UNL     1       0.009  -6.215 -18.693  1.00  0.00     0.074 A 
ATOM     69  C   UNL     1      -0.063  -7.651 -18.870  1.00  0.00     0.031 C 
ATOM     70  C   UNL     1       0.169  -5.331 -19.708  1.00  0.00     0.037 A 
BRANCH  57  71
ATOM     71  C   UNL     1       0.070   0.585 -17.953  1.00  0.00     0.064 A 
ATOM     72  C   UNL     1       1.157   1.407 -17.622  1.00  0.00     0.173 A 
ATOM     73  C   UNL     1      -0.981   1.148 -18.692  1.00  0.00     0.173 A 
ATOM     74  F   UNL     1       2.175   0.920 -16.896  1.00  0.00    -0.203 F 
ATOM     75  C   UNL     1       1.181   2.746 -18.000  1.00  0.00     0.198 A 
ATOM     76  C   UNL     1      -0.942   2.480 -19.091  1.00  0.00     0.198 A 
ATOM     77  F   UNL     1      -2.045   0.403 -19.028  1.00  0.00    -0.203 F 
ATOM     78  F   UNL     1       2.209   3.525 -17.636  1.00  0.00    -0.200 F 
ATOM     79  C   UNL     1       0.136   3.279 -18.741  1.00  0.00     0.200 A 
ATOM     80  F   UNL     1      -1.949   2.991 -19.812  1.00  0.00    -0.200 F 
ATOM     81  F   UNL     1       0.164   4.567 -19.110  1.00  0.00    -0.200 F 
ENDBRANCH  57  71
BRANCH  58  82
ATOM     82  C   UNL     1      -0.543  -8.911 -14.875  1.00  0.00     0.064 A 
ATOM     83  C   UNL     1       0.537  -9.796 -14.990  1.00  0.00     0.173 A 
ATOM     84  C   UNL     1      -1.754  -9.422 -14.384  1.00  0.00     0.173 A 
ATOM     85  F   UNL     1       1.707  -9.364 -15.484  1.00  0.00    -0.203 F 
ATOM     86  C   UNL     1       0.407 -11.142 -14.650  1.00  0.00     0.198 A 
ATOM     87  C   UNL     1      -1.876 -10.761 -14.018  1.00  0.00     0.198 A 
ATOM     88  F   UNL     1      -2.822  -8.620 -14.263  1.00  0.00    -0.203 F 
ATOM     89  F   UNL     1       1.440 -11.977 -14.821  1.00  0.00    -0.200 F 
ATOM     90  C   UNL     1      -0.798 -11.622 -14.160  1.00  0.00     0.200 A 
ATOM     91  F   UNL     1      -3.041 -11.219 -13.540  1.00  0.00    -0.200 F 
ATOM     92  F   UNL     1      -0.925 -12.916 -13.837  1.00  0.00    -0.200 F 
ENDBRANCH  58  82
BRANCH  70  93
ATOM     93  C   UNL     1       0.315  -5.886 -21.094  1.00  0.00     0.064 A 
ATOM     94  C   UNL     1      -0.781  -6.410 -21.794  1.00  0.00     0.173 A 
ATOM     95  C   UNL     1       1.552  -5.827 -21.754  1.00  0.00     0.173 A 
ATOM     96  F   UNL     1      -1.981  -6.499 -21.201  1.00  0.00    -0.203 F 
ATOM     97  C   UNL     1      -0.640  -6.870 -23.100  1.00  0.00     0.198 A 
ATOM     98  C   UNL     1       1.683  -6.263 -23.069  1.00  0.00     0.198 A 
ATOM     99  F   UNL     1       2.628  -5.326 -21.130  1.00  0.00    -0.203 F 
ATOM    100  F   UNL     1      -1.692  -7.401 -23.739  1.00  0.00    -0.200 F 
ATOM    101  C   UNL     1       0.589  -6.788 -23.739  1.00  0.00     0.200 A 
ATOM    102  F   UNL     1       2.867  -6.167 -23.690  1.00  0.00    -0.200 F 
ATOM    103  F   UNL     1       0.719  -7.218 -25.002  1.00  0.00    -0.200 F 
ENDBRANCH  70  93
ENDBRANCH  44  45
ENDBRANCH  37  39
ENDBRANCH  36  37
ENDBRANCH  35  36
ENDBRANCH  34  35
ENDBRANCH  33  34
ENDBRANCH  32  33
ENDBRANCH   1  32
TORSDOF 23
