REMARK SMILES O=C(OCCOCCOCCOC(=O)c1cc(F)c(F)cc1NS(=O)(=O)c1ccc2c(c1)CCC2)c1ccc(-c2c3nc(c(-c4c(F)c(F)c(F)c(F)c4F)c4ccc([nH]4)c(-c4c(F)c(F)c(F)c(F)c4F)c4nc(c(-c5c(F)c(F)c(F)c(F)c5F)c5ccc2[nH]5)C=C4)C=C3)cc1
REMARK SMILES IDX 8 1 7 2 6 3 5 4 4 5 3 6 2 7 1 8 36 9 37 10 98 11 38 12 97 13
REMARK SMILES IDX 39 14 40 15 41 16 91 17 42 18 96 19 90 20 92 21 43 22 95 23
REMARK SMILES IDX 89 24 88 25 44 27 76 28 56 29 75 30 57 31 60 32 74 33 93 34
REMARK SMILES IDX 58 35 59 36 73 38 94 39 61 40 45 41 46 42 54 43 47 44 48 45
REMARK SMILES IDX 52 46 55 47 49 48 50 49 53 50 51 51 77 52 78 53 86 54 79 55
REMARK SMILES IDX 80 56 84 57 87 58 81 59 82 60 85 61 83 62 62 63 63 64 71 65
REMARK SMILES IDX 64 66 65 67 69 68 72 69 66 70 67 71 70 72 68 73 9 74 10 75
REMARK SMILES IDX 11 76 12 77 13 78 14 79 15 80 16 81 22 82 17 83 21 84 18 85
REMARK SMILES IDX 19 86 20 87 23 88 24 90 25 91 26 92 27 93 28 94 32 95 29 96
REMARK SMILES IDX 31 97 30 98 33 99 35 100 34 101
REMARK H PARENT 92 26 60 37 23 89
REMARK Flexibility Score: inf
ROOT
ATOM      1  C   UNL     1       1.943  -2.153  -2.382  1.00  0.00     0.188 C 
ENDROOT
BRANCH   1   2
ATOM      2  C   UNL     1       2.529  -1.931  -0.988  1.00  0.00     0.188 C 
BRANCH   2   3
ATOM      3  O   UNL     1       3.795  -1.260  -1.057  1.00  0.00    -0.376 OA
BRANCH   3   4
ATOM      4  C   UNL     1       4.714  -1.684  -0.046  1.00  0.00     0.202 C 
BRANCH   4   5
ATOM      5  C   UNL     1       4.548  -0.969   1.301  1.00  0.00     0.261 C 
BRANCH   5   6
ATOM      6  O   UNL     1       3.177  -0.647   1.583  1.00  0.00    -0.460 OA
BRANCH   6   7
ATOM      7  C   UNL     1       2.555   0.552   1.448  1.00  0.00     0.338 C 
ATOM      8  O   UNL     1       1.438   0.682   1.946  1.00  0.00    -0.246 OA
BRANCH   7   9
ATOM      9  C   UNL     1       3.178   1.741   0.777  1.00  0.00     0.060 A 
ATOM     10  C   UNL     1       4.237   1.698  -0.132  1.00  0.00     0.016 A 
ATOM     11  C   UNL     1       2.616   3.000   1.055  1.00  0.00     0.016 A 
ATOM     12  C   UNL     1       4.818   2.861  -0.629  1.00  0.00     0.010 A 
ATOM     13  C   UNL     1       3.135   4.169   0.488  1.00  0.00     0.010 A 
ATOM     14  C   UNL     1       4.283   4.107  -0.310  1.00  0.00    -0.014 A 
BRANCH  14  15
ATOM     15  C   UNL     1       5.033   5.329  -0.676  1.00  0.00     0.031 A 
ATOM     16  C   UNL     1       5.704   6.102   0.418  1.00  0.00     0.074 A 
ATOM     17  C   UNL     1       5.230   5.670  -1.962  1.00  0.00     0.049 A 
ATOM     18  N   UNL     1       6.374   7.221   0.350  1.00  0.00    -0.248 NA
ATOM     19  C   UNL     1       5.640   5.518   1.769  1.00  0.00     0.031 C 
ATOM     20  C   UNL     1       4.772   4.895  -3.111  1.00  0.00     0.029 A 
ATOM     21  N   UNL     1       5.887   6.736  -2.523  1.00  0.00    -0.354 N 
ATOM     22  C   UNL     1       6.807   7.473   1.643  1.00  0.00     0.074 A 
ATOM     23  C   UNL     1       6.295   6.417   2.486  1.00  0.00     0.031 C 
ATOM     24  C   UNL     1       5.160   5.511  -4.237  1.00  0.00     0.029 A 
ATOM     25  C   UNL     1       5.826   6.756  -3.894  1.00  0.00     0.049 A 
ATOM     26  H   UNL     1       6.356   7.421  -1.993  1.00  0.00     0.167 HD
ATOM     27  C   UNL     1       7.584   8.488   2.080  1.00  0.00     0.037 A 
ATOM     28  C   UNL     1       6.233   7.683  -4.781  1.00  0.00     0.037 A 
ATOM     29  C   UNL     1       8.095   9.525   1.228  1.00  0.00     0.049 A 
ATOM     30  C   UNL     1       6.955   8.887  -4.258  1.00  0.00     0.074 A 
ATOM     31  C   UNL     1       8.841  10.635   1.572  1.00  0.00     0.029 A 
ATOM     32  N   UNL     1       7.912   9.569  -0.148  1.00  0.00    -0.354 N 
ATOM     33  N   UNL     1       7.299   9.161  -3.023  1.00  0.00    -0.248 NA
ATOM     34  C   UNL     1       7.356   9.904  -5.237  1.00  0.00     0.031 C 
ATOM     35  C   UNL     1       9.079  11.373   0.408  1.00  0.00     0.029 A 
ATOM     36  C   UNL     1       8.515  10.701  -0.666  1.00  0.00     0.049 A 
ATOM     37  H   UNL     1       7.425   8.896  -0.675  1.00  0.00     0.167 HD
ATOM     38  C   UNL     1       7.975  10.367  -3.074  1.00  0.00     0.074 A 
ATOM     39  C   UNL     1       8.002  10.771  -4.467  1.00  0.00     0.031 C 
ATOM     40  C   UNL     1       8.526  11.074  -2.058  1.00  0.00     0.037 A 
BRANCH  27  41
ATOM     41  C   UNL     1       7.888   8.530   3.546  1.00  0.00     0.064 A 
ATOM     42  C   UNL     1       7.259   9.472   4.371  1.00  0.00     0.173 A 
ATOM     43  C   UNL     1       8.788   7.631   4.137  1.00  0.00     0.173 A 
ATOM     44  F   UNL     1       6.381  10.345   3.854  1.00  0.00    -0.203 F 
ATOM     45  C   UNL     1       7.524   9.517   5.737  1.00  0.00     0.198 A 
ATOM     46  C   UNL     1       9.033   7.663   5.507  1.00  0.00     0.198 A 
ATOM     47  F   UNL     1       9.390   6.691   3.393  1.00  0.00    -0.203 F 
ATOM     48  F   UNL     1       6.917  10.432   6.506  1.00  0.00    -0.200 F 
ATOM     49  C   UNL     1       8.405   8.609   6.305  1.00  0.00     0.200 A 
ATOM     50  F   UNL     1       9.859   6.764   6.060  1.00  0.00    -0.200 F 
ATOM     51  F   UNL     1       8.641   8.638   7.623  1.00  0.00    -0.200 F 
ENDBRANCH  27  41
BRANCH  28  52
ATOM     52  C   UNL     1       5.940   7.510  -6.229  1.00  0.00     0.064 A 
ATOM     53  C   UNL     1       4.625   7.592  -6.717  1.00  0.00     0.173 A 
ATOM     54  C   UNL     1       6.958   7.237  -7.152  1.00  0.00     0.173 A 
ATOM     55  F   UNL     1       3.616   7.867  -5.878  1.00  0.00    -0.203 F 
ATOM     56  C   UNL     1       4.339   7.385  -8.066  1.00  0.00     0.198 A 
ATOM     57  C   UNL     1       6.673   7.055  -8.505  1.00  0.00     0.198 A 
ATOM     58  F   UNL     1       8.233   7.171  -6.742  1.00  0.00    -0.203 F 
ATOM     59  F   UNL     1       3.072   7.447  -8.499  1.00  0.00    -0.200 F 
ATOM     60  C   UNL     1       5.364   7.120  -8.960  1.00  0.00     0.200 A 
ATOM     61  F   UNL     1       7.670   6.826  -9.372  1.00  0.00    -0.200 F 
ATOM     62  F   UNL     1       5.094   6.940 -10.260  1.00  0.00    -0.200 F 
ENDBRANCH  28  52
BRANCH  40  63
ATOM     63  C   UNL     1       9.217  12.352  -2.415  1.00  0.00     0.064 A 
ATOM     64  C   UNL     1      10.615  12.442  -2.354  1.00  0.00     0.173 A 
ATOM     65  C   UNL     1       8.489  13.506  -2.734  1.00  0.00     0.173 A 
ATOM     66  F   UNL     1      11.349  11.362  -2.047  1.00  0.00    -0.203 F 
ATOM     67  C   UNL     1      11.260  13.652  -2.580  1.00  0.00     0.198 A 
ATOM     68  C   UNL     1       9.140  14.709  -2.985  1.00  0.00     0.198 A 
ATOM     69  F   UNL     1       7.151  13.458  -2.819  1.00  0.00    -0.203 F 
ATOM     70  F   UNL     1      12.594  13.727  -2.481  1.00  0.00    -0.200 F 
ATOM     71  C   UNL     1      10.523  14.784  -2.896  1.00  0.00     0.200 A 
ATOM     72  F   UNL     1       8.429  15.796  -3.313  1.00  0.00    -0.200 F 
ATOM     73  F   UNL     1      11.146  15.949  -3.118  1.00  0.00    -0.200 F 
ENDBRANCH  40  63
ENDBRANCH  14  15
ENDBRANCH   7   9
ENDBRANCH   6   7
ENDBRANCH   5   6
ENDBRANCH   4   5
ENDBRANCH   3   4
ENDBRANCH   2   3
ENDBRANCH   1   2
BRANCH   1  74
ATOM     74  O   UNL     1       2.659  -3.073  -3.206  1.00  0.00    -0.376 OA
BRANCH  74  75
ATOM     75  C   UNL     1       3.964  -2.691  -3.627  1.00  0.00     0.202 C 
BRANCH  75  76
ATOM     76  C   UNL     1       4.039  -1.644  -4.743  1.00  0.00     0.261 C 
BRANCH  76  77
ATOM     77  O   UNL     1       3.567  -0.327  -4.409  1.00  0.00    -0.460 OA
BRANCH  77  78
ATOM     78  C   UNL     1       2.375   0.026  -4.953  1.00  0.00     0.340 C 
ATOM     79  O   UNL     1       1.538  -0.686  -5.476  1.00  0.00    -0.246 OA
BRANCH  78  80
ATOM     80  C   UNL     1       2.273   1.488  -4.952  1.00  0.00     0.087 A 
ATOM     81  C   UNL     1       3.046   2.143  -5.925  1.00  0.00     0.060 A 
ATOM     82  C   UNL     1       1.398   2.195  -4.104  1.00  0.00     0.066 A 
ATOM     83  C   UNL     1       2.940   3.514  -6.060  1.00  0.00     0.159 A 
ATOM     84  C   UNL     1       1.445   3.590  -4.168  1.00  0.00     0.070 A 
ATOM     85  F   UNL     1       3.629   4.143  -7.021  1.00  0.00    -0.204 F 
ATOM     86  C   UNL     1       2.159   4.235  -5.174  1.00  0.00     0.160 A 
ATOM     87  F   UNL     1       2.087   5.569  -5.273  1.00  0.00    -0.204 F 
BRANCH  82  88
ATOM     88  N   UNL     1       0.347   1.510  -3.409  1.00  0.00    -0.279 N 
ATOM     89  H   UNL     1       0.049   0.657  -3.800  1.00  0.00     0.180 HD
BRANCH  88  90
ATOM     90  S   UNL     1      -0.433   1.998  -2.004  1.00  0.00     0.261 S 
ATOM     91  O   UNL     1      -1.514   1.060  -1.794  1.00  0.00    -0.201 OA
ATOM     92  O   UNL     1       0.598   2.203  -1.015  1.00  0.00    -0.201 OA
BRANCH  90  93
ATOM     93  C   UNL     1      -1.173   3.582  -2.354  1.00  0.00     0.088 A 
ATOM     94  C   UNL     1      -0.928   4.640  -1.450  1.00  0.00     0.022 A 
ATOM     95  C   UNL     1      -1.732   3.818  -3.616  1.00  0.00     0.026 A 
ATOM     96  C   UNL     1      -1.149   5.963  -1.837  1.00  0.00     0.005 A 
ATOM     97  C   UNL     1      -1.895   5.140  -3.999  1.00  0.00    -0.043 A 
ATOM     98  C   UNL     1      -1.585   6.197  -3.130  1.00  0.00    -0.045 A 
ATOM     99  C   UNL     1      -2.322   5.669  -5.334  1.00  0.00     0.036 C 
ATOM    100  C   UNL     1      -1.758   7.519  -3.814  1.00  0.00     0.036 C 
ATOM    101  C   UNL     1      -1.733   7.087  -5.288  1.00  0.00     0.010 C 
ENDBRANCH  90  93
ENDBRANCH  88  90
ENDBRANCH  82  88
ENDBRANCH  78  80
ENDBRANCH  77  78
ENDBRANCH  76  77
ENDBRANCH  75  76
ENDBRANCH  74  75
ENDBRANCH   1  74
TORSDOF 20
