REMARK SMILES CCCc1cc2c(cc1Cl)C=C(C(=O)OCCOCCOCCOC(=O)c1ccc(-c3c4nc(c(-c5c(F)c(F)c(F)c(F)c5F)c5ccc([nH]5)c(-c5c(F)c(F)c(F)c(F)c5F)c5nc(c(-c6c(F)c(F)c(F)c(F)c6F)c6ccc3[nH]6)C=C5)C=C4)cc1)[C@H](C(F)(F)F)O2
REMARK SMILES IDX 19 1 18 2 17 3 16 4 15 5 13 6 14 7 12 8 4 9 5 10 9 11 6 12
REMARK SMILES IDX 8 13 10 14 7 15 95 16 11 17 90 18 3 19 2 20 1 21 91 22 92 23
REMARK SMILES IDX 93 24 94 25 20 26 21 27 22 28 23 29 24 30 25 31 26 32 27 33
REMARK SMILES IDX 28 34 89 35 29 36 88 37 30 38 31 39 32 40 82 41 33 42 87 43
REMARK SMILES IDX 81 44 83 45 34 46 86 47 80 48 79 49 35 51 67 52 47 53 66 54
REMARK SMILES IDX 48 55 51 56 65 57 84 58 49 59 50 60 64 62 85 63 52 64 36 65
REMARK SMILES IDX 37 66 45 67 38 68 39 69 43 70 46 71 40 72 41 73 44 74 42 75
REMARK SMILES IDX 68 76 69 77 77 78 70 79 71 80 75 81 78 82 72 83 73 84 76 85
REMARK SMILES IDX 74 86 53 87 54 88 62 89 55 90 56 91 60 92 63 93 57 94 58 95
REMARK SMILES IDX 61 96 59 97
REMARK H PARENT 83 50 51 61
REMARK Flexibility Score: inf
ROOT
ATOM      1  C   UNL     1      -2.344   9.081  -1.020  1.00  0.00     0.188 C 
ENDROOT
BRANCH   1   2
ATOM      2  O   UNL     1      -2.449  10.095  -2.007  1.00  0.00    -0.376 OA
BRANCH   2   3
ATOM      3  C   UNL     1      -2.692   9.739  -3.365  1.00  0.00     0.202 C 
BRANCH   3   4
ATOM      4  C   UNL     1      -1.868   8.626  -4.032  1.00  0.00     0.261 C 
BRANCH   4   5
ATOM      5  O   UNL     1      -1.897   7.369  -3.333  1.00  0.00    -0.460 OA
BRANCH   5   6
ATOM      6  C   UNL     1      -0.699   6.867  -2.971  1.00  0.00     0.338 C 
ATOM      7  O   UNL     1       0.396   7.323  -3.259  1.00  0.00    -0.246 OA
BRANCH   6   8
ATOM      8  C   UNL     1      -0.868   5.761  -2.010  1.00  0.00     0.087 C 
ATOM      9  C   UNL     1       0.369   2.406   1.516  1.00  0.00    -0.026 A 
ATOM     10  C   UNL     1      -0.448   2.395   0.374  1.00  0.00     0.052 A 
ATOM     11  C   UNL     1       0.851   3.652   1.959  1.00  0.00     0.045 A 
ATOM     12  C   UNL     1      -0.629   3.540  -0.396  1.00  0.00     0.128 A 
ATOM     13  C   UNL     1       0.612   4.819   1.223  1.00  0.00     0.032 A 
ATOM     14  Cl  UNL     1       1.798   3.803   3.398  1.00  0.00    -0.084 Cl
ATOM     15  C   UNL     1      -0.093   4.754   0.018  1.00  0.00     0.019 A 
ATOM     16  O   UNL     1      -1.239   3.346  -1.603  1.00  0.00    -0.475 OA
ATOM     17  C   UNL     1      -0.162   5.894  -0.876  1.00  0.00     0.027 C 
ATOM     18  C   UNL     1      -1.629   4.513  -2.380  1.00  0.00     0.316 C 
BRANCH   9  19
ATOM     19  C   UNL     1       0.767   1.119   2.212  1.00  0.00     0.037 C 
BRANCH  19  20
ATOM     20  C   UNL     1       0.454  -0.210   1.502  1.00  0.00     0.001 C 
ATOM     21  C   UNL     1       1.211  -0.414   0.192  1.00  0.00     0.004 C 
ENDBRANCH  19  20
ENDBRANCH   9  19
BRANCH  18  22
ATOM     22  C   UNL     1      -3.166   4.588  -2.341  1.00  0.00     0.430 C 
ATOM     23  F   UNL     1      -3.664   5.450  -3.249  1.00  0.00    -0.167 F 
ATOM     24  F   UNL     1      -3.707   3.376  -2.636  1.00  0.00    -0.167 F 
ATOM     25  F   UNL     1      -3.632   4.932  -1.119  1.00  0.00    -0.167 F 
ENDBRANCH  18  22
ENDBRANCH   6   8
ENDBRANCH   5   6
ENDBRANCH   4   5
ENDBRANCH   3   4
ENDBRANCH   2   3
ENDBRANCH   1   2
BRANCH   1  26
ATOM     26  C   UNL     1      -3.419   7.984  -0.927  1.00  0.00     0.188 C 
BRANCH  26  27
ATOM     27  O   UNL     1      -4.375   7.981  -1.953  1.00  0.00    -0.376 OA
BRANCH  27  28
ATOM     28  C   UNL     1      -5.632   8.607  -1.776  1.00  0.00     0.202 C 
BRANCH  28  29
ATOM     29  C   UNL     1      -5.969   9.649  -0.690  1.00  0.00     0.261 C 
BRANCH  29  30
ATOM     30  O   UNL     1      -4.995   9.920   0.318  1.00  0.00    -0.460 OA
BRANCH  30  31
ATOM     31  C   UNL     1      -5.131   9.245   1.490  1.00  0.00     0.338 C 
ATOM     32  O   UNL     1      -5.960   8.409   1.771  1.00  0.00    -0.246 OA
BRANCH  31  33
ATOM     33  C   UNL     1      -3.938   9.559   2.306  1.00  0.00     0.060 A 
ATOM     34  C   UNL     1      -3.674  10.877   2.677  1.00  0.00     0.016 A 
ATOM     35  C   UNL     1      -3.058   8.527   2.661  1.00  0.00     0.016 A 
ATOM     36  C   UNL     1      -2.529  11.161   3.422  1.00  0.00     0.010 A 
ATOM     37  C   UNL     1      -1.906   8.816   3.398  1.00  0.00     0.010 A 
ATOM     38  C   UNL     1      -1.644  10.133   3.799  1.00  0.00    -0.014 A 
BRANCH  38  39
ATOM     39  C   UNL     1      -0.550  10.437   4.753  1.00  0.00     0.031 A 
ATOM     40  C   UNL     1       0.873  10.593   4.313  1.00  0.00     0.074 A 
ATOM     41  C   UNL     1      -0.879  10.601   6.048  1.00  0.00     0.049 A 
ATOM     42  N   UNL     1       1.905  10.996   5.010  1.00  0.00    -0.248 NA
ATOM     43  C   UNL     1       1.183  10.247   2.920  1.00  0.00     0.031 C 
ATOM     44  C   UNL     1      -2.227  10.434   6.593  1.00  0.00     0.029 A 
ATOM     45  N   UNL     1      -0.121  10.965   7.131  1.00  0.00    -0.354 N 
ATOM     46  C   UNL     1       2.983  10.984   4.137  1.00  0.00     0.074 A 
ATOM     47  C   UNL     1       2.490  10.476   2.872  1.00  0.00     0.031 C 
ATOM     48  C   UNL     1      -2.211  10.736   7.899  1.00  0.00     0.029 A 
ATOM     49  C   UNL     1      -0.850  11.095   8.288  1.00  0.00     0.049 A 
ATOM     50  H   UNL     1       0.850  11.118   7.085  1.00  0.00     0.167 HD
ATOM     51  C   UNL     1       4.257  11.386   4.370  1.00  0.00     0.037 A 
ATOM     52  C   UNL     1      -0.469  11.474   9.522  1.00  0.00     0.037 A 
ATOM     53  C   UNL     1       4.738  11.876   5.639  1.00  0.00     0.049 A 
ATOM     54  C   UNL     1       0.961  11.868   9.762  1.00  0.00     0.074 A 
ATOM     55  C   UNL     1       6.001  12.349   5.956  1.00  0.00     0.029 A 
ATOM     56  N   UNL     1       3.986  11.944   6.804  1.00  0.00    -0.354 N 
ATOM     57  N   UNL     1       1.950  11.947   8.906  1.00  0.00    -0.248 NA
ATOM     58  C   UNL     1       1.327  12.232  11.138  1.00  0.00     0.031 C 
ATOM     59  C   UNL     1       6.030  12.644   7.322  1.00  0.00     0.029 A 
ATOM     60  C   UNL     1       4.770  12.413   7.848  1.00  0.00     0.049 A 
ATOM     61  H   UNL     1       3.036  11.695   6.878  1.00  0.00     0.167 HD
ATOM     62  C   UNL     1       3.049  12.385   9.632  1.00  0.00     0.074 A 
ATOM     63  C   UNL     1       2.600  12.578  10.995  1.00  0.00     0.031 C 
ATOM     64  C   UNL     1       4.317  12.600   9.204  1.00  0.00     0.037 A 
BRANCH  51  65
ATOM     65  C   UNL     1       5.233  11.337   3.229  1.00  0.00     0.064 A 
ATOM     66  C   UNL     1       5.142  12.236   2.156  1.00  0.00     0.173 A 
ATOM     67  C   UNL     1       6.329  10.461   3.258  1.00  0.00     0.173 A 
ATOM     68  F   UNL     1       4.115  13.096   2.081  1.00  0.00    -0.203 F 
ATOM     69  C   UNL     1       6.103  12.251   1.149  1.00  0.00     0.198 A 
ATOM     70  C   UNL     1       7.304  10.498   2.263  1.00  0.00     0.198 A 
ATOM     71  F   UNL     1       6.474   9.591   4.269  1.00  0.00    -0.203 F 
ATOM     72  F   UNL     1       5.981  13.103   0.121  1.00  0.00    -0.200 F 
ATOM     73  C   UNL     1       7.188  11.390   1.208  1.00  0.00     0.200 A 
ATOM     74  F   UNL     1       8.363   9.679   2.334  1.00  0.00    -0.200 F 
ATOM     75  F   UNL     1       8.125  11.422   0.250  1.00  0.00    -0.200 F 
ENDBRANCH  51  65
BRANCH  52  76
ATOM     76  C   UNL     1      -1.478  11.537  10.610  1.00  0.00     0.064 A 
ATOM     77  C   UNL     1      -1.882  12.767  11.146  1.00  0.00     0.173 A 
ATOM     78  C   UNL     1      -2.082  10.374  11.113  1.00  0.00     0.173 A 
ATOM     79  F   UNL     1      -1.323  13.904  10.709  1.00  0.00    -0.203 F 
ATOM     80  C   UNL     1      -2.845  12.831  12.152  1.00  0.00     0.198 A 
ATOM     81  C   UNL     1      -3.065  10.442  12.097  1.00  0.00     0.198 A 
ATOM     82  F   UNL     1      -1.734   9.173  10.628  1.00  0.00    -0.203 F 
ATOM     83  F   UNL     1      -3.188  14.017  12.672  1.00  0.00    -0.200 F 
ATOM     84  C   UNL     1      -3.442  11.670  12.619  1.00  0.00     0.200 A 
ATOM     85  F   UNL     1      -3.653   9.320  12.532  1.00  0.00    -0.200 F 
ATOM     86  F   UNL     1      -4.377  11.734  13.576  1.00  0.00    -0.200 F 
ENDBRANCH  52  76
BRANCH  64  87
ATOM     87  C   UNL     1       5.324  13.069  10.216  1.00  0.00     0.064 A 
ATOM     88  C   UNL     1       5.812  12.213  11.214  1.00  0.00     0.173 A 
ATOM     89  C   UNL     1       5.868  14.361  10.138  1.00  0.00     0.173 A 
ATOM     90  F   UNL     1       5.315  10.973  11.341  1.00  0.00    -0.203 F 
ATOM     91  C   UNL     1       6.798  12.634  12.102  1.00  0.00     0.198 A 
ATOM     92  C   UNL     1       6.876  14.769  11.008  1.00  0.00     0.198 A 
ATOM     93  F   UNL     1       5.441  15.220   9.200  1.00  0.00    -0.203 F 
ATOM     94  F   UNL     1       7.225  11.809  13.067  1.00  0.00    -0.200 F 
ATOM     95  C   UNL     1       7.338  13.907  11.990  1.00  0.00     0.200 A 
ATOM     96  F   UNL     1       7.409  15.993  10.887  1.00  0.00    -0.200 F 
ATOM     97  F   UNL     1       8.303  14.303  12.831  1.00  0.00    -0.200 F 
ENDBRANCH  64  87
ENDBRANCH  38  39
ENDBRANCH  31  33
ENDBRANCH  30  31
ENDBRANCH  29  30
ENDBRANCH  28  29
ENDBRANCH  27  28
ENDBRANCH  26  27
ENDBRANCH   1  26
TORSDOF 20
