REMARK SMILES [NH3+][C@@H]1C=C[C@H](C(=O)NC[C@H](O)C(=O)OCCOCCOCCOC(=O)c2ccc(-c3c4nc(c(-c5c(F)c(F)c(F)c(F)c5F)c5ccc([nH]5)c(-c5c(F)c(F)c(F)c(F)c5F)c5nc(c(-c6c(F)c(F)c(F)c(F)c6F)c6ccc3[nH]6)C=C5)C=C4)cc2)C1
REMARK SMILES IDX 18 1 17 2 16 3 15 4 14 5 12 6 13 7 10 8 9 9 8 10 6 11 7 12
REMARK SMILES IDX 5 14 2 15 3 16 89 17 4 18 1 19 11 23 19 25 20 26 21 27 22 28
REMARK SMILES IDX 23 29 24 30 25 31 26 32 27 33 88 34 28 35 87 36 29 37 30 38
REMARK SMILES IDX 31 39 81 40 32 41 86 42 80 43 82 44 33 45 85 46 79 47 78 48
REMARK SMILES IDX 34 50 66 51 46 52 65 53 47 54 50 55 64 56 83 57 48 58 49 59
REMARK SMILES IDX 63 61 84 62 51 63 35 64 36 65 44 66 37 67 38 68 42 69 45 70
REMARK SMILES IDX 39 71 40 72 43 73 41 74 67 75 68 76 76 77 69 78 70 79 74 80
REMARK SMILES IDX 77 81 71 82 72 83 75 84 73 85 52 86 53 87 61 88 54 89 55 90
REMARK SMILES IDX 59 91 62 92 56 93 57 94 60 95 58 96
REMARK H PARENT 8 13 1 20 1 21 1 22 11 24 82 49 50 60
REMARK Flexibility Score: inf
ROOT
ATOM      1  C   UNL     1      -9.290  -3.896   0.698  1.00  0.00     0.188 C 
ENDROOT
BRANCH   1   2
ATOM      2  O   UNL     1     -10.314  -4.705   0.133  1.00  0.00    -0.376 OA
BRANCH   2   3
ATOM      3  C   UNL     1     -10.525  -4.679  -1.278  1.00  0.00     0.202 C 
BRANCH   3   4
ATOM      4  C   UNL     1     -10.658  -3.317  -1.973  1.00  0.00     0.261 C 
BRANCH   4   5
ATOM      5  O   UNL     1      -9.463  -2.521  -1.881  1.00  0.00    -0.461 OA
BRANCH   5   6
ATOM      6  C   UNL     1      -9.605  -1.261  -1.377  1.00  0.00     0.336 C 
ATOM      7  O   UNL     1     -10.662  -0.755  -1.025  1.00  0.00    -0.249 OA
BRANCH   6   8
ATOM      8  C   UNL     1      -8.230  -0.599  -1.198  1.00  0.00     0.243 C 
BRANCH   8   9
ATOM      9  C   UNL     1      -8.328   0.882  -1.593  1.00  0.00     0.159 C 
BRANCH   9  10
ATOM     10  N   UNL     1      -8.473   1.742  -0.425  1.00  0.00    -0.352 N 
ATOM     11  C   UNL     1      -7.520   2.470   0.235  1.00  0.00     0.227 C 
ATOM     12  O   UNL     1      -7.832   2.968   1.316  1.00  0.00    -0.274 OA
ATOM     13  H   UNL     1      -9.384   1.810  -0.059  1.00  0.00     0.163 HD
BRANCH  11  14
ATOM     14  C   UNL     1      -6.130   2.607  -0.398  1.00  0.00     0.107 C 
ATOM     15  C   UNL     1      -4.882   4.596   0.366  1.00  0.00     0.205 C 
ATOM     16  C   UNL     1      -5.440   4.779  -1.004  1.00  0.00     0.033 C 
ATOM     17  C   UNL     1      -5.058   3.086   0.593  1.00  0.00     0.087 C 
ATOM     18  C   UNL     1      -6.117   3.703  -1.426  1.00  0.00    -0.012 C 
BRANCH  15  19
ATOM     19  N   UNL     1      -5.633   5.411   1.300  1.00  0.00    -0.352 N 
ATOM     20  H   UNL     1      -5.473   6.397   1.096  1.00  0.00     0.345 HD
ATOM     21  H   UNL     1      -5.327   5.207   2.252  1.00  0.00     0.345 HD
ATOM     22  H   UNL     1      -6.627   5.201   1.211  1.00  0.00     0.345 HD
ENDBRANCH  15  19
ENDBRANCH  11  14
ENDBRANCH   9  10
ENDBRANCH   8   9
BRANCH   8  23
ATOM     23  O   UNL     1      -7.173  -1.209  -1.937  1.00  0.00    -0.380 OA
ATOM     24  H   UNL     1      -7.352  -1.125  -2.887  1.00  0.00     0.211 HD
ENDBRANCH   8  23
ENDBRANCH   6   8
ENDBRANCH   5   6
ENDBRANCH   4   5
ENDBRANCH   3   4
ENDBRANCH   2   3
ENDBRANCH   1   2
BRANCH   1  25
ATOM     25  C   UNL     1      -7.854  -4.013   0.154  1.00  0.00     0.188 C 
BRANCH  25  26
ATOM     26  O   UNL     1      -7.740  -4.705  -1.075  1.00  0.00    -0.376 OA
BRANCH  26  27
ATOM     27  C   UNL     1      -7.061  -5.962  -1.012  1.00  0.00     0.202 C 
BRANCH  27  28
ATOM     28  C   UNL     1      -7.666  -7.056  -0.107  1.00  0.00     0.261 C 
BRANCH  28  29
ATOM     29  O   UNL     1      -7.900  -6.675   1.262  1.00  0.00    -0.460 OA
BRANCH  29  30
ATOM     30  C   UNL     1      -6.809  -6.523   2.047  1.00  0.00     0.338 C 
ATOM     31  O   UNL     1      -5.649  -6.710   1.735  1.00  0.00    -0.246 OA
BRANCH  30  32
ATOM     32  C   UNL     1      -7.237  -5.851   3.296  1.00  0.00     0.060 A 
ATOM     33  C   UNL     1      -6.687  -4.599   3.601  1.00  0.00     0.016 A 
ATOM     34  C   UNL     1      -8.162  -6.443   4.159  1.00  0.00     0.016 A 
ATOM     35  C   UNL     1      -7.032  -3.951   4.787  1.00  0.00     0.010 A 
ATOM     36  C   UNL     1      -8.489  -5.803   5.362  1.00  0.00     0.010 A 
ATOM     37  C   UNL     1      -7.896  -4.572   5.698  1.00  0.00    -0.014 A 
BRANCH  37  38
ATOM     38  C   UNL     1      -7.987  -4.040   7.082  1.00  0.00     0.031 A 
ATOM     39  C   UNL     1      -7.090  -4.637   8.133  1.00  0.00     0.074 A 
ATOM     40  C   UNL     1      -8.800  -3.016   7.397  1.00  0.00     0.049 A 
ATOM     41  N   UNL     1      -6.964  -4.329   9.399  1.00  0.00    -0.248 NA
ATOM     42  C   UNL     1      -6.214  -5.734   7.691  1.00  0.00     0.031 C 
ATOM     43  C   UNL     1      -9.691  -2.325   6.469  1.00  0.00     0.029 A 
ATOM     44  N   UNL     1      -9.001  -2.380   8.598  1.00  0.00    -0.354 N 
ATOM     45  C   UNL     1      -5.998  -5.191   9.902  1.00  0.00     0.074 A 
ATOM     46  C   UNL     1      -5.598  -6.059   8.816  1.00  0.00     0.031 C 
ATOM     47  C   UNL     1     -10.351  -1.362   7.137  1.00  0.00     0.029 A 
ATOM     48  C   UNL     1      -9.944  -1.383   8.542  1.00  0.00     0.049 A 
ATOM     49  H   UNL     1      -8.515  -2.616   9.421  1.00  0.00     0.167 HD
ATOM     50  C   UNL     1      -5.481  -5.249  11.152  1.00  0.00     0.037 A 
ATOM     51  C   UNL     1     -10.427  -0.588   9.517  1.00  0.00     0.037 A 
ATOM     52  C   UNL     1      -5.882  -4.393  12.237  1.00  0.00     0.049 A 
ATOM     53  C   UNL     1      -9.877  -0.710  10.917  1.00  0.00     0.074 A 
ATOM     54  C   UNL     1      -5.410  -4.368  13.537  1.00  0.00     0.029 A 
ATOM     55  N   UNL     1      -6.861  -3.415  12.148  1.00  0.00    -0.354 N 
ATOM     56  N   UNL     1      -8.942  -1.506  11.377  1.00  0.00    -0.248 NA
ATOM     57  C   UNL     1     -10.444   0.192  11.931  1.00  0.00     0.031 C 
ATOM     58  C   UNL     1      -6.141  -3.410  14.250  1.00  0.00     0.029 A 
ATOM     59  C   UNL     1      -7.025  -2.796  13.377  1.00  0.00     0.049 A 
ATOM     60  H   UNL     1      -7.366  -3.193  11.332  1.00  0.00     0.167 HD
ATOM     61  C   UNL     1      -8.786  -1.180  12.720  1.00  0.00     0.074 A 
ATOM     62  C   UNL     1      -9.714  -0.103  12.996  1.00  0.00     0.031 C 
ATOM     63  C   UNL     1      -7.948  -1.721  13.640  1.00  0.00     0.037 A 
BRANCH  50  64
ATOM     64  C   UNL     1      -4.444  -6.302  11.415  1.00  0.00     0.064 A 
ATOM     65  C   UNL     1      -3.156  -6.225  10.865  1.00  0.00     0.173 A 
ATOM     66  C   UNL     1      -4.744  -7.402  12.233  1.00  0.00     0.173 A 
ATOM     67  F   UNL     1      -2.825  -5.204  10.060  1.00  0.00    -0.203 F 
ATOM     68  C   UNL     1      -2.217  -7.228  11.097  1.00  0.00     0.198 A 
ATOM     69  C   UNL     1      -3.792  -8.386  12.489  1.00  0.00     0.198 A 
ATOM     70  F   UNL     1      -5.960  -7.524  12.785  1.00  0.00    -0.203 F 
ATOM     71  F   UNL     1      -1.012  -7.163  10.513  1.00  0.00    -0.200 F 
ATOM     72  C   UNL     1      -2.534  -8.303  11.913  1.00  0.00     0.200 A 
ATOM     73  F   UNL     1      -4.097  -9.419  13.286  1.00  0.00    -0.200 F 
ATOM     74  F   UNL     1      -1.629  -9.266  12.136  1.00  0.00    -0.200 F 
ENDBRANCH  50  64
BRANCH  51  75
ATOM     75  C   UNL     1     -11.493   0.402   9.209  1.00  0.00     0.064 A 
ATOM     76  C   UNL     1     -11.241   1.780   9.253  1.00  0.00     0.173 A 
ATOM     77  C   UNL     1     -12.796  -0.013   8.895  1.00  0.00     0.173 A 
ATOM     78  F   UNL     1     -10.020   2.226   9.582  1.00  0.00    -0.203 F 
ATOM     79  C   UNL     1     -12.254   2.706   9.012  1.00  0.00     0.198 A 
ATOM     80  C   UNL     1     -13.802   0.913   8.626  1.00  0.00     0.198 A 
ATOM     81  F   UNL     1     -13.093  -1.320   8.850  1.00  0.00    -0.203 F 
ATOM     82  F   UNL     1     -11.999   4.017   9.113  1.00  0.00    -0.200 F 
ATOM     83  C   UNL     1     -13.532   2.272   8.692  1.00  0.00     0.200 A 
ATOM     84  F   UNL     1     -15.034   0.489   8.313  1.00  0.00    -0.200 F 
ATOM     85  F   UNL     1     -14.507   3.162   8.463  1.00  0.00    -0.200 F 
ENDBRANCH  51  75
BRANCH  63  86
ATOM     86  C   UNL     1      -7.963  -1.127  15.021  1.00  0.00     0.064 A 
ATOM     87  C   UNL     1      -9.053  -1.292  15.889  1.00  0.00     0.173 A 
ATOM     88  C   UNL     1      -6.859  -0.396  15.489  1.00  0.00     0.173 A 
ATOM     89  F   UNL     1     -10.138  -1.973  15.489  1.00  0.00    -0.203 F 
ATOM     90  C   UNL     1      -9.054  -0.715  17.157  1.00  0.00     0.198 A 
ATOM     91  C   UNL     1      -6.849   0.150  16.770  1.00  0.00     0.198 A 
ATOM     92  F   UNL     1      -5.785  -0.217  14.706  1.00  0.00    -0.203 F 
ATOM     93  F   UNL     1     -10.131  -0.836  17.945  1.00  0.00    -0.200 F 
ATOM     94  C   UNL     1      -7.951   0.000  17.598  1.00  0.00     0.200 A 
ATOM     95  F   UNL     1      -5.775   0.827  17.200  1.00  0.00    -0.200 F 
ATOM     96  F   UNL     1      -7.953   0.554  18.819  1.00  0.00    -0.200 F 
ENDBRANCH  63  86
ENDBRANCH  37  38
ENDBRANCH  30  32
ENDBRANCH  29  30
ENDBRANCH  28  29
ENDBRANCH  27  28
ENDBRANCH  26  27
ENDBRANCH  25  26
ENDBRANCH   1  25
TORSDOF 22
