REMARK SMILES O=C(OCCOCCOCCOC(=O)c1cc(NC(=S)NC(=O)c2ccccc2F)ccc1Cl)c1ccc(-c2c3nc(c(-c4c(F)c(F)c(F)c(F)c4F)c4ccc([nH]4)c(-c4c(F)c(F)c(F)c(F)c4F)c4nc(c(-c5c(F)c(F)c(F)c(F)c5F)c5ccc2[nH]5)C=C4)C=C3)cc1
REMARK SMILES IDX 8 1 7 2 6 3 5 4 4 5 3 6 2 7 1 8 35 9 36 10 97 11 37 12 96 13
REMARK SMILES IDX 38 14 39 15 40 16 90 17 41 18 95 19 89 20 91 21 42 22 94 23
REMARK SMILES IDX 88 24 87 25 43 27 75 28 55 29 74 30 56 31 59 32 73 33 92 34
REMARK SMILES IDX 57 35 58 36 72 38 93 39 60 40 44 41 45 42 53 43 46 44 47 45
REMARK SMILES IDX 51 46 54 47 48 48 49 49 52 50 50 51 76 52 77 53 85 54 78 55
REMARK SMILES IDX 79 56 83 57 86 58 80 59 81 60 84 61 82 62 61 63 62 64 70 65
REMARK SMILES IDX 63 66 64 67 68 68 71 69 65 70 66 71 69 72 67 73 9 74 10 75
REMARK SMILES IDX 11 76 12 77 13 78 14 79 15 80 16 81 33 82 17 83 32 84 34 85
REMARK SMILES IDX 31 86 18 87 19 89 20 90 21 91 22 92 23 94 24 95 25 96 29 97
REMARK SMILES IDX 26 98 28 99 30 100 27 101
REMARK H PARENT 91 26 59 37 18 88 21 93
REMARK Flexibility Score: inf
ROOT
ATOM      1  C   UNL     1       2.355   0.416   3.141  1.00  0.00     0.188 C 
ENDROOT
BRANCH   1   2
ATOM      2  C   UNL     1       2.880   0.838   1.768  1.00  0.00     0.188 C 
BRANCH   2   3
ATOM      3  O   UNL     1       4.210   0.382   1.519  1.00  0.00    -0.376 OA
BRANCH   3   4
ATOM      4  C   UNL     1       5.060   1.326   0.860  1.00  0.00     0.202 C 
BRANCH   4   5
ATOM      5  C   UNL     1       4.660   1.715  -0.576  1.00  0.00     0.261 C 
BRANCH   5   6
ATOM      6  O   UNL     1       3.310   1.376  -0.945  1.00  0.00    -0.460 OA
BRANCH   6   7
ATOM      7  C   UNL     1       2.852   0.268  -1.577  1.00  0.00     0.338 C 
ATOM      8  O   UNL     1       1.698   0.263  -2.004  1.00  0.00    -0.246 OA
BRANCH   7   9
ATOM      9  C   UNL     1       3.666  -0.974  -1.742  1.00  0.00     0.060 A 
ATOM     10  C   UNL     1       4.731  -1.321  -0.913  1.00  0.00     0.016 A 
ATOM     11  C   UNL     1       3.210  -1.952  -2.636  1.00  0.00     0.016 A 
ATOM     12  C   UNL     1       5.391  -2.533  -0.985  1.00  0.00     0.010 A 
ATOM     13  C   UNL     1       3.792  -3.227  -2.640  1.00  0.00     0.010 A 
ATOM     14  C   UNL     1       4.912  -3.511  -1.828  1.00  0.00    -0.014 A 
BRANCH  14  15
ATOM     15  C   UNL     1       5.684  -4.761  -1.976  1.00  0.00     0.031 A 
ATOM     16  C   UNL     1       6.264  -5.000  -3.329  1.00  0.00     0.074 A 
ATOM     17  C   UNL     1       5.955  -5.602  -0.953  1.00  0.00     0.049 A 
ATOM     18  N   UNL     1       6.856  -6.062  -3.791  1.00  0.00    -0.248 NA
ATOM     19  C   UNL     1       6.226  -3.865  -4.274  1.00  0.00     0.031 C 
ATOM     20  C   UNL     1       5.725  -5.355   0.472  1.00  0.00     0.029 A 
ATOM     21  N   UNL     1       6.435  -6.889  -0.964  1.00  0.00    -0.354 N 
ATOM     22  C   UNL     1       7.295  -5.703  -5.052  1.00  0.00     0.074 A 
ATOM     23  C   UNL     1       6.813  -4.377  -5.340  1.00  0.00     0.031 C 
ATOM     24  C   UNL     1       5.864  -6.497   1.162  1.00  0.00     0.029 A 
ATOM     25  C   UNL     1       6.258  -7.541   0.239  1.00  0.00     0.049 A 
ATOM     26  H   UNL     1       6.862  -7.303  -1.748  1.00  0.00     0.167 HD
ATOM     27  C   UNL     1       8.106  -6.408  -5.862  1.00  0.00     0.037 A 
ATOM     28  C   UNL     1       6.381  -8.844   0.549  1.00  0.00     0.037 A 
ATOM     29  C   UNL     1       8.595  -7.712  -5.531  1.00  0.00     0.049 A 
ATOM     30  C   UNL     1       7.035  -9.716  -0.475  1.00  0.00     0.074 A 
ATOM     31  C   UNL     1       9.410  -8.534  -6.279  1.00  0.00     0.029 A 
ATOM     32  N   UNL     1       8.303  -8.383  -4.351  1.00  0.00    -0.354 N 
ATOM     33  N   UNL     1       7.440  -9.388  -1.677  1.00  0.00    -0.248 NA
ATOM     34  C   UNL     1       7.335 -11.096  -0.085  1.00  0.00     0.031 C 
ATOM     35  C   UNL     1       9.542  -9.740  -5.590  1.00  0.00     0.029 A 
ATOM     36  C   UNL     1       8.875  -9.640  -4.377  1.00  0.00     0.049 A 
ATOM     37  H   UNL     1       7.768  -8.019  -3.608  1.00  0.00     0.167 HD
ATOM     38  C   UNL     1       8.119 -10.489  -2.159  1.00  0.00     0.074 A 
ATOM     39  C   UNL     1       8.045 -11.507  -1.127  1.00  0.00     0.031 C 
ATOM     40  C   UNL     1       8.774 -10.629  -3.334  1.00  0.00     0.037 A 
BRANCH  27  41
ATOM     41  C   UNL     1       8.494  -5.787  -7.160  1.00  0.00     0.064 A 
ATOM     42  C   UNL     1       7.979  -6.299  -8.357  1.00  0.00     0.173 A 
ATOM     43  C   UNL     1       9.396  -4.715  -7.227  1.00  0.00     0.173 A 
ATOM     44  F   UNL     1       7.089  -7.301  -8.335  1.00  0.00    -0.203 F 
ATOM     45  C   UNL     1       8.388  -5.787  -9.583  1.00  0.00     0.198 A 
ATOM     46  C   UNL     1       9.781  -4.186  -8.455  1.00  0.00     0.198 A 
ATOM     47  F   UNL     1       9.875  -4.160  -6.103  1.00  0.00    -0.203 F 
ATOM     48  F   UNL     1       7.913  -6.318 -10.717  1.00  0.00    -0.200 F 
ATOM     49  C   UNL     1       9.291  -4.735  -9.631  1.00  0.00     0.200 A 
ATOM     50  F   UNL     1      10.622  -3.144  -8.500  1.00  0.00    -0.200 F 
ATOM     51  F   UNL     1       9.685  -4.246 -10.814  1.00  0.00    -0.200 F 
ENDBRANCH  27  41
BRANCH  28  52
ATOM     52  C   UNL     1       5.928  -9.383   1.857  1.00  0.00     0.064 A 
ATOM     53  C   UNL     1       4.564  -9.589   2.111  1.00  0.00     0.173 A 
ATOM     54  C   UNL     1       6.836  -9.755   2.857  1.00  0.00     0.173 A 
ATOM     55  F   UNL     1       3.647  -9.241   1.195  1.00  0.00    -0.203 F 
ATOM     56  C   UNL     1       4.129 -10.159   3.308  1.00  0.00     0.198 A 
ATOM     57  C   UNL     1       6.400 -10.329   4.052  1.00  0.00     0.198 A 
ATOM     58  F   UNL     1       8.151  -9.604   2.652  1.00  0.00    -0.203 F 
ATOM     59  F   UNL     1       2.818 -10.338   3.525  1.00  0.00    -0.200 F 
ATOM     60  C   UNL     1       5.046 -10.529   4.277  1.00  0.00     0.200 A 
ATOM     61  F   UNL     1       7.293 -10.713   4.974  1.00  0.00    -0.200 F 
ATOM     62  F   UNL     1       4.626 -11.082   5.424  1.00  0.00    -0.200 F 
ENDBRANCH  28  52
BRANCH  40  63
ATOM     63  C   UNL     1       9.477 -11.925  -3.569  1.00  0.00     0.064 A 
ATOM     64  C   UNL     1      10.877 -11.960  -3.653  1.00  0.00     0.173 A 
ATOM     65  C   UNL     1       8.764 -13.104  -3.817  1.00  0.00     0.173 A 
ATOM     66  F   UNL     1      11.598 -10.851  -3.429  1.00  0.00    -0.203 F 
ATOM     67  C   UNL     1      11.536 -13.126  -4.018  1.00  0.00     0.198 A 
ATOM     68  C   UNL     1       9.430 -14.279  -4.138  1.00  0.00     0.198 A 
ATOM     69  F   UNL     1       7.425 -13.115  -3.727  1.00  0.00    -0.203 F 
ATOM     70  F   UNL     1      12.869 -13.123  -4.158  1.00  0.00    -0.200 F 
ATOM     71  C   UNL     1      10.812 -14.285  -4.257  1.00  0.00     0.200 A 
ATOM     72  F   UNL     1       8.733 -15.406  -4.337  1.00  0.00    -0.200 F 
ATOM     73  F   UNL     1      11.449 -15.411  -4.603  1.00  0.00    -0.200 F 
ENDBRANCH  40  63
ENDBRANCH  14  15
ENDBRANCH   7   9
ENDBRANCH   6   7
ENDBRANCH   5   6
ENDBRANCH   4   5
ENDBRANCH   3   4
ENDBRANCH   2   3
ENDBRANCH   1   2
BRANCH   1  74
ATOM     74  O   UNL     1       3.136   0.774   4.270  1.00  0.00    -0.376 OA
BRANCH  74  75
ATOM     75  C   UNL     1       4.484   0.322   4.267  1.00  0.00     0.202 C 
BRANCH  75  76
ATOM     76  C   UNL     1       4.811  -1.193   4.177  1.00  0.00     0.261 C 
BRANCH  76  77
ATOM     77  O   UNL     1       4.108  -2.053   3.230  1.00  0.00    -0.460 OA
BRANCH  77  78
ATOM     78  C   UNL     1       3.194  -2.875   3.821  1.00  0.00     0.339 C 
ATOM     79  O   UNL     1       2.859  -2.782   4.997  1.00  0.00    -0.246 OA
BRANCH  78  80
ATOM     80  C   UNL     1       2.708  -4.090   2.990  1.00  0.00     0.080 A 
ATOM     81  C   UNL     1       1.107  -4.540   1.848  1.00  0.00     0.043 A 
ATOM     82  C   UNL     1       3.321  -5.511   3.949  1.00  0.00     0.055 A 
ATOM     83  C   UNL     1       0.367  -6.035   1.720  1.00  0.00     0.041 A 
ATOM     84  C   UNL     1       2.445  -7.069   3.801  1.00  0.00     0.023 A 
ATOM     85  Cl  UNL     1       4.715  -5.438   4.953  1.00  0.00    -0.083 Cl
ATOM     86  C   UNL     1       1.021  -7.303   2.714  1.00  0.00     0.028 A 
BRANCH  83  87
ATOM     87  N   UNL     1      -0.696  -5.882   0.789  1.00  0.00    -0.332 N 
ATOM     88  H   UNL     1      -1.229  -6.694   0.628  1.00  0.00     0.169 HD
BRANCH  87  89
ATOM     89  C   UNL     1      -1.109  -4.738   0.055  1.00  0.00     0.177 C 
ATOM     90  S   UNL     1      -2.049  -5.021  -1.310  1.00  0.00    -0.040 S 
BRANCH  89  91
ATOM     91  N   UNL     1      -0.866  -3.313   0.382  1.00  0.00    -0.299 N 
ATOM     92  C   UNL     1      -0.234  -2.178   1.242  1.00  0.00     0.260 C 
ATOM     93  H   UNL     1      -1.369  -2.827  -0.311  1.00  0.00     0.172 HD
ATOM     94  O   UNL     1      -0.691  -1.041   1.197  1.00  0.00    -0.269 OA
BRANCH  92  95
ATOM     95  C   UNL     1       1.039  -2.454   2.144  1.00  0.00     0.075 A 
ATOM     96  C   UNL     1       0.638  -3.482   3.570  1.00  0.00     0.017 A 
ATOM     97  C   UNL     1       2.197  -2.967   0.906  1.00  0.00     0.135 A 
ATOM     98  C   UNL     1       1.262  -5.196   3.575  1.00  0.00     0.001 A 
ATOM     99  C   UNL     1       2.906  -4.553   0.806  1.00  0.00     0.040 A 
ATOM    100  F   UNL     1       2.002  -2.393  -0.289  1.00  0.00    -0.206 F 
ATOM    101  C   UNL     1       2.494  -5.753   2.057  1.00  0.00     0.003 A 
ENDBRANCH  92  95
ENDBRANCH  89  91
ENDBRANCH  87  89
ENDBRANCH  83  87
ENDBRANCH  78  80
ENDBRANCH  77  78
ENDBRANCH  76  77
ENDBRANCH  75  76
ENDBRANCH  74  75
ENDBRANCH   1  74
TORSDOF 21
