REMARK SMILES CN(C)c1oc(/C=N/c2ccc(O)c(C(=O)OCCOCCOCCOC(=O)c3ccc(-c4c5nc(c(-c6c(F)c(F)c(F)c(F)c6F)c6ccc([nH]6)c(-c6c(F)c(F)c(F)c(F)c6F)c6nc(c(-c7c(F)c(F)c(F)c(F)c7F)c7ccc4[nH]7)C=C6)C=C5)cc3)c2)cc1Br
REMARK SMILES IDX 21 1 20 2 19 3 18 4 17 5 15 6 16 7 14 8 9 9 10 10 92 11
REMARK SMILES IDX 11 12 12 13 8 14 7 15 6 16 4 17 5 18 94 19 93 20 95 21 2 22
REMARK SMILES IDX 1 23 3 24 13 25 22 27 23 28 24 29 25 30 26 31 27 32 28 33
REMARK SMILES IDX 29 34 30 35 91 36 31 37 90 38 32 39 33 40 34 41 84 42 35 43
REMARK SMILES IDX 89 44 83 45 85 46 36 47 88 48 82 49 81 50 37 52 69 53 49 54
REMARK SMILES IDX 68 55 50 56 53 57 67 58 86 59 51 60 52 61 66 63 87 64 54 65
REMARK SMILES IDX 38 66 39 67 47 68 40 69 41 70 45 71 48 72 42 73 43 74 46 75
REMARK SMILES IDX 44 76 70 77 71 78 79 79 72 80 73 81 77 82 80 83 74 84 75 85
REMARK SMILES IDX 78 86 76 87 55 88 56 89 64 90 57 91 58 92 62 93 65 94 59 95
REMARK SMILES IDX 60 96 63 97 61 98
REMARK H PARENT 13 26 85 51 53 62
REMARK Flexibility Score: inf
ROOT
ATOM      1  C   UNL     1       3.070 -12.234   2.540  1.00  0.00     0.188 C 
ENDROOT
BRANCH   1   2
ATOM      2  O   UNL     1       3.393 -13.167   3.554  1.00  0.00    -0.376 OA
BRANCH   2   3
ATOM      3  C   UNL     1       2.362 -13.910   4.187  1.00  0.00     0.202 C 
BRANCH   3   4
ATOM      4  C   UNL     1       1.099 -13.213   4.693  1.00  0.00     0.261 C 
BRANCH   4   5
ATOM      5  O   UNL     1       0.455 -12.417   3.692  1.00  0.00    -0.460 OA
BRANCH   5   6
ATOM      6  C   UNL     1       0.157 -11.145   4.057  1.00  0.00     0.342 C 
ATOM      7  O   UNL     1       0.372 -10.629   5.143  1.00  0.00    -0.246 OA
BRANCH   6   8
ATOM      8  C   UNL     1      -0.276 -10.358   2.884  1.00  0.00     0.103 A 
ATOM      9  C   UNL     1       0.035  -8.324   1.590  1.00  0.00     0.064 A 
ATOM     10  C   UNL     1      -0.922  -8.779   0.677  1.00  0.00     0.032 A 
ATOM     11  C   UNL     1       0.351  -9.117   2.693  1.00  0.00     0.048 A 
ATOM     12  C   UNL     1      -1.556 -10.012   0.863  1.00  0.00     0.049 A 
ATOM     13  C   UNL     1      -1.225 -10.805   1.962  1.00  0.00     0.130 A 
BRANCH   9  14
ATOM     14  N   UNL     1       0.762  -7.151   1.357  1.00  0.00    -0.253 NA
ATOM     15  C   UNL     1       0.148  -6.021   1.515  1.00  0.00     0.158 C 
BRANCH  15  16
ATOM     16  C   UNL     1       0.841  -4.790   1.258  1.00  0.00     0.149 A 
ATOM     17  C   UNL     1       1.005  -2.594   1.040  1.00  0.00     0.210 A 
ATOM     18  O   UNL     1       0.167  -3.612   1.419  1.00  0.00    -0.438 OA
ATOM     19  C   UNL     1       2.224  -3.140   0.691  1.00  0.00     0.082 A 
ATOM     20  C   UNL     1       2.131  -4.537   0.840  1.00  0.00     0.070 A 
ATOM     21  Br  UNL     1       3.816  -2.297   0.167  1.00  0.00    -0.045 Br
BRANCH  17  22
ATOM     22  N   UNL     1       0.482  -1.341   1.062  1.00  0.00    -0.348 N 
ATOM     23  C   UNL     1       0.957  -0.311   0.159  1.00  0.00     0.146 C 
ATOM     24  C   UNL     1      -0.487  -0.985   2.083  1.00  0.00     0.146 C 
ENDBRANCH  17  22
ENDBRANCH  15  16
ENDBRANCH   9  14
BRANCH  13  25
ATOM     25  O   UNL     1      -1.841 -12.012   2.127  1.00  0.00    -0.507 OA
ATOM     26  H   UNL     1      -2.476 -12.303   1.502  1.00  0.00     0.293 HD
ENDBRANCH  13  25
ENDBRANCH   6   8
ENDBRANCH   5   6
ENDBRANCH   4   5
ENDBRANCH   3   4
ENDBRANCH   2   3
ENDBRANCH   1   2
BRANCH   1  27
ATOM     27  C   UNL     1       2.285 -12.662   1.281  1.00  0.00     0.188 C 
BRANCH  27  28
ATOM     28  O   UNL     1       1.950 -14.013   1.030  1.00  0.00    -0.376 OA
BRANCH  28  29
ATOM     29  C   UNL     1       2.951 -15.016   1.009  1.00  0.00     0.202 C 
BRANCH  29  30
ATOM     30  C   UNL     1       4.254 -14.833   0.228  1.00  0.00     0.261 C 
BRANCH  30  31
ATOM     31  O   UNL     1       4.923 -13.592   0.472  1.00  0.00    -0.460 OA
BRANCH  31  32
ATOM     32  C   UNL     1       5.032 -12.785  -0.611  1.00  0.00     0.338 C 
ATOM     33  O   UNL     1       4.641 -12.997  -1.744  1.00  0.00    -0.246 OA
BRANCH  32  34
ATOM     34  C   UNL     1       5.579 -11.486  -0.190  1.00  0.00     0.060 A 
ATOM     35  C   UNL     1       4.786 -10.345  -0.367  1.00  0.00     0.016 A 
ATOM     36  C   UNL     1       6.877 -11.388   0.311  1.00  0.00     0.016 A 
ATOM     37  C   UNL     1       5.304  -9.088  -0.068  1.00  0.00     0.010 A 
ATOM     38  C   UNL     1       7.403 -10.125   0.590  1.00  0.00     0.010 A 
ATOM     39  C   UNL     1       6.629  -8.970   0.372  1.00  0.00    -0.014 A 
BRANCH  39  40
ATOM     40  C   UNL     1       7.263  -7.635   0.439  1.00  0.00     0.031 A 
ATOM     41  C   UNL     1       8.088  -7.170  -0.727  1.00  0.00     0.074 A 
ATOM     42  C   UNL     1       7.101  -6.846   1.513  1.00  0.00     0.049 A 
ATOM     43  N   UNL     1       8.769  -6.063  -0.877  1.00  0.00    -0.248 NA
ATOM     44  C   UNL     1       8.155  -8.082  -1.879  1.00  0.00     0.031 C 
ATOM     45  C   UNL     1       6.290  -7.169   2.684  1.00  0.00     0.029 A 
ATOM     46  N   UNL     1       7.624  -5.609   1.791  1.00  0.00    -0.354 N 
ATOM     47  C   UNL     1       9.350  -6.148  -2.134  1.00  0.00     0.074 A 
ATOM     48  C   UNL     1       8.968  -7.427  -2.694  1.00  0.00     0.031 C 
ATOM     49  C   UNL     1       6.375  -6.155   3.563  1.00  0.00     0.029 A 
ATOM     50  C   UNL     1       7.272  -5.131   3.028  1.00  0.00     0.049 A 
ATOM     51  H   UNL     1       8.197  -5.112   1.164  1.00  0.00     0.167 HD
ATOM     52  C   UNL     1      10.128  -5.238  -2.768  1.00  0.00     0.037 A 
ATOM     53  C   UNL     1       7.650  -4.004   3.659  1.00  0.00     0.037 A 
ATOM     54  C   UNL     1      10.512  -3.971  -2.205  1.00  0.00     0.049 A 
ATOM     55  C   UNL     1       8.591  -3.049   2.972  1.00  0.00     0.074 A 
ATOM     56  C   UNL     1      11.271  -2.966  -2.777  1.00  0.00     0.029 A 
ATOM     57  N   UNL     1      10.179  -3.542  -0.928  1.00  0.00    -0.354 N 
ATOM     58  N   UNL     1       9.110  -3.115   1.770  1.00  0.00    -0.248 NA
ATOM     59  C   UNL     1       8.999  -1.861   3.735  1.00  0.00     0.031 C 
ATOM     60  C   UNL     1      11.446  -1.955  -1.826  1.00  0.00     0.029 A 
ATOM     61  C   UNL     1      10.747  -2.303  -0.680  1.00  0.00     0.049 A 
ATOM     62  H   UNL     1       9.620  -4.045  -0.292  1.00  0.00     0.167 HD
ATOM     63  C   UNL     1       9.877  -1.967   1.619  1.00  0.00     0.074 A 
ATOM     64  C   UNL     1       9.752  -1.218   2.852  1.00  0.00     0.031 C 
ATOM     65  C   UNL     1      10.612  -1.566   0.551  1.00  0.00     0.037 A 
BRANCH  52  66
ATOM     66  C   UNL     1      10.647  -5.609  -4.127  1.00  0.00     0.064 A 
ATOM     67  C   UNL     1       9.801  -5.699  -5.243  1.00  0.00     0.173 A 
ATOM     68  C   UNL     1      12.010  -5.884  -4.312  1.00  0.00     0.173 A 
ATOM     69  F   UNL     1       8.487  -5.461  -5.116  1.00  0.00    -0.203 F 
ATOM     70  C   UNL     1      10.295  -6.087  -6.486  1.00  0.00     0.198 A 
ATOM     71  C   UNL     1      12.505  -6.241  -5.563  1.00  0.00     0.198 A 
ATOM     72  F   UNL     1      12.862  -5.809  -3.279  1.00  0.00    -0.203 F 
ATOM     73  F   UNL     1       9.459  -6.226  -7.524  1.00  0.00    -0.200 F 
ATOM     74  C   UNL     1      11.647  -6.354  -6.646  1.00  0.00     0.200 A 
ATOM     75  F   UNL     1      13.814  -6.487  -5.718  1.00  0.00    -0.200 F 
ATOM     76  F   UNL     1      12.120  -6.730  -7.842  1.00  0.00    -0.200 F 
ENDBRANCH  52  66
BRANCH  53  77
ATOM     77  C   UNL     1       7.133  -3.713   5.020  1.00  0.00     0.064 A 
ATOM     78  C   UNL     1       6.220  -2.672   5.233  1.00  0.00     0.173 A 
ATOM     79  C   UNL     1       7.542  -4.463   6.133  1.00  0.00     0.173 A 
ATOM     80  F   UNL     1       5.824  -1.908   4.205  1.00  0.00    -0.203 F 
ATOM     81  C   UNL     1       5.740  -2.387   6.510  1.00  0.00     0.198 A 
ATOM     82  C   UNL     1       7.042  -4.193   7.405  1.00  0.00     0.198 A 
ATOM     83  F   UNL     1       8.421  -5.465   5.981  1.00  0.00    -0.203 F 
ATOM     84  F   UNL     1       4.897  -1.361   6.693  1.00  0.00    -0.200 F 
ATOM     85  C   UNL     1       6.146  -3.152   7.593  1.00  0.00     0.200 A 
ATOM     86  F   UNL     1       7.433  -4.938   8.448  1.00  0.00    -0.200 F 
ATOM     87  F   UNL     1       5.681  -2.879   8.820  1.00  0.00    -0.200 F 
ENDBRANCH  53  77
BRANCH  65  88
ATOM     88  C   UNL     1      11.309  -0.239   0.650  1.00  0.00     0.064 A 
ATOM     89  C   UNL     1      12.432  -0.053   1.470  1.00  0.00     0.173 A 
ATOM     90  C   UNL     1      10.873   0.849  -0.122  1.00  0.00     0.173 A 
ATOM     91  F   UNL     1      12.880  -1.056   2.240  1.00  0.00    -0.203 F 
ATOM     92  C   UNL     1      13.077   1.180   1.531  1.00  0.00     0.198 A 
ATOM     93  C   UNL     1      11.540   2.071  -0.082  1.00  0.00     0.198 A 
ATOM     94  F   UNL     1       9.809   0.723  -0.929  1.00  0.00    -0.203 F 
ATOM     95  F   UNL     1      14.120   1.348   2.356  1.00  0.00    -0.200 F 
ATOM     96  C   UNL     1      12.636   2.237   0.750  1.00  0.00     0.200 A 
ATOM     97  F   UNL     1      11.121   3.087  -0.849  1.00  0.00    -0.200 F 
ATOM     98  F   UNL     1      13.265   3.420   0.803  1.00  0.00    -0.200 F 
ENDBRANCH  65  88
ENDBRANCH  39  40
ENDBRANCH  32  34
ENDBRANCH  31  32
ENDBRANCH  30  31
ENDBRANCH  29  30
ENDBRANCH  28  29
ENDBRANCH  27  28
ENDBRANCH   1  27
TORSDOF 21
