REMARK SMILES O=C(OCCOCCOCCOC(=O)c1ccc(-c2c3nc(c(-c4c(F)c(F)c(F)c(F)c4F)c4ccc([nH]4)c(-c4c(F)c(F)c(F)c(F)c4F)c4nc(c(-c5c(F)c(F)c(F)c(F)c5F)c5ccc2[nH]5)C=C4)C=C3)cc1)C1=Cc2cc(Cl)cc(Cl)c2O[C@@H]1C(F)(F)F
REMARK SMILES IDX 8 1 7 2 6 3 5 4 4 5 3 6 2 7 1 8 78 9 79 10 89 11 80 12 88 13
REMARK SMILES IDX 81 14 87 15 82 16 85 17 83 18 84 19 86 20 90 21 91 22 92 23
REMARK SMILES IDX 93 24 9 25 10 26 11 27 12 28 13 29 14 30 15 31 16 32 77 33
REMARK SMILES IDX 17 34 76 35 18 36 19 37 20 38 70 39 21 40 75 41 69 42 71 43
REMARK SMILES IDX 22 44 74 45 68 46 67 47 23 49 55 50 35 51 54 52 36 53 39 54
REMARK SMILES IDX 53 55 72 56 37 57 38 58 52 60 73 61 40 62 24 63 25 64 33 65
REMARK SMILES IDX 26 66 27 67 31 68 34 69 28 70 29 71 32 72 30 73 56 74 57 75
REMARK SMILES IDX 65 76 58 77 59 78 63 79 66 80 60 81 61 82 64 83 62 84 41 85
REMARK SMILES IDX 42 86 50 87 43 88 44 89 48 90 51 91 45 92 46 93 49 94 47 95
REMARK H PARENT 71 48 39 59
REMARK Flexibility Score: inf
ROOT
ATOM      1  C   UNL     1       1.195   0.556  -3.563  1.00  0.00     0.188 C 
ENDROOT
BRANCH   1   2
ATOM      2  C   UNL     1       1.370   0.678  -2.050  1.00  0.00     0.188 C 
BRANCH   2   3
ATOM      3  O   UNL     1       2.719   0.914  -1.670  1.00  0.00    -0.376 OA
BRANCH   3   4
ATOM      4  C   UNL     1       3.538  -0.253  -1.570  1.00  0.00     0.202 C 
BRANCH   4   5
ATOM      5  C   UNL     1       3.154  -1.198  -0.424  1.00  0.00     0.261 C 
BRANCH   5   6
ATOM      6  O   UNL     1       2.380  -0.517   0.591  1.00  0.00    -0.460 OA
BRANCH   6   7
ATOM      7  C   UNL     1       2.824  -0.503   1.867  1.00  0.00     0.338 C 
ATOM      8  O   UNL     1       2.254  -1.109   2.763  1.00  0.00    -0.246 OA
BRANCH   7   9
ATOM      9  C   UNL     1       3.909   0.474   2.145  1.00  0.00     0.087 C 
ATOM     10  C   UNL     1       4.879   0.019   2.961  1.00  0.00     0.027 C 
ATOM     11  C   UNL     1       4.252   1.488   1.092  1.00  0.00     0.316 C 
ATOM     12  C   UNL     1       6.072  -0.373   2.177  1.00  0.00     0.020 A 
ATOM     13  O   UNL     1       5.497   1.176   0.404  1.00  0.00    -0.474 OA
ATOM     14  C   UNL     1       6.965  -1.313   2.699  1.00  0.00     0.032 A 
ATOM     15  C   UNL     1       6.253   0.129   0.880  1.00  0.00     0.146 A 
ATOM     16  C   UNL     1       7.965  -1.838   1.883  1.00  0.00     0.043 A 
ATOM     17  C   UNL     1       7.223  -0.457   0.053  1.00  0.00     0.085 A 
ATOM     18  Cl  UNL     1       9.074  -2.985   2.525  1.00  0.00    -0.084 Cl
ATOM     19  C   UNL     1       8.061  -1.458   0.547  1.00  0.00     0.045 A 
ATOM     20  Cl  UNL     1       7.371  -0.031  -1.614  1.00  0.00    -0.080 Cl
BRANCH  11  21
ATOM     21  C   UNL     1       4.200   2.930   1.595  1.00  0.00     0.430 C 
ATOM     22  F   UNL     1       4.199   3.812   0.568  1.00  0.00    -0.167 F 
ATOM     23  F   UNL     1       3.064   3.158   2.302  1.00  0.00    -0.167 F 
ATOM     24  F   UNL     1       5.244   3.232   2.398  1.00  0.00    -0.167 F 
ENDBRANCH  11  21
ENDBRANCH   7   9
ENDBRANCH   6   7
ENDBRANCH   5   6
ENDBRANCH   4   5
ENDBRANCH   3   4
ENDBRANCH   2   3
ENDBRANCH   1   2
BRANCH   1  25
ATOM     25  O   UNL     1       2.234  -0.229  -4.135  1.00  0.00    -0.376 OA
BRANCH  25  26
ATOM     26  C   UNL     1       3.026   0.448  -5.112  1.00  0.00     0.202 C 
BRANCH  26  27
ATOM     27  C   UNL     1       3.999   1.552  -4.636  1.00  0.00     0.261 C 
BRANCH  27  28
ATOM     28  O   UNL     1       3.479   2.562  -3.753  1.00  0.00    -0.460 OA
BRANCH  28  29
ATOM     29  C   UNL     1       2.704   3.524  -4.293  1.00  0.00     0.338 C 
ATOM     30  O   UNL     1       2.330   3.604  -5.447  1.00  0.00    -0.246 OA
BRANCH  29  31
ATOM     31  C   UNL     1       2.273   4.447  -3.220  1.00  0.00     0.060 A 
ATOM     32  C   UNL     1       0.967   4.353  -2.731  1.00  0.00     0.016 A 
ATOM     33  C   UNL     1       3.118   5.468  -2.776  1.00  0.00     0.016 A 
ATOM     34  C   UNL     1       0.490   5.299  -1.820  1.00  0.00     0.010 A 
ATOM     35  C   UNL     1       2.633   6.428  -1.875  1.00  0.00     0.010 A 
ATOM     36  C   UNL     1       1.304   6.369  -1.420  1.00  0.00    -0.014 A 
BRANCH  36  37
ATOM     37  C   UNL     1       0.685   7.505  -0.687  1.00  0.00     0.031 A 
ATOM     38  C   UNL     1       0.172   8.681  -1.476  1.00  0.00     0.074 A 
ATOM     39  C   UNL     1       0.507   7.466   0.646  1.00  0.00     0.049 A 
ATOM     40  N   UNL     1      -0.464   9.750  -1.065  1.00  0.00    -0.248 NA
ATOM     41  C   UNL     1       0.397   8.639  -2.930  1.00  0.00     0.031 C 
ATOM     42  C   UNL     1       0.926   6.375   1.523  1.00  0.00     0.029 A 
ATOM     43  N   UNL     1      -0.081   8.374   1.494  1.00  0.00    -0.354 N 
ATOM     44  C   UNL     1      -0.733  10.493  -2.208  1.00  0.00     0.074 A 
ATOM     45  C   UNL     1      -0.154   9.778  -3.324  1.00  0.00     0.031 C 
ATOM     46  C   UNL     1       0.590   6.682   2.789  1.00  0.00     0.029 A 
ATOM     47  C   UNL     1      -0.049   7.997   2.815  1.00  0.00     0.049 A 
ATOM     48  H   UNL     1      -0.486   9.216   1.184  1.00  0.00     0.167 HD
ATOM     49  C   UNL     1      -1.417  11.657  -2.321  1.00  0.00     0.037 A 
ATOM     50  C   UNL     1      -0.475   8.648   3.916  1.00  0.00     0.037 A 
ATOM     51  C   UNL     1      -1.972  12.387  -1.211  1.00  0.00     0.049 A 
ATOM     52  C   UNL     1      -1.155   9.989   3.769  1.00  0.00     0.074 A 
ATOM     53  C   UNL     1      -2.672  13.581  -1.225  1.00  0.00     0.029 A 
ATOM     54  N   UNL     1      -1.880  11.995   0.117  1.00  0.00    -0.354 N 
ATOM     55  N   UNL     1      -1.441  10.664   2.681  1.00  0.00    -0.248 NA
ATOM     56  C   UNL     1      -1.587  10.652   5.009  1.00  0.00     0.031 C 
ATOM     57  C   UNL     1      -2.956  13.940   0.097  1.00  0.00     0.029 A 
ATOM     58  C   UNL     1      -2.489  12.938   0.931  1.00  0.00     0.049 A 
ATOM     59  H   UNL     1      -1.446  11.170   0.433  1.00  0.00     0.167 HD
ATOM     60  C   UNL     1      -2.107  11.809   3.103  1.00  0.00     0.074 A 
ATOM     61  C   UNL     1      -2.209  11.725   4.543  1.00  0.00     0.031 C 
ATOM     62  C   UNL     1      -2.587  12.842   2.365  1.00  0.00     0.037 A 
BRANCH  49  63
ATOM     63  C   UNL     1      -1.595  12.226  -3.699  1.00  0.00     0.064 A 
ATOM     64  C   UNL     1      -2.457  11.631  -4.633  1.00  0.00     0.173 A 
ATOM     65  C   UNL     1      -0.938  13.408  -4.073  1.00  0.00     0.173 A 
ATOM     66  F   UNL     1      -3.099  10.493  -4.329  1.00  0.00    -0.203 F 
ATOM     67  C   UNL     1      -2.641  12.188  -5.895  1.00  0.00     0.198 A 
ATOM     68  C   UNL     1      -1.147  13.978  -5.326  1.00  0.00     0.198 A 
ATOM     69  F   UNL     1      -0.106  14.020  -3.217  1.00  0.00    -0.203 F 
ATOM     70  F   UNL     1      -3.440  11.582  -6.784  1.00  0.00    -0.200 F 
ATOM     71  C   UNL     1      -1.993  13.366  -6.238  1.00  0.00     0.200 A 
ATOM     72  F   UNL     1      -0.531  15.124  -5.651  1.00  0.00    -0.200 F 
ATOM     73  F   UNL     1      -2.182  13.909  -7.449  1.00  0.00    -0.200 F 
ENDBRANCH  49  63
BRANCH  50  74
ATOM     74  C   UNL     1      -0.256   8.064   5.268  1.00  0.00     0.064 A 
ATOM     75  C   UNL     1      -1.331   7.688   6.087  1.00  0.00     0.173 A 
ATOM     76  C   UNL     1       1.038   7.933   5.796  1.00  0.00     0.173 A 
ATOM     77  F   UNL     1      -2.590   7.822   5.643  1.00  0.00    -0.203 F 
ATOM     78  C   UNL     1      -1.123   7.241   7.391  1.00  0.00     0.198 A 
ATOM     79  C   UNL     1       1.246   7.451   7.087  1.00  0.00     0.198 A 
ATOM     80  F   UNL     1       2.103   8.285   5.061  1.00  0.00    -0.203 F 
ATOM     81  F   UNL     1      -2.173   6.961   8.176  1.00  0.00    -0.200 F 
ATOM     82  C   UNL     1       0.165   7.119   7.888  1.00  0.00     0.200 A 
ATOM     83  F   UNL     1       2.493   7.327   7.560  1.00  0.00    -0.200 F 
ATOM     84  F   UNL     1       0.364   6.699   9.145  1.00  0.00    -0.200 F 
ENDBRANCH  50  74
BRANCH  62  85
ATOM     85  C   UNL     1      -3.297  13.945   3.102  1.00  0.00     0.064 A 
ATOM     86  C   UNL     1      -2.614  14.819   3.962  1.00  0.00     0.173 A 
ATOM     87  C   UNL     1      -4.677  14.139   2.936  1.00  0.00     0.173 A 
ATOM     88  F   UNL     1      -1.296  14.673   4.166  1.00  0.00    -0.203 F 
ATOM     89  C   UNL     1      -3.293  15.813   4.662  1.00  0.00     0.198 A 
ATOM     90  C   UNL     1      -5.346  15.159   3.608  1.00  0.00     0.198 A 
ATOM     91  F   UNL     1      -5.380  13.342   2.117  1.00  0.00    -0.203 F 
ATOM     92  F   UNL     1      -2.630  16.590   5.530  1.00  0.00    -0.200 F 
ATOM     93  C   UNL     1      -4.657  15.986   4.481  1.00  0.00     0.200 A 
ATOM     94  F   UNL     1      -6.661  15.335   3.417  1.00  0.00    -0.200 F 
ATOM     95  F   UNL     1      -5.309  16.943   5.156  1.00  0.00    -0.200 F 
ENDBRANCH  62  85
ENDBRANCH  36  37
ENDBRANCH  29  31
ENDBRANCH  28  29
ENDBRANCH  27  28
ENDBRANCH  26  27
ENDBRANCH  25  26
ENDBRANCH   1  25
TORSDOF 18
