REMARK SMILES CC1(C)Cc2c(-c3ccccc3)c(-c3ccc(Cl)cc3)c(CC(=O)OCCOCCOCCOC(=O)c3ccc(-c4c5nc(c(-c6c(F)c(F)c(F)c(F)c6F)c6ccc([nH]6)c(-c6c(F)c(F)c(F)c(F)c6F)c6nc(c(-c7c(F)c(F)c(F)c(F)c7F)c7ccc4[nH]7)C=C6)C=C5)cc3)n2C1
REMARK SMILES IDX 29 1 28 2 27 3 26 4 25 5 23 6 24 7 22 8 21 9 1 10 2 11 3 12
REMARK SMILES IDX 4 13 101 14 5 15 100 16 6 17 13 18 7 19 8 20 12 21 9 22
REMARK SMILES IDX 11 23 10 24 14 25 15 26 20 27 16 28 19 29 17 30 18 31 30 32
REMARK SMILES IDX 31 33 32 34 33 35 34 36 35 37 36 38 37 39 38 40 99 41 39 42
REMARK SMILES IDX 98 43 40 44 41 45 42 46 92 47 43 48 97 49 91 50 93 51 44 52
REMARK SMILES IDX 96 53 90 54 89 55 45 57 77 58 57 59 76 60 58 61 61 62 75 63
REMARK SMILES IDX 94 64 59 65 60 66 74 68 95 69 62 70 46 71 47 72 55 73 48 74
REMARK SMILES IDX 49 75 53 76 56 77 50 78 51 79 54 80 52 81 78 82 79 83 87 84
REMARK SMILES IDX 80 85 81 86 85 87 88 88 82 89 83 90 86 91 84 92 63 93 64 94
REMARK SMILES IDX 72 95 65 96 66 97 70 98 73 99 67 100 68 101 71 102 69 103
REMARK H PARENT 93 56 61 67
REMARK Flexibility Score: inf
ROOT
ATOM      1  C   UNL     1      -0.647   1.526   8.264  1.00  0.00     0.188 C 
ENDROOT
BRANCH   1   2
ATOM      2  O   UNL     1      -1.490   2.592   8.656  1.00  0.00    -0.376 OA
BRANCH   2   3
ATOM      3  C   UNL     1      -2.355   3.040   7.632  1.00  0.00     0.202 C 
BRANCH   3   4
ATOM      4  C   UNL     1      -1.640   3.522   6.340  1.00  0.00     0.261 C 
BRANCH   4   5
ATOM      5  O   UNL     1      -0.691   2.564   5.729  1.00  0.00    -0.463 OA
BRANCH   5   6
ATOM      6  C   UNL     1       0.624   2.869   5.605  1.00  0.00     0.311 C 
ATOM      7  O   UNL     1       1.000   4.042   5.672  1.00  0.00    -0.252 OA
BRANCH   6   8
ATOM      8  C   UNL     1       1.696   1.724   5.563  1.00  0.00     0.177 C 
BRANCH   8   9
ATOM      9  C   UNL     1       1.530   0.267   5.061  1.00  0.00     0.037 A 
ATOM     10  C   UNL     1       0.985   0.185   0.088  1.00  0.00     0.013 C 
ATOM     11  C   UNL     1       0.448  -0.071   1.497  1.00  0.00    -0.012 C 
ATOM     12  C   UNL     1      -1.088   0.006   1.488  1.00  0.00     0.013 C 
ATOM     13  C   UNL     1       0.896  -1.479   1.966  1.00  0.00     0.063 C 
ATOM     14  C   UNL     1       1.034   0.919   2.559  1.00  0.00     0.129 C 
ATOM     15  C   UNL     1       1.252  -1.243   3.375  1.00  0.00     0.027 A 
ATOM     16  N   UNL     1       1.283   0.066   3.719  1.00  0.00    -0.346 N 
ATOM     17  C   UNL     1       1.524  -2.007   4.461  1.00  0.00     0.011 A 
ATOM     18  C   UNL     1       1.790  -1.072   5.579  1.00  0.00     0.011 A 
BRANCH  17  19
ATOM     19  C   UNL     1       1.352  -3.454   4.346  1.00  0.00    -0.016 A 
ATOM     20  C   UNL     1       2.408  -4.290   3.962  1.00  0.00     0.009 A 
ATOM     21  C   UNL     1       0.128  -4.034   4.724  1.00  0.00     0.009 A 
ATOM     22  C   UNL     1       2.273  -5.681   4.078  1.00  0.00     0.001 A 
ATOM     23  C   UNL     1       0.014  -5.416   4.890  1.00  0.00     0.001 A 
ATOM     24  C   UNL     1       1.094  -6.239   4.580  1.00  0.00     0.000 A 
ENDBRANCH  17  19
BRANCH  18  25
ATOM     25  C   UNL     1       1.999  -1.579   7.026  1.00  0.00    -0.016 A 
ATOM     26  C   UNL     1       1.681  -3.374   7.261  1.00  0.00     0.010 A 
ATOM     27  C   UNL     1       1.626  -0.469   8.398  1.00  0.00     0.010 A 
ATOM     28  C   UNL     1       0.875  -3.995   8.777  1.00  0.00     0.021 A 
ATOM     29  C   UNL     1       0.839  -1.061   9.936  1.00  0.00     0.021 A 
ATOM     30  C   UNL     1       0.462  -2.857  10.127  1.00  0.00     0.041 A 
ATOM     31  Cl  UNL     1      -0.453  -3.387  11.489  1.00  0.00    -0.084 Cl
ENDBRANCH  18  25
ENDBRANCH   8   9
ENDBRANCH   6   8
ENDBRANCH   5   6
ENDBRANCH   4   5
ENDBRANCH   3   4
ENDBRANCH   2   3
ENDBRANCH   1   2
BRANCH   1  32
ATOM     32  C   UNL     1      -1.200   0.503   7.253  1.00  0.00     0.188 C 
BRANCH  32  33
ATOM     33  O   UNL     1      -2.528   0.150   7.585  1.00  0.00    -0.376 OA
BRANCH  33  34
ATOM     34  C   UNL     1      -2.806  -1.219   7.380  1.00  0.00     0.202 C 
BRANCH  34  35
ATOM     35  C   UNL     1      -2.197  -2.066   8.486  1.00  0.00     0.261 C 
BRANCH  35  36
ATOM     36  O   UNL     1      -0.885  -1.629   8.921  1.00  0.00    -0.460 OA
BRANCH  36  37
ATOM     37  C   UNL     1       0.359  -2.117   8.215  1.00  0.00     0.338 C 
ATOM     38  O   UNL     1      -0.177  -2.424   7.115  1.00  0.00    -0.246 OA
BRANCH  37  39
ATOM     39  C   UNL     1       2.304  -2.390   9.080  1.00  0.00     0.060 A 
ATOM     40  C   UNL     1       3.436  -3.267   8.725  1.00  0.00     0.016 A 
ATOM     41  C   UNL     1       2.837  -2.061  10.386  1.00  0.00     0.016 A 
ATOM     42  C   UNL     1       3.748  -4.379   9.538  1.00  0.00     0.010 A 
ATOM     43  C   UNL     1       2.942  -3.114  11.278  1.00  0.00     0.010 A 
ATOM     44  C   UNL     1       3.171  -4.385  10.783  1.00  0.00    -0.014 A 
BRANCH  44  45
ATOM     45  C   UNL     1       3.060  -5.518  11.695  1.00  0.00     0.031 A 
ATOM     46  C   UNL     1       4.085  -5.380  12.752  1.00  0.00     0.074 A 
ATOM     47  C   UNL     1       2.058  -6.421  11.821  1.00  0.00     0.049 A 
ATOM     48  N   UNL     1       5.320  -5.754  12.652  1.00  0.00    -0.248 NA
ATOM     49  C   UNL     1       3.838  -4.398  13.827  1.00  0.00     0.031 C 
ATOM     50  C   UNL     1       0.790  -6.582  11.120  1.00  0.00     0.029 A 
ATOM     51  N   UNL     1       1.986  -7.438  12.733  1.00  0.00    -0.354 N 
ATOM     52  C   UNL     1       5.914  -5.203  13.774  1.00  0.00     0.074 A 
ATOM     53  C   UNL     1       5.099  -4.081  14.129  1.00  0.00     0.031 C 
ATOM     54  C   UNL     1      -0.007  -7.478  11.746  1.00  0.00     0.029 A 
ATOM     55  C   UNL     1       0.750  -8.082  12.814  1.00  0.00     0.049 A 
ATOM     56  H   UNL     1       2.753  -7.698  13.293  1.00  0.00     0.167 HD
ATOM     57  C   UNL     1       6.721  -5.938  14.584  1.00  0.00     0.037 A 
ATOM     58  C   UNL     1       0.400  -9.043  13.706  1.00  0.00     0.037 A 
ATOM     59  C   UNL     1       7.084  -7.181  13.942  1.00  0.00     0.049 A 
ATOM     60  C   UNL     1       1.671  -9.592  14.246  1.00  0.00     0.074 A 
ATOM     61  C   UNL     1       7.715  -7.498  12.754  1.00  0.00     0.029 A 
ATOM     62  N   UNL     1       6.374  -8.306  14.300  1.00  0.00    -0.354 N 
ATOM     63  N   UNL     1       2.525 -10.266  13.522  1.00  0.00    -0.248 NA
ATOM     64  C   UNL     1       2.225  -8.947  15.427  1.00  0.00     0.031 C 
ATOM     65  C   UNL     1       6.989  -8.608  12.228  1.00  0.00     0.029 A 
ATOM     66  C   UNL     1       6.013  -8.977  13.156  1.00  0.00     0.049 A 
ATOM     67  H   UNL     1       6.160  -8.582  15.220  1.00  0.00     0.167 HD
ATOM     68  C   UNL     1       3.772  -9.789  13.905  1.00  0.00     0.074 A 
ATOM     69  C   UNL     1       3.526  -9.025  15.128  1.00  0.00     0.031 C 
ATOM     70  C   UNL     1       4.824  -9.795  13.033  1.00  0.00     0.037 A 
BRANCH  57  71
ATOM     71  C   UNL     1       6.847  -5.705  16.073  1.00  0.00     0.064 A 
ATOM     72  C   UNL     1       7.897  -6.336  16.759  1.00  0.00     0.173 A 
ATOM     73  C   UNL     1       5.888  -5.068  16.899  1.00  0.00     0.173 A 
ATOM     74  F   UNL     1       8.854  -6.989  16.084  1.00  0.00    -0.203 F 
ATOM     75  C   UNL     1       7.950  -6.370  18.155  1.00  0.00     0.198 A 
ATOM     76  C   UNL     1       5.979  -5.048  18.287  1.00  0.00     0.198 A 
ATOM     77  F   UNL     1       4.760  -4.525  16.433  1.00  0.00    -0.203 F 
ATOM     78  F   UNL     1       8.910  -7.079  18.763  1.00  0.00    -0.200 F 
ATOM     79  C   UNL     1       6.993  -5.725  18.918  1.00  0.00     0.200 A 
ATOM     80  F   UNL     1       5.026  -4.428  18.998  1.00  0.00    -0.200 F 
ATOM     81  F   UNL     1       7.016  -5.797  20.254  1.00  0.00    -0.200 F 
ENDBRANCH  57  71
BRANCH  58  82
ATOM     82  C   UNL     1      -0.920  -9.293  14.341  1.00  0.00     0.064 A 
ATOM     83  C   UNL     1      -1.188 -10.492  15.024  1.00  0.00     0.173 A 
ATOM     84  C   UNL     1      -1.845  -8.248  14.538  1.00  0.00     0.173 A 
ATOM     85  F   UNL     1      -0.340 -11.526  14.925  1.00  0.00    -0.203 F 
ATOM     86  C   UNL     1      -2.292 -10.625  15.876  1.00  0.00     0.198 A 
ATOM     87  C   UNL     1      -2.947  -8.382  15.386  1.00  0.00     0.198 A 
ATOM     88  F   UNL     1      -1.644  -7.043  13.985  1.00  0.00    -0.203 F 
ATOM     89  F   UNL     1      -2.478 -11.764  16.558  1.00  0.00    -0.200 F 
ATOM     90  C   UNL     1      -3.163  -9.565  16.067  1.00  0.00     0.200 A 
ATOM     91  F   UNL     1      -3.761  -7.336  15.590  1.00  0.00    -0.200 F 
ATOM     92  F   UNL     1      -4.180  -9.669  16.934  1.00  0.00    -0.200 F 
ENDBRANCH  58  82
BRANCH  70  93
ATOM     93  C   UNL     1       4.651 -10.548  11.734  1.00  0.00     0.064 A 
ATOM     94  C   UNL     1       3.740 -10.188  10.723  1.00  0.00     0.173 A 
ATOM     95  C   UNL     1       5.554 -11.576  11.436  1.00  0.00     0.173 A 
ATOM     96  F   UNL     1       2.903  -9.159  10.885  1.00  0.00    -0.203 F 
ATOM     97  C   UNL     1       3.718 -10.843   9.491  1.00  0.00     0.198 A 
ATOM     98  C   UNL     1       5.554 -12.206  10.193  1.00  0.00     0.198 A 
ATOM     99  F   UNL     1       6.482 -11.932  12.337  1.00  0.00    -0.203 F 
ATOM    100  F   UNL     1       2.838 -10.474   8.547  1.00  0.00    -0.200 F 
ATOM    101  C   UNL     1       4.632 -11.846   9.223  1.00  0.00     0.200 A 
ATOM    102  F   UNL     1       6.474 -13.143   9.923  1.00  0.00    -0.200 F 
ATOM    103  F   UNL     1       4.645 -12.444   8.024  1.00  0.00    -0.200 F 
ENDBRANCH  70  93
ENDBRANCH  44  45
ENDBRANCH  37  39
ENDBRANCH  36  37
ENDBRANCH  35  36
ENDBRANCH  34  35
ENDBRANCH  33  34
ENDBRANCH  32  33
ENDBRANCH   1  32
TORSDOF 20
