REMARK SMILES Cc1nc2sc3c(c2c2nc(CCC(=O)OCCOCCOCCOC(=O)c4ccc(-c5c6nc(c(-c7c(F)c(F)c(F)c(F)c7F)c7ccc([nH]7)c(-c7c(F)c(F)c(F)c(F)c7F)c7nc(c(-c8c(F)c(F)c(F)c(F)c8F)c8ccc5[nH]8)C=C7)C=C6)cc4)nn12)[C@@H](C)CCC3
REMARK SMILES IDX 20 1 19 2 18 3 17 4 16 5 14 6 15 7 13 8 12 9 11 10 1 11 2 12
REMARK SMILES IDX 3 13 92 14 4 15 9 16 91 17 5 18 8 19 10 20 6 21 7 22 97 23
REMARK SMILES IDX 93 24 96 25 94 26 95 27 21 28 22 29 23 30 24 31 25 32 26 33
REMARK SMILES IDX 27 34 28 35 29 36 90 37 30 38 89 39 31 40 32 41 33 42 83 43
REMARK SMILES IDX 34 44 88 45 82 46 84 47 35 48 87 49 81 50 80 51 36 53 68 54
REMARK SMILES IDX 48 55 67 56 49 57 52 58 66 59 85 60 50 61 51 62 65 64 86 65
REMARK SMILES IDX 53 66 37 67 38 68 46 69 39 70 40 71 44 72 47 73 41 74 42 75
REMARK SMILES IDX 45 76 43 77 69 78 70 79 78 80 71 81 72 82 76 83 79 84 73 85
REMARK SMILES IDX 74 86 77 87 75 88 54 89 55 90 63 91 56 92 57 93 61 94 64 95
REMARK SMILES IDX 58 96 59 97 62 98 60 99
REMARK H PARENT 84 52 52 63
REMARK Flexibility Score: inf
ROOT
ATOM      1  C   UNL     1       3.931   7.604  -1.151  1.00  0.00     0.188 C 
ENDROOT
BRANCH   1   2
ATOM      2  O   UNL     1       3.298   8.877  -1.187  1.00  0.00    -0.376 OA
BRANCH   2   3
ATOM      3  C   UNL     1       1.919   8.826  -1.564  1.00  0.00     0.202 C 
BRANCH   3   4
ATOM      4  C   UNL     1       1.555   8.071  -2.869  1.00  0.00     0.261 C 
BRANCH   4   5
ATOM      5  O   UNL     1       1.804   6.635  -2.826  1.00  0.00    -0.463 OA
BRANCH   5   6
ATOM      6  C   UNL     1       2.828   6.170  -3.589  1.00  0.00     0.306 C 
ATOM      7  O   UNL     1       3.422   6.859  -4.413  1.00  0.00    -0.252 OA
BRANCH   6   8
ATOM      8  C   UNL     1       3.193   4.709  -3.373  1.00  0.00     0.131 C 
BRANCH   8   9
ATOM      9  C   UNL     1       3.512   4.183  -1.972  1.00  0.00     0.091 C 
BRANCH   9  10
ATOM     10  C   UNL     1       2.348   3.682  -1.187  1.00  0.00     0.152 A 
ATOM     11  C   UNL     1       0.922  -0.014   0.066  1.00  0.00     0.090 C 
ATOM     12  C   UNL     1       0.359   1.331   0.403  1.00  0.00     0.131 A 
ATOM     13  N   UNL     1      -0.714   1.477   1.141  1.00  0.00    -0.222 NA
ATOM     14  N   UNL     1       1.048   2.418  -0.153  1.00  0.00    -0.199 N 
ATOM     15  C   UNL     1      -1.135   2.770   1.343  1.00  0.00     0.129 A 
ATOM     16  C   UNL     1       0.664   3.711   0.066  1.00  0.00     0.168 A 
ATOM     17  N   UNL     1       2.119   2.372  -0.979  1.00  0.00    -0.150 NA
ATOM     18  S   UNL     1      -2.553   3.127   2.231  1.00  0.00    -0.120 S 
ATOM     19  C   UNL     1      -0.551   3.941   0.880  1.00  0.00     0.060 A 
ATOM     20  N   UNL     1       1.479   4.530  -0.550  1.00  0.00    -0.211 NA
ATOM     21  C   UNL     1      -2.373   4.805   1.980  1.00  0.00     0.011 A 
ATOM     22  C   UNL     1      -1.253   5.129   1.233  1.00  0.00    -0.018 A 
ATOM     23  C   UNL     1      -3.380   5.793   2.489  1.00  0.00     0.047 C 
ATOM     24  C   UNL     1      -0.923   6.561   0.895  1.00  0.00     0.018 C 
ATOM     25  C   UNL     1      -2.760   7.195   2.555  1.00  0.00     0.006 C 
ATOM     26  C   UNL     1      -0.585   6.742  -0.576  1.00  0.00     0.013 C 
ATOM     27  C   UNL     1      -2.064   7.541   1.241  1.00  0.00     0.008 C 
ENDBRANCH   9  10
ENDBRANCH   8   9
ENDBRANCH   6   8
ENDBRANCH   5   6
ENDBRANCH   4   5
ENDBRANCH   3   4
ENDBRANCH   2   3
ENDBRANCH   1   2
BRANCH   1  28
ATOM     28  C   UNL     1       4.649   7.310   0.147  1.00  0.00     0.188 C 
BRANCH  28  29
ATOM     29  O   UNL     1       3.942   6.339   0.942  1.00  0.00    -0.376 OA
BRANCH  29  30
ATOM     30  C   UNL     1       2.724   6.770   1.552  1.00  0.00     0.202 C 
BRANCH  30  31
ATOM     31  C   UNL     1       2.872   7.370   2.946  1.00  0.00     0.261 C 
BRANCH  31  32
ATOM     32  O   UNL     1       3.963   8.265   2.978  1.00  0.00    -0.460 OA
BRANCH  32  33
ATOM     33  C   UNL     1       5.154   7.640   3.105  1.00  0.00     0.338 C 
ATOM     34  O   UNL     1       5.371   6.460   3.351  1.00  0.00    -0.246 OA
BRANCH  33  35
ATOM     35  C   UNL     1       6.200   8.637   2.917  1.00  0.00     0.060 A 
ATOM     36  C   UNL     1       7.511   8.167   2.852  1.00  0.00     0.016 A 
ATOM     37  C   UNL     1       5.884   9.997   3.045  1.00  0.00     0.016 A 
ATOM     38  C   UNL     1       8.503   9.029   3.232  1.00  0.00     0.010 A 
ATOM     39  C   UNL     1       6.870  10.852   3.439  1.00  0.00     0.010 A 
ATOM     40  C   UNL     1       8.136  10.318   3.637  1.00  0.00    -0.014 A 
BRANCH  40  41
ATOM     41  C   UNL     1       9.159  11.152   4.207  1.00  0.00     0.031 A 
ATOM     42  C   UNL     1      10.071  11.627   3.159  1.00  0.00     0.074 A 
ATOM     43  C   UNL     1       9.182  11.441   5.522  1.00  0.00     0.049 A 
ATOM     44  N   UNL     1      11.262  11.192   2.930  1.00  0.00    -0.248 NA
ATOM     45  C   UNL     1       9.530  12.488   2.093  1.00  0.00     0.031 C 
ATOM     46  C   UNL     1       8.119  11.182   6.500  1.00  0.00     0.029 A 
ATOM     47  N   UNL     1      10.113  12.124   6.250  1.00  0.00    -0.354 N 
ATOM     48  C   UNL     1      11.726  11.986   1.892  1.00  0.00     0.074 A 
ATOM     49  C   UNL     1      10.568  12.547   1.254  1.00  0.00     0.031 C 
ATOM     50  C   UNL     1       8.351  11.907   7.617  1.00  0.00     0.029 A 
ATOM     51  C   UNL     1       9.645  12.551   7.493  1.00  0.00     0.049 A 
ATOM     52  H   UNL     1      11.027  12.298   5.928  1.00  0.00     0.167 HD
ATOM     53  C   UNL     1      13.000  12.453   1.966  1.00  0.00     0.037 A 
ATOM     54  C   UNL     1      10.274  13.435   8.307  1.00  0.00     0.037 A 
ATOM     55  C   UNL     1      13.772  11.672   2.900  1.00  0.00     0.049 A 
ATOM     56  C   UNL     1      11.710  13.415   7.937  1.00  0.00     0.074 A 
ATOM     57  C   UNL     1      14.373  10.433   2.915  1.00  0.00     0.029 A 
ATOM     58  N   UNL     1      13.604  12.058   4.202  1.00  0.00    -0.354 N 
ATOM     59  N   UNL     1      12.486  12.384   8.132  1.00  0.00    -0.248 NA
ATOM     60  C   UNL     1      12.216  14.419   7.004  1.00  0.00     0.031 C 
ATOM     61  C   UNL     1      14.533  10.076   4.286  1.00  0.00     0.029 A 
ATOM     62  C   UNL     1      14.070  11.121   5.080  1.00  0.00     0.049 A 
ATOM     63  H   UNL     1      13.195  12.911   4.475  1.00  0.00     0.167 HD
ATOM     64  C   UNL     1      13.351  12.409   7.058  1.00  0.00     0.074 A 
ATOM     65  C   UNL     1      13.254  13.751   6.499  1.00  0.00     0.031 C 
ATOM     66  C   UNL     1      13.789  11.253   6.489  1.00  0.00     0.037 A 
BRANCH  53  67
ATOM     67  C   UNL     1      13.380  13.887   1.672  1.00  0.00     0.064 A 
ATOM     68  C   UNL     1      14.745  14.229   1.658  1.00  0.00     0.173 A 
ATOM     69  C   UNL     1      12.482  14.978   1.715  1.00  0.00     0.173 A 
ATOM     70  F   UNL     1      15.687  13.274   1.671  1.00  0.00    -0.203 F 
ATOM     71  C   UNL     1      15.173  15.559   1.720  1.00  0.00     0.198 A 
ATOM     72  C   UNL     1      12.911  16.302   1.719  1.00  0.00     0.198 A 
ATOM     73  F   UNL     1      11.164  14.822   1.876  1.00  0.00    -0.203 F 
ATOM     74  F   UNL     1      16.481  15.832   1.815  1.00  0.00    -0.200 F 
ATOM     75  C   UNL     1      14.256  16.594   1.745  1.00  0.00     0.200 A 
ATOM     76  F   UNL     1      12.003  17.287   1.782  1.00  0.00    -0.200 F 
ATOM     77  F   UNL     1      14.663  17.865   1.847  1.00  0.00    -0.200 F 
ENDBRANCH  53  67
BRANCH  54  78
ATOM     78  C   UNL     1       9.697  14.515   9.146  1.00  0.00     0.064 A 
ATOM     79  C   UNL     1      10.505  15.207  10.067  1.00  0.00     0.173 A 
ATOM     80  C   UNL     1       8.454  15.102   8.843  1.00  0.00     0.173 A 
ATOM     81  F   UNL     1      11.715  14.730  10.393  1.00  0.00    -0.203 F 
ATOM     82  C   UNL     1      10.123  16.443  10.598  1.00  0.00     0.198 A 
ATOM     83  C   UNL     1       8.071  16.334   9.380  1.00  0.00     0.198 A 
ATOM     84  F   UNL     1       7.630  14.548   7.944  1.00  0.00    -0.203 F 
ATOM     85  F   UNL     1      10.961  17.112  11.402  1.00  0.00    -0.200 F 
ATOM     86  C   UNL     1       8.915  17.015  10.238  1.00  0.00     0.200 A 
ATOM     87  F   UNL     1       6.912  16.891   9.002  1.00  0.00    -0.200 F 
ATOM     88  F   UNL     1       8.585  18.236  10.681  1.00  0.00    -0.200 F 
ENDBRANCH  54  78
BRANCH  66  89
ATOM     89  C   UNL     1      13.855  10.023   7.329  1.00  0.00     0.064 A 
ATOM     90  C   UNL     1      12.743   9.292   7.769  1.00  0.00     0.173 A 
ATOM     91  C   UNL     1      15.130   9.487   7.561  1.00  0.00     0.173 A 
ATOM     92  F   UNL     1      11.496   9.726   7.533  1.00  0.00    -0.203 F 
ATOM     93  C   UNL     1      12.912   8.064   8.410  1.00  0.00     0.198 A 
ATOM     94  C   UNL     1      15.292   8.250   8.167  1.00  0.00     0.198 A 
ATOM     95  F   UNL     1      16.220  10.145   7.134  1.00  0.00    -0.203 F 
ATOM     96  F   UNL     1      11.842   7.365   8.818  1.00  0.00    -0.200 F 
ATOM     97  C   UNL     1      14.184   7.537   8.592  1.00  0.00     0.200 A 
ATOM     98  F   UNL     1      16.521   7.732   8.301  1.00  0.00    -0.200 F 
ATOM     99  F   UNL     1      14.341   6.330   9.151  1.00  0.00    -0.200 F 
ENDBRANCH  66  89
ENDBRANCH  40  41
ENDBRANCH  33  35
ENDBRANCH  32  33
ENDBRANCH  31  32
ENDBRANCH  30  31
ENDBRANCH  29  30
ENDBRANCH  28  29
ENDBRANCH   1  28
TORSDOF 19
