REMARK SMILES O=C(OCCOCCOCCOC(=O)c1ccc(OC[C@H]2C[C@H]3CC[C@@H]2C3)c(Cl)c1)c1ccc(-c2c3nc(c(-c4c(F)c(F)c(F)c(F)c4F)c4ccc([nH]4)c(-c4c(F)c(F)c(F)c(F)c4F)c4nc(c(-c5c(F)c(F)c(F)c(F)c5F)c5ccc2[nH]5)C=C4)C=C3)cc1
REMARK SMILES IDX 8 1 7 2 6 3 5 4 4 5 3 6 2 7 1 8 31 9 32 10 93 11 33 12 92 13
REMARK SMILES IDX 34 14 35 15 36 16 86 17 37 18 91 19 85 20 87 21 38 22 90 23
REMARK SMILES IDX 84 24 83 25 39 27 71 28 51 29 70 30 52 31 55 32 69 33 88 34
REMARK SMILES IDX 53 35 54 36 68 38 89 39 56 40 40 41 41 42 49 43 42 44 43 45
REMARK SMILES IDX 47 46 50 47 44 48 45 49 48 50 46 51 72 52 73 53 81 54 74 55
REMARK SMILES IDX 75 56 79 57 82 58 76 59 77 60 80 61 78 62 57 63 58 64 66 65
REMARK SMILES IDX 59 66 60 67 64 68 67 69 61 70 62 71 65 72 63 73 9 74 10 75
REMARK SMILES IDX 11 76 12 77 13 78 14 79 15 80 16 81 30 82 17 83 28 84 18 85
REMARK SMILES IDX 29 86 19 87 20 88 21 89 22 90 26 91 23 92 25 93 27 94 24 95
REMARK H PARENT 87 26 55 37
REMARK Flexibility Score: inf
ROOT
ATOM      1  C   UNL     1      -7.194  -4.354   2.857  1.00  0.00     0.188 C 
ENDROOT
BRANCH   1   2
ATOM      2  C   UNL     1      -7.978  -3.052   2.680  1.00  0.00     0.188 C 
BRANCH   2   3
ATOM      3  O   UNL     1      -8.787  -2.756   3.821  1.00  0.00    -0.376 OA
BRANCH   3   4
ATOM      4  C   UNL     1     -10.009  -2.066   3.526  1.00  0.00     0.202 C 
BRANCH   4   5
ATOM      5  C   UNL     1      -9.877  -0.611   3.030  1.00  0.00     0.261 C 
BRANCH   5   6
ATOM      6  O   UNL     1      -8.606  -0.304   2.423  1.00  0.00    -0.460 OA
BRANCH   6   7
ATOM      7  C   UNL     1      -7.537   0.310   2.997  1.00  0.00     0.338 C 
ATOM      8  O   UNL     1      -6.587   0.657   2.301  1.00  0.00    -0.246 OA
BRANCH   7   9
ATOM      9  C   UNL     1      -7.482   0.582   4.459  1.00  0.00     0.060 A 
ATOM     10  C   UNL     1      -8.118  -0.219   5.399  1.00  0.00     0.016 A 
ATOM     11  C   UNL     1      -6.698   1.641   4.930  1.00  0.00     0.016 A 
ATOM     12  C   UNL     1      -8.150   0.093   6.740  1.00  0.00     0.010 A 
ATOM     13  C   UNL     1      -6.608   1.887   6.308  1.00  0.00     0.010 A 
ATOM     14  C   UNL     1      -7.362   1.125   7.221  1.00  0.00    -0.014 A 
BRANCH  14  15
ATOM     15  C   UNL     1      -7.425   1.412   8.670  1.00  0.00     0.031 A 
ATOM     16  C   UNL     1      -7.953   2.747   9.084  1.00  0.00     0.074 A 
ATOM     17  C   UNL     1      -7.151   0.454   9.582  1.00  0.00     0.049 A 
ATOM     18  N   UNL     1      -8.085   3.249  10.280  1.00  0.00    -0.248 NA
ATOM     19  C   UNL     1      -8.419   3.633   8.002  1.00  0.00     0.031 C 
ATOM     20  C   UNL     1      -6.773  -0.926   9.274  1.00  0.00     0.029 A 
ATOM     21  N   UNL     1      -7.167   0.471  10.953  1.00  0.00    -0.354 N 
ATOM     22  C   UNL     1      -8.642   4.503  10.090  1.00  0.00     0.074 A 
ATOM     23  C   UNL     1      -8.760   4.721   8.669  1.00  0.00     0.031 C 
ATOM     24  C   UNL     1      -6.552  -1.611  10.403  1.00  0.00     0.029 A 
ATOM     25  C   UNL     1      -6.763  -0.716  11.525  1.00  0.00     0.049 A 
ATOM     26  H   UNL     1      -7.440   1.257  11.478  1.00  0.00     0.167 HD
ATOM     27  C   UNL     1      -9.058   5.378  11.030  1.00  0.00     0.037 A 
ATOM     28  C   UNL     1      -6.575  -1.039  12.817  1.00  0.00     0.037 A 
ATOM     29  C   UNL     1      -8.937   5.130  12.438  1.00  0.00     0.049 A 
ATOM     30  C   UNL     1      -6.927   0.003  13.838  1.00  0.00     0.074 A 
ATOM     31  C   UNL     1      -9.245   5.964  13.493  1.00  0.00     0.029 A 
ATOM     32  N   UNL     1      -8.467   3.940  12.983  1.00  0.00    -0.354 N 
ATOM     33  N   UNL     1      -7.410   1.208  13.650  1.00  0.00    -0.248 NA
ATOM     34  C   UNL     1      -6.733  -0.358  15.246  1.00  0.00     0.031 C 
ATOM     35  C   UNL     1      -8.923   5.294  14.678  1.00  0.00     0.029 A 
ATOM     36  C   UNL     1      -8.466   4.022  14.363  1.00  0.00     0.049 A 
ATOM     37  H   UNL     1      -8.179   3.156  12.463  1.00  0.00     0.167 HD
ATOM     38  C   UNL     1      -7.607   1.742  14.911  1.00  0.00     0.074 A 
ATOM     39  C   UNL     1      -7.212   0.715  15.858  1.00  0.00     0.031 C 
ATOM     40  C   UNL     1      -8.066   2.968  15.262  1.00  0.00     0.037 A 
BRANCH  27  41
ATOM     41  C   UNL     1      -9.634   6.669  10.535  1.00  0.00     0.064 A 
ATOM     42  C   UNL     1     -10.876   6.720   9.883  1.00  0.00     0.173 A 
ATOM     43  C   UNL     1      -8.901   7.859  10.647  1.00  0.00     0.173 A 
ATOM     44  F   UNL     1     -11.595   5.600   9.710  1.00  0.00    -0.203 F 
ATOM     45  C   UNL     1     -11.347   7.908   9.330  1.00  0.00     0.198 A 
ATOM     46  C   UNL     1      -9.389   9.051  10.121  1.00  0.00     0.198 A 
ATOM     47  F   UNL     1      -7.700   7.859  11.244  1.00  0.00    -0.203 F 
ATOM     48  F   UNL     1     -12.499   7.917   8.645  1.00  0.00    -0.200 F 
ATOM     49  C   UNL     1     -10.605   9.073   9.454  1.00  0.00     0.200 A 
ATOM     50  F   UNL     1      -8.670  10.176  10.237  1.00  0.00    -0.200 F 
ATOM     51  F   UNL     1     -11.053  10.214   8.911  1.00  0.00    -0.200 F 
ENDBRANCH  27  41
BRANCH  28  52
ATOM     52  C   UNL     1      -6.028  -2.370  13.203  1.00  0.00     0.064 A 
ATOM     53  C   UNL     1      -6.780  -3.288  13.949  1.00  0.00     0.173 A 
ATOM     54  C   UNL     1      -4.717  -2.741  12.856  1.00  0.00     0.173 A 
ATOM     55  F   UNL     1      -8.035  -2.986  14.313  1.00  0.00    -0.203 F 
ATOM     56  C   UNL     1      -6.232  -4.500  14.370  1.00  0.00     0.198 A 
ATOM     57  C   UNL     1      -4.182  -3.967  13.248  1.00  0.00     0.198 A 
ATOM     58  F   UNL     1      -3.952  -1.909  12.134  1.00  0.00    -0.203 F 
ATOM     59  F   UNL     1      -6.954  -5.329  15.136  1.00  0.00    -0.200 F 
ATOM     60  C   UNL     1      -4.934  -4.840  14.018  1.00  0.00     0.200 A 
ATOM     61  F   UNL     1      -2.934  -4.298  12.889  1.00  0.00    -0.200 F 
ATOM     62  F   UNL     1      -4.406  -6.000  14.430  1.00  0.00    -0.200 F 
ENDBRANCH  28  52
BRANCH  40  63
ATOM     63  C   UNL     1      -8.191   3.236  16.730  1.00  0.00     0.064 A 
ATOM     64  C   UNL     1      -7.061   3.402  17.543  1.00  0.00     0.173 A 
ATOM     65  C   UNL     1      -9.458   3.354  17.319  1.00  0.00     0.173 A 
ATOM     66  F   UNL     1      -5.830   3.279  17.024  1.00  0.00    -0.203 F 
ATOM     67  C   UNL     1      -7.197   3.645  18.905  1.00  0.00     0.198 A 
ATOM     68  C   UNL     1      -9.589   3.635  18.674  1.00  0.00     0.198 A 
ATOM     69  F   UNL     1     -10.566   3.208  16.577  1.00  0.00    -0.203 F 
ATOM     70  F   UNL     1      -6.106   3.740  19.677  1.00  0.00    -0.200 F 
ATOM     71  C   UNL     1      -8.459   3.769  19.467  1.00  0.00     0.200 A 
ATOM     72  F   UNL     1     -10.808   3.771  19.212  1.00  0.00    -0.200 F 
ATOM     73  F   UNL     1      -8.587   4.011  20.778  1.00  0.00    -0.200 F 
ENDBRANCH  40  63
ENDBRANCH  14  15
ENDBRANCH   7   9
ENDBRANCH   6   7
ENDBRANCH   5   6
ENDBRANCH   4   5
ENDBRANCH   3   4
ENDBRANCH   2   3
ENDBRANCH   1   2
BRANCH   1  74
ATOM     74  O   UNL     1      -7.978  -5.545   2.883  1.00  0.00    -0.376 OA
BRANCH  74  75
ATOM     75  C   UNL     1      -8.985  -5.627   3.886  1.00  0.00     0.202 C 
BRANCH  75  76
ATOM     76  C   UNL     1      -8.513  -5.795   5.337  1.00  0.00     0.261 C 
BRANCH  76  77
ATOM     77  O   UNL     1      -7.554  -4.824   5.807  1.00  0.00    -0.460 OA
BRANCH  77  78
ATOM     78  C   UNL     1      -6.401  -5.360   6.273  1.00  0.00     0.338 C 
ATOM     79  O   UNL     1      -6.095  -6.553   6.248  1.00  0.00    -0.246 OA
BRANCH  78  80
ATOM     80  C   UNL     1      -5.499  -4.375   6.909  1.00  0.00     0.061 A 
ATOM     81  C   UNL     1      -4.633  -4.840   7.905  1.00  0.00     0.019 A 
ATOM     82  C   UNL     1      -5.420  -3.042   6.519  1.00  0.00     0.040 A 
ATOM     83  C   UNL     1      -3.626  -4.018   8.414  1.00  0.00     0.049 A 
ATOM     84  C   UNL     1      -4.427  -2.210   7.072  1.00  0.00     0.083 A 
ATOM     85  C   UNL     1      -3.455  -2.713   7.944  1.00  0.00     0.137 A 
ATOM     86  Cl  UNL     1      -4.537  -0.557   6.647  1.00  0.00    -0.080 Cl
BRANCH  85  87
ATOM     87  O   UNL     1      -2.302  -2.141   8.402  1.00  0.00    -0.492 OA
BRANCH  87  88
ATOM     88  C   UNL     1      -1.684  -1.020   7.766  1.00  0.00     0.233 C 
BRANCH  88  89
ATOM     89  C   UNL     1      -0.897  -1.304   6.470  1.00  0.00     0.030 C 
ATOM     90  C   UNL     1      -1.505  -2.185   5.358  1.00  0.00     0.011 C 
ATOM     91  C   UNL     1      -0.465  -0.037   5.673  1.00  0.00    -0.004 C 
ATOM     92  C   UNL     1      -1.315  -1.344   4.081  1.00  0.00    -0.010 C 
ATOM     93  C   UNL     1      -1.676   0.769   5.166  1.00  0.00     0.004 C 
ATOM     94  C   UNL     1       0.018  -0.657   4.355  1.00  0.00     0.007 C 
ATOM     95  C   UNL     1      -2.284  -0.151   4.097  1.00  0.00     0.004 C 
ENDBRANCH  88  89
ENDBRANCH  87  88
ENDBRANCH  85  87
ENDBRANCH  78  80
ENDBRANCH  77  78
ENDBRANCH  76  77
ENDBRANCH  75  76
ENDBRANCH  74  75
ENDBRANCH   1  74
TORSDOF 20
