REMARK SMILES NS(=O)(=O)c1ccc(-n2nc(C(F)(F)F)cc2-c2ccc(C(=O)OCCOCCOCCOC(=O)c3ccc(-c4c5nc(c(-c6c(F)c(F)c(F)c(F)c6F)c6ccc([nH]6)c(-c6c(F)c(F)c(F)c(F)c6F)c6nc(c(-c7c(F)c(F)c(F)c(F)c7F)c7ccc4[nH]7)C=C6)C=C5)cc3)cc2)cc1
REMARK SMILES IDX 28 1 27 2 26 3 25 4 24 5 22 6 23 7 21 8 18 9 19 10 100 11
REMARK SMILES IDX 20 12 99 13 17 14 9 15 10 16 11 17 16 18 8 19 5 20 6 21
REMARK SMILES IDX 102 22 7 23 101 24 2 25 3 26 4 27 1 28 12 31 13 32 14 33
REMARK SMILES IDX 15 34 29 35 30 36 31 37 32 38 33 39 34 40 35 41 36 42 37 43
REMARK SMILES IDX 98 44 38 45 97 46 39 47 40 48 41 49 91 50 42 51 96 52 90 53
REMARK SMILES IDX 92 54 43 55 95 56 89 57 88 58 44 60 76 61 56 62 75 63 57 64
REMARK SMILES IDX 60 65 74 66 93 67 58 68 59 69 73 71 94 72 61 73 45 74 46 75
REMARK SMILES IDX 54 76 47 77 48 78 52 79 55 80 49 81 50 82 53 83 51 84 77 85
REMARK SMILES IDX 78 86 86 87 79 88 80 89 84 90 87 91 81 92 82 93 85 94 83 95
REMARK SMILES IDX 62 96 63 97 71 98 64 99 65 100 69 101 72 102 66 103 67 104
REMARK SMILES IDX 70 105 68 106
REMARK H PARENT 1 29 1 30 92 59 60 70
REMARK Flexibility Score: inf
ROOT
ATOM      1  C   UNL     1      -3.430  -4.139  -3.768  1.00  0.00     0.188 C 
ENDROOT
BRANCH   1   2
ATOM      2  O   UNL     1      -4.566  -4.003  -4.586  1.00  0.00    -0.376 OA
BRANCH   2   3
ATOM      3  C   UNL     1      -5.009  -5.064  -5.413  1.00  0.00     0.202 C 
BRANCH   3   4
ATOM      4  C   UNL     1      -4.386  -6.475  -5.510  1.00  0.00     0.261 C 
BRANCH   4   5
ATOM      5  O   UNL     1      -3.416  -6.854  -4.534  1.00  0.00    -0.460 OA
BRANCH   5   6
ATOM      6  C   UNL     1      -2.129  -6.836  -4.953  1.00  0.00     0.338 C 
ATOM      7  O   UNL     1      -1.728  -6.539  -6.066  1.00  0.00    -0.246 OA
BRANCH   6   8
ATOM      8  C   UNL     1      -1.222  -7.023  -3.798  1.00  0.00     0.060 A 
ATOM      9  C   UNL     1       0.628  -7.347  -1.719  1.00  0.00     0.000 A 
ATOM     10  C   UNL     1       0.804  -6.333  -2.671  1.00  0.00     0.011 A 
ATOM     11  C   UNL     1      -0.515  -8.156  -1.782  1.00  0.00     0.011 A 
ATOM     12  C   UNL     1      -0.111  -6.177  -3.710  1.00  0.00     0.016 A 
ATOM     13  C   UNL     1      -1.449  -7.988  -2.812  1.00  0.00     0.016 A 
BRANCH   9  14
ATOM     14  C   UNL     1       1.700  -7.643  -0.770  1.00  0.00     0.075 A 
ATOM     15  N   UNL     1       2.364  -6.729   0.040  1.00  0.00    -0.233 N 
ATOM     16  N   UNL     1       3.547  -7.222   0.494  1.00  0.00    -0.163 NA
ATOM     17  C   UNL     1       3.543  -8.523   0.142  1.00  0.00     0.167 A 
ATOM     18  C   UNL     1       2.418  -8.818  -0.664  1.00  0.00     0.064 A 
BRANCH  15  19
ATOM     19  C   UNL     1       1.953  -5.418   0.396  1.00  0.00     0.065 A 
ATOM     20  C   UNL     1       1.155  -2.826   1.026  1.00  0.00     0.082 A 
ATOM     21  C   UNL     1       0.202  -3.848   0.980  1.00  0.00     0.024 A 
ATOM     22  C   UNL     1       2.506  -3.095   0.781  1.00  0.00     0.024 A 
ATOM     23  C   UNL     1       0.600  -5.145   0.649  1.00  0.00     0.030 A 
ATOM     24  C   UNL     1       2.911  -4.399   0.491  1.00  0.00     0.030 A 
BRANCH  20  25
ATOM     25  S   UNL     1       0.657  -1.179   1.435  1.00  0.00     0.238 S 
ATOM     26  O   UNL     1       1.463  -0.719   2.551  1.00  0.00    -0.207 OA
ATOM     27  O   UNL     1      -0.776  -1.091   1.418  1.00  0.00    -0.207 OA
BRANCH  25  28
ATOM     28  N   UNL     1       1.172  -0.296   0.099  1.00  0.00    -0.225 NA
ATOM     29  H   UNL     1       0.932   0.687   0.229  1.00  0.00     0.137 HD
ATOM     30  H   UNL     1       0.713  -0.650  -0.740  1.00  0.00     0.137 HD
ENDBRANCH  25  28
ENDBRANCH  20  25
ENDBRANCH  15  19
BRANCH  17  31
ATOM     31  C   UNL     1       4.626  -9.495   0.530  1.00  0.00     0.435 C 
ATOM     32  F   UNL     1       5.878  -8.996   0.360  1.00  0.00    -0.164 F 
ATOM     33  F   UNL     1       4.520  -9.885   1.827  1.00  0.00    -0.164 F 
ATOM     34  F   UNL     1       4.563 -10.634  -0.216  1.00  0.00    -0.164 F 
ENDBRANCH  17  31
ENDBRANCH   9  14
ENDBRANCH   6   8
ENDBRANCH   5   6
ENDBRANCH   4   5
ENDBRANCH   3   4
ENDBRANCH   2   3
ENDBRANCH   1   2
BRANCH   1  35
ATOM     35  C   UNL     1      -3.599  -4.851  -2.410  1.00  0.00     0.188 C 
BRANCH  35  36
ATOM     36  O   UNL     1      -4.628  -5.791  -2.167  1.00  0.00    -0.376 OA
BRANCH  36  37
ATOM     37  C   UNL     1      -6.011  -5.500  -2.285  1.00  0.00     0.202 C 
BRANCH  37  38
ATOM     38  C   UNL     1      -6.643  -4.138  -2.015  1.00  0.00     0.261 C 
BRANCH  38  39
ATOM     39  O   UNL     1      -5.817  -3.027  -2.276  1.00  0.00    -0.460 OA
BRANCH  39  40
ATOM     40  C   UNL     1      -5.171  -2.585  -1.181  1.00  0.00     0.338 C 
ATOM     41  O   UNL     1      -5.091  -3.131  -0.094  1.00  0.00    -0.246 OA
BRANCH  40  42
ATOM     42  C   UNL     1      -4.653  -1.247  -1.453  1.00  0.00     0.060 A 
ATOM     43  C   UNL     1      -3.805  -0.720  -0.479  1.00  0.00     0.016 A 
ATOM     44  C   UNL     1      -5.354  -0.448  -2.366  1.00  0.00     0.016 A 
ATOM     45  C   UNL     1      -3.904   0.622  -0.216  1.00  0.00     0.010 A 
ATOM     46  C   UNL     1      -5.470   0.886  -2.086  1.00  0.00     0.010 A 
ATOM     47  C   UNL     1      -4.830   1.372  -0.949  1.00  0.00    -0.014 A 
BRANCH  47  48
ATOM     48  C   UNL     1      -5.050   2.742  -0.557  1.00  0.00     0.031 A 
ATOM     49  C   UNL     1      -3.925   3.603  -0.971  1.00  0.00     0.074 A 
ATOM     50  C   UNL     1      -6.195   3.145   0.024  1.00  0.00     0.049 A 
ATOM     51  N   UNL     1      -3.057   4.174  -0.208  1.00  0.00    -0.248 NA
ATOM     52  C   UNL     1      -3.588   3.645  -2.405  1.00  0.00     0.031 C 
ATOM     53  C   UNL     1      -7.427   2.382   0.237  1.00  0.00     0.029 A 
ATOM     54  N   UNL     1      -6.527   4.388   0.469  1.00  0.00    -0.354 N 
ATOM     55  C   UNL     1      -2.201   4.844  -1.071  1.00  0.00     0.074 A 
ATOM     56  C   UNL     1      -2.426   4.295  -2.379  1.00  0.00     0.031 C 
ATOM     57  C   UNL     1      -8.433   3.233   0.549  1.00  0.00     0.029 A 
ATOM     58  C   UNL     1      -7.892   4.573   0.681  1.00  0.00     0.049 A 
ATOM     59  H   UNL     1      -5.861   5.095   0.628  1.00  0.00     0.167 HD
ATOM     60  C   UNL     1      -1.628   6.014  -0.686  1.00  0.00     0.037 A 
ATOM     61  C   UNL     1      -8.499   5.777   0.848  1.00  0.00     0.037 A 
ATOM     62  C   UNL     1      -1.632   6.138   0.752  1.00  0.00     0.049 A 
ATOM     63  C   UNL     1      -7.440   6.747   1.245  1.00  0.00     0.074 A 
ATOM     64  C   UNL     1      -1.103   5.395   1.790  1.00  0.00     0.029 A 
ATOM     65  N   UNL     1      -2.591   6.942   1.320  1.00  0.00    -0.354 N 
ATOM     66  N   UNL     1      -6.817   6.703   2.391  1.00  0.00    -0.248 NA
ATOM     67  C   UNL     1      -6.736   7.441   0.176  1.00  0.00     0.031 C 
ATOM     68  C   UNL     1      -2.084   5.447   2.825  1.00  0.00     0.029 A 
ATOM     69  C   UNL     1      -3.119   6.277   2.396  1.00  0.00     0.049 A 
ATOM     70  H   UNL     1      -2.853   7.838   1.009  1.00  0.00     0.167 HD
ATOM     71  C   UNL     1      -5.490   6.958   2.077  1.00  0.00     0.074 A 
ATOM     72  C   UNL     1      -5.510   7.464   0.706  1.00  0.00     0.031 C 
ATOM     73  C   UNL     1      -4.480   6.451   2.843  1.00  0.00     0.037 A 
BRANCH  60  74
ATOM     74  C   UNL     1      -1.493   7.207  -1.603  1.00  0.00     0.064 A 
ATOM     75  C   UNL     1      -0.830   8.350  -1.118  1.00  0.00     0.173 A 
ATOM     76  C   UNL     1      -2.240   7.398  -2.789  1.00  0.00     0.173 A 
ATOM     77  F   UNL     1      -0.099   8.289   0.006  1.00  0.00    -0.203 F 
ATOM     78  C   UNL     1      -0.987   9.603  -1.715  1.00  0.00     0.198 A 
ATOM     79  C   UNL     1      -2.349   8.638  -3.413  1.00  0.00     0.198 A 
ATOM     80  F   UNL     1      -2.987   6.437  -3.340  1.00  0.00    -0.203 F 
ATOM     81  F   UNL     1      -0.452  10.685  -1.135  1.00  0.00    -0.200 F 
ATOM     82  C   UNL     1      -1.754   9.747  -2.856  1.00  0.00     0.200 A 
ATOM     83  F   UNL     1      -3.111   8.756  -4.509  1.00  0.00    -0.200 F 
ATOM     84  F   UNL     1      -1.962  10.956  -3.391  1.00  0.00    -0.200 F 
ENDBRANCH  60  74
BRANCH  61  85
ATOM     85  C   UNL     1      -9.818   6.228   0.335  1.00  0.00     0.064 A 
ATOM     86  C   UNL     1     -10.390   7.436   0.775  1.00  0.00     0.173 A 
ATOM     87  C   UNL     1     -10.403   5.646  -0.807  1.00  0.00     0.173 A 
ATOM     88  F   UNL     1      -9.868   8.084   1.827  1.00  0.00    -0.203 F 
ATOM     89  C   UNL     1     -11.456   8.038   0.097  1.00  0.00     0.198 A 
ATOM     90  C   UNL     1     -11.470   6.244  -1.480  1.00  0.00     0.198 A 
ATOM     91  F   UNL     1      -9.888   4.537  -1.356  1.00  0.00    -0.203 F 
ATOM     92  F   UNL     1     -11.927   9.224   0.508  1.00  0.00    -0.200 F 
ATOM     93  C   UNL     1     -11.987   7.448  -1.038  1.00  0.00     0.200 A 
ATOM     94  F   UNL     1     -11.949   5.681  -2.598  1.00  0.00    -0.200 F 
ATOM     95  F   UNL     1     -12.962   8.056  -1.727  1.00  0.00    -0.200 F 
ENDBRANCH  61  85
BRANCH  73  96
ATOM     96  C   UNL     1      -4.843   5.837   4.166  1.00  0.00     0.064 A 
ATOM     97  C   UNL     1      -5.656   4.699   4.315  1.00  0.00     0.173 A 
ATOM     98  C   UNL     1      -4.227   6.344   5.317  1.00  0.00     0.173 A 
ATOM     99  F   UNL     1      -6.202   4.097   3.250  1.00  0.00    -0.203 F 
ATOM    100  C   UNL     1      -5.872   4.125   5.569  1.00  0.00     0.198 A 
ATOM    101  C   UNL     1      -4.413   5.747   6.560  1.00  0.00     0.198 A 
ATOM    102  F   UNL     1      -3.400   7.397   5.226  1.00  0.00    -0.203 F 
ATOM    103  F   UNL     1      -6.663   3.049   5.689  1.00  0.00    -0.200 F 
ATOM    104  C   UNL     1      -5.244   4.646   6.688  1.00  0.00     0.200 A 
ATOM    105  F   UNL     1      -3.764   6.225   7.630  1.00  0.00    -0.200 F 
ATOM    106  F   UNL     1      -5.418   4.072   7.887  1.00  0.00    -0.200 F 
ENDBRANCH  73  96
ENDBRANCH  47  48
ENDBRANCH  40  42
ENDBRANCH  39  40
ENDBRANCH  38  39
ENDBRANCH  37  38
ENDBRANCH  36  37
ENDBRANCH  35  36
ENDBRANCH   1  35
TORSDOF 22
