REMARK SMILES COc1ccc(C(=O)NC(=S)Nc2ccc(Br)cc2C(=O)OCCOCCOCCOC(=O)c2ccc(-c3c4nc(c(-c5c(F)c(F)c(F)c(F)c5F)c5ccc([nH]5)c(-c5c(F)c(F)c(F)c(F)c5F)c5nc(c(-c6c(F)c(F)c(F)c(F)c6F)c6ccc3[nH]6)C=C5)C=C4)cc2)cc1Br
REMARK SMILES IDX 25 1 24 2 23 3 22 4 20 5 21 6 19 7 13 8 14 9 15 10 18 11
REMARK SMILES IDX 16 12 17 13 12 14 10 16 11 17 9 18 7 19 8 20 6 22 3 23 4 24
REMARK SMILES IDX 98 25 5 26 97 27 99 28 2 29 1 30 26 31 27 32 28 33 29 34
REMARK SMILES IDX 30 35 31 36 32 37 33 38 34 39 35 40 96 41 36 42 95 43 37 44
REMARK SMILES IDX 38 45 39 46 89 47 40 48 94 49 88 50 90 51 41 52 93 53 87 54
REMARK SMILES IDX 86 55 42 57 74 58 54 59 73 60 55 61 58 62 72 63 91 64 56 65
REMARK SMILES IDX 57 66 71 68 92 69 59 70 43 71 44 72 52 73 45 74 46 75 50 76
REMARK SMILES IDX 53 77 47 78 48 79 51 80 49 81 75 82 76 83 84 84 77 85 78 86
REMARK SMILES IDX 82 87 85 88 79 89 80 90 83 91 81 92 60 93 61 94 69 95 62 96
REMARK SMILES IDX 63 97 67 98 70 99 64 100 65 101 68 102 66 103
REMARK H PARENT 12 15 9 21 90 56 58 67
REMARK Flexibility Score: inf
ROOT
ATOM      1  O   UNL     1       2.770   4.652  -1.052  1.00  0.00    -0.376 OA
ENDROOT
BRANCH   1   2
ATOM      2  C   UNL     1       4.142   4.379  -0.820  1.00  0.00     0.202 C 
BRANCH   2   3
ATOM      3  C   UNL     1       4.806   2.996  -0.963  1.00  0.00     0.261 C 
BRANCH   3   4
ATOM      4  O   UNL     1       4.378   2.172  -2.058  1.00  0.00    -0.460 OA
BRANCH   4   5
ATOM      5  C   UNL     1       3.583   1.141  -1.701  1.00  0.00     0.340 C 
ATOM      6  O   UNL     1       3.200   0.871  -0.575  1.00  0.00    -0.246 OA
BRANCH   5   7
ATOM      7  C   UNL     1       3.083   0.416  -2.881  1.00  0.00     0.084 A 
ATOM      8  C   UNL     1       4.140  -0.785  -3.542  1.00  0.00     0.055 A 
ATOM      9  C   UNL     1       3.551  -2.390  -4.124  1.00  0.00     0.028 A 
ATOM     10  C   UNL     1       1.815  -2.781  -4.323  1.00  0.00     0.018 A 
ATOM     11  C   UNL     1       1.322   0.198  -3.059  1.00  0.00     0.033 A 
ATOM     12  C   UNL     1       0.587  -1.507  -3.880  1.00  0.00     0.018 A 
ATOM     13  Br  UNL     1      -1.165  -2.322  -4.414  1.00  0.00    -0.051 Br
BRANCH   8  14
ATOM     14  N   UNL     1       4.876  -0.104  -4.623  1.00  0.00    -0.332 N 
ATOM     15  H   UNL     1       5.848  -0.255  -4.572  1.00  0.00     0.169 HD
BRANCH  14  16
ATOM     16  C   UNL     1       4.518   0.699  -5.693  1.00  0.00     0.177 C 
ATOM     17  S   UNL     1       5.808   1.341  -6.570  1.00  0.00    -0.040 S 
BRANCH  16  18
ATOM     18  N   UNL     1       3.228   1.012  -6.226  1.00  0.00    -0.299 N 
ATOM     19  C   UNL     1       1.743   0.973  -6.236  1.00  0.00     0.257 C 
ATOM     20  O   UNL     1       1.098   1.518  -7.124  1.00  0.00    -0.269 OA
ATOM     21  H   UNL     1       3.441   1.548  -7.023  1.00  0.00     0.172 HD
BRANCH  19  22
ATOM     22  C   UNL     1       1.039   0.268  -5.160  1.00  0.00     0.041 A 
ATOM     23  C   UNL     1       0.383  -1.133  -1.775  1.00  0.00     0.133 A 
ATOM     24  C   UNL     1      -0.795  -0.128  -2.667  1.00  0.00     0.048 A 
ATOM     25  C   UNL     1       1.980  -1.509  -2.567  1.00  0.00     0.060 A 
ATOM     26  C   UNL     1      -0.453   0.555  -4.297  1.00  0.00     0.018 A 
ATOM     27  C   UNL     1       2.205  -0.750  -4.421  1.00  0.00     0.033 A 
ATOM     28  Br  UNL     1       3.038  -2.638  -1.328  1.00  0.00    -0.047 Br
BRANCH  23  29
ATOM     29  O   UNL     1       0.077  -1.506  -0.501  1.00  0.00    -0.496 OA
ATOM     30  C   UNL     1       0.521  -0.488   0.397  1.00  0.00     0.278 C 
ENDBRANCH  23  29
ENDBRANCH  19  22
ENDBRANCH  16  18
ENDBRANCH  14  16
ENDBRANCH   8  14
ENDBRANCH   5   7
ENDBRANCH   4   5
ENDBRANCH   3   4
ENDBRANCH   2   3
ENDBRANCH   1   2
BRANCH   1  31
ATOM     31  C   UNL     1       1.975   3.782  -1.823  1.00  0.00     0.188 C 
BRANCH  31  32
ATOM     32  C   UNL     1       2.215   3.686  -3.345  1.00  0.00     0.188 C 
BRANCH  32  33
ATOM     33  O   UNL     1       3.429   4.139  -3.883  1.00  0.00    -0.376 OA
BRANCH  33  34
ATOM     34  C   UNL     1       3.679   5.531  -3.951  1.00  0.00     0.202 C 
BRANCH  34  35
ATOM     35  C   UNL     1       2.596   6.629  -3.845  1.00  0.00     0.261 C 
BRANCH  35  36
ATOM     36  O   UNL     1       1.371   6.323  -3.159  1.00  0.00    -0.460 OA
BRANCH  36  37
ATOM     37  C   UNL     1       0.277   6.161  -3.948  1.00  0.00     0.338 C 
ATOM     38  O   UNL     1       0.229   6.241  -5.163  1.00  0.00    -0.246 OA
BRANCH  37  39
ATOM     39  C   UNL     1      -0.859   5.664  -3.141  1.00  0.00     0.060 A 
ATOM     40  C   UNL     1      -1.313   4.350  -3.341  1.00  0.00     0.016 A 
ATOM     41  C   UNL     1      -1.523   6.507  -2.254  1.00  0.00     0.016 A 
ATOM     42  C   UNL     1      -2.441   3.881  -2.663  1.00  0.00     0.010 A 
ATOM     43  C   UNL     1      -2.671   6.045  -1.598  1.00  0.00     0.010 A 
ATOM     44  C   UNL     1      -3.154   4.740  -1.818  1.00  0.00    -0.014 A 
BRANCH  44  45
ATOM     45  C   UNL     1      -4.492   4.345  -1.303  1.00  0.00     0.031 A 
ATOM     46  C   UNL     1      -5.718   4.894  -1.986  1.00  0.00     0.074 A 
ATOM     47  C   UNL     1      -4.628   3.506  -0.260  1.00  0.00     0.049 A 
ATOM     48  N   UNL     1      -6.979   4.785  -1.652  1.00  0.00    -0.248 NA
ATOM     49  C   UNL     1      -5.486   5.674  -3.213  1.00  0.00     0.031 C 
ATOM     50  C   UNL     1      -3.531   2.854   0.453  1.00  0.00     0.029 A 
ATOM     51  N   UNL     1      -5.758   3.072   0.394  1.00  0.00    -0.354 N 
ATOM     52  C   UNL     1      -7.688   5.482  -2.623  1.00  0.00     0.074 A 
ATOM     53  C   UNL     1      -6.717   6.042  -3.538  1.00  0.00     0.031 C 
ATOM     54  C   UNL     1      -4.040   2.119   1.458  1.00  0.00     0.029 A 
ATOM     55  C   UNL     1      -5.493   2.284   1.489  1.00  0.00     0.049 A 
ATOM     56  H   UNL     1      -6.670   3.304   0.105  1.00  0.00     0.167 HD
ATOM     57  C   UNL     1      -9.028   5.633  -2.748  1.00  0.00     0.037 A 
ATOM     58  C   UNL     1      -6.327   1.787   2.426  1.00  0.00     0.037 A 
ATOM     59  C   UNL     1      -9.997   5.083  -1.836  1.00  0.00     0.049 A 
ATOM     60  C   UNL     1      -7.809   2.070   2.325  1.00  0.00     0.074 A 
ATOM     61  C   UNL     1     -11.376   5.193  -1.872  1.00  0.00     0.029 A 
ATOM     62  N   UNL     1      -9.687   4.319  -0.721  1.00  0.00    -0.354 N 
ATOM     63  N   UNL     1      -8.472   2.723   1.402  1.00  0.00    -0.248 NA
ATOM     64  C   UNL     1      -8.660   1.540   3.402  1.00  0.00     0.031 C 
ATOM     65  C   UNL     1     -11.898   4.544  -0.750  1.00  0.00     0.029 A 
ATOM     66  C   UNL     1     -10.849   3.969  -0.052  1.00  0.00     0.049 A 
ATOM     67  H   UNL     1      -8.777   4.064  -0.446  1.00  0.00     0.167 HD
ATOM     68  C   UNL     1      -9.813   2.639   1.760  1.00  0.00     0.074 A 
ATOM     69  C   UNL     1      -9.873   1.859   2.976  1.00  0.00     0.031 C 
ATOM     70  C   UNL     1     -10.900   3.163   1.140  1.00  0.00     0.037 A 
BRANCH  57  71
ATOM     71  C   UNL     1      -9.538   6.434  -3.912  1.00  0.00     0.064 A 
ATOM     72  C   UNL     1      -9.470   5.946  -5.225  1.00  0.00     0.173 A 
ATOM     73  C   UNL     1     -10.168   7.671  -3.704  1.00  0.00     0.173 A 
ATOM     74  F   UNL     1      -8.868   4.774  -5.479  1.00  0.00    -0.203 F 
ATOM     75  C   UNL     1     -10.000   6.673  -6.288  1.00  0.00     0.198 A 
ATOM     76  C   UNL     1     -10.725   8.380  -4.765  1.00  0.00     0.198 A 
ATOM     77  F   UNL     1     -10.265   8.181  -2.467  1.00  0.00    -0.203 F 
ATOM     78  F   UNL     1      -9.892   6.203  -7.538  1.00  0.00    -0.200 F 
ATOM     79  C   UNL     1     -10.637   7.883  -6.056  1.00  0.00     0.200 A 
ATOM     80  F   UNL     1     -11.356   9.540  -4.536  1.00  0.00    -0.200 F 
ATOM     81  F   UNL     1     -11.165   8.571  -7.077  1.00  0.00    -0.200 F 
ENDBRANCH  57  71
BRANCH  58  82
ATOM     82  C   UNL     1      -5.800   0.997   3.575  1.00  0.00     0.064 A 
ATOM     83  C   UNL     1      -6.180  -0.340   3.771  1.00  0.00     0.173 A 
ATOM     84  C   UNL     1      -4.981   1.585   4.551  1.00  0.00     0.173 A 
ATOM     85  F   UNL     1      -6.985  -0.943   2.884  1.00  0.00    -0.203 F 
ATOM     86  C   UNL     1      -5.804  -1.038   4.918  1.00  0.00     0.198 A 
ATOM     87  C   UNL     1      -4.571   0.873   5.677  1.00  0.00     0.198 A 
ATOM     88  F   UNL     1      -4.588   2.861   4.420  1.00  0.00    -0.203 F 
ATOM     89  F   UNL     1      -6.258  -2.283   5.120  1.00  0.00    -0.200 F 
ATOM     90  C   UNL     1      -4.998  -0.432   5.869  1.00  0.00     0.200 A 
ATOM     91  F   UNL     1      -3.782   1.459   6.587  1.00  0.00    -0.200 F 
ATOM     92  F   UNL     1      -4.651  -1.097   6.979  1.00  0.00    -0.200 F 
ENDBRANCH  58  82
BRANCH  70  93
ATOM     93  C   UNL     1     -12.254   2.850   1.716  1.00  0.00     0.064 A 
ATOM     94  C   UNL     1     -12.679   3.372   2.947  1.00  0.00     0.173 A 
ATOM     95  C   UNL     1     -13.155   2.043   1.003  1.00  0.00     0.173 A 
ATOM     96  F   UNL     1     -11.855   4.139   3.676  1.00  0.00    -0.203 F 
ATOM     97  C   UNL     1     -13.940   3.069   3.457  1.00  0.00     0.198 A 
ATOM     98  C   UNL     1     -14.429   1.775   1.497  1.00  0.00     0.198 A 
ATOM     99  F   UNL     1     -12.807   1.526  -0.185  1.00  0.00    -0.203 F 
ATOM    100  F   UNL     1     -14.300   3.531   4.662  1.00  0.00    -0.200 F 
ATOM    101  C   UNL     1     -14.816   2.279   2.729  1.00  0.00     0.200 A 
ATOM    102  F   UNL     1     -15.281   1.028   0.781  1.00  0.00    -0.200 F 
ATOM    103  F   UNL     1     -16.032   1.998   3.217  1.00  0.00    -0.200 F 
ENDBRANCH  70  93
ENDBRANCH  44  45
ENDBRANCH  37  39
ENDBRANCH  36  37
ENDBRANCH  35  36
ENDBRANCH  34  35
ENDBRANCH  33  34
ENDBRANCH  32  33
ENDBRANCH  31  32
ENDBRANCH   1  31
TORSDOF 22
