REMARK SMILES CCC1(CC)C[NH+]([C@H](CCS(C)(=O)=O)C(=O)OCCOCCOCCOC(=O)c2ccc(-c3c4nc(c(-c5c(F)c(F)c(F)c(F)c5F)c5ccc([nH]5)c(-c5c(F)c(F)c(F)c(F)c5F)c5nc(c(-c6c(F)c(F)c(F)c(F)c6F)c6ccc3[nH]6)C=C5)C=C4)cc2)C1
REMARK SMILES IDX 21 1 20 2 19 3 18 4 17 5 15 6 16 7 8 8 7 9 3 10 6 11 92 12
REMARK SMILES IDX 2 14 1 15 4 16 5 17 9 18 10 19 11 20 12 21 13 22 14 23 22 24
REMARK SMILES IDX 23 25 24 26 25 27 26 28 27 29 28 30 29 31 30 32 91 33 31 34
REMARK SMILES IDX 90 35 32 36 33 37 34 38 84 39 35 40 89 41 83 42 85 43 36 44
REMARK SMILES IDX 88 45 82 46 81 47 37 49 69 50 49 51 68 52 50 53 53 54 67 55
REMARK SMILES IDX 86 56 51 57 52 58 66 60 87 61 54 62 38 63 39 64 47 65 40 66
REMARK SMILES IDX 41 67 45 68 48 69 42 70 43 71 46 72 44 73 70 74 71 75 79 76
REMARK SMILES IDX 72 77 73 78 77 79 80 80 74 81 75 82 78 83 76 84 55 85 56 86
REMARK SMILES IDX 64 87 57 88 58 89 62 90 65 91 59 92 60 93 63 94 61 95
REMARK H PARENT 7 13 85 48 53 59
REMARK Flexibility Score: inf
ROOT
ATOM      1  C   UNL     1       0.546   2.576   6.956  1.00  0.00     0.188 C 
ENDROOT
BRANCH   1   2
ATOM      2  O   UNL     1       1.498   3.612   7.142  1.00  0.00    -0.376 OA
BRANCH   2   3
ATOM      3  C   UNL     1       2.303   4.025   6.049  1.00  0.00     0.202 C 
BRANCH   3   4
ATOM      4  C   UNL     1       3.204   2.992   5.350  1.00  0.00     0.261 C 
BRANCH   4   5
ATOM      5  O   UNL     1       2.588   1.793   4.827  1.00  0.00    -0.459 OA
BRANCH   5   6
ATOM      6  C   UNL     1       2.820   0.634   5.521  1.00  0.00     0.365 C 
ATOM      7  O   UNL     1       3.371   0.600   6.617  1.00  0.00    -0.245 OA
BRANCH   6   8
ATOM      8  C   UNL     1       2.381  -0.659   4.745  1.00  0.00     0.296 C 
BRANCH   8   9
ATOM      9  N   UNL     1       3.521  -1.018   3.902  1.00  0.00    -0.322 N 
ATOM     10  C   UNL     1       4.074  -1.558   1.939  1.00  0.00     0.068 C 
ATOM     11  C   UNL     1       3.744  -0.225   2.702  1.00  0.00     0.275 C 
ATOM     12  C   UNL     1       3.389  -2.253   3.149  1.00  0.00     0.275 C 
ATOM     13  H   UNL     1       4.217  -0.960   4.646  1.00  0.00     0.348 HD
BRANCH  10  14
ATOM     14  C   UNL     1       3.303  -1.615   0.609  1.00  0.00     0.015 C 
ATOM     15  C   UNL     1       3.842  -0.616  -0.406  1.00  0.00     0.005 C 
ENDBRANCH  10  14
BRANCH  10  16
ATOM     16  C   UNL     1       5.537  -2.029   1.862  1.00  0.00     0.015 C 
ATOM     17  C   UNL     1       5.631  -3.507   1.481  1.00  0.00     0.005 C 
ENDBRANCH  10  16
ENDBRANCH   8   9
BRANCH   8  18
ATOM     18  C   UNL     1       0.920  -0.572   4.209  1.00  0.00     0.094 C 
BRANCH  18  19
ATOM     19  C   UNL     1       0.228  -1.668   3.394  1.00  0.00     0.143 C 
BRANCH  19  20
ATOM     20  S   UNL     1       0.198  -3.325   4.074  1.00  0.00     0.147 S 
ATOM     21  C   UNL     1      -1.477  -3.574   4.594  1.00  0.00     0.158 C 
ATOM     22  O   UNL     1       0.433  -4.245   2.976  1.00  0.00    -0.229 OA
ATOM     23  O   UNL     1       1.019  -3.371   5.265  1.00  0.00    -0.229 OA
ENDBRANCH  19  20
ENDBRANCH  18  19
ENDBRANCH   8  18
ENDBRANCH   6   8
ENDBRANCH   5   6
ENDBRANCH   4   5
ENDBRANCH   3   4
ENDBRANCH   2   3
ENDBRANCH   1   2
BRANCH   1  24
ATOM     24  C   UNL     1      -0.158   2.437   5.598  1.00  0.00     0.188 C 
BRANCH  24  25
ATOM     25  O   UNL     1      -0.084   3.571   4.764  1.00  0.00    -0.376 OA
BRANCH  25  26
ATOM     26  C   UNL     1      -1.304   4.217   4.461  1.00  0.00     0.202 C 
BRANCH  26  27
ATOM     27  C   UNL     1      -2.016   4.859   5.659  1.00  0.00     0.261 C 
BRANCH  27  28
ATOM     28  O   UNL     1      -2.254   3.998   6.791  1.00  0.00    -0.460 OA
BRANCH  28  29
ATOM     29  C   UNL     1      -3.138   2.989   6.636  1.00  0.00     0.338 C 
ATOM     30  O   UNL     1      -3.789   2.735   5.634  1.00  0.00    -0.246 OA
BRANCH  29  31
ATOM     31  C   UNL     1      -3.021   2.076   7.800  1.00  0.00     0.060 A 
ATOM     32  C   UNL     1      -2.765   0.716   7.568  1.00  0.00     0.016 A 
ATOM     33  C   UNL     1      -3.168   2.545   9.108  1.00  0.00     0.016 A 
ATOM     34  C   UNL     1      -2.719  -0.185   8.635  1.00  0.00     0.010 A 
ATOM     35  C   UNL     1      -3.139   1.637  10.176  1.00  0.00     0.010 A 
ATOM     36  C   UNL     1      -2.965   0.261   9.941  1.00  0.00    -0.014 A 
BRANCH  36  37
ATOM     37  C   UNL     1      -3.281  -0.736  11.001  1.00  0.00     0.031 A 
ATOM     38  C   UNL     1      -4.732  -0.998  11.319  1.00  0.00     0.074 A 
ATOM     39  C   UNL     1      -2.326  -1.442  11.631  1.00  0.00     0.049 A 
ATOM     40  N   UNL     1      -5.266  -1.829  12.179  1.00  0.00    -0.248 NA
ATOM     41  C   UNL     1      -5.717  -0.213  10.557  1.00  0.00     0.031 C 
ATOM     42  C   UNL     1      -0.889  -1.321  11.399  1.00  0.00     0.029 A 
ATOM     43  N   UNL     1      -2.430  -2.410  12.602  1.00  0.00    -0.354 N 
ATOM     44  C   UNL     1      -6.640  -1.663  12.063  1.00  0.00     0.074 A 
ATOM     45  C   UNL     1      -6.860  -0.624  11.082  1.00  0.00     0.031 C 
ATOM     46  C   UNL     1      -0.244  -2.181  12.208  1.00  0.00     0.029 A 
ATOM     47  C   UNL     1      -1.219  -2.895  13.033  1.00  0.00     0.049 A 
ATOM     48  H   UNL     1      -3.293  -2.727  12.956  1.00  0.00     0.167 HD
ATOM     49  C   UNL     1      -7.635  -2.325  12.702  1.00  0.00     0.037 A 
ATOM     50  C   UNL     1      -0.933  -3.801  13.989  1.00  0.00     0.037 A 
ATOM     51  C   UNL     1      -7.425  -3.356  13.684  1.00  0.00     0.049 A 
ATOM     52  C   UNL     1      -2.058  -4.478  14.736  1.00  0.00     0.074 A 
ATOM     53  C   UNL     1      -8.369  -4.088  14.383  1.00  0.00     0.029 A 
ATOM     54  N   UNL     1      -6.182  -3.794  14.116  1.00  0.00    -0.354 N 
ATOM     55  N   UNL     1      -3.354  -4.336  14.599  1.00  0.00    -0.248 NA
ATOM     56  C   UNL     1      -1.673  -5.456  15.765  1.00  0.00     0.031 C 
ATOM     57  C   UNL     1      -7.699  -4.927  15.279  1.00  0.00     0.029 A 
ATOM     58  C   UNL     1      -6.336  -4.773  15.085  1.00  0.00     0.049 A 
ATOM     59  H   UNL     1      -5.318  -3.460  13.782  1.00  0.00     0.167 HD
ATOM     60  C   UNL     1      -3.936  -5.233  15.488  1.00  0.00     0.074 A 
ATOM     61  C   UNL     1      -2.850  -5.925  16.150  1.00  0.00     0.031 C 
ATOM     62  C   UNL     1      -5.250  -5.467  15.731  1.00  0.00     0.037 A 
BRANCH  49  63
ATOM     63  C   UNL     1      -9.047  -1.929  12.376  1.00  0.00     0.064 A 
ATOM     64  C   UNL     1      -9.623  -2.204  11.125  1.00  0.00     0.173 A 
ATOM     65  C   UNL     1      -9.843  -1.284  13.335  1.00  0.00     0.173 A 
ATOM     66  F   UNL     1      -8.901  -2.802  10.165  1.00  0.00    -0.203 F 
ATOM     67  C   UNL     1     -10.930  -1.819  10.837  1.00  0.00     0.198 A 
ATOM     68  C   UNL     1     -11.161  -0.933  13.055  1.00  0.00     0.198 A 
ATOM     69  F   UNL     1      -9.345  -0.999  14.547  1.00  0.00    -0.203 F 
ATOM     70  F   UNL     1     -11.438  -2.039   9.617  1.00  0.00    -0.200 F 
ATOM     71  C   UNL     1     -11.700  -1.192  11.805  1.00  0.00     0.200 A 
ATOM     72  F   UNL     1     -11.908  -0.339  13.996  1.00  0.00    -0.200 F 
ATOM     73  F   UNL     1     -12.960  -0.828  11.528  1.00  0.00    -0.200 F 
ENDBRANCH  49  63
BRANCH  50  74
ATOM     74  C   UNL     1       0.483  -4.136  14.304  1.00  0.00     0.064 A 
ATOM     75  C   UNL     1       1.003  -5.414  14.048  1.00  0.00     0.173 A 
ATOM     76  C   UNL     1       1.332  -3.201  14.914  1.00  0.00     0.173 A 
ATOM     77  F   UNL     1       0.223  -6.356  13.498  1.00  0.00    -0.203 F 
ATOM     78  C   UNL     1       2.306  -5.750  14.414  1.00  0.00     0.198 A 
ATOM     79  C   UNL     1       2.645  -3.527  15.249  1.00  0.00     0.198 A 
ATOM     80  F   UNL     1       0.883  -1.968  15.191  1.00  0.00    -0.203 F 
ATOM     81  F   UNL     1       2.753  -6.998  14.218  1.00  0.00    -0.200 F 
ATOM     82  C   UNL     1       3.127  -4.805  15.009  1.00  0.00     0.200 A 
ATOM     83  F   UNL     1       3.437  -2.609  15.819  1.00  0.00    -0.200 F 
ATOM     84  F   UNL     1       4.377  -5.130  15.366  1.00  0.00    -0.200 F 
ENDBRANCH  50  74
BRANCH  62  85
ATOM     85  C   UNL     1      -5.592  -6.563  16.706  1.00  0.00     0.064 A 
ATOM     86  C   UNL     1      -5.313  -6.458  18.077  1.00  0.00     0.173 A 
ATOM     87  C   UNL     1      -6.222  -7.735  16.257  1.00  0.00     0.173 A 
ATOM     88  F   UNL     1      -4.707  -5.364  18.561  1.00  0.00    -0.203 F 
ATOM     89  C   UNL     1      -5.604  -7.504  18.951  1.00  0.00     0.198 A 
ATOM     90  C   UNL     1      -6.548  -8.762  17.139  1.00  0.00     0.198 A 
ATOM     91  F   UNL     1      -6.527  -7.886  14.959  1.00  0.00    -0.203 F 
ATOM     92  F   UNL     1      -5.261  -7.409  20.243  1.00  0.00    -0.200 F 
ATOM     93  C   UNL     1      -6.225  -8.652  18.483  1.00  0.00     0.200 A 
ATOM     94  F   UNL     1      -7.167  -9.861  16.687  1.00  0.00    -0.200 F 
ATOM     95  F   UNL     1      -6.503  -9.657  19.324  1.00  0.00    -0.200 F 
ENDBRANCH  62  85
ENDBRANCH  36  37
ENDBRANCH  29  31
ENDBRANCH  28  29
ENDBRANCH  27  28
ENDBRANCH  26  27
ENDBRANCH  25  26
ENDBRANCH  24  25
ENDBRANCH   1  24
TORSDOF 23
