REMARK SMILES Cc1cc(CS(=O)(=O)N[C@@H]2C=C[C@H](C(=O)OCCOCCOCCOC(=O)c3ccc(-c4c5nc(c(-c6c(F)c(F)c(F)c(F)c6F)c6ccc([nH]6)c(-c6c(F)c(F)c(F)c(F)c6F)c6nc(c(-c7c(F)c(F)c(F)c(F)c7F)c7ccc4[nH]7)C=C6)C=C5)cc3)C2)no1
REMARK SMILES IDX 20 1 19 2 18 3 17 4 16 5 14 6 15 7 13 8 10 9 11 10 91 11
REMARK SMILES IDX 12 12 9 13 6 15 7 16 8 17 5 18 4 19 1 20 2 21 3 22 93 23
REMARK SMILES IDX 92 24 21 25 22 26 23 27 24 28 25 29 26 30 27 31 28 32 29 33
REMARK SMILES IDX 90 34 30 35 89 36 31 37 32 38 33 39 83 40 34 41 88 42 82 43
REMARK SMILES IDX 84 44 35 45 87 46 81 47 80 48 36 50 68 51 48 52 67 53 49 54
REMARK SMILES IDX 52 55 66 56 85 57 50 58 51 59 65 61 86 62 53 63 37 64 38 65
REMARK SMILES IDX 46 66 39 67 40 68 44 69 47 70 41 71 42 72 45 73 43 74 69 75
REMARK SMILES IDX 70 76 78 77 71 78 72 79 76 80 79 81 73 82 74 83 77 84 75 85
REMARK SMILES IDX 54 86 55 87 63 88 56 89 57 90 61 91 64 92 58 93 59 94 62 95
REMARK SMILES IDX 60 96
REMARK H PARENT 9 14 84 49 52 60
REMARK Flexibility Score: inf
ROOT
ATOM      1  C   UNL     1       3.193   0.084   5.929  1.00  0.00     0.188 C 
ENDROOT
BRANCH   1   2
ATOM      2  O   UNL     1       4.498   0.189   5.405  1.00  0.00    -0.376 OA
BRANCH   2   3
ATOM      3  C   UNL     1       4.734   0.639   4.078  1.00  0.00     0.202 C 
BRANCH   3   4
ATOM      4  C   UNL     1       3.667   0.758   2.974  1.00  0.00     0.261 C 
BRANCH   4   5
ATOM      5  O   UNL     1       2.325   0.812   3.438  1.00  0.00    -0.463 OA
BRANCH   5   6
ATOM      6  C   UNL     1       1.524  -0.247   3.130  1.00  0.00     0.312 C 
ATOM      7  O   UNL     1       1.796  -1.144   2.345  1.00  0.00    -0.252 OA
BRANCH   6   8
ATOM      8  C   UNL     1       0.282  -0.204   4.009  1.00  0.00     0.123 C 
ATOM      9  C   UNL     1      -1.757  -0.688   2.812  1.00  0.00     0.093 C 
ATOM     10  C   UNL     1      -1.585   0.778   3.047  1.00  0.00    -0.011 C 
ATOM     11  C   UNL     1      -0.706  -1.322   3.706  1.00  0.00     0.043 C 
ATOM     12  C   UNL     1      -0.481   1.050   3.740  1.00  0.00    -0.015 C 
BRANCH   9  13
ATOM     13  N   UNL     1      -1.500  -0.900   1.397  1.00  0.00    -0.208 NA
ATOM     14  H   UNL     1      -1.444   0.018   0.956  1.00  0.00     0.141 HD
BRANCH  13  15
ATOM     15  S   UNL     1      -2.619  -1.804   0.533  1.00  0.00     0.218 S 
ATOM     16  O   UNL     1      -2.885  -2.998   1.299  1.00  0.00    -0.212 OA
ATOM     17  O   UNL     1      -2.044  -1.911  -0.795  1.00  0.00    -0.212 OA
BRANCH  15  18
ATOM     18  C   UNL     1      -4.085  -0.737   0.410  1.00  0.00     0.213 C 
BRANCH  18  19
ATOM     19  C   UNL     1      -4.697  -0.367   1.714  1.00  0.00     0.100 A 
ATOM     20  C   UNL     1      -5.210   1.471   4.843  1.00  0.00     0.091 C 
ATOM     21  C   UNL     1      -5.154   0.665   3.609  1.00  0.00     0.133 A 
ATOM     22  C   UNL     1      -4.791   0.920   2.308  1.00  0.00     0.073 A 
ATOM     23  O   UNL     1      -5.445  -0.656   3.735  1.00  0.00    -0.361 OA
ATOM     24  N   UNL     1      -5.202  -1.298   2.534  1.00  0.00    -0.084 NA
ENDBRANCH  18  19
ENDBRANCH  15  18
ENDBRANCH  13  15
ENDBRANCH   9  13
ENDBRANCH   6   8
ENDBRANCH   5   6
ENDBRANCH   4   5
ENDBRANCH   3   4
ENDBRANCH   2   3
ENDBRANCH   1   2
BRANCH   1  25
ATOM     25  C   UNL     1       2.422   1.380   6.277  1.00  0.00     0.188 C 
BRANCH  25  26
ATOM     26  O   UNL     1       2.934   2.616   5.846  1.00  0.00    -0.376 OA
BRANCH  26  27
ATOM     27  C   UNL     1       4.139   3.102   6.409  1.00  0.00     0.202 C 
BRANCH  27  28
ATOM     28  C   UNL     1       4.711   2.668   7.777  1.00  0.00     0.261 C 
BRANCH  28  29
ATOM     29  O   UNL     1       4.399   1.354   8.263  1.00  0.00    -0.460 OA
BRANCH  29  30
ATOM     30  C   UNL     1       3.534   1.297   9.306  1.00  0.00     0.338 C 
ATOM     31  O   UNL     1       2.981   2.237   9.859  1.00  0.00    -0.246 OA
BRANCH  30  32
ATOM     32  C   UNL     1       3.180  -0.109   9.585  1.00  0.00     0.060 A 
ATOM     33  C   UNL     1       1.864  -0.539   9.353  1.00  0.00     0.016 A 
ATOM     34  C   UNL     1       4.121  -0.984  10.126  1.00  0.00     0.016 A 
ATOM     35  C   UNL     1       1.481  -1.841   9.684  1.00  0.00     0.010 A 
ATOM     36  C   UNL     1       3.729  -2.280  10.479  1.00  0.00     0.010 A 
ATOM     37  C   UNL     1       2.401  -2.708  10.287  1.00  0.00    -0.014 A 
BRANCH  37  38
ATOM     38  C   UNL     1       1.944  -3.993  10.877  1.00  0.00     0.031 A 
ATOM     39  C   UNL     1       1.711  -4.064  12.362  1.00  0.00     0.074 A 
ATOM     40  C   UNL     1       1.742  -5.084  10.116  1.00  0.00     0.049 A 
ATOM     41  N   UNL     1       1.404  -5.092  13.112  1.00  0.00    -0.248 NA
ATOM     42  C   UNL     1       1.849  -2.799  13.101  1.00  0.00     0.031 C 
ATOM     43  C   UNL     1       1.887  -5.139   8.664  1.00  0.00     0.029 A 
ATOM     44  N   UNL     1       1.387  -6.363  10.469  1.00  0.00    -0.354 N 
ATOM     45  C   UNL     1       1.327  -4.602  14.409  1.00  0.00     0.074 A 
ATOM     46  C   UNL     1       1.646  -3.192  14.350  1.00  0.00     0.031 C 
ATOM     47  C   UNL     1       1.639  -6.395   8.250  1.00  0.00     0.029 A 
ATOM     48  C   UNL     1       1.359  -7.239   9.411  1.00  0.00     0.049 A 
ATOM     49  H   UNL     1       1.173  -6.627  11.393  1.00  0.00     0.167 HD
ATOM     50  C   UNL     1       1.012  -5.267  15.547  1.00  0.00     0.037 A 
ATOM     51  C   UNL     1       1.162  -8.572   9.389  1.00  0.00     0.037 A 
ATOM     52  C   UNL     1       0.697  -6.671  15.606  1.00  0.00     0.049 A 
ATOM     53  C   UNL     1       0.897  -9.306  10.681  1.00  0.00     0.074 A 
ATOM     54  C   UNL     1       0.345  -7.430  16.708  1.00  0.00     0.029 A 
ATOM     55  N   UNL     1       0.708  -7.530  14.517  1.00  0.00    -0.354 N 
ATOM     56  N   UNL     1       0.800  -8.835  11.901  1.00  0.00    -0.248 NA
ATOM     57  C   UNL     1       0.712 -10.763  10.591  1.00  0.00     0.031 C 
ATOM     58  C   UNL     1       0.208  -8.760  16.299  1.00  0.00     0.029 A 
ATOM     59  C   UNL     1       0.401  -8.818  14.928  1.00  0.00     0.049 A 
ATOM     60  H   UNL     1       0.905  -7.264  13.590  1.00  0.00     0.167 HD
ATOM     61  C   UNL     1       0.507  -9.924  12.713  1.00  0.00     0.074 A 
ATOM     62  C   UNL     1       0.431 -11.081  11.847  1.00  0.00     0.031 C 
ATOM     63  C   UNL     1       0.316  -9.963  14.056  1.00  0.00     0.037 A 
BRANCH  50  64
ATOM     64  C   UNL     1       1.027  -4.490  16.833  1.00  0.00     0.064 A 
ATOM     65  C   UNL     1       0.067  -3.506  17.116  1.00  0.00     0.173 A 
ATOM     66  C   UNL     1       1.996  -4.759  17.812  1.00  0.00     0.173 A 
ATOM     67  F   UNL     1      -0.874  -3.200  16.210  1.00  0.00    -0.203 F 
ATOM     68  C   UNL     1       0.096  -2.801  18.317  1.00  0.00     0.198 A 
ATOM     69  C   UNL     1       2.001  -4.077  19.025  1.00  0.00     0.198 A 
ATOM     70  F   UNL     1       2.935  -5.694  17.596  1.00  0.00    -0.203 F 
ATOM     71  F   UNL     1      -0.799  -1.829  18.542  1.00  0.00    -0.200 F 
ATOM     72  C   UNL     1       1.057  -3.092  19.273  1.00  0.00     0.200 A 
ATOM     73  F   UNL     1       2.921  -4.372  19.954  1.00  0.00    -0.200 F 
ATOM     74  F   UNL     1       1.077  -2.419  20.432  1.00  0.00    -0.200 F 
ENDBRANCH  50  64
BRANCH  51  75
ATOM     75  C   UNL     1       1.224  -9.315   8.101  1.00  0.00     0.064 A 
ATOM     76  C   UNL     1       0.086  -9.936   7.567  1.00  0.00     0.173 A 
ATOM     77  C   UNL     1       2.429  -9.451   7.395  1.00  0.00     0.173 A 
ATOM     78  F   UNL     1      -1.084  -9.864   8.220  1.00  0.00    -0.203 F 
ATOM     79  C   UNL     1       0.155 -10.682   6.392  1.00  0.00     0.198 A 
ATOM     80  C   UNL     1       2.490 -10.169   6.202  1.00  0.00     0.198 A 
ATOM     81  F   UNL     1       3.550  -8.885   7.865  1.00  0.00    -0.203 F 
ATOM     82  F   UNL     1      -0.936 -11.315   5.938  1.00  0.00    -0.200 F 
ATOM     83  C   UNL     1       1.355 -10.792   5.707  1.00  0.00     0.200 A 
ATOM     84  F   UNL     1       3.651 -10.265   5.540  1.00  0.00    -0.200 F 
ATOM     85  F   UNL     1       1.422 -11.511   4.578  1.00  0.00    -0.200 F 
ENDBRANCH  51  75
BRANCH  63  86
ATOM     86  C   UNL     1      -0.046 -11.286  14.672  1.00  0.00     0.064 A 
ATOM     87  C   UNL     1       0.874 -12.341  14.762  1.00  0.00     0.173 A 
ATOM     88  C   UNL     1      -1.323 -11.485  15.221  1.00  0.00     0.173 A 
ATOM     89  F   UNL     1       2.105 -12.210  14.244  1.00  0.00    -0.203 F 
ATOM     90  C   UNL     1       0.520 -13.553  15.351  1.00  0.00     0.198 A 
ATOM     91  C   UNL     1      -1.662 -12.684  15.841  1.00  0.00     0.198 A 
ATOM     92  F   UNL     1      -2.240 -10.507  15.173  1.00  0.00    -0.203 F 
ATOM     93  F   UNL     1       1.399 -14.565  15.378  1.00  0.00    -0.200 F 
ATOM     94  C   UNL     1      -0.743 -13.721  15.898  1.00  0.00     0.200 A 
ATOM     95  F   UNL     1      -2.877 -12.836  16.386  1.00  0.00    -0.200 F 
ATOM     96  F   UNL     1      -1.078 -14.884  16.473  1.00  0.00    -0.200 F 
ENDBRANCH  63  86
ENDBRANCH  37  38
ENDBRANCH  30  32
ENDBRANCH  29  30
ENDBRANCH  28  29
ENDBRANCH  27  28
ENDBRANCH  26  27
ENDBRANCH  25  26
ENDBRANCH   1  25
TORSDOF 21
