REMARK SMILES O=C(OCCOCCOCCOC(=O)[C@H]1[C@H]2CC[C@H](C2)[C@@H]1C(=O)N[C@H]1CCCc2ccccc21)c1ccc(-c2c3nc(c(-c4c(F)c(F)c(F)c(F)c4F)c4ccc([nH]4)c(-c4c(F)c(F)c(F)c(F)c4F)c4nc(c(-c5c(F)c(F)c(F)c(F)c5F)c5ccc2[nH]5)C=C4)C=C3)cc1
REMARK SMILES IDX 7 1 6 2 5 3 4 4 3 5 2 6 1 7 35 8 36 9 97 10 37 11 96 12
REMARK SMILES IDX 38 13 39 14 40 15 90 16 41 17 95 18 89 19 91 20 42 21 94 22
REMARK SMILES IDX 88 23 87 24 43 26 75 27 55 28 74 29 56 30 59 31 73 32 92 33
REMARK SMILES IDX 57 34 58 35 72 37 93 38 60 39 44 40 45 41 53 42 46 43 47 44
REMARK SMILES IDX 51 45 54 46 48 47 49 48 52 49 50 50 76 51 77 52 85 53 78 54
REMARK SMILES IDX 79 55 83 56 86 57 80 58 81 59 84 60 82 61 61 62 62 63 70 64
REMARK SMILES IDX 63 65 64 66 68 67 71 68 65 69 66 70 69 71 67 72 8 73 9 74
REMARK SMILES IDX 10 75 11 76 12 77 13 78 14 79 15 80 16 81 21 82 17 83 20 84
REMARK SMILES IDX 19 85 18 86 22 87 23 88 24 89 25 91 26 92 34 93 27 94 29 95
REMARK SMILES IDX 33 96 28 97 30 98 32 99 31 100
REMARK H PARENT 91 25 59 36 24 90
REMARK Flexibility Score: inf
ROOT
ATOM      1  C   UNL     1       3.098  -3.296   2.806  1.00  0.00     0.188 C 
ENDROOT
BRANCH   1   2
ATOM      2  O   UNL     1       4.047  -2.657   3.667  1.00  0.00    -0.376 OA
BRANCH   2   3
ATOM      3  C   UNL     1       4.650  -3.537   4.617  1.00  0.00     0.202 C 
BRANCH   3   4
ATOM      4  C   UNL     1       3.706  -4.305   5.567  1.00  0.00     0.261 C 
BRANCH   4   5
ATOM      5  O   UNL     1       2.294  -4.257   5.271  1.00  0.00    -0.460 OA
BRANCH   5   6
ATOM      6  C   UNL     1       1.353  -3.295   5.406  1.00  0.00     0.338 C 
ATOM      7  O   UNL     1       0.232  -3.517   4.948  1.00  0.00    -0.246 OA
BRANCH   6   8
ATOM      8  C   UNL     1       1.591  -1.948   6.010  1.00  0.00     0.060 A 
ATOM      9  C   UNL     1       2.842  -1.412   6.304  1.00  0.00     0.016 A 
ATOM     10  C   UNL     1       0.472  -1.111   6.193  1.00  0.00     0.016 A 
ATOM     11  C   UNL     1       2.995  -0.109   6.773  1.00  0.00     0.010 A 
ATOM     12  C   UNL     1       0.615   0.206   6.665  1.00  0.00     0.010 A 
ATOM     13  C   UNL     1       1.885   0.707   6.983  1.00  0.00    -0.014 A 
BRANCH  13  14
ATOM     14  C   UNL     1       2.075   1.954   7.773  1.00  0.00     0.031 A 
ATOM     15  C   UNL     1       1.812   1.881   9.212  1.00  0.00     0.074 A 
ATOM     16  C   UNL     1       2.684   3.070   7.333  1.00  0.00     0.049 A 
ATOM     17  N   UNL     1       2.067   2.800  10.093  1.00  0.00    -0.248 NA
ATOM     18  C   UNL     1       1.280   0.620   9.739  1.00  0.00     0.031 C 
ATOM     19  C   UNL     1       3.262   3.094   6.034  1.00  0.00     0.029 A 
ATOM     20  N   UNL     1       3.024   4.309   7.845  1.00  0.00    -0.354 N 
ATOM     21  C   UNL     1       1.745   2.229  11.291  1.00  0.00     0.074 A 
ATOM     22  C   UNL     1       1.213   0.906  11.027  1.00  0.00     0.031 C 
ATOM     23  C   UNL     1       3.790   4.295   5.807  1.00  0.00     0.029 A 
ATOM     24  C   UNL     1       3.662   5.129   6.936  1.00  0.00     0.049 A 
ATOM     25  H   UNL     1       2.829   4.581   8.770  1.00  0.00     0.167 HD
ATOM     26  C   UNL     1       1.922   2.785  12.501  1.00  0.00     0.037 A 
ATOM     27  C   UNL     1       4.224   6.354   6.900  1.00  0.00     0.037 A 
ATOM     28  C   UNL     1       2.425   4.115  12.713  1.00  0.00     0.049 A 
ATOM     29  C   UNL     1       4.281   6.989   8.219  1.00  0.00     0.074 A 
ATOM     30  C   UNL     1       2.499   4.806  13.904  1.00  0.00     0.029 A 
ATOM     31  N   UNL     1       2.929   4.963  11.727  1.00  0.00    -0.354 N 
ATOM     32  N   UNL     1       3.909   6.448   9.345  1.00  0.00    -0.248 NA
ATOM     33  C   UNL     1       4.834   8.335   8.305  1.00  0.00     0.031 C 
ATOM     34  C   UNL     1       2.964   6.093  13.633  1.00  0.00     0.029 A 
ATOM     35  C   UNL     1       3.274   6.187  12.287  1.00  0.00     0.049 A 
ATOM     36  H   UNL     1       3.026   4.729  10.776  1.00  0.00     0.167 HD
ATOM     37  C   UNL     1       4.166   7.390  10.295  1.00  0.00     0.074 A 
ATOM     38  C   UNL     1       4.798   8.513   9.617  1.00  0.00     0.031 C 
ATOM     39  C   UNL     1       3.865   7.313  11.605  1.00  0.00     0.037 A 
BRANCH  26  40
ATOM     40  C   UNL     1       1.438   1.961  13.636  1.00  0.00     0.064 A 
ATOM     41  C   UNL     1       2.072   0.766  14.009  1.00  0.00     0.173 A 
ATOM     42  C   UNL     1       0.251   2.322  14.281  1.00  0.00     0.173 A 
ATOM     43  F   UNL     1       3.167   0.346  13.354  1.00  0.00    -0.203 F 
ATOM     44  C   UNL     1       1.514  -0.052  14.982  1.00  0.00     0.198 A 
ATOM     45  C   UNL     1      -0.276   1.527  15.286  1.00  0.00     0.198 A 
ATOM     46  F   UNL     1      -0.412   3.428  13.909  1.00  0.00    -0.203 F 
ATOM     47  F   UNL     1       2.076  -1.236  15.260  1.00  0.00    -0.200 F 
ATOM     48  C   UNL     1       0.350   0.337  15.629  1.00  0.00     0.200 A 
ATOM     49  F   UNL     1      -1.406   1.898  15.903  1.00  0.00    -0.200 F 
ATOM     50  F   UNL     1      -0.186  -0.451  16.571  1.00  0.00    -0.200 F 
ENDBRANCH  26  40
BRANCH  27  51
ATOM     51  C   UNL     1       4.780   7.019   5.662  1.00  0.00     0.064 A 
ATOM     52  C   UNL     1       6.121   7.427   5.544  1.00  0.00     0.173 A 
ATOM     53  C   UNL     1       3.944   7.307   4.567  1.00  0.00     0.173 A 
ATOM     54  F   UNL     1       6.989   7.176   6.535  1.00  0.00    -0.203 F 
ATOM     55  C   UNL     1       6.578   8.143   4.428  1.00  0.00     0.198 A 
ATOM     56  C   UNL     1       4.413   7.974   3.431  1.00  0.00     0.198 A 
ATOM     57  F   UNL     1       2.660   6.921   4.587  1.00  0.00    -0.203 F 
ATOM     58  F   UNL     1       7.840   8.595   4.393  1.00  0.00    -0.200 F 
ATOM     59  C   UNL     1       5.723   8.416   3.373  1.00  0.00     0.200 A 
ATOM     60  F   UNL     1       3.588   8.195   2.397  1.00  0.00    -0.200 F 
ATOM     61  F   UNL     1       6.155   9.113   2.312  1.00  0.00    -0.200 F 
ENDBRANCH  27  51
BRANCH  39  62
ATOM     62  C   UNL     1       4.242   8.516  12.388  1.00  0.00     0.064 A 
ATOM     63  C   UNL     1       3.633   9.759  12.164  1.00  0.00     0.173 A 
ATOM     64  C   UNL     1       5.271   8.427  13.330  1.00  0.00     0.173 A 
ATOM     65  F   UNL     1       2.674   9.889  11.233  1.00  0.00    -0.203 F 
ATOM     66  C   UNL     1       4.084  10.890  12.826  1.00  0.00     0.198 A 
ATOM     67  C   UNL     1       5.675   9.548  14.036  1.00  0.00     0.198 A 
ATOM     68  F   UNL     1       5.889   7.256  13.552  1.00  0.00    -0.203 F 
ATOM     69  F   UNL     1       3.570  12.089  12.522  1.00  0.00    -0.200 F 
ATOM     70  C   UNL     1       5.095  10.780  13.771  1.00  0.00     0.200 A 
ATOM     71  F   UNL     1       6.640   9.438  14.958  1.00  0.00    -0.200 F 
ATOM     72  F   UNL     1       5.526  11.872  14.415  1.00  0.00    -0.200 F 
ENDBRANCH  39  62
ENDBRANCH  13  14
ENDBRANCH   6   8
ENDBRANCH   5   6
ENDBRANCH   4   5
ENDBRANCH   3   4
ENDBRANCH   2   3
ENDBRANCH   1   2
BRANCH   1  73
ATOM     73  C   UNL     1       3.176  -2.889   1.345  1.00  0.00     0.188 C 
BRANCH  73  74
ATOM     74  O   UNL     1       4.315  -3.327   0.614  1.00  0.00    -0.376 OA
BRANCH  74  75
ATOM     75  C   UNL     1       5.592  -2.958   1.109  1.00  0.00     0.202 C 
BRANCH  75  76
ATOM     76  C   UNL     1       6.012  -1.501   0.919  1.00  0.00     0.261 C 
BRANCH  76  77
ATOM     77  O   UNL     1       4.985  -0.552   1.220  1.00  0.00    -0.463 OA
BRANCH  77  78
ATOM     78  C   UNL     1       4.012  -0.071   0.386  1.00  0.00     0.310 C 
ATOM     79  O   UNL     1       3.941  -0.380  -0.797  1.00  0.00    -0.252 OA
BRANCH  78  80
ATOM     80  C   UNL     1       2.906   1.130   1.147  1.00  0.00     0.115 C 
ATOM     81  C   UNL     1       3.136   2.382   3.030  1.00  0.00     0.004 C 
ATOM     82  C   UNL     1       3.747   2.520  -0.114  1.00  0.00     0.096 C 
ATOM     83  C   UNL     1       4.968   2.763   3.543  1.00  0.00     0.005 C 
ATOM     84  C   UNL     1       3.349   4.256   2.607  1.00  0.00     0.009 C 
ATOM     85  C   UNL     1       4.438   3.998   1.110  1.00  0.00     0.002 C 
ATOM     86  C   UNL     1       5.604   3.786   2.319  1.00  0.00     0.005 C 
BRANCH  82  87
ATOM     87  C   UNL     1       2.376   2.796  -1.112  1.00  0.00     0.224 C 
ATOM     88  O   UNL     1       2.566   3.032  -2.310  1.00  0.00    -0.275 OA
ATOM     89  N   UNL     1       1.007   2.790  -0.668  1.00  0.00    -0.349 N 
ATOM     90  H   UNL     1       0.374   2.624  -1.404  1.00  0.00     0.164 HD
BRANCH  89  91
ATOM     91  C   UNL     1       0.291   2.984   0.705  1.00  0.00     0.112 C 
ATOM     92  C   UNL     1      -1.102   2.354   0.877  1.00  0.00     0.030 C 
ATOM     93  C   UNL     1       1.190   2.450   1.764  1.00  0.00    -0.022 A 
ATOM     94  C   UNL     1      -1.405   2.001   2.363  1.00  0.00     0.007 C 
ATOM     95  C   UNL     1       0.975   1.195   2.649  1.00  0.00    -0.043 A 
ATOM     96  C   UNL     1       2.622   2.887   1.373  1.00  0.00     0.006 A 
ATOM     97  C   UNL     1      -0.484   0.877   2.914  1.00  0.00     0.036 C 
ATOM     98  C   UNL     1       2.223   0.248   3.203  1.00  0.00     0.004 A 
ATOM     99  C   UNL     1       4.301   1.876   1.801  1.00  0.00     0.000 A 
ATOM    100  C   UNL     1       3.858   0.499   2.901  1.00  0.00     0.000 A 
ENDBRANCH  89  91
ENDBRANCH  82  87
ENDBRANCH  78  80
ENDBRANCH  77  78
ENDBRANCH  76  77
ENDBRANCH  75  76
ENDBRANCH  74  75
ENDBRANCH  73  74
ENDBRANCH   1  73
TORSDOF 19
