REMARK SMILES Cc1ccc(CNC(=O)c2csc(/C=C/C(=O)OCCOCCOCCOC(=O)c3ccc(-c4c5nc(c(-c6c(F)c(F)c(F)c(F)c6F)c6ccc([nH]6)c(-c6c(F)c(F)c(F)c(F)c6F)c6nc(c(-c7c(F)c(F)c(F)c(F)c7F)c7ccc4[nH]7)C=C6)C=C5)cc3)c2)s1
REMARK SMILES IDX 22 1 21 2 20 3 19 4 18 5 16 6 17 7 15 8 14 9 13 10 10 11
REMARK SMILES IDX 11 12 93 13 12 14 8 15 7 16 9 18 6 19 5 20 1 21 2 22 3 23
REMARK SMILES IDX 94 24 4 25 23 26 24 27 25 28 26 29 27 30 28 31 29 32 30 33
REMARK SMILES IDX 31 34 92 35 32 36 91 37 33 38 34 39 35 40 85 41 36 42 90 43
REMARK SMILES IDX 84 44 86 45 37 46 89 47 83 48 82 49 38 51 70 52 50 53 69 54
REMARK SMILES IDX 51 55 54 56 68 57 87 58 52 59 53 60 67 62 88 63 55 64 39 65
REMARK SMILES IDX 40 66 48 67 41 68 42 69 46 70 49 71 43 72 44 73 47 74 45 75
REMARK SMILES IDX 71 76 72 77 80 78 73 79 74 80 78 81 81 82 75 83 76 84 79 85
REMARK SMILES IDX 77 86 56 87 57 88 65 89 58 90 59 91 63 92 66 93 60 94 61 95
REMARK SMILES IDX 64 96 62 97
REMARK H PARENT 7 17 86 50 54 61
REMARK Flexibility Score: inf
ROOT
ATOM      1  C   UNL     1      -7.134   5.361  -6.707  1.00  0.00     0.188 C 
ENDROOT
BRANCH   1   2
ATOM      2  O   UNL     1      -7.404   4.858  -8.012  1.00  0.00    -0.376 OA
BRANCH   2   3
ATOM      3  C   UNL     1      -7.449   3.453  -8.233  1.00  0.00     0.202 C 
BRANCH   3   4
ATOM      4  C   UNL     1      -6.235   2.601  -7.838  1.00  0.00     0.261 C 
BRANCH   4   5
ATOM      5  O   UNL     1      -5.776   2.808  -6.492  1.00  0.00    -0.460 OA
BRANCH   5   6
ATOM      6  C   UNL     1      -4.508   3.269  -6.374  1.00  0.00     0.330 C 
ATOM      7  O   UNL     1      -3.716   3.458  -7.285  1.00  0.00    -0.247 OA
BRANCH   6   8
ATOM      8  C   UNL     1      -4.173   3.656  -4.989  1.00  0.00     0.095 C 
ATOM      9  C   UNL     1      -4.833   3.272  -3.886  1.00  0.00     0.026 C 
BRANCH   9  10
ATOM     10  C   UNL     1      -4.424   3.681  -2.580  1.00  0.00     0.028 A 
ATOM     11  C   UNL     1      -3.812   3.533  -0.306  1.00  0.00     0.051 A 
ATOM     12  C   UNL     1      -3.386   4.807  -0.630  1.00  0.00     0.079 A 
ATOM     13  C   UNL     1      -4.556   2.970  -1.399  1.00  0.00     0.033 A 
ATOM     14  S   UNL     1      -3.708   5.214  -2.254  1.00  0.00    -0.144 S 
BRANCH  11  15
ATOM     15  C   UNL     1      -3.525   2.934   0.995  1.00  0.00     0.252 C 
ATOM     16  N   UNL     1      -3.163   1.612   1.053  1.00  0.00    -0.347 N 
ATOM     17  H   UNL     1      -3.070   1.239   1.959  1.00  0.00     0.164 HD
ATOM     18  O   UNL     1      -3.552   3.593   2.032  1.00  0.00    -0.269 OA
BRANCH  16  19
ATOM     19  C   UNL     1      -2.900   0.688  -0.029  1.00  0.00     0.163 C 
BRANCH  19  20
ATOM     20  C   UNL     1      -1.554   0.058   0.117  1.00  0.00     0.024 A 
ATOM     21  C   UNL     1       2.360  -0.183   0.062  1.00  0.00     0.056 C 
ATOM     22  C   UNL     1       0.881  -0.355   0.113  1.00  0.00     0.002 A 
ATOM     23  C   UNL     1       0.154  -1.524   0.189  1.00  0.00     0.015 A 
ATOM     24  S   UNL     1      -0.135   1.018   0.061  1.00  0.00    -0.144 S 
ATOM     25  C   UNL     1      -1.250  -1.286   0.198  1.00  0.00     0.017 A 
ENDBRANCH  19  20
ENDBRANCH  16  19
ENDBRANCH  11  15
ENDBRANCH   9  10
ENDBRANCH   6   8
ENDBRANCH   5   6
ENDBRANCH   4   5
ENDBRANCH   3   4
ENDBRANCH   2   3
ENDBRANCH   1   2
BRANCH   1  26
ATOM     26  C   UNL     1      -7.845   4.747  -5.482  1.00  0.00     0.188 C 
BRANCH  26  27
ATOM     27  O   UNL     1      -8.712   3.682  -5.804  1.00  0.00    -0.376 OA
BRANCH  27  28
ATOM     28  C   UNL     1     -10.108   3.897  -5.686  1.00  0.00     0.202 C 
BRANCH  28  29
ATOM     29  C   UNL     1     -10.777   5.115  -6.349  1.00  0.00     0.261 C 
BRANCH  29  30
ATOM     30  O   UNL     1     -10.030   6.339  -6.381  1.00  0.00    -0.460 OA
BRANCH  30  31
ATOM     31  C   UNL     1     -10.124   7.149  -5.303  1.00  0.00     0.338 C 
ATOM     32  O   UNL     1     -10.727   6.937  -4.270  1.00  0.00    -0.246 OA
BRANCH  31  33
ATOM     33  C   UNL     1      -9.222   8.299  -5.526  1.00  0.00     0.060 A 
ATOM     34  C   UNL     1      -8.113   8.465  -4.687  1.00  0.00     0.016 A 
ATOM     35  C   UNL     1      -9.477   9.212  -6.552  1.00  0.00     0.016 A 
ATOM     36  C   UNL     1      -7.266   9.562  -4.859  1.00  0.00     0.010 A 
ATOM     37  C   UNL     1      -8.639  10.320  -6.711  1.00  0.00     0.010 A 
ATOM     38  C   UNL     1      -7.545  10.515  -5.850  1.00  0.00    -0.014 A 
BRANCH  38  39
ATOM     39  C   UNL     1      -6.796  11.795  -5.882  1.00  0.00     0.031 A 
ATOM     40  C   UNL     1      -7.393  12.997  -5.205  1.00  0.00     0.074 A 
ATOM     41  C   UNL     1      -5.603  11.891  -6.495  1.00  0.00     0.049 A 
ATOM     42  N   UNL     1      -6.949  14.226  -5.141  1.00  0.00    -0.248 NA
ATOM     43  C   UNL     1      -8.669  12.780  -4.505  1.00  0.00     0.031 C 
ATOM     44  C   UNL     1      -4.900  10.793  -7.153  1.00  0.00     0.029 A 
ATOM     45  N   UNL     1      -4.776  12.974  -6.667  1.00  0.00    -0.354 N 
ATOM     46  C   UNL     1      -7.887  14.927  -4.396  1.00  0.00     0.074 A 
ATOM     47  C   UNL     1      -8.943  13.996  -4.059  1.00  0.00     0.031 C 
ATOM     48  C   UNL     1      -3.749  11.261  -7.668  1.00  0.00     0.029 A 
ATOM     49  C   UNL     1      -3.651  12.696  -7.403  1.00  0.00     0.049 A 
ATOM     50  H   UNL     1      -4.972  13.866  -6.298  1.00  0.00     0.167 HD
ATOM     51  C   UNL     1      -7.868  16.228  -4.019  1.00  0.00     0.037 A 
ATOM     52  C   UNL     1      -2.668  13.513  -7.829  1.00  0.00     0.037 A 
ATOM     53  C   UNL     1      -6.825  17.157  -4.365  1.00  0.00     0.049 A 
ATOM     54  C   UNL     1      -2.714  14.978  -7.473  1.00  0.00     0.074 A 
ATOM     55  C   UNL     1      -6.708  18.492  -4.022  1.00  0.00     0.029 A 
ATOM     56  N   UNL     1      -5.722  16.848  -5.147  1.00  0.00    -0.354 N 
ATOM     57  N   UNL     1      -3.589  15.629  -6.746  1.00  0.00    -0.248 NA
ATOM     58  C   UNL     1      -1.630  15.821  -7.999  1.00  0.00     0.031 C 
ATOM     59  C   UNL     1      -5.562  19.004  -4.639  1.00  0.00     0.029 A 
ATOM     60  C   UNL     1      -4.934  17.974  -5.322  1.00  0.00     0.049 A 
ATOM     61  H   UNL     1      -5.527  15.959  -5.523  1.00  0.00     0.167 HD
ATOM     62  C   UNL     1      -3.149  16.946  -6.702  1.00  0.00     0.074 A 
ATOM     63  C   UNL     1      -1.921  17.000  -7.467  1.00  0.00     0.031 C 
ATOM     64  C   UNL     1      -3.710  18.013  -6.081  1.00  0.00     0.037 A 
BRANCH  51  65
ATOM     65  C   UNL     1      -9.030  16.726  -3.211  1.00  0.00     0.064 A 
ATOM     66  C   UNL     1      -9.223  16.333  -1.878  1.00  0.00     0.173 A 
ATOM     67  C   UNL     1      -9.955  17.619  -3.773  1.00  0.00     0.173 A 
ATOM     68  F   UNL     1      -8.375  15.469  -1.300  1.00  0.00    -0.203 F 
ATOM     69  C   UNL     1     -10.316  16.791  -1.148  1.00  0.00     0.198 A 
ATOM     70  C   UNL     1     -11.030  18.098  -3.030  1.00  0.00     0.198 A 
ATOM     71  F   UNL     1      -9.815  18.028  -5.043  1.00  0.00    -0.203 F 
ATOM     72  F   UNL     1     -10.510  16.360   0.107  1.00  0.00    -0.200 F 
ATOM     73  C   UNL     1     -11.215  17.677  -1.722  1.00  0.00     0.200 A 
ATOM     74  F   UNL     1     -11.892  18.962  -3.583  1.00  0.00    -0.200 F 
ATOM     75  F   UNL     1     -12.266  18.118  -1.017  1.00  0.00    -0.200 F 
ENDBRANCH  51  65
BRANCH  52  76
ATOM     76  C   UNL     1      -1.555  12.971  -8.651  1.00  0.00     0.064 A 
ATOM     77  C   UNL     1      -0.251  12.900  -8.142  1.00  0.00     0.173 A 
ATOM     78  C   UNL     1      -1.766  12.534  -9.967  1.00  0.00     0.173 A 
ATOM     79  F   UNL     1       0.008  13.335  -6.900  1.00  0.00    -0.203 F 
ATOM     80  C   UNL     1       0.802  12.427  -8.923  1.00  0.00     0.198 A 
ATOM     81  C   UNL     1      -0.718  12.035 -10.737  1.00  0.00     0.198 A 
ATOM     82  F   UNL     1      -2.994  12.589 -10.504  1.00  0.00    -0.203 F 
ATOM     83  F   UNL     1       2.047  12.415  -8.428  1.00  0.00    -0.200 F 
ATOM     84  C   UNL     1       0.567  11.989 -10.218  1.00  0.00     0.200 A 
ATOM     85  F   UNL     1      -0.951  11.608 -11.986  1.00  0.00    -0.200 F 
ATOM     86  F   UNL     1       1.579  11.534 -10.968  1.00  0.00    -0.200 F 
ENDBRANCH  52  76
BRANCH  64  87
ATOM     87  C   UNL     1      -2.985  19.326  -6.170  1.00  0.00     0.064 A 
ATOM     88  C   UNL     1      -2.939  20.065  -7.362  1.00  0.00     0.173 A 
ATOM     89  C   UNL     1      -2.367  19.873  -5.035  1.00  0.00     0.173 A 
ATOM     90  F   UNL     1      -3.502  19.580  -8.479  1.00  0.00    -0.203 F 
ATOM     91  C   UNL     1      -2.280  21.291  -7.419  1.00  0.00     0.198 A 
ATOM     92  C   UNL     1      -1.735  21.113  -5.088  1.00  0.00     0.198 A 
ATOM     93  F   UNL     1      -2.388  19.212  -3.868  1.00  0.00    -0.203 F 
ATOM     94  F   UNL     1      -2.209  21.957  -8.579  1.00  0.00    -0.200 F 
ATOM     95  C   UNL     1      -1.686  21.817  -6.281  1.00  0.00     0.200 A 
ATOM     96  F   UNL     1      -1.175  21.626  -3.984  1.00  0.00    -0.200 F 
ATOM     97  F   UNL     1      -1.060  23.000  -6.337  1.00  0.00    -0.200 F 
ENDBRANCH  64  87
ENDBRANCH  38  39
ENDBRANCH  31  33
ENDBRANCH  30  31
ENDBRANCH  29  30
ENDBRANCH  28  29
ENDBRANCH  27  28
ENDBRANCH  26  27
ENDBRANCH   1  26
TORSDOF 21
