REMARK SMILES Cc1c(CC(=O)OCCOCCOCCOC(=O)c2ccc(-c3c4nc(c(-c5c(F)c(F)c(F)c(F)c5F)c5ccc([nH]5)c(-c5c(F)c(F)c(F)c(F)c5F)c5nc(c(-c6c(F)c(F)c(F)c(F)c6F)c6ccc3[nH]6)C=C5)C=C4)cc2)cc(-c2ccc(S(C)(=O)=O)cc2)n1-c1ccccc1
REMARK SMILES IDX 11 1 10 2 9 3 8 4 7 5 5 6 6 7 4 8 3 9 1 10 2 11 94 12 82 13
REMARK SMILES IDX 83 14 95 15 96 16 100 17 97 18 99 19 98 20 84 21 85 22 93 23
REMARK SMILES IDX 86 24 92 25 87 26 88 27 89 28 90 29 91 30 12 31 13 32 14 33
REMARK SMILES IDX 15 34 16 35 17 36 18 37 19 38 20 39 81 40 21 41 80 42 22 43
REMARK SMILES IDX 23 44 24 45 74 46 25 47 79 48 73 49 75 50 26 51 78 52 72 53
REMARK SMILES IDX 71 54 27 56 59 57 39 58 58 59 40 60 43 61 57 62 76 63 41 64
REMARK SMILES IDX 42 65 56 67 77 68 44 69 28 70 29 71 37 72 30 73 31 74 35 75
REMARK SMILES IDX 38 76 32 77 33 78 36 79 34 80 60 81 61 82 69 83 62 84 63 85
REMARK SMILES IDX 67 86 70 87 64 88 65 89 68 90 66 91 45 92 46 93 54 94 47 95
REMARK SMILES IDX 48 96 52 97 55 98 49 99 50 100 53 101 51 102
REMARK H PARENT 75 55 43 66
REMARK Flexibility Score: inf
ROOT
ATOM      1  C   UNL     1       0.296  -0.980  -2.767  1.00  0.00     0.188 C 
ENDROOT
BRANCH   1   2
ATOM      2  O   UNL     1      -0.520  -1.813  -3.577  1.00  0.00    -0.376 OA
BRANCH   2   3
ATOM      3  C   UNL     1      -1.544  -2.590  -2.971  1.00  0.00     0.202 C 
BRANCH   3   4
ATOM      4  C   UNL     1      -1.129  -3.675  -1.972  1.00  0.00     0.261 C 
BRANCH   4   5
ATOM      5  O   UNL     1      -0.425  -3.158  -0.824  1.00  0.00    -0.463 OA
BRANCH   5   6
ATOM      6  C   UNL     1       0.766  -3.748  -0.548  1.00  0.00     0.310 C 
ATOM      7  O   UNL     1       1.244  -4.665  -1.214  1.00  0.00    -0.252 OA
BRANCH   6   8
ATOM      8  C   UNL     1       1.535  -3.177   0.625  1.00  0.00     0.160 C 
BRANCH   8   9
ATOM      9  C   UNL     1       0.900  -2.136   1.505  1.00  0.00    -0.015 A 
ATOM     10  C   UNL     1       2.069   0.059   0.690  1.00  0.00     0.065 C 
ATOM     11  C   UNL     1       1.112  -0.758   1.495  1.00  0.00     0.024 A 
ATOM     12  N   UNL     1       0.308  -0.195   2.477  1.00  0.00    -0.314 N 
ATOM     13  C   UNL     1       0.136  -2.401   2.680  1.00  0.00     0.033 A 
ATOM     14  C   UNL     1      -0.112  -1.203   3.331  1.00  0.00     0.053 A 
BRANCH  12  15
ATOM     15  C   UNL     1      -0.051   1.169   2.583  1.00  0.00     0.046 A 
ATOM     16  C   UNL     1       0.426   1.947   3.640  1.00  0.00     0.026 A 
ATOM     17  C   UNL     1      -0.992   1.679   1.680  1.00  0.00     0.026 A 
ATOM     18  C   UNL     1      -0.039   3.255   3.784  1.00  0.00     0.002 A 
ATOM     19  C   UNL     1      -1.465   2.980   1.846  1.00  0.00     0.002 A 
ATOM     20  C   UNL     1      -0.988   3.767   2.895  1.00  0.00     0.000 A 
ENDBRANCH  12  15
BRANCH  14  21
ATOM     21  C   UNL     1      -0.684  -0.973   4.656  1.00  0.00    -0.001 A 
ATOM     22  C   UNL     1      -1.956  -0.413   4.820  1.00  0.00     0.011 A 
ATOM     23  C   UNL     1       0.089  -1.272   5.787  1.00  0.00     0.011 A 
ATOM     24  C   UNL     1      -2.448  -0.143   6.100  1.00  0.00     0.021 A 
ATOM     25  C   UNL     1      -0.392  -1.000   7.068  1.00  0.00     0.021 A 
ATOM     26  C   UNL     1      -1.657  -0.429   7.217  1.00  0.00     0.067 A 
BRANCH  26  27
ATOM     27  S   UNL     1      -2.291  -0.111   8.846  1.00  0.00     0.175 S 
ATOM     28  C   UNL     1      -2.451   1.653   8.921  1.00  0.00     0.163 C 
ATOM     29  O   UNL     1      -3.628  -0.690   8.896  1.00  0.00    -0.224 OA
ATOM     30  O   UNL     1      -1.279  -0.498   9.802  1.00  0.00    -0.224 OA
ENDBRANCH  26  27
ENDBRANCH  14  21
ENDBRANCH   8   9
ENDBRANCH   6   8
ENDBRANCH   5   6
ENDBRANCH   4   5
ENDBRANCH   3   4
ENDBRANCH   2   3
ENDBRANCH   1   2
BRANCH   1  31
ATOM     31  C   UNL     1      -0.324  -0.142  -1.641  1.00  0.00     0.188 C 
BRANCH  31  32
ATOM     32  O   UNL     1      -1.687   0.221  -1.690  1.00  0.00    -0.376 OA
BRANCH  32  33
ATOM     33  C   UNL     1      -2.148   1.024  -2.771  1.00  0.00     0.202 C 
BRANCH  33  34
ATOM     34  C   UNL     1      -1.572   2.462  -2.893  1.00  0.00     0.261 C 
BRANCH  34  35
ATOM     35  O   UNL     1      -0.690   2.783  -4.035  1.00  0.00    -0.460 OA
BRANCH  35  36
ATOM     36  C   UNL     1       0.388   3.592  -3.757  1.00  0.00     0.338 C 
ATOM     37  O   UNL     1       0.839   3.717  -2.621  1.00  0.00    -0.246 OA
BRANCH  36  38
ATOM     38  C   UNL     1       1.085   4.329  -4.921  1.00  0.00     0.060 A 
ATOM     39  C   UNL     1       2.467   4.282  -4.955  1.00  0.00     0.016 A 
ATOM     40  C   UNL     1       0.537   5.247  -5.848  1.00  0.00     0.016 A 
ATOM     41  C   UNL     1       3.229   5.072  -5.888  1.00  0.00     0.010 A 
ATOM     42  C   UNL     1       1.353   6.118  -6.766  1.00  0.00     0.010 A 
ATOM     43  C   UNL     1       2.758   6.086  -6.821  1.00  0.00    -0.014 A 
BRANCH  43  44
ATOM     44  C   UNL     1       3.923   7.061  -7.598  1.00  0.00     0.031 A 
ATOM     45  C   UNL     1       5.107   6.880  -6.721  1.00  0.00     0.074 A 
ATOM     46  C   UNL     1       4.215   8.089  -8.537  1.00  0.00     0.049 A 
ATOM     47  N   UNL     1       4.982   7.253  -5.479  1.00  0.00    -0.248 NA
ATOM     48  C   UNL     1       6.237   5.990  -6.981  1.00  0.00     0.031 C 
ATOM     49  C   UNL     1       3.280   8.908  -9.336  1.00  0.00     0.029 A 
ATOM     50  N   UNL     1       5.464   8.714  -8.988  1.00  0.00    -0.354 N 
ATOM     51  C   UNL     1       6.129   6.884  -4.835  1.00  0.00     0.074 A 
ATOM     52  C   UNL     1       6.790   5.970  -5.758  1.00  0.00     0.031 C 
ATOM     53  C   UNL     1       3.920   9.742 -10.219  1.00  0.00     0.029 A 
ATOM     54  C   UNL     1       5.381   9.653 -10.110  1.00  0.00     0.049 A 
ATOM     55  H   UNL     1       6.324   8.511  -8.554  1.00  0.00     0.167 HD
ATOM     56  C   UNL     1       6.630   7.848  -4.015  1.00  0.00     0.037 A 
ATOM     57  C   UNL     1       6.356  10.390 -10.821  1.00  0.00     0.037 A 
ATOM     58  C   UNL     1       7.702   8.553  -4.654  1.00  0.00     0.049 A 
ATOM     59  C   UNL     1       7.388  10.720  -9.835  1.00  0.00     0.074 A 
ATOM     60  C   UNL     1       8.753   8.127  -5.441  1.00  0.00     0.029 A 
ATOM     61  N   UNL     1       7.512   9.887  -4.931  1.00  0.00    -0.354 N 
ATOM     62  N   UNL     1       7.185  11.694  -9.003  1.00  0.00    -0.248 NA
ATOM     63  C   UNL     1       8.743  10.188  -9.853  1.00  0.00     0.031 C 
ATOM     64  C   UNL     1       8.795   9.049  -6.503  1.00  0.00     0.029 A 
ATOM     65  C   UNL     1       8.079  10.185  -6.147  1.00  0.00     0.049 A 
ATOM     66  H   UNL     1       7.044  10.529  -4.348  1.00  0.00     0.167 HD
ATOM     67  C   UNL     1       8.163  11.543  -8.084  1.00  0.00     0.074 A 
ATOM     68  C   UNL     1       9.217  10.818  -8.773  1.00  0.00     0.031 C 
ATOM     69  C   UNL     1       7.688  11.394  -6.825  1.00  0.00     0.037 A 
BRANCH  56  70
ATOM     70  C   UNL     1       5.533   8.474  -3.180  1.00  0.00     0.064 A 
ATOM     71  C   UNL     1       5.353   8.020  -1.870  1.00  0.00     0.173 A 
ATOM     72  C   UNL     1       4.509   9.278  -3.731  1.00  0.00     0.173 A 
ATOM     73  F   UNL     1       6.310   7.292  -1.275  1.00  0.00    -0.203 F 
ATOM     74  C   UNL     1       4.172   8.283  -1.175  1.00  0.00     0.198 A 
ATOM     75  C   UNL     1       3.303   9.472  -3.066  1.00  0.00     0.198 A 
ATOM     76  F   UNL     1       4.652   9.830  -4.949  1.00  0.00    -0.203 F 
ATOM     77  F   UNL     1       4.027   7.845   0.083  1.00  0.00    -0.200 F 
ATOM     78  C   UNL     1       3.132   8.967  -1.790  1.00  0.00     0.200 A 
ATOM     79  F   UNL     1       2.300  10.123  -3.673  1.00  0.00    -0.200 F 
ATOM     80  F   UNL     1       1.969   9.146  -1.148  1.00  0.00    -0.200 F 
ENDBRANCH  56  70
BRANCH  57  81
ATOM     81  C   UNL     1       6.700  11.291 -12.102  1.00  0.00     0.064 A 
ATOM     82  C   UNL     1       7.602  12.428 -12.031  1.00  0.00     0.173 A 
ATOM     83  C   UNL     1       6.563  10.814 -13.416  1.00  0.00     0.173 A 
ATOM     84  F   UNL     1       7.825  13.086 -10.886  1.00  0.00    -0.203 F 
ATOM     85  C   UNL     1       8.373  12.917 -13.107  1.00  0.00     0.198 A 
ATOM     86  C   UNL     1       7.309  11.345 -14.514  1.00  0.00     0.198 A 
ATOM     87  F   UNL     1       5.770   9.765 -13.663  1.00  0.00    -0.203 F 
ATOM     88  F   UNL     1       9.288  13.881 -12.903  1.00  0.00    -0.200 F 
ATOM     89  C   UNL     1       8.241  12.360 -14.351  1.00  0.00     0.200 A 
ATOM     90  F   UNL     1       7.170  10.811 -15.737  1.00  0.00    -0.200 F 
ATOM     91  F   UNL     1       9.015  12.773 -15.368  1.00  0.00    -0.200 F 
ENDBRANCH  57  81
BRANCH  69  92
ATOM     92  C   UNL     1       6.650  12.413  -6.362  1.00  0.00     0.064 A 
ATOM     93  C   UNL     1       5.523  12.899  -7.079  1.00  0.00     0.173 A 
ATOM     94  C   UNL     1       6.885  13.028  -5.124  1.00  0.00     0.173 A 
ATOM     95  F   UNL     1       5.069  12.323  -8.201  1.00  0.00    -0.203 F 
ATOM     96  C   UNL     1       4.780  13.998  -6.634  1.00  0.00     0.198 A 
ATOM     97  C   UNL     1       6.100  14.079  -4.652  1.00  0.00     0.198 A 
ATOM     98  F   UNL     1       7.891  12.601  -4.345  1.00  0.00    -0.203 F 
ATOM     99  F   UNL     1       3.777  14.480  -7.385  1.00  0.00    -0.200 F 
ATOM    100  C   UNL     1       5.071  14.588  -5.421  1.00  0.00     0.200 A 
ATOM    101  F   UNL     1       6.354  14.602  -3.445  1.00  0.00    -0.200 F 
ATOM    102  F   UNL     1       4.351  15.632  -4.985  1.00  0.00    -0.200 F 
ENDBRANCH  69  92
ENDBRANCH  43  44
ENDBRANCH  36  38
ENDBRANCH  35  36
ENDBRANCH  34  35
ENDBRANCH  33  34
ENDBRANCH  32  33
ENDBRANCH  31  32
ENDBRANCH   1  31
TORSDOF 21
