REMARK SMILES C[C@H](NC(=O)c1ccc(C(C)(C)C)cc1)C(=O)N[C@@H](C(=O)OCCOCCOCCOC(=O)c1ccc(-c2c3nc(c(-c4c(F)c(F)c(F)c(F)c4F)c4ccc([nH]4)c(-c4c(F)c(F)c(F)c(F)c4F)c4nc(c(-c5c(F)c(F)c(F)c(F)c5F)c5ccc2[nH]5)C=C4)C=C3)cc1)[C@H](C)O
REMARK SMILES IDX 25 1 24 2 23 3 22 4 20 5 21 6 19 7 18 8 16 9 17 10 2 12 1 13
REMARK SMILES IDX 3 14 4 15 5 17 6 18 7 19 15 20 8 21 14 22 9 23 10 24 11 25
REMARK SMILES IDX 12 26 13 27 97 28 98 29 99 30 26 32 27 33 28 34 29 35 30 36
REMARK SMILES IDX 31 37 32 38 33 39 34 40 35 41 96 42 36 43 95 44 37 45 38 46
REMARK SMILES IDX 39 47 89 48 40 49 94 50 88 51 90 52 41 53 93 54 87 55 86 56
REMARK SMILES IDX 42 58 74 59 54 60 73 61 55 62 58 63 72 64 91 65 56 66 57 67
REMARK SMILES IDX 71 69 92 70 59 71 43 72 44 73 52 74 45 75 46 76 50 77 53 78
REMARK SMILES IDX 47 79 48 80 51 81 49 82 75 83 76 84 84 85 77 86 78 87 82 88
REMARK SMILES IDX 85 89 79 90 80 91 83 92 81 93 60 94 61 95 69 96 62 97 63 98
REMARK SMILES IDX 67 99 70 100 64 101 65 102 68 103 66 104
REMARK H PARENT 18 11 3 16 99 31 90 57 58 68
REMARK Flexibility Score: inf
ROOT
ATOM      1  O   UNL     1       2.169  -3.902   6.063  1.00  0.00    -0.376 OA
ENDROOT
BRANCH   1   2
ATOM      2  C   UNL     1       1.931  -5.219   5.562  1.00  0.00     0.202 C 
BRANCH   2   3
ATOM      3  C   UNL     1       0.538  -5.610   5.025  1.00  0.00     0.261 C 
BRANCH   3   4
ATOM      4  O   UNL     1       0.138  -4.895   3.836  1.00  0.00    -0.462 OA
BRANCH   4   5
ATOM      5  C   UNL     1      -1.102  -4.324   3.848  1.00  0.00     0.331 C 
ATOM      6  O   UNL     1      -1.913  -4.444   4.760  1.00  0.00    -0.250 OA
BRANCH   5   7
ATOM      7  C   UNL     1      -1.386  -3.476   2.587  1.00  0.00     0.221 C 
BRANCH   7   8
ATOM      8  N   UNL     1      -0.362  -3.511   1.514  1.00  0.00    -0.339 N 
ATOM      9  C   UNL     1      -0.503  -3.801   0.187  1.00  0.00     0.243 C 
ATOM     10  O   UNL     1       0.364  -3.415  -0.598  1.00  0.00    -0.273 OA
ATOM     11  H   UNL     1       0.554  -3.294   1.801  1.00  0.00     0.164 HD
BRANCH   9  12
ATOM     12  C   UNL     1      -1.752  -4.541  -0.300  1.00  0.00     0.168 C 
ATOM     13  C   UNL     1      -2.957  -3.598  -0.337  1.00  0.00     0.041 C 
BRANCH  12  14
ATOM     14  N   UNL     1      -1.864  -5.740   0.551  1.00  0.00    -0.341 N 
ATOM     15  C   UNL     1      -2.786  -6.749   0.563  1.00  0.00     0.251 C 
ATOM     16  H   UNL     1      -1.154  -5.828   1.227  1.00  0.00     0.164 HD
ATOM     17  O   UNL     1      -2.712  -7.665   1.372  1.00  0.00    -0.269 OA
BRANCH  15  18
ATOM     18  C   UNL     1      -3.913  -6.653  -0.368  1.00  0.00     0.039 A 
ATOM     19  C   UNL     1      -5.186  -6.467   0.161  1.00  0.00     0.014 A 
ATOM     20  C   UNL     1      -3.681  -6.570  -1.738  1.00  0.00     0.014 A 
ATOM     21  C   UNL     1      -6.212  -6.061  -0.688  1.00  0.00     0.005 A 
ATOM     22  C   UNL     1      -4.707  -6.138  -2.575  1.00  0.00     0.005 A 
ATOM     23  C   UNL     1      -5.976  -5.819  -2.058  1.00  0.00    -0.043 A 
BRANCH  23  24
ATOM     24  C   UNL     1      -7.087  -5.237  -2.946  1.00  0.00    -0.013 C 
ATOM     25  C   UNL     1      -8.084  -6.366  -3.252  1.00  0.00     0.016 C 
ATOM     26  C   UNL     1      -7.818  -4.074  -2.233  1.00  0.00     0.016 C 
ATOM     27  C   UNL     1      -6.564  -4.661  -4.282  1.00  0.00     0.016 C 
ENDBRANCH  23  24
ENDBRANCH  15  18
ENDBRANCH  12  14
ENDBRANCH   9  12
ENDBRANCH   7   8
BRANCH   7  28
ATOM     28  C   UNL     1      -1.779  -2.011   2.981  1.00  0.00     0.145 C 
ATOM     29  C   UNL     1      -1.630  -0.975   1.864  1.00  0.00     0.041 C 
BRANCH  28  30
ATOM     30  O   UNL     1      -1.002  -1.532   4.085  1.00  0.00    -0.391 OA
ATOM     31  H   UNL     1      -0.071  -1.466   3.821  1.00  0.00     0.211 HD
ENDBRANCH  28  30
ENDBRANCH   7  28
ENDBRANCH   5   7
ENDBRANCH   4   5
ENDBRANCH   3   4
ENDBRANCH   2   3
ENDBRANCH   1   2
BRANCH   1  32
ATOM     32  C   UNL     1       1.575  -2.813   5.382  1.00  0.00     0.188 C 
BRANCH  32  33
ATOM     33  C   UNL     1       1.899  -2.644   3.900  1.00  0.00     0.188 C 
BRANCH  33  34
ATOM     34  O   UNL     1       2.607  -3.677   3.266  1.00  0.00    -0.376 OA
BRANCH  34  35
ATOM     35  C   UNL     1       4.019  -3.589   3.141  1.00  0.00     0.202 C 
BRANCH  35  36
ATOM     36  C   UNL     1       4.901  -2.654   3.996  1.00  0.00     0.261 C 
BRANCH  36  37
ATOM     37  O   UNL     1       4.348  -1.392   4.404  1.00  0.00    -0.460 OA
BRANCH  37  38
ATOM     38  C   UNL     1       4.238  -0.433   3.450  1.00  0.00     0.338 C 
ATOM     39  O   UNL     1       4.639  -0.490   2.308  1.00  0.00    -0.246 OA
BRANCH  38  40
ATOM     40  C   UNL     1       3.293   0.601   3.955  1.00  0.00     0.060 A 
ATOM     41  C   UNL     1       2.153   0.881   3.184  1.00  0.00     0.016 A 
ATOM     42  C   UNL     1       3.497   1.264   5.167  1.00  0.00     0.016 A 
ATOM     43  C   UNL     1       1.253   1.868   3.586  1.00  0.00     0.010 A 
ATOM     44  C   UNL     1       2.609   2.276   5.557  1.00  0.00     0.010 A 
ATOM     45  C   UNL     1       1.512   2.616   4.741  1.00  0.00    -0.014 A 
BRANCH  45  46
ATOM     46  C   UNL     1       0.814   3.918   4.915  1.00  0.00     0.031 A 
ATOM     47  C   UNL     1       1.516   5.158   4.419  1.00  0.00     0.074 A 
ATOM     48  C   UNL     1      -0.431   4.011   5.415  1.00  0.00     0.049 A 
ATOM     49  N   UNL     1       1.123   6.406   4.435  1.00  0.00    -0.248 NA
ATOM     50  C   UNL     1       2.845   4.955   3.819  1.00  0.00     0.031 C 
ATOM     51  C   UNL     1      -1.246   2.892   5.879  1.00  0.00     0.029 A 
ATOM     52  N   UNL     1      -1.228   5.114   5.611  1.00  0.00    -0.354 N 
ATOM     53  C   UNL     1       2.155   7.132   3.854  1.00  0.00     0.074 A 
ATOM     54  C   UNL     1       3.207   6.194   3.531  1.00  0.00     0.031 C 
ATOM     55  C   UNL     1      -2.428   3.366   6.313  1.00  0.00     0.029 A 
ATOM     56  C   UNL     1      -2.442   4.824   6.184  1.00  0.00     0.049 A 
ATOM     57  H   UNL     1      -0.953   6.026   5.364  1.00  0.00     0.167 HD
ATOM     58  C   UNL     1       2.221   8.460   3.596  1.00  0.00     0.037 A 
ATOM     59  C   UNL     1      -3.438   5.646   6.573  1.00  0.00     0.037 A 
ATOM     60  C   UNL     1       1.182   9.401   3.919  1.00  0.00     0.049 A 
ATOM     61  C   UNL     1      -3.307   7.135   6.350  1.00  0.00     0.074 A 
ATOM     62  C   UNL     1       1.157  10.767   3.701  1.00  0.00     0.029 A 
ATOM     63  N   UNL     1      -0.015   9.072   4.536  1.00  0.00    -0.354 N 
ATOM     64  N   UNL     1      -2.336   7.811   5.786  1.00  0.00    -0.248 NA
ATOM     65  C   UNL     1      -4.425   7.973   6.810  1.00  0.00     0.031 C 
ATOM     66  C   UNL     1      -0.029  11.274   4.241  1.00  0.00     0.029 A 
ATOM     67  C   UNL     1      -0.777  10.214   4.727  1.00  0.00     0.049 A 
ATOM     68  H   UNL     1      -0.284   8.163   4.801  1.00  0.00     0.167 HD
ATOM     69  C   UNL     1      -2.743   9.141   5.784  1.00  0.00     0.074 A 
ATOM     70  C   UNL     1      -4.056   9.174   6.392  1.00  0.00     0.031 C 
ATOM     71  C   UNL     1      -2.091  10.236   5.317  1.00  0.00     0.037 A 
BRANCH  58  72
ATOM     72  C   UNL     1       3.482   8.977   2.965  1.00  0.00     0.064 A 
ATOM     73  C   UNL     1       3.826   8.673   1.638  1.00  0.00     0.173 A 
ATOM     74  C   UNL     1       4.353   9.800   3.695  1.00  0.00     0.173 A 
ATOM     75  F   UNL     1       3.038   7.874   0.902  1.00  0.00    -0.203 F 
ATOM     76  C   UNL     1       5.009   9.148   1.078  1.00  0.00     0.198 A 
ATOM     77  C   UNL     1       5.517  10.303   3.119  1.00  0.00     0.198 A 
ATOM     78  F   UNL     1       4.072  10.122   4.966  1.00  0.00    -0.203 F 
ATOM     79  F   UNL     1       5.345   8.797  -0.171  1.00  0.00    -0.200 F 
ATOM     80  C   UNL     1       5.849   9.969   1.815  1.00  0.00     0.200 A 
ATOM     81  F   UNL     1       6.320  11.106   3.830  1.00  0.00    -0.200 F 
ATOM     82  F   UNL     1       6.984  10.430   1.273  1.00  0.00    -0.200 F 
ENDBRANCH  58  72
BRANCH  59  83
ATOM     83  C   UNL     1      -4.656   5.092   7.225  1.00  0.00     0.064 A 
ATOM     84  C   UNL     1      -5.913   5.171   6.607  1.00  0.00     0.173 A 
ATOM     85  C   UNL     1      -4.597   4.519   8.505  1.00  0.00     0.173 A 
ATOM     86  F   UNL     1      -6.029   5.738   5.397  1.00  0.00    -0.203 F 
ATOM     87  C   UNL     1      -7.065   4.726   7.254  1.00  0.00     0.198 A 
ATOM     88  C   UNL     1      -5.745   4.043   9.136  1.00  0.00     0.198 A 
ATOM     89  F   UNL     1      -3.422   4.424   9.144  1.00  0.00    -0.203 F 
ATOM     90  F   UNL     1      -8.260   4.873   6.666  1.00  0.00    -0.200 F 
ATOM     91  C   UNL     1      -6.979   4.158   8.516  1.00  0.00     0.200 A 
ATOM     92  F   UNL     1      -5.655   3.486  10.351  1.00  0.00    -0.200 F 
ATOM     93  F   UNL     1      -8.087   3.732   9.138  1.00  0.00    -0.200 F 
ENDBRANCH  59  83
BRANCH  71  94
ATOM     94  C   UNL     1      -2.814  11.556   5.378  1.00  0.00     0.064 A 
ATOM     95  C   UNL     1      -3.099  12.198   6.592  1.00  0.00     0.173 A 
ATOM     96  C   UNL     1      -3.210  12.197   4.192  1.00  0.00     0.173 A 
ATOM     97  F   UNL     1      -2.750  11.629   7.755  1.00  0.00    -0.203 F 
ATOM     98  C   UNL     1      -3.793  13.406   6.619  1.00  0.00     0.198 A 
ATOM     99  C   UNL     1      -3.868  13.423   4.221  1.00  0.00     0.198 A 
ATOM    100  F   UNL     1      -2.952  11.636   3.001  1.00  0.00    -0.203 F 
ATOM    101  F   UNL     1      -4.114  13.965   7.793  1.00  0.00    -0.200 F 
ATOM    102  C   UNL     1      -4.172  14.020   5.434  1.00  0.00     0.200 A 
ATOM    103  F   UNL     1      -4.215  14.023   3.074  1.00  0.00    -0.200 F 
ATOM    104  F   UNL     1      -4.839  15.182   5.463  1.00  0.00    -0.200 F 
ENDBRANCH  71  94
ENDBRANCH  45  46
ENDBRANCH  38  40
ENDBRANCH  37  38
ENDBRANCH  36  37
ENDBRANCH  35  36
ENDBRANCH  34  35
ENDBRANCH  33  34
ENDBRANCH  32  33
ENDBRANCH   1  32
TORSDOF 24
