REMARK SMILES O=C(OCCOCCOCCOC(=O)[C@@H]1CC=CC[C@H]1C(=O)N1CC[NH+](Cc2ccc3c(c2)OCO3)CC1)c1ccc(-c2c3nc(c(-c4c(F)c(F)c(F)c(F)c4F)c4ccc([nH]4)c(-c4c(F)c(F)c(F)c(F)c4F)c4nc(c(-c5c(F)c(F)c(F)c(F)c5F)c5ccc2[nH]5)C=C4)C=C3)cc1
REMARK SMILES IDX 8 1 7 2 6 3 5 4 4 5 3 6 2 7 1 8 39 9 40 10 101 11 41 12
REMARK SMILES IDX 100 13 42 14 43 15 44 16 94 17 45 18 99 19 93 20 95 21 46 22
REMARK SMILES IDX 98 23 92 24 91 25 47 27 79 28 59 29 78 30 60 31 63 32 77 33
REMARK SMILES IDX 96 34 61 35 62 36 76 38 97 39 64 40 48 41 49 42 57 43 50 44
REMARK SMILES IDX 51 45 55 46 58 47 52 48 53 49 56 50 54 51 80 52 81 53 89 54
REMARK SMILES IDX 82 55 83 56 87 57 90 58 84 59 85 60 88 61 86 62 65 63 66 64
REMARK SMILES IDX 74 65 67 66 68 67 72 68 75 69 69 70 70 71 73 72 71 73 9 74
REMARK SMILES IDX 10 75 11 76 12 77 13 78 14 79 15 80 16 81 20 82 17 83 19 84
REMARK SMILES IDX 18 85 21 86 22 87 23 88 24 89 38 90 25 91 37 92 26 93 27 95
REMARK SMILES IDX 28 96 29 97 33 98 30 99 32 100 31 101 34 102 36 103 35 104
REMARK H PARENT 95 26 63 37 26 94
REMARK Flexibility Score: inf
ROOT
ATOM      1  C   UNL     1       0.106   0.917  -2.448  1.00  0.00     0.188 C 
ENDROOT
BRANCH   1   2
ATOM      2  C   UNL     1       0.244  -0.110  -1.322  1.00  0.00     0.188 C 
BRANCH   2   3
ATOM      3  O   UNL     1       0.130  -1.480  -1.718  1.00  0.00    -0.376 OA
BRANCH   3   4
ATOM      4  C   UNL     1      -0.818  -2.249  -0.977  1.00  0.00     0.202 C 
BRANCH   4   5
ATOM      5  C   UNL     1      -0.706  -2.321   0.558  1.00  0.00     0.261 C 
BRANCH   5   6
ATOM      6  O   UNL     1       0.177  -1.390   1.212  1.00  0.00    -0.460 OA
BRANCH   6   7
ATOM      7  C   UNL     1       1.520  -1.319   1.341  1.00  0.00     0.338 C 
ATOM      8  O   UNL     1       1.988  -0.386   1.993  1.00  0.00    -0.246 OA
BRANCH   7   9
ATOM      9  C   UNL     1       2.486  -2.256   0.690  1.00  0.00     0.060 A 
ATOM     10  C   UNL     1       2.131  -3.418   0.029  1.00  0.00     0.016 A 
ATOM     11  C   UNL     1       3.866  -1.949   0.772  1.00  0.00     0.016 A 
ATOM     12  C   UNL     1       3.110  -4.221  -0.545  1.00  0.00     0.010 A 
ATOM     13  C   UNL     1       4.854  -2.764   0.186  1.00  0.00     0.010 A 
ATOM     14  C   UNL     1       4.476  -3.912  -0.498  1.00  0.00    -0.014 A 
BRANCH  14  15
ATOM     15  C   UNL     1       5.405  -4.946  -1.039  1.00  0.00     0.031 A 
ATOM     16  C   UNL     1       5.357  -6.296  -0.381  1.00  0.00     0.074 A 
ATOM     17  C   UNL     1       6.073  -4.787  -2.201  1.00  0.00     0.049 A 
ATOM     18  N   UNL     1       5.779  -7.455  -0.810  1.00  0.00    -0.248 NA
ATOM     19  C   UNL     1       4.668  -6.348   0.921  1.00  0.00     0.031 C 
ATOM     20  C   UNL     1       6.099  -3.561  -2.990  1.00  0.00     0.029 A 
ATOM     21  N   UNL     1       6.743  -5.703  -2.989  1.00  0.00    -0.354 N 
ATOM     22  C   UNL     1       5.452  -8.357   0.192  1.00  0.00     0.074 A 
ATOM     23  C   UNL     1       4.671  -7.643   1.176  1.00  0.00     0.031 C 
ATOM     24  C   UNL     1       6.595  -3.840  -4.210  1.00  0.00     0.029 A 
ATOM     25  C   UNL     1       6.984  -5.247  -4.272  1.00  0.00     0.049 A 
ATOM     26  H   UNL     1       7.021  -6.591  -2.668  1.00  0.00     0.167 HD
ATOM     27  C   UNL     1       5.868  -9.635   0.342  1.00  0.00     0.037 A 
ATOM     28  C   UNL     1       7.417  -5.911  -5.370  1.00  0.00     0.037 A 
ATOM     29  C   UNL     1       6.747 -10.296  -0.577  1.00  0.00     0.049 A 
ATOM     30  C   UNL     1       7.865  -7.347  -5.199  1.00  0.00     0.074 A 
ATOM     31  C   UNL     1       7.419 -11.493  -0.423  1.00  0.00     0.029 A 
ATOM     32  N   UNL     1       7.103  -9.786  -1.817  1.00  0.00    -0.354 N 
ATOM     33  N   UNL     1       7.665  -8.168  -4.197  1.00  0.00    -0.248 NA
ATOM     34  C   UNL     1       8.670  -7.926  -6.289  1.00  0.00     0.031 C 
ATOM     35  C   UNL     1       8.236 -11.675  -1.544  1.00  0.00     0.029 A 
ATOM     36  C   UNL     1       8.007 -10.634  -2.430  1.00  0.00     0.049 A 
ATOM     37  H   UNL     1       6.763  -8.947  -2.203  1.00  0.00     0.167 HD
ATOM     38  C   UNL     1       8.356  -9.333  -4.511  1.00  0.00     0.074 A 
ATOM     39  C   UNL     1       8.909  -9.149  -5.835  1.00  0.00     0.031 C 
ATOM     40  C   UNL     1       8.557 -10.434  -3.747  1.00  0.00     0.037 A 
BRANCH  27  41
ATOM     41  C   UNL     1       5.575 -10.257   1.673  1.00  0.00     0.064 A 
ATOM     42  C   UNL     1       4.291 -10.678   2.045  1.00  0.00     0.173 A 
ATOM     43  C   UNL     1       6.590 -10.289   2.644  1.00  0.00     0.173 A 
ATOM     44  F   UNL     1       3.278 -10.612   1.169  1.00  0.00    -0.203 F 
ATOM     45  C   UNL     1       4.024 -11.061   3.358  1.00  0.00     0.198 A 
ATOM     46  C   UNL     1       6.325 -10.701   3.944  1.00  0.00     0.198 A 
ATOM     47  F   UNL     1       7.828  -9.873   2.340  1.00  0.00    -0.203 F 
ATOM     48  F   UNL     1       2.771 -11.364   3.723  1.00  0.00    -0.200 F 
ATOM     49  C   UNL     1       5.040 -11.070   4.305  1.00  0.00     0.200 A 
ATOM     50  F   UNL     1       7.307 -10.700   4.856  1.00  0.00    -0.200 F 
ATOM     51  F   UNL     1       4.771 -11.402   5.575  1.00  0.00    -0.200 F 
ENDBRANCH  27  41
BRANCH  28  52
ATOM     52  C   UNL     1       7.459  -5.278  -6.731  1.00  0.00     0.064 A 
ATOM     53  C   UNL     1       6.793  -5.875  -7.819  1.00  0.00     0.173 A 
ATOM     54  C   UNL     1       8.181  -4.107  -7.005  1.00  0.00     0.173 A 
ATOM     55  F   UNL     1       6.102  -7.012  -7.641  1.00  0.00    -0.203 F 
ATOM     56  C   UNL     1       6.855  -5.336  -9.107  1.00  0.00     0.198 A 
ATOM     57  C   UNL     1       8.204  -3.542  -8.282  1.00  0.00     0.198 A 
ATOM     58  F   UNL     1       8.877  -3.502  -6.032  1.00  0.00    -0.203 F 
ATOM     59  F   UNL     1       6.255  -5.968 -10.125  1.00  0.00    -0.200 F 
ATOM     60  C   UNL     1       7.550  -4.162  -9.335  1.00  0.00     0.200 A 
ATOM     61  F   UNL     1       8.870  -2.399  -8.492  1.00  0.00    -0.200 F 
ATOM     62  F   UNL     1       7.604  -3.637 -10.567  1.00  0.00    -0.200 F 
ENDBRANCH  28  52
BRANCH  40  63
ATOM     63  C   UNL     1       9.453 -11.516  -4.276  1.00  0.00     0.064 A 
ATOM     64  C   UNL     1      10.842 -11.333  -4.354  1.00  0.00     0.173 A 
ATOM     65  C   UNL     1       8.940 -12.791  -4.560  1.00  0.00     0.173 A 
ATOM     66  F   UNL     1      11.382 -10.133  -4.092  1.00  0.00    -0.203 F 
ATOM     67  C   UNL     1      11.685 -12.387  -4.695  1.00  0.00     0.198 A 
ATOM     68  C   UNL     1       9.788 -13.849  -4.875  1.00  0.00     0.198 A 
ATOM     69  F   UNL     1       7.621 -13.020  -4.487  1.00  0.00    -0.203 F 
ATOM     70  F   UNL     1      13.008 -12.187  -4.773  1.00  0.00    -0.200 F 
ATOM     71  C   UNL     1      11.159 -13.647  -4.941  1.00  0.00     0.200 A 
ATOM     72  F   UNL     1       9.281 -15.071  -5.090  1.00  0.00    -0.200 F 
ATOM     73  F   UNL     1      11.974 -14.669  -5.234  1.00  0.00    -0.200 F 
ENDBRANCH  40  63
ENDBRANCH  14  15
ENDBRANCH   7   9
ENDBRANCH   6   7
ENDBRANCH   5   6
ENDBRANCH   4   5
ENDBRANCH   3   4
ENDBRANCH   2   3
ENDBRANCH   1   2
BRANCH   1  74
ATOM     74  O   UNL     1      -1.196   1.153  -2.972  1.00  0.00    -0.376 OA
BRANCH  74  75
ATOM     75  C   UNL     1      -1.920   0.051  -3.502  1.00  0.00     0.202 C 
BRANCH  75  76
ATOM     76  C   UNL     1      -1.413  -0.589  -4.798  1.00  0.00     0.261 C 
BRANCH  76  77
ATOM     77  O   UNL     1      -0.033  -0.976  -4.747  1.00  0.00    -0.463 OA
BRANCH  77  78
ATOM     78  C   UNL     1       0.818  -0.203  -5.475  1.00  0.00     0.310 C 
ATOM     79  O   UNL     1       0.484   0.749  -6.174  1.00  0.00    -0.252 OA
BRANCH  78  80
ATOM     80  C   UNL     1       2.255  -0.648  -5.287  1.00  0.00     0.115 C 
ATOM     81  C   UNL     1       3.125   0.590  -4.977  1.00  0.00     0.043 C 
ATOM     82  C   UNL     1       2.687  -1.384  -6.555  1.00  0.00     0.097 C 
ATOM     83  C   UNL     1       4.578   0.420  -5.298  1.00  0.00    -0.030 C 
ATOM     84  C   UNL     1       4.197  -1.677  -6.596  1.00  0.00     0.041 C 
ATOM     85  C   UNL     1       5.059  -0.599  -6.020  1.00  0.00    -0.030 C 
BRANCH  82  86
ATOM     86  C   UNL     1       1.951  -2.681  -6.939  1.00  0.00     0.227 C 
ATOM     87  O   UNL     1       1.488  -2.788  -8.079  1.00  0.00    -0.275 OA
ATOM     88  N   UNL     1       2.051  -3.786  -6.127  1.00  0.00    -0.331 N 
ATOM     89  C   UNL     1       2.352  -5.094  -6.704  1.00  0.00     0.181 C 
ATOM     90  C   UNL     1       1.762  -3.855  -4.709  1.00  0.00     0.181 C 
ATOM     91  C   UNL     1       3.480  -5.814  -5.910  1.00  0.00     0.284 C 
ATOM     92  C   UNL     1       2.983  -4.400  -3.984  1.00  0.00     0.284 C 
ATOM     93  N   UNL     1       3.463  -5.706  -4.443  1.00  0.00    -0.328 N 
ATOM     94  H   UNL     1       4.448  -5.741  -4.181  1.00  0.00     0.348 HD
BRANCH  93  95
ATOM     95  C   UNL     1       2.994  -6.875  -3.686  1.00  0.00     0.299 C 
BRANCH  95  96
ATOM     96  C   UNL     1       1.493  -7.059  -3.694  1.00  0.00     0.010 A 
ATOM     97  C   UNL     1       0.861  -7.520  -4.868  1.00  0.00     0.013 A 
ATOM     98  C   UNL     1       0.708  -6.614  -2.617  1.00  0.00     0.060 A 
ATOM     99  C   UNL     1      -0.513  -7.363  -5.050  1.00  0.00     0.051 A 
ATOM    100  C   UNL     1      -0.645  -6.464  -2.825  1.00  0.00     0.166 A 
ATOM    101  C   UNL     1      -1.231  -6.796  -4.022  1.00  0.00     0.165 A 
ATOM    102  O   UNL     1      -1.524  -5.906  -1.950  1.00  0.00    -0.454 OA
ATOM    103  O   UNL     1      -2.548  -6.466  -4.063  1.00  0.00    -0.454 OA
ATOM    104  C   UNL     1      -2.710  -5.846  -2.773  1.00  0.00     0.468 C 
ENDBRANCH  95  96
ENDBRANCH  93  95
ENDBRANCH  82  86
ENDBRANCH  78  80
ENDBRANCH  77  78
ENDBRANCH  76  77
ENDBRANCH  75  76
ENDBRANCH  74  75
ENDBRANCH   1  74
TORSDOF 20
