REMARK SMILES CC(C)[C@@H](Cc1nc2ccccc2n1C)C(=O)OCCOCCOCCOC(=O)c1ccc(-c2c3nc(c(-c4c(F)c(F)c(F)c(F)c4F)c4ccc([nH]4)c(-c4c(F)c(F)c(F)c(F)c4F)c4nc(c(-c5c(F)c(F)c(F)c(F)c5F)c5ccc2[nH]5)C=C4)C=C3)cc1
REMARK SMILES IDX 22 1 21 2 20 3 19 4 18 5 16 6 17 7 4 8 2 9 1 10 3 11 5 12
REMARK SMILES IDX 6 13 7 14 14 15 8 16 13 17 15 18 9 19 12 20 10 21 11 22
REMARK SMILES IDX 23 23 24 24 25 25 26 26 27 27 28 28 29 29 30 30 31 31 92 32
REMARK SMILES IDX 32 33 91 34 33 35 34 36 35 37 85 38 36 39 90 40 84 41 86 42
REMARK SMILES IDX 37 43 89 44 83 45 82 46 38 48 70 49 50 50 69 51 51 52 54 53
REMARK SMILES IDX 68 54 87 55 52 56 53 57 67 59 88 60 55 61 39 62 40 63 48 64
REMARK SMILES IDX 41 65 42 66 46 67 49 68 43 69 44 70 47 71 45 72 71 73 72 74
REMARK SMILES IDX 80 75 73 76 74 77 78 78 81 79 75 80 76 81 79 82 77 83 56 84
REMARK SMILES IDX 57 85 65 86 58 87 59 88 63 89 66 90 60 91 61 92 64 93 62 94
REMARK H PARENT 86 47 54 58
REMARK Flexibility Score: inf
ROOT
ATOM      1  C   UNL     1      -1.808  -5.024   1.816  1.00  0.00     0.188 C 
ENDROOT
BRANCH   1   2
ATOM      2  O   UNL     1      -2.463  -6.002   1.026  1.00  0.00    -0.376 OA
BRANCH   2   3
ATOM      3  C   UNL     1      -2.277  -5.986  -0.388  1.00  0.00     0.202 C 
BRANCH   3   4
ATOM      4  C   UNL     1      -2.509  -4.670  -1.153  1.00  0.00     0.261 C 
BRANCH   4   5
ATOM      5  O   UNL     1      -1.522  -3.616  -0.975  1.00  0.00    -0.463 OA
BRANCH   5   6
ATOM      6  C   UNL     1      -1.982  -2.463  -0.428  1.00  0.00     0.309 C 
ATOM      7  O   UNL     1      -3.072  -2.369   0.140  1.00  0.00    -0.252 OA
BRANCH   6   8
ATOM      8  C   UNL     1      -1.112  -1.204  -0.597  1.00  0.00     0.109 C 
BRANCH   8   9
ATOM      9  C   UNL     1       0.455  -1.183  -0.664  1.00  0.00    -0.003 C 
ATOM     10  C   UNL     1       0.959   0.279  -0.629  1.00  0.00     0.008 C 
ATOM     11  C   UNL     1       1.200  -1.880   0.476  1.00  0.00     0.008 C 
ENDBRANCH   8   9
BRANCH   8  12
ATOM     12  C   UNL     1      -1.760  -0.434  -1.782  1.00  0.00     0.091 C 
BRANCH  12  13
ATOM     13  C   UNL     1      -1.412  -1.074  -3.091  1.00  0.00     0.110 A 
ATOM     14  N   UNL     1      -1.699  -2.329  -3.368  1.00  0.00    -0.233 NA
ATOM     15  N   UNL     1      -0.686  -0.512  -4.117  1.00  0.00    -0.331 N 
ATOM     16  C   UNL     1      -1.032  -2.634  -4.515  1.00  0.00     0.089 A 
ATOM     17  C   UNL     1      -0.410  -1.506  -5.034  1.00  0.00     0.068 A 
ATOM     18  C   UNL     1      -0.217   0.845  -4.239  1.00  0.00     0.151 C 
ATOM     19  C   UNL     1      -0.906  -3.869  -5.165  1.00  0.00     0.030 A 
ATOM     20  C   UNL     1       0.317  -1.538  -6.229  1.00  0.00     0.028 A 
ATOM     21  C   UNL     1      -0.169  -3.927  -6.350  1.00  0.00     0.002 A 
ATOM     22  C   UNL     1       0.421  -2.776  -6.877  1.00  0.00     0.002 A 
ENDBRANCH  12  13
ENDBRANCH   8  12
ENDBRANCH   6   8
ENDBRANCH   5   6
ENDBRANCH   4   5
ENDBRANCH   3   4
ENDBRANCH   2   3
ENDBRANCH   1   2
BRANCH   1  23
ATOM     23  C   UNL     1      -0.392  -4.612   1.431  1.00  0.00     0.188 C 
BRANCH  23  24
ATOM     24  O   UNL     1       0.232  -5.450   0.481  1.00  0.00    -0.376 OA
BRANCH  24  25
ATOM     25  C   UNL     1       1.522  -5.952   0.782  1.00  0.00     0.202 C 
BRANCH  25  26
ATOM     26  C   UNL     1       1.530  -6.916   1.974  1.00  0.00     0.261 C 
BRANCH  26  27
ATOM     27  O   UNL     1       1.187  -6.304   3.236  1.00  0.00    -0.460 OA
BRANCH  27  28
ATOM     28  C   UNL     1       1.977  -5.285   3.648  1.00  0.00     0.338 C 
ATOM     29  O   UNL     1       3.035  -4.929   3.155  1.00  0.00    -0.246 OA
BRANCH  28  30
ATOM     30  C   UNL     1       1.217  -4.480   4.634  1.00  0.00     0.060 A 
ATOM     31  C   UNL     1       1.128  -3.095   4.432  1.00  0.00     0.016 A 
ATOM     32  C   UNL     1       0.562  -5.076   5.713  1.00  0.00     0.016 A 
ATOM     33  C   UNL     1       0.433  -2.296   5.340  1.00  0.00     0.010 A 
ATOM     34  C   UNL     1      -0.118  -4.272   6.634  1.00  0.00     0.010 A 
ATOM     35  C   UNL     1      -0.148  -2.874   6.476  1.00  0.00    -0.014 A 
BRANCH  35  36
ATOM     36  C   UNL     1      -0.578  -1.993   7.592  1.00  0.00     0.031 A 
ATOM     37  C   UNL     1       0.358  -1.815   8.758  1.00  0.00     0.074 A 
ATOM     38  C   UNL     1      -1.733  -1.306   7.548  1.00  0.00     0.049 A 
ATOM     39  N   UNL     1       0.223  -1.085   9.836  1.00  0.00    -0.248 NA
ATOM     40  C   UNL     1       1.624  -2.564   8.696  1.00  0.00     0.031 C 
ATOM     41  C   UNL     1      -2.705  -1.351   6.459  1.00  0.00     0.029 A 
ATOM     42  N   UNL     1      -2.277  -0.424   8.451  1.00  0.00    -0.354 N 
ATOM     43  C   UNL     1       1.379  -1.291  10.578  1.00  0.00     0.074 A 
ATOM     44  C   UNL     1       2.187  -2.243   9.850  1.00  0.00     0.031 C 
ATOM     45  C   UNL     1      -3.728  -0.529   6.755  1.00  0.00     0.029 A 
ATOM     46  C   UNL     1      -3.496   0.077   8.066  1.00  0.00     0.049 A 
ATOM     47  H   UNL     1      -1.834  -0.175   9.294  1.00  0.00     0.167 HD
ATOM     48  C   UNL     1       1.744  -0.727  11.754  1.00  0.00     0.037 A 
ATOM     49  C   UNL     1      -4.332   0.918   8.707  1.00  0.00     0.037 A 
ATOM     50  C   UNL     1       0.941   0.220  12.482  1.00  0.00     0.049 A 
ATOM     51  C   UNL     1      -3.934   1.479  10.050  1.00  0.00     0.074 A 
ATOM     52  C   UNL     1       1.224   0.849  13.682  1.00  0.00     0.029 A 
ATOM     53  N   UNL     1      -0.308   0.669  12.081  1.00  0.00    -0.354 N 
ATOM     54  N   UNL     1      -2.833   1.293  10.738  1.00  0.00    -0.248 NA
ATOM     55  C   UNL     1      -4.897   2.379  10.701  1.00  0.00     0.031 C 
ATOM     56  C   UNL     1       0.121   1.633  14.036  1.00  0.00     0.029 A 
ATOM     57  C   UNL     1      -0.819   1.550  13.022  1.00  0.00     0.049 A 
ATOM     58  H   UNL     1      -0.765   0.402  11.251  1.00  0.00     0.167 HD
ATOM     59  C   UNL     1      -2.954   2.078  11.879  1.00  0.00     0.074 A 
ATOM     60  C   UNL     1      -4.230   2.756  11.782  1.00  0.00     0.031 C 
ATOM     61  C   UNL     1      -2.088   2.226  12.913  1.00  0.00     0.037 A 
BRANCH  48  62
ATOM     62  C   UNL     1       3.060  -1.150  12.342  1.00  0.00     0.064 A 
ATOM     63  C   UNL     1       4.285  -0.792  11.756  1.00  0.00     0.173 A 
ATOM     64  C   UNL     1       3.097  -1.913  13.519  1.00  0.00     0.173 A 
ATOM     65  F   UNL     1       4.307  -0.078  10.620  1.00  0.00    -0.203 F 
ATOM     66  C   UNL     1       5.493  -1.209  12.308  1.00  0.00     0.198 A 
ATOM     67  C   UNL     1       4.308  -2.299  14.087  1.00  0.00     0.198 A 
ATOM     68  F   UNL     1       1.957  -2.283  14.121  1.00  0.00    -0.203 F 
ATOM     69  F   UNL     1       6.647  -0.903  11.698  1.00  0.00    -0.200 F 
ATOM     70  C   UNL     1       5.504  -1.955  13.477  1.00  0.00     0.200 A 
ATOM     71  F   UNL     1       4.316  -3.008  15.224  1.00  0.00    -0.200 F 
ATOM     72  F   UNL     1       6.668  -2.350  14.010  1.00  0.00    -0.200 F 
ENDBRANCH  48  62
BRANCH  49  73
ATOM     73  C   UNL     1      -5.637   1.288   8.093  1.00  0.00     0.064 A 
ATOM     74  C   UNL     1      -5.900   2.602   7.680  1.00  0.00     0.173 A 
ATOM     75  C   UNL     1      -6.661   0.341   7.941  1.00  0.00     0.173 A 
ATOM     76  F   UNL     1      -4.965   3.552   7.832  1.00  0.00    -0.203 F 
ATOM     77  C   UNL     1      -7.143   2.959   7.161  1.00  0.00     0.198 A 
ATOM     78  C   UNL     1      -7.893   0.693   7.391  1.00  0.00     0.198 A 
ATOM     79  F   UNL     1      -6.466  -0.928   8.328  1.00  0.00    -0.203 F 
ATOM     80  F   UNL     1      -7.387   4.235   6.830  1.00  0.00    -0.200 F 
ATOM     81  C   UNL     1      -8.136   2.003   7.011  1.00  0.00     0.200 A 
ATOM     82  F   UNL     1      -8.846  -0.237   7.240  1.00  0.00    -0.200 F 
ATOM     83  F   UNL     1      -9.332   2.348   6.512  1.00  0.00    -0.200 F 
ENDBRANCH  49  73
BRANCH  61  84
ATOM     84  C   UNL     1      -2.465   3.200  13.996  1.00  0.00     0.064 A 
ATOM     85  C   UNL     1      -3.536   2.965  14.871  1.00  0.00     0.173 A 
ATOM     86  C   UNL     1      -1.733   4.387  14.166  1.00  0.00     0.173 A 
ATOM     87  F   UNL     1      -4.276   1.852  14.749  1.00  0.00    -0.203 F 
ATOM     88  C   UNL     1      -3.891   3.901  15.840  1.00  0.00     0.198 A 
ATOM     89  C   UNL     1      -2.065   5.302  15.161  1.00  0.00     0.198 A 
ATOM     90  F   UNL     1      -0.689   4.659  13.367  1.00  0.00    -0.203 F 
ATOM     91  F   UNL     1      -4.963   3.687  16.615  1.00  0.00    -0.200 F 
ATOM     92  C   UNL     1      -3.153   5.066  15.987  1.00  0.00     0.200 A 
ATOM     93  F   UNL     1      -1.338   6.417  15.314  1.00  0.00    -0.200 F 
ATOM     94  F   UNL     1      -3.497   5.966  16.918  1.00  0.00    -0.200 F 
ENDBRANCH  61  84
ENDBRANCH  35  36
ENDBRANCH  28  30
ENDBRANCH  27  28
ENDBRANCH  26  27
ENDBRANCH  25  26
ENDBRANCH  24  25
ENDBRANCH  23  24
ENDBRANCH   1  23
TORSDOF 20
