REMARK SMILES CC(C)(C)[NH2+]Cc1cc(C(=O)OCCOCCOCCOC(=O)c2ccc(-c3c4nc(c(-c5c(F)c(F)c(F)c(F)c5F)c5ccc([nH]5)c(-c5c(F)c(F)c(F)c(F)c5F)c5nc(c(-c6c(F)c(F)c(F)c(F)c6F)c6ccc3[nH]6)C=C5)C=C4)cc2)cs1
REMARK SMILES IDX 16 1 15 2 14 3 13 4 12 5 10 6 11 7 9 8 7 9 8 10 88 11 87 12
REMARK SMILES IDX 6 13 5 14 2 17 1 18 3 19 4 20 17 21 18 22 19 23 20 24 21 25
REMARK SMILES IDX 22 26 23 27 24 28 25 29 86 30 26 31 85 32 27 33 28 34 29 35
REMARK SMILES IDX 79 36 30 37 84 38 78 39 80 40 31 41 83 42 77 43 76 44 32 46
REMARK SMILES IDX 64 47 44 48 63 49 45 50 48 51 62 52 81 53 46 54 47 55 61 57
REMARK SMILES IDX 82 58 49 59 33 60 34 61 42 62 35 63 36 64 40 65 43 66 37 67
REMARK SMILES IDX 38 68 41 69 39 70 65 71 66 72 74 73 67 74 68 75 72 76 75 77
REMARK SMILES IDX 69 78 70 79 73 80 71 81 50 82 51 83 59 84 52 85 53 86 57 87
REMARK SMILES IDX 60 88 54 89 55 90 58 91 56 92
REMARK H PARENT 5 15 5 16 80 45 48 56
REMARK Flexibility Score: inf
ROOT
ATOM      1  C   UNL     1       3.417  -3.128   5.307  1.00  0.00     0.188 C 
ENDROOT
BRANCH   1   2
ATOM      2  O   UNL     1       4.596  -2.906   6.076  1.00  0.00    -0.376 OA
BRANCH   2   3
ATOM      3  C   UNL     1       5.345  -1.712   5.918  1.00  0.00     0.202 C 
BRANCH   3   4
ATOM      4  C   UNL     1       6.254  -1.649   4.690  1.00  0.00     0.261 C 
BRANCH   4   5
ATOM      5  O   UNL     1       5.543  -1.807   3.452  1.00  0.00    -0.460 OA
BRANCH   5   6
ATOM      6  C   UNL     1       5.667  -3.027   2.854  1.00  0.00     0.339 C 
ATOM      7  O   UNL     1       6.402  -3.926   3.246  1.00  0.00    -0.246 OA
BRANCH   6   8
ATOM      8  C   UNL     1       4.742  -3.203   1.736  1.00  0.00     0.071 A 
ATOM      9  C   UNL     1       3.258  -2.712  -0.026  1.00  0.00     0.060 A 
ATOM     10  C   UNL     1       4.103  -2.191   0.939  1.00  0.00     0.037 A 
ATOM     11  S   UNL     1       3.227  -4.425   0.037  1.00  0.00    -0.142 S 
ATOM     12  C   UNL     1       4.346  -4.462   1.321  1.00  0.00     0.081 A 
BRANCH   9  13
ATOM     13  C   UNL     1       2.463  -1.986  -1.073  1.00  0.00     0.308 C 
BRANCH  13  14
ATOM     14  N   UNL     1       1.016  -2.103  -0.921  1.00  0.00    -0.338 N 
ATOM     15  H   UNL     1       0.603  -1.877  -1.826  1.00  0.00     0.347 HD
ATOM     16  H   UNL     1       0.886  -3.055  -0.579  1.00  0.00     0.347 HD
BRANCH  14  17
ATOM     17  C   UNL     1       0.325  -1.279   0.081  1.00  0.00     0.088 C 
ATOM     18  C   UNL     1       0.774   0.192   0.072  1.00  0.00     0.078 C 
ATOM     19  C   UNL     1       0.465  -1.859   1.497  1.00  0.00     0.078 C 
ATOM     20  C   UNL     1      -1.169  -1.325  -0.302  1.00  0.00     0.078 C 
ENDBRANCH  14  17
ENDBRANCH  13  14
ENDBRANCH   9  13
ENDBRANCH   6   8
ENDBRANCH   5   6
ENDBRANCH   4   5
ENDBRANCH   3   4
ENDBRANCH   2   3
ENDBRANCH   1   2
BRANCH   1  21
ATOM     21  C   UNL     1       2.649  -1.962   4.659  1.00  0.00     0.188 C 
BRANCH  21  22
ATOM     22  O   UNL     1       2.615  -0.782   5.450  1.00  0.00    -0.376 OA
BRANCH  22  23
ATOM     23  C   UNL     1       1.331  -0.373   5.902  1.00  0.00     0.202 C 
BRANCH  23  24
ATOM     24  C   UNL     1       0.946  -1.071   7.208  1.00  0.00     0.261 C 
BRANCH  24  25
ATOM     25  O   UNL     1       0.762  -2.490   7.079  1.00  0.00    -0.460 OA
BRANCH  25  26
ATOM     26  C   UNL     1      -0.252  -2.897   6.285  1.00  0.00     0.338 C 
ATOM     27  O   UNL     1      -1.043  -2.199   5.678  1.00  0.00    -0.246 OA
BRANCH  26  28
ATOM     28  C   UNL     1      -0.159  -4.361   6.143  1.00  0.00     0.060 A 
ATOM     29  C   UNL     1      -0.154  -4.913   4.857  1.00  0.00     0.016 A 
ATOM     30  C   UNL     1      -0.089  -5.183   7.271  1.00  0.00     0.016 A 
ATOM     31  C   UNL     1      -0.108  -6.299   4.698  1.00  0.00     0.010 A 
ATOM     32  C   UNL     1      -0.055  -6.568   7.111  1.00  0.00     0.010 A 
ATOM     33  C   UNL     1      -0.090  -7.133   5.825  1.00  0.00    -0.014 A 
BRANCH  33  34
ATOM     34  C   UNL     1      -0.254  -8.598   5.672  1.00  0.00     0.031 A 
ATOM     35  C   UNL     1      -1.630  -9.188   5.799  1.00  0.00     0.074 A 
ATOM     36  C   UNL     1       0.803  -9.393   5.437  1.00  0.00     0.049 A 
ATOM     37  N   UNL     1      -2.006 -10.440   5.738  1.00  0.00    -0.248 NA
ATOM     38  C   UNL     1      -2.729  -8.238   6.029  1.00  0.00     0.031 C 
ATOM     39  C   UNL     1       2.183  -8.941   5.279  1.00  0.00     0.029 A 
ATOM     40  N   UNL     1       0.875 -10.758   5.303  1.00  0.00    -0.354 N 
ATOM     41  C   UNL     1      -3.382 -10.428   5.916  1.00  0.00     0.074 A 
ATOM     42  C   UNL     1      -3.773  -9.049   6.119  1.00  0.00     0.031 C 
ATOM     43  C   UNL     1       2.971 -10.014   5.082  1.00  0.00     0.029 A 
ATOM     44  C   UNL     1       2.153 -11.225   5.123  1.00  0.00     0.049 A 
ATOM     45  H   UNL     1       0.085 -11.345   5.333  1.00  0.00     0.167 HD
ATOM     46  C   UNL     1      -4.245 -11.471   5.901  1.00  0.00     0.037 A 
ATOM     47  C   UNL     1       2.608 -12.489   5.023  1.00  0.00     0.037 A 
ATOM     48  C   UNL     1      -3.861 -12.843   5.712  1.00  0.00     0.049 A 
ATOM     49  C   UNL     1       1.635 -13.639   5.082  1.00  0.00     0.074 A 
ATOM     50  C   UNL     1      -4.668 -13.966   5.657  1.00  0.00     0.029 A 
ATOM     51  N   UNL     1      -2.554 -13.281   5.561  1.00  0.00    -0.354 N 
ATOM     52  N   UNL     1       0.330 -13.616   5.203  1.00  0.00    -0.248 NA
ATOM     53  C   UNL     1       2.202 -14.993   4.991  1.00  0.00     0.031 C 
ATOM     54  C   UNL     1      -3.845 -15.089   5.516  1.00  0.00     0.029 A 
ATOM     55  C   UNL     1      -2.530 -14.661   5.440  1.00  0.00     0.049 A 
ATOM     56  H   UNL     1      -1.761 -12.698   5.542  1.00  0.00     0.167 HD
ATOM     57  C   UNL     1      -0.081 -14.942   5.178  1.00  0.00     0.074 A 
ATOM     58  C   UNL     1       1.111 -15.747   5.019  1.00  0.00     0.031 C 
ATOM     59  C   UNL     1      -1.335 -15.448   5.277  1.00  0.00     0.037 A 
BRANCH  46  60
ATOM     60  C   UNL     1      -5.696 -11.163   6.113  1.00  0.00     0.064 A 
ATOM     61  C   UNL     1      -6.468 -10.553   5.114  1.00  0.00     0.173 A 
ATOM     62  C   UNL     1      -6.327 -11.506   7.318  1.00  0.00     0.173 A 
ATOM     63  F   UNL     1      -5.904 -10.192   3.951  1.00  0.00    -0.203 F 
ATOM     64  C   UNL     1      -7.817 -10.278   5.322  1.00  0.00     0.198 A 
ATOM     65  C   UNL     1      -7.681 -11.251   7.513  1.00  0.00     0.198 A 
ATOM     66  F   UNL     1      -5.631 -12.092   8.303  1.00  0.00    -0.203 F 
ATOM     67  F   UNL     1      -8.527  -9.658   4.369  1.00  0.00    -0.200 F 
ATOM     68  C   UNL     1      -8.424 -10.632   6.518  1.00  0.00     0.200 A 
ATOM     69  F   UNL     1      -8.268 -11.600   8.666  1.00  0.00    -0.200 F 
ATOM     70  F   UNL     1      -9.723 -10.369   6.715  1.00  0.00    -0.200 F 
ENDBRANCH  46  60
BRANCH  47  71
ATOM     71  C   UNL     1       4.062 -12.744   4.864  1.00  0.00     0.064 A 
ATOM     72  C   UNL     1       4.581 -13.234   3.658  1.00  0.00     0.173 A 
ATOM     73  C   UNL     1       4.956 -12.533   5.923  1.00  0.00     0.173 A 
ATOM     74  F   UNL     1       3.759 -13.481   2.627  1.00  0.00    -0.203 F 
ATOM     75  C   UNL     1       5.938 -13.519   3.522  1.00  0.00     0.198 A 
ATOM     76  C   UNL     1       6.317 -12.796   5.779  1.00  0.00     0.198 A 
ATOM     77  F   UNL     1       4.506 -12.074   7.100  1.00  0.00    -0.203 F 
ATOM     78  F   UNL     1       6.401 -14.032   2.374  1.00  0.00    -0.200 F 
ATOM     79  C   UNL     1       6.805 -13.296   4.582  1.00  0.00     0.200 A 
ATOM     80  F   UNL     1       7.152 -12.576   6.804  1.00  0.00    -0.200 F 
ATOM     81  F   UNL     1       8.110 -13.574   4.452  1.00  0.00    -0.200 F 
ENDBRANCH  47  71
BRANCH  59  82
ATOM     82  C   UNL     1      -1.488 -16.939   5.191  1.00  0.00     0.064 A 
ATOM     83  C   UNL     1      -1.116 -17.777   6.251  1.00  0.00     0.173 A 
ATOM     84  C   UNL     1      -2.058 -17.530   4.053  1.00  0.00     0.173 A 
ATOM     85  F   UNL     1      -0.553 -17.261   7.354  1.00  0.00    -0.203 F 
ATOM     86  C   UNL     1      -1.293 -19.156   6.168  1.00  0.00     0.198 A 
ATOM     87  C   UNL     1      -2.257 -18.906   3.984  1.00  0.00     0.198 A 
ATOM     88  F   UNL     1      -2.437 -16.770   3.014  1.00  0.00    -0.203 F 
ATOM     89  F   UNL     1      -0.895 -19.943   7.178  1.00  0.00    -0.200 F 
ATOM     90  C   UNL     1      -1.869 -19.718   5.038  1.00  0.00     0.200 A 
ATOM     91  F   UNL     1      -2.825 -19.446   2.897  1.00  0.00    -0.200 F 
ATOM     92  F   UNL     1      -2.045 -21.045   4.964  1.00  0.00    -0.200 F 
ENDBRANCH  59  82
ENDBRANCH  33  34
ENDBRANCH  26  28
ENDBRANCH  25  26
ENDBRANCH  24  25
ENDBRANCH  23  24
ENDBRANCH  22  23
ENDBRANCH  21  22
ENDBRANCH   1  21
TORSDOF 20
