REMARK SMILES COc1ccc(O[C@H]2CC[C@@]([NH2+]C(C)C)(C(=O)OCCOCCOCCOC(=O)c3ccc(-c4c5nc(c(-c6c(F)c(F)c(F)c(F)c6F)c6ccc([nH]6)c(-c6c(F)c(F)c(F)c(F)c6F)c6nc(c(-c7c(F)c(F)c(F)c(F)c7F)c7ccc4[nH]7)C=C6)C=C5)cc3)C2)cc1
REMARK SMILES IDX 22 1 21 2 20 3 19 4 18 5 16 6 17 7 11 8 8 9 9 10 93 11 10 12
REMARK SMILES IDX 7 13 6 14 3 15 4 16 95 17 5 18 94 19 2 20 1 21 12 22 13 25
REMARK SMILES IDX 14 26 15 27 23 28 24 29 25 30 26 31 27 32 28 33 29 34 30 35
REMARK SMILES IDX 31 36 92 37 32 38 91 39 33 40 34 41 35 42 85 43 36 44 90 45
REMARK SMILES IDX 84 46 86 47 37 48 89 49 83 50 82 51 38 53 70 54 50 55 69 56
REMARK SMILES IDX 51 57 54 58 68 59 87 60 52 61 53 62 67 64 88 65 55 66 39 67
REMARK SMILES IDX 40 68 48 69 41 70 42 71 46 72 49 73 43 74 44 75 47 76 45 77
REMARK SMILES IDX 71 78 72 79 80 80 73 81 74 82 78 83 81 84 75 85 76 86 79 87
REMARK SMILES IDX 77 88 56 89 57 90 65 91 58 92 59 93 63 94 66 95 60 96 61 97
REMARK SMILES IDX 64 98 62 99
REMARK H PARENT 12 23 12 24 86 52 54 63
REMARK Flexibility Score: inf
ROOT
ATOM      1  C   UNL     1       6.309  -1.771  -8.857  1.00  0.00     0.188 C 
ENDROOT
BRANCH   1   2
ATOM      2  O   UNL     1       6.058  -0.799  -9.868  1.00  0.00    -0.376 OA
BRANCH   2   3
ATOM      3  C   UNL     1       6.986   0.290  -9.842  1.00  0.00     0.202 C 
BRANCH   3   4
ATOM      4  C   UNL     1       7.045   1.179  -8.581  1.00  0.00     0.261 C 
BRANCH   4   5
ATOM      5  O   UNL     1       6.728   0.519  -7.343  1.00  0.00    -0.459 OA
BRANCH   5   6
ATOM      6  C   UNL     1       5.392   0.482  -7.039  1.00  0.00     0.368 C 
ATOM      7  O   UNL     1       4.528   1.009  -7.718  1.00  0.00    -0.245 OA
BRANCH   6   8
ATOM      8  C   UNL     1       5.124  -0.210  -5.660  1.00  0.00     0.198 C 
ATOM      9  C   UNL     1       3.741  -2.313  -5.553  1.00  0.00     0.180 C 
ATOM     10  C   UNL     1       5.081  -2.563  -4.882  1.00  0.00     0.052 C 
ATOM     11  C   UNL     1       3.666  -0.770  -5.609  1.00  0.00     0.126 C 
ATOM     12  C   UNL     1       6.000  -1.465  -5.414  1.00  0.00     0.085 C 
BRANCH   9  13
ATOM     13  O   UNL     1       3.729  -2.812  -6.889  1.00  0.00    -0.490 OA
BRANCH  13  14
ATOM     14  C   UNL     1       3.351  -4.090  -7.182  1.00  0.00     0.119 A 
ATOM     15  C   UNL     1       2.719  -6.635  -8.272  1.00  0.00     0.119 A 
ATOM     16  C   UNL     1       2.707  -6.405  -6.888  1.00  0.00     0.050 A 
ATOM     17  C   UNL     1       3.018  -5.577  -9.109  1.00  0.00     0.050 A 
ATOM     18  C   UNL     1       3.025  -5.139  -6.339  1.00  0.00     0.050 A 
ATOM     19  C   UNL     1       3.330  -4.341  -8.550  1.00  0.00     0.050 A 
BRANCH  15  20
ATOM     20  O   UNL     1       2.427  -7.903  -8.697  1.00  0.00    -0.497 OA
ATOM     21  C   UNL     1       2.717  -8.190 -10.068  1.00  0.00     0.278 C 
ENDBRANCH  15  20
ENDBRANCH  13  14
ENDBRANCH   9  13
BRANCH   8  22
ATOM     22  N   UNL     1       5.429   0.723  -4.538  1.00  0.00    -0.330 N 
ATOM     23  H   UNL     1       6.400   0.564  -4.268  1.00  0.00     0.347 HD
ATOM     24  H   UNL     1       4.728   0.503  -3.830  1.00  0.00     0.347 HD
BRANCH  22  25
ATOM     25  C   UNL     1       5.272   2.162  -4.770  1.00  0.00     0.176 C 
ATOM     26  C   UNL     1       3.812   2.601  -4.752  1.00  0.00     0.075 C 
ATOM     27  C   UNL     1       6.065   2.894  -3.683  1.00  0.00     0.075 C 
ENDBRANCH  22  25
ENDBRANCH   8  22
ENDBRANCH   6   8
ENDBRANCH   5   6
ENDBRANCH   4   5
ENDBRANCH   3   4
ENDBRANCH   2   3
ENDBRANCH   1   2
BRANCH   1  28
ATOM     28  C   UNL     1       6.412  -3.226  -9.281  1.00  0.00     0.188 C 
BRANCH  28  29
ATOM     29  O   UNL     1       7.576  -3.519 -10.038  1.00  0.00    -0.376 OA
BRANCH  29  30
ATOM     30  C   UNL     1       7.563  -2.994 -11.367  1.00  0.00     0.202 C 
BRANCH  30  31
ATOM     31  C   UNL     1       6.380  -3.452 -12.232  1.00  0.00     0.261 C 
BRANCH  31  32
ATOM     32  O   UNL     1       5.136  -2.783 -11.899  1.00  0.00    -0.460 OA
BRANCH  32  33
ATOM     33  C   UNL     1       4.057  -3.316 -12.529  1.00  0.00     0.338 C 
ATOM     34  O   UNL     1       4.125  -4.158 -13.418  1.00  0.00    -0.246 OA
BRANCH  33  35
ATOM     35  C   UNL     1       2.742  -2.920 -11.932  1.00  0.00     0.060 A 
ATOM     36  C   UNL     1       2.598  -2.090 -10.820  1.00  0.00     0.016 A 
ATOM     37  C   UNL     1       1.598  -3.563 -12.425  1.00  0.00     0.016 A 
ATOM     38  C   UNL     1       1.373  -2.066 -10.111  1.00  0.00     0.010 A 
ATOM     39  C   UNL     1       0.359  -3.446 -11.778  1.00  0.00     0.010 A 
ATOM     40  C   UNL     1       0.227  -2.743 -10.571  1.00  0.00    -0.014 A 
BRANCH  40  41
ATOM     41  C   UNL     1      -1.105  -2.749  -9.864  1.00  0.00     0.031 A 
ATOM     42  C   UNL     1      -1.886  -4.040  -9.680  1.00  0.00     0.074 A 
ATOM     43  C   UNL     1      -1.696  -1.615  -9.432  1.00  0.00     0.049 A 
ATOM     44  N   UNL     1      -3.176  -4.223  -9.505  1.00  0.00    -0.248 NA
ATOM     45  C   UNL     1      -1.109  -5.288  -9.691  1.00  0.00     0.031 C 
ATOM     46  C   UNL     1      -1.091  -0.286  -9.408  1.00  0.00     0.029 A 
ATOM     47  N   UNL     1      -2.976  -1.401  -8.959  1.00  0.00    -0.354 N 
ATOM     48  C   UNL     1      -3.370  -5.601  -9.448  1.00  0.00     0.074 A 
ATOM     49  C   UNL     1      -2.062  -6.208  -9.590  1.00  0.00     0.031 C 
ATOM     50  C   UNL     1      -1.986   0.599  -8.950  1.00  0.00     0.029 A 
ATOM     51  C   UNL     1      -3.270  -0.071  -8.779  1.00  0.00     0.049 A 
ATOM     52  H   UNL     1      -3.613  -2.128  -8.769  1.00  0.00     0.167 HD
ATOM     53  C   UNL     1      -4.529  -6.293  -9.301  1.00  0.00     0.037 A 
ATOM     54  C   UNL     1      -4.441   0.574  -8.602  1.00  0.00     0.037 A 
ATOM     55  C   UNL     1      -5.830  -5.698  -9.097  1.00  0.00     0.049 A 
ATOM     56  C   UNL     1      -5.734  -0.187  -8.573  1.00  0.00     0.074 A 
ATOM     57  C   UNL     1      -7.056  -6.327  -8.941  1.00  0.00     0.029 A 
ATOM     58  N   UNL     1      -6.072  -4.338  -9.000  1.00  0.00    -0.354 N 
ATOM     59  N   UNL     1      -5.936  -1.477  -8.665  1.00  0.00    -0.248 NA
ATOM     60  C   UNL     1      -6.966   0.606  -8.445  1.00  0.00     0.031 C 
ATOM     61  C   UNL     1      -8.044  -5.347  -8.794  1.00  0.00     0.029 A 
ATOM     62  C   UNL     1      -7.428  -4.109  -8.807  1.00  0.00     0.049 A 
ATOM     63  H   UNL     1      -5.384  -3.636  -9.059  1.00  0.00     0.167 HD
ATOM     64  C   UNL     1      -7.311  -1.652  -8.597  1.00  0.00     0.074 A 
ATOM     65  C   UNL     1      -7.896  -0.338  -8.439  1.00  0.00     0.031 C 
ATOM     66  C   UNL     1      -8.020  -2.805  -8.661  1.00  0.00     0.037 A 
BRANCH  53  67
ATOM     67  C   UNL     1      -4.481  -7.795  -9.392  1.00  0.00     0.064 A 
ATOM     68  C   UNL     1      -3.997  -8.592  -8.346  1.00  0.00     0.173 A 
ATOM     69  C   UNL     1      -5.041  -8.446 -10.505  1.00  0.00     0.173 A 
ATOM     70  F   UNL     1      -3.456  -8.023  -7.259  1.00  0.00    -0.203 F 
ATOM     71  C   UNL     1      -4.066  -9.983  -8.415  1.00  0.00     0.198 A 
ATOM     72  C   UNL     1      -5.132  -9.835 -10.559  1.00  0.00     0.198 A 
ATOM     73  F   UNL     1      -5.538  -7.731 -11.527  1.00  0.00    -0.203 F 
ATOM     74  F   UNL     1      -3.580 -10.727  -7.411  1.00  0.00    -0.200 F 
ATOM     75  C   UNL     1      -4.642 -10.602  -9.515  1.00  0.00     0.200 A 
ATOM     76  F   UNL     1      -5.710 -10.428 -11.613  1.00  0.00    -0.200 F 
ATOM     77  F   UNL     1      -4.728 -11.939  -9.567  1.00  0.00    -0.200 F 
ENDBRANCH  53  67
BRANCH  54  78
ATOM     78  C   UNL     1      -4.439   2.060  -8.548  1.00  0.00     0.064 A 
ATOM     79  C   UNL     1      -4.721   2.742  -7.359  1.00  0.00     0.173 A 
ATOM     80  C   UNL     1      -4.111   2.823  -9.681  1.00  0.00     0.173 A 
ATOM     81  F   UNL     1      -5.078   2.057  -6.262  1.00  0.00    -0.203 F 
ATOM     82  C   UNL     1      -4.661   4.132  -7.300  1.00  0.00     0.198 A 
ATOM     83  C   UNL     1      -4.016   4.209  -9.611  1.00  0.00     0.198 A 
ATOM     84  F   UNL     1      -3.842   2.215 -10.846  1.00  0.00    -0.203 F 
ATOM     85  F   UNL     1      -4.962   4.765  -6.158  1.00  0.00    -0.200 F 
ATOM     86  C   UNL     1      -4.293   4.863  -8.421  1.00  0.00     0.200 A 
ATOM     87  F   UNL     1      -3.642   4.908 -10.691  1.00  0.00    -0.200 F 
ATOM     88  F   UNL     1      -4.208   6.199  -8.354  1.00  0.00    -0.200 F 
ENDBRANCH  54  78
BRANCH  66  89
ATOM     89  C   UNL     1      -9.512  -2.702  -8.529  1.00  0.00     0.064 A 
ATOM     90  C   UNL     1     -10.308  -2.190  -9.564  1.00  0.00     0.173 A 
ATOM     91  C   UNL     1     -10.154  -3.119  -7.353  1.00  0.00     0.173 A 
ATOM     92  F   UNL     1      -9.742  -1.760 -10.701  1.00  0.00    -0.203 F 
ATOM     93  C   UNL     1     -11.688  -2.070  -9.414  1.00  0.00     0.198 A 
ATOM     94  C   UNL     1     -11.536  -3.020  -7.216  1.00  0.00     0.198 A 
ATOM     95  F   UNL     1      -9.440  -3.619  -6.333  1.00  0.00    -0.203 F 
ATOM     96  F   UNL     1     -12.422  -1.527 -10.396  1.00  0.00    -0.200 F 
ATOM     97  C   UNL     1     -12.301  -2.488  -8.242  1.00  0.00     0.200 A 
ATOM     98  F   UNL     1     -12.127  -3.431  -6.085  1.00  0.00    -0.200 F 
ATOM     99  F   UNL     1     -13.628  -2.365  -8.097  1.00  0.00    -0.200 F 
ENDBRANCH  66  89
ENDBRANCH  40  41
ENDBRANCH  33  35
ENDBRANCH  32  33
ENDBRANCH  31  32
ENDBRANCH  30  31
ENDBRANCH  29  30
ENDBRANCH  28  29
ENDBRANCH   1  28
TORSDOF 22
