REMARK SMILES CC(C)[C@@H](CNC(=O)[C@@H]1CC[C@@H]2CCCC[C@@H]2[NH2+]1)C(=O)OCCOCCOCCOC(=O)c1ccc(-c2c3nc(c(-c4c(F)c(F)c(F)c(F)c4F)c4ccc([nH]4)c(-c4c(F)c(F)c(F)c(F)c4F)c4nc(c(-c5c(F)c(F)c(F)c(F)c5F)c5ccc2[nH]5)C=C4)C=C3)cc1
REMARK SMILES IDX 25 1 24 2 23 3 22 4 21 5 19 6 20 7 4 8 2 9 1 10 3 11 5 12
REMARK SMILES IDX 6 13 7 14 8 16 9 17 10 18 18 19 11 20 17 21 12 24 16 25
REMARK SMILES IDX 13 26 15 27 14 28 26 29 27 30 28 31 29 32 30 33 31 34 32 35
REMARK SMILES IDX 33 36 34 37 95 38 35 39 94 40 36 41 37 42 38 43 88 44 39 45
REMARK SMILES IDX 93 46 87 47 89 48 40 49 92 50 86 51 85 52 41 54 73 55 53 56
REMARK SMILES IDX 72 57 54 58 57 59 71 60 90 61 55 62 56 63 70 65 91 66 58 67
REMARK SMILES IDX 42 68 43 69 51 70 44 71 45 72 49 73 52 74 46 75 47 76 50 77
REMARK SMILES IDX 48 78 74 79 75 80 83 81 76 82 77 83 81 84 84 85 78 86 79 87
REMARK SMILES IDX 82 88 80 89 59 90 60 91 68 92 61 93 62 94 66 95 69 96 63 97
REMARK SMILES IDX 64 98 67 99 65 100
REMARK H PARENT 6 15 18 22 18 23 89 53 57 64
REMARK Flexibility Score: inf
ROOT
ATOM      1  C   UNL     1      -2.087   0.753   6.393  1.00  0.00     0.188 C 
ENDROOT
BRANCH   1   2
ATOM      2  O   UNL     1      -2.675  -0.530   6.697  1.00  0.00    -0.376 OA
BRANCH   2   3
ATOM      3  C   UNL     1      -2.231  -1.794   6.154  1.00  0.00     0.202 C 
BRANCH   3   4
ATOM      4  C   UNL     1      -2.686  -2.424   4.615  1.00  0.00     0.261 C 
BRANCH   4   5
ATOM      5  O   UNL     1      -2.172  -1.961   2.784  1.00  0.00    -0.463 OA
BRANCH   5   6
ATOM      6  C   UNL     1      -1.835  -0.936   1.754  1.00  0.00     0.311 C 
ATOM      7  O   UNL     1      -2.140   0.269   1.818  1.00  0.00    -0.252 OA
BRANCH   6   8
ATOM      8  C   UNL     1      -0.946  -1.204   0.550  1.00  0.00     0.121 C 
BRANCH   8   9
ATOM      9  C   UNL     1       0.612  -1.175   0.684  1.00  0.00    -0.001 C 
ATOM     10  C   UNL     1       1.262  -0.738  -0.649  1.00  0.00     0.008 C 
ATOM     11  C   UNL     1       1.143  -0.166   1.728  1.00  0.00     0.008 C 
ENDBRANCH   8   9
BRANCH   8  12
ATOM     12  C   UNL     1      -1.613  -1.996  -0.555  1.00  0.00     0.131 C 
BRANCH  12  13
ATOM     13  N   UNL     1      -1.600  -3.408  -0.392  1.00  0.00    -0.350 N 
ATOM     14  C   UNL     1      -2.624  -4.261  -0.185  1.00  0.00     0.278 C 
ATOM     15  H   UNL     1      -0.710  -3.826  -0.437  1.00  0.00     0.163 HD
ATOM     16  O   UNL     1      -2.333  -5.463  -0.297  1.00  0.00    -0.268 OA
BRANCH  14  17
ATOM     17  C   UNL     1      -4.034  -3.880   0.355  1.00  0.00     0.272 C 
ATOM     18  C   UNL     1      -4.784  -2.544   0.260  1.00  0.00     0.076 C 
ATOM     19  N   UNL     1      -4.134  -4.441   1.700  1.00  0.00    -0.333 N 
ATOM     20  C   UNL     1      -4.643  -1.454   1.345  1.00  0.00     0.016 C 
ATOM     21  C   UNL     1      -3.465  -3.607   2.687  1.00  0.00     0.186 C 
ATOM     22  H   UNL     1      -3.704  -5.365   1.705  1.00  0.00     0.347 HD
ATOM     23  H   UNL     1      -5.122  -4.492   1.949  1.00  0.00     0.347 HD
ATOM     24  C   UNL     1      -4.207  -1.894   2.764  1.00  0.00     0.048 C 
ATOM     25  C   UNL     1      -1.627  -3.898   2.919  1.00  0.00     0.065 C 
ATOM     26  C   UNL     1      -3.249  -0.531   3.744  1.00  0.00     0.010 C 
ATOM     27  C   UNL     1      -0.550  -2.564   3.734  1.00  0.00     0.006 C 
ATOM     28  C   UNL     1      -1.304  -0.803   4.043  1.00  0.00     0.001 C 
ENDBRANCH  14  17
ENDBRANCH  12  13
ENDBRANCH   8  12
ENDBRANCH   6   8
ENDBRANCH   5   6
ENDBRANCH   4   5
ENDBRANCH   3   4
ENDBRANCH   2   3
ENDBRANCH   1   2
BRANCH   1  29
ATOM     29  C   UNL     1      -0.626   1.080   6.803  1.00  0.00     0.188 C 
BRANCH  29  30
ATOM     30  O   UNL     1       0.384   0.429   6.034  1.00  0.00    -0.376 OA
BRANCH  30  31
ATOM     31  C   UNL     1       1.482  -0.129   6.745  1.00  0.00     0.202 C 
BRANCH  31  32
ATOM     32  C   UNL     1       2.393   0.900   7.427  1.00  0.00     0.261 C 
BRANCH  32  33
ATOM     33  O   UNL     1       2.118   2.243   7.010  1.00  0.00    -0.460 OA
BRANCH  33  34
ATOM     34  C   UNL     1       2.391   2.520   5.712  1.00  0.00     0.338 C 
ATOM     35  O   UNL     1       3.145   1.897   4.982  1.00  0.00    -0.246 OA
BRANCH  34  36
ATOM     36  C   UNL     1       1.485   3.615   5.264  1.00  0.00     0.060 A 
ATOM     37  C   UNL     1       1.181   3.719   3.901  1.00  0.00     0.016 A 
ATOM     38  C   UNL     1       0.868   4.481   6.178  1.00  0.00     0.016 A 
ATOM     39  C   UNL     1       0.294   4.703   3.450  1.00  0.00     0.010 A 
ATOM     40  C   UNL     1      -0.039   5.445   5.731  1.00  0.00     0.010 A 
ATOM     41  C   UNL     1      -0.301   5.589   4.359  1.00  0.00    -0.014 A 
BRANCH  41  42
ATOM     42  C   UNL     1      -1.001   6.810   3.883  1.00  0.00     0.031 A 
ATOM     43  C   UNL     1      -0.231   8.103   3.889  1.00  0.00     0.074 A 
ATOM     44  C   UNL     1      -2.280   6.797   3.465  1.00  0.00     0.049 A 
ATOM     45  N   UNL     1      -0.629   9.316   3.603  1.00  0.00    -0.248 NA
ATOM     46  C   UNL     1       1.186   8.011   4.279  1.00  0.00     0.031 C 
ATOM     47  C   UNL     1      -3.133   5.617   3.369  1.00  0.00     0.029 A 
ATOM     48  N   UNL     1      -3.085   7.831   3.049  1.00  0.00    -0.354 N 
ATOM     49  C   UNL     1       0.484  10.127   3.784  1.00  0.00     0.074 A 
ATOM     50  C   UNL     1       1.561   9.278   4.241  1.00  0.00     0.031 C 
ATOM     51  C   UNL     1      -4.349   5.994   2.931  1.00  0.00     0.029 A 
ATOM     52  C   UNL     1      -4.369   7.446   2.747  1.00  0.00     0.049 A 
ATOM     53  H   UNL     1      -2.772   8.761   2.975  1.00  0.00     0.167 HD
ATOM     54  C   UNL     1       0.606  11.458   3.575  1.00  0.00     0.037 A 
ATOM     55  C   UNL     1      -5.438   8.185   2.386  1.00  0.00     0.037 A 
ATOM     56  C   UNL     1      -0.458  12.311   3.121  1.00  0.00     0.049 A 
ATOM     57  C   UNL     1      -5.300   9.684   2.245  1.00  0.00     0.074 A 
ATOM     58  C   UNL     1      -0.422  13.671   2.865  1.00  0.00     0.029 A 
ATOM     59  N   UNL     1      -1.752  11.888   2.864  1.00  0.00    -0.354 N 
ATOM     60  N   UNL     1      -4.239  10.440   2.390  1.00  0.00    -0.248 NA
ATOM     61  C   UNL     1      -6.518  10.432   1.891  1.00  0.00     0.031 C 
ATOM     62  C   UNL     1      -1.709  14.081   2.506  1.00  0.00     0.029 A 
ATOM     63  C   UNL     1      -2.533  12.967   2.483  1.00  0.00     0.049 A 
ATOM     64  H   UNL     1      -2.069  10.960   2.941  1.00  0.00     0.167 HD
ATOM     65  C   UNL     1      -4.652  11.740   2.120  1.00  0.00     0.074 A 
ATOM     66  C   UNL     1      -6.058  11.671   1.786  1.00  0.00     0.031 C 
ATOM     67  C   UNL     1      -3.931  12.888   2.146  1.00  0.00     0.037 A 
BRANCH  54  68
ATOM     68  C   UNL     1       1.939  12.077   3.868  1.00  0.00     0.064 A 
ATOM     69  C   UNL     1       3.056  11.843   3.052  1.00  0.00     0.173 A 
ATOM     70  C   UNL     1       2.097  12.925   4.974  1.00  0.00     0.173 A 
ATOM     71  F   UNL     1       2.960  11.022   1.995  1.00  0.00    -0.203 F 
ATOM     72  C   UNL     1       4.290  12.415   3.348  1.00  0.00     0.198 A 
ATOM     73  C   UNL     1       3.325  13.520   5.249  1.00  0.00     0.198 A 
ATOM     74  F   UNL     1       1.060  13.179   5.786  1.00  0.00    -0.203 F 
ATOM     75  F   UNL     1       5.356  12.136   2.585  1.00  0.00    -0.200 F 
ATOM     76  C   UNL     1       4.421  13.258   4.441  1.00  0.00     0.200 A 
ATOM     77  F   UNL     1       3.448  14.342   6.300  1.00  0.00    -0.200 F 
ATOM     78  F   UNL     1       5.609  13.812   4.723  1.00  0.00    -0.200 F 
ENDBRANCH  54  68
BRANCH  55  79
ATOM     79  C   UNL     1      -6.755   7.533   2.149  1.00  0.00     0.064 A 
ATOM     80  C   UNL     1      -7.331   7.506   0.871  1.00  0.00     0.173 A 
ATOM     81  C   UNL     1      -7.489   6.973   3.205  1.00  0.00     0.173 A 
ATOM     82  F   UNL     1      -6.686   8.062  -0.166  1.00  0.00    -0.203 F 
ATOM     83  C   UNL     1      -8.598   6.963   0.662  1.00  0.00     0.198 A 
ATOM     84  C   UNL     1      -8.742   6.404   2.990  1.00  0.00     0.198 A 
ATOM     85  F   UNL     1      -6.991   6.987   4.450  1.00  0.00    -0.203 F 
ATOM     86  F   UNL     1      -9.149   7.003  -0.559  1.00  0.00    -0.200 F 
ATOM     87  C   UNL     1      -9.300   6.407   1.721  1.00  0.00     0.200 A 
ATOM     88  F   UNL     1      -9.416   5.866   4.016  1.00  0.00    -0.200 F 
ATOM     89  F   UNL     1     -10.520   5.891   1.521  1.00  0.00    -0.200 F 
ENDBRANCH  55  79
BRANCH  67  90
ATOM     90  C   UNL     1      -4.633  14.165   1.778  1.00  0.00     0.064 A 
ATOM     91  C   UNL     1      -5.579  14.758   2.627  1.00  0.00     0.173 A 
ATOM     92  C   UNL     1      -4.313  14.834   0.586  1.00  0.00     0.173 A 
ATOM     93  F   UNL     1      -5.929  14.155   3.773  1.00  0.00    -0.203 F 
ATOM     94  C   UNL     1      -6.195  15.960   2.286  1.00  0.00     0.198 A 
ATOM     95  C   UNL     1      -4.908  16.051   0.262  1.00  0.00     0.198 A 
ATOM     96  F   UNL     1      -3.408  14.317  -0.258  1.00  0.00    -0.203 F 
ATOM     97  F   UNL     1      -7.127  16.486   3.093  1.00  0.00    -0.200 F 
ATOM     98  C   UNL     1      -5.853  16.609   1.109  1.00  0.00     0.200 A 
ATOM     99  F   UNL     1      -4.563  16.685  -0.867  1.00  0.00    -0.200 F 
ATOM    100  F   UNL     1      -6.438  17.772   0.788  1.00  0.00    -0.200 F 
ENDBRANCH  67  90
ENDBRANCH  41  42
ENDBRANCH  34  36
ENDBRANCH  33  34
ENDBRANCH  32  33
ENDBRANCH  31  32
ENDBRANCH  30  31
ENDBRANCH  29  30
ENDBRANCH   1  29
TORSDOF 21
