REMARK SMILES C[C@H]1[C@H](C(=O)OCCOCCOCCOC(=O)c2ccc(-c3c4nc(c(-c5c(F)c(F)c(F)c(F)c5F)c5ccc([nH]5)c(-c5c(F)c(F)c(F)c(F)c5F)c5nc(c(-c6c(F)c(F)c(F)c(F)c6F)c6ccc3[nH]6)C=C5)C=C4)cc2)CCN1C(=O)COc1ccccc1F
REMARK SMILES IDX 10 1 9 2 8 3 7 4 6 5 4 6 5 7 3 8 1 9 2 10 83 11 81 12 82 13
REMARK SMILES IDX 84 14 85 15 86 16 87 17 88 18 89 19 93 20 90 21 92 22 94 23
REMARK SMILES IDX 91 24 11 25 12 26 13 27 14 28 15 29 16 30 17 31 18 32 19 33
REMARK SMILES IDX 80 34 20 35 79 36 21 37 22 38 23 39 73 40 24 41 78 42 72 43
REMARK SMILES IDX 74 44 25 45 77 46 71 47 70 48 26 50 58 51 38 52 57 53 39 54
REMARK SMILES IDX 42 55 56 56 75 57 40 58 41 59 55 61 76 62 43 63 27 64 28 65
REMARK SMILES IDX 36 66 29 67 30 68 34 69 37 70 31 71 32 72 35 73 33 74 59 75
REMARK SMILES IDX 60 76 68 77 61 78 62 79 66 80 69 81 63 82 64 83 67 84 65 85
REMARK SMILES IDX 44 86 45 87 53 88 46 89 47 90 51 91 54 92 48 93 49 94 52 95
REMARK SMILES IDX 50 96
REMARK H PARENT 74 49 42 60
REMARK Flexibility Score: inf
ROOT
ATOM      1  C   UNL     1       1.654   3.796   1.819  1.00  0.00     0.188 C 
ENDROOT
BRANCH   1   2
ATOM      2  O   UNL     1       1.044   4.590   2.826  1.00  0.00    -0.376 OA
BRANCH   2   3
ATOM      3  C   UNL     1       0.095   3.994   3.705  1.00  0.00     0.202 C 
BRANCH   3   4
ATOM      4  C   UNL     1      -1.092   3.210   3.114  1.00  0.00     0.261 C 
BRANCH   4   5
ATOM      5  O   UNL     1      -0.759   2.109   2.232  1.00  0.00    -0.463 OA
BRANCH   5   6
ATOM      6  C   UNL     1      -1.233   2.197   0.966  1.00  0.00     0.311 C 
ATOM      7  O   UNL     1      -1.901   3.140   0.549  1.00  0.00    -0.252 OA
BRANCH   6   8
ATOM      8  C   UNL     1      -0.916   1.023   0.050  1.00  0.00     0.123 C 
ATOM      9  C   UNL     1       1.337   0.100  -0.539  1.00  0.00     0.032 C 
ATOM     10  C   UNL     1       0.145  -0.042   0.426  1.00  0.00     0.096 C 
ATOM     11  N   UNL     1      -0.532  -1.332   0.273  1.00  0.00    -0.336 N 
ATOM     12  C   UNL     1      -2.209   0.246  -0.193  1.00  0.00     0.039 C 
ATOM     13  C   UNL     1      -1.777  -1.179  -0.444  1.00  0.00     0.121 C 
BRANCH  11  14
ATOM     14  C   UNL     1      -0.153  -2.591   0.705  1.00  0.00     0.260 C 
ATOM     15  O   UNL     1      -0.967  -3.521   0.752  1.00  0.00    -0.271 OA
BRANCH  14  16
ATOM     16  C   UNL     1       1.302  -2.856   1.133  1.00  0.00     0.329 C 
BRANCH  16  17
ATOM     17  O   UNL     1       2.432  -2.606   0.319  1.00  0.00    -0.481 OA
BRANCH  17  18
ATOM     18  C   UNL     1       2.596  -3.258  -0.870  1.00  0.00     0.155 A 
ATOM     19  C   UNL     1       3.927  -3.553  -1.193  1.00  0.00     0.049 A 
ATOM     20  C   UNL     1       1.622  -3.500  -1.839  1.00  0.00     0.165 A 
ATOM     21  C   UNL     1       4.267  -4.080  -2.445  1.00  0.00     0.004 A 
ATOM     22  C   UNL     1       1.953  -4.023  -3.089  1.00  0.00     0.043 A 
ATOM     23  F   UNL     1       0.344  -3.162  -1.663  1.00  0.00    -0.203 F 
ATOM     24  C   UNL     1       3.278  -4.311  -3.398  1.00  0.00     0.003 A 
ENDBRANCH  17  18
ENDBRANCH  16  17
ENDBRANCH  14  16
ENDBRANCH  11  14
ENDBRANCH   6   8
ENDBRANCH   5   6
ENDBRANCH   4   5
ENDBRANCH   3   4
ENDBRANCH   2   3
ENDBRANCH   1   2
BRANCH   1  25
ATOM     25  C   UNL     1       2.087   2.363   2.155  1.00  0.00     0.188 C 
BRANCH  25  26
ATOM     26  O   UNL     1       1.871   1.965   3.483  1.00  0.00    -0.376 OA
BRANCH  26  27
ATOM     27  C   UNL     1       2.973   1.743   4.340  1.00  0.00     0.202 C 
BRANCH  27  28
ATOM     28  C   UNL     1       4.218   2.648   4.329  1.00  0.00     0.261 C 
BRANCH  28  29
ATOM     29  O   UNL     1       4.571   3.280   3.092  1.00  0.00    -0.460 OA
BRANCH  29  30
ATOM     30  C   UNL     1       5.292   2.550   2.206  1.00  0.00     0.338 C 
ATOM     31  O   UNL     1       5.659   1.399   2.323  1.00  0.00    -0.246 OA
BRANCH  30  32
ATOM     32  C   UNL     1       5.360   3.339   0.955  1.00  0.00     0.060 A 
ATOM     33  C   UNL     1       4.732   2.854  -0.204  1.00  0.00     0.016 A 
ATOM     34  C   UNL     1       6.021   4.566   0.940  1.00  0.00     0.016 A 
ATOM     35  C   UNL     1       4.770   3.597  -1.386  1.00  0.00     0.010 A 
ATOM     36  C   UNL     1       6.086   5.291  -0.250  1.00  0.00     0.010 A 
ATOM     37  C   UNL     1       5.481   4.802  -1.423  1.00  0.00    -0.014 A 
BRANCH  37  38
ATOM     38  C   UNL     1       5.792   5.471  -2.708  1.00  0.00     0.031 A 
ATOM     39  C   UNL     1       7.146   5.228  -3.310  1.00  0.00     0.074 A 
ATOM     40  C   UNL     1       4.931   6.319  -3.296  1.00  0.00     0.049 A 
ATOM     41  N   UNL     1       7.757   5.862  -4.275  1.00  0.00    -0.248 NA
ATOM     42  C   UNL     1       7.923   4.122  -2.725  1.00  0.00     0.031 C 
ATOM     43  C   UNL     1       3.565   6.582  -2.854  1.00  0.00     0.029 A 
ATOM     44  N   UNL     1       5.104   7.146  -4.380  1.00  0.00    -0.354 N 
ATOM     45  C   UNL     1       9.001   5.255  -4.392  1.00  0.00     0.074 A 
ATOM     46  C   UNL     1       9.062   4.210  -3.394  1.00  0.00     0.031 C 
ATOM     47  C   UNL     1       3.032   7.535  -3.639  1.00  0.00     0.029 A 
ATOM     48  C   UNL     1       4.040   7.988  -4.598  1.00  0.00     0.049 A 
ATOM     49  H   UNL     1       5.910   7.136  -4.944  1.00  0.00     0.167 HD
ATOM     50  C   UNL     1      10.002   5.552  -5.252  1.00  0.00     0.037 A 
ATOM     51  C   UNL     1       3.921   9.035  -5.439  1.00  0.00     0.037 A 
ATOM     52  C   UNL     1       9.931   6.594  -6.239  1.00  0.00     0.049 A 
ATOM     53  C   UNL     1       5.085   9.410  -6.325  1.00  0.00     0.074 A 
ATOM     54  C   UNL     1      10.887   6.973  -7.164  1.00  0.00     0.029 A 
ATOM     55  N   UNL     1       8.839   7.431  -6.423  1.00  0.00    -0.354 N 
ATOM     56  N   UNL     1       6.263   8.844  -6.431  1.00  0.00    -0.248 NA
ATOM     57  C   UNL     1       4.908  10.579  -7.202  1.00  0.00     0.031 C 
ATOM     58  C   UNL     1      10.399   8.077  -7.867  1.00  0.00     0.029 A 
ATOM     59  C   UNL     1       9.110   8.341  -7.431  1.00  0.00     0.049 A 
ATOM     60  H   UNL     1       7.999   7.385  -5.913  1.00  0.00     0.167 HD
ATOM     61  C   UNL     1       6.946   9.554  -7.413  1.00  0.00     0.074 A 
ATOM     62  C   UNL     1       6.054  10.598  -7.869  1.00  0.00     0.031 C 
ATOM     63  C   UNL     1       8.196   9.353  -7.897  1.00  0.00     0.037 A 
BRANCH  50  64
ATOM     64  C   UNL     1      11.277   4.771  -5.130  1.00  0.00     0.064 A 
ATOM     65  C   UNL     1      11.355   3.416  -5.484  1.00  0.00     0.173 A 
ATOM     66  C   UNL     1      12.448   5.399  -4.676  1.00  0.00     0.173 A 
ATOM     67  F   UNL     1      10.261   2.764  -5.907  1.00  0.00    -0.203 F 
ATOM     68  C   UNL     1      12.550   2.712  -5.363  1.00  0.00     0.198 A 
ATOM     69  C   UNL     1      13.649   4.701  -4.589  1.00  0.00     0.198 A 
ATOM     70  F   UNL     1      12.429   6.693  -4.325  1.00  0.00    -0.203 F 
ATOM     71  F   UNL     1      12.588   1.405  -5.657  1.00  0.00    -0.200 F 
ATOM     72  C   UNL     1      13.697   3.357  -4.924  1.00  0.00     0.200 A 
ATOM     73  F   UNL     1      14.759   5.330  -4.178  1.00  0.00    -0.200 F 
ATOM     74  F   UNL     1      14.849   2.679  -4.817  1.00  0.00    -0.200 F 
ENDBRANCH  50  64
BRANCH  51  75
ATOM     75  C   UNL     1       2.665   9.833  -5.465  1.00  0.00     0.064 A 
ATOM     76  C   UNL     1       1.838   9.841  -6.597  1.00  0.00     0.173 A 
ATOM     77  C   UNL     1       2.279  10.625  -4.373  1.00  0.00     0.173 A 
ATOM     78  F   UNL     1       2.178   9.125  -7.679  1.00  0.00    -0.203 F 
ATOM     79  C   UNL     1       0.686  10.625  -6.644  1.00  0.00     0.198 A 
ATOM     80  C   UNL     1       1.110  11.383  -4.408  1.00  0.00     0.198 A 
ATOM     81  F   UNL     1       3.037  10.661  -3.267  1.00  0.00    -0.203 F 
ATOM     82  F   UNL     1      -0.056  10.655  -7.759  1.00  0.00    -0.200 F 
ATOM     83  C   UNL     1       0.319  11.390  -5.547  1.00  0.00     0.200 A 
ATOM     84  F   UNL     1       0.755  12.113  -3.342  1.00  0.00    -0.200 F 
ATOM     85  F   UNL     1      -0.788  12.142  -5.592  1.00  0.00    -0.200 F 
ENDBRANCH  51  75
BRANCH  63  86
ATOM     86  C   UNL     1       8.663  10.220  -9.031  1.00  0.00     0.064 A 
ATOM     87  C   UNL     1       9.021  11.562  -8.844  1.00  0.00     0.173 A 
ATOM     88  C   UNL     1       8.851   9.661 -10.306  1.00  0.00     0.173 A 
ATOM     89  F   UNL     1       8.849  12.146  -7.649  1.00  0.00    -0.203 F 
ATOM     90  C   UNL     1       9.543  12.315  -9.893  1.00  0.00     0.198 A 
ATOM     91  C   UNL     1       9.402  10.407 -11.343  1.00  0.00     0.198 A 
ATOM     92  F   UNL     1       8.532   8.378 -10.535  1.00  0.00    -0.203 F 
ATOM     93  F   UNL     1       9.855  13.604  -9.700  1.00  0.00    -0.200 F 
ATOM     94  C   UNL     1       9.746  11.734 -11.137  1.00  0.00     0.200 A 
ATOM     95  F   UNL     1       9.615   9.837 -12.537  1.00  0.00    -0.200 F 
ATOM     96  F   UNL     1      10.274  12.453 -12.137  1.00  0.00    -0.200 F 
ENDBRANCH  63  86
ENDBRANCH  37  38
ENDBRANCH  30  32
ENDBRANCH  29  30
ENDBRANCH  28  29
ENDBRANCH  27  28
ENDBRANCH  26  27
ENDBRANCH  25  26
ENDBRANCH   1  25
TORSDOF 21
