REMARK SMILES CN1CC(=O)N(CC(=O)N2CCCC[C@H]2C(=O)OCCOCCOCCOC(=O)c2ccc(-c3c4nc(c(-c5c(F)c(F)c(F)c(F)c5F)c5ccc([nH]5)c(-c5c(F)c(F)c(F)c(F)c5F)c5nc(c(-c6c(F)c(F)c(F)c(F)c6F)c6ccc3[nH]6)C=C5)C=C4)cc2)C1=O
REMARK SMILES IDX 22 1 21 2 20 3 19 4 18 5 16 6 17 7 15 8 10 9 11 10 12 11
REMARK SMILES IDX 14 12 13 13 8 14 9 15 7 16 6 17 1 18 2 19 3 20 93 21 4 22
REMARK SMILES IDX 94 23 5 24 23 25 24 26 25 27 26 28 27 29 28 30 29 31 30 32
REMARK SMILES IDX 31 33 92 34 32 35 91 36 33 37 34 38 35 39 85 40 36 41 90 42
REMARK SMILES IDX 84 43 86 44 37 45 89 46 83 47 82 48 38 50 70 51 50 52 69 53
REMARK SMILES IDX 51 54 54 55 68 56 87 57 52 58 53 59 67 61 88 62 55 63 39 64
REMARK SMILES IDX 40 65 48 66 41 67 42 68 46 69 49 70 43 71 44 72 47 73 45 74
REMARK SMILES IDX 71 75 72 76 80 77 73 78 74 79 78 80 81 81 75 82 76 83 79 84
REMARK SMILES IDX 77 85 56 86 57 87 65 88 58 89 59 90 63 91 66 92 60 93 61 94
REMARK SMILES IDX 64 95 62 96
REMARK H PARENT 86 49 54 60
REMARK Flexibility Score: inf
ROOT
ATOM      1  C   UNL     1      -0.008   5.344  -3.094  1.00  0.00     0.188 C 
ENDROOT
BRANCH   1   2
ATOM      2  O   UNL     1       1.293   5.868  -3.266  1.00  0.00    -0.376 OA
BRANCH   2   3
ATOM      3  C   UNL     1       2.404   5.216  -2.684  1.00  0.00     0.202 C 
BRANCH   3   4
ATOM      4  C   UNL     1       2.424   4.910  -1.182  1.00  0.00     0.261 C 
BRANCH   4   5
ATOM      5  O   UNL     1       1.177   4.500  -0.605  1.00  0.00    -0.462 OA
BRANCH   5   6
ATOM      6  C   UNL     1       0.496   5.462   0.080  1.00  0.00     0.328 C 
ATOM      7  O   UNL     1       0.825   6.641   0.109  1.00  0.00    -0.250 OA
BRANCH   6   8
ATOM      8  C   UNL     1      -0.752   4.864   0.782  1.00  0.00     0.195 C 
ATOM      9  N   UNL     1      -1.040   5.576   2.033  1.00  0.00    -0.327 N 
ATOM     10  C   UNL     1      -1.626   6.919   1.852  1.00  0.00     0.120 C 
ATOM     11  C   UNL     1      -2.883   6.901   0.984  1.00  0.00     0.022 C 
ATOM     12  C   UNL     1      -2.055   4.756  -0.018  1.00  0.00     0.037 C 
ATOM     13  C   UNL     1      -2.700   6.104  -0.301  1.00  0.00     0.005 C 
BRANCH   9  14
ATOM     14  C   UNL     1      -0.748   5.136   3.315  1.00  0.00     0.243 C 
ATOM     15  O   UNL     1      -1.055   5.842   4.287  1.00  0.00    -0.273 OA
BRANCH  14  16
ATOM     16  C   UNL     1       0.147   3.906   3.601  1.00  0.00     0.230 C 
BRANCH  16  17
ATOM     17  N   UNL     1       0.005   2.664   2.870  1.00  0.00    -0.253 N 
ATOM     18  C   UNL     1       1.045   0.201   0.439  1.00  0.00     0.149 C 
ATOM     19  N   UNL     1       0.462   0.948   1.528  1.00  0.00    -0.318 N 
ATOM     20  C   UNL     1      -0.795   0.581   2.133  1.00  0.00     0.221 C 
ATOM     21  C   UNL     1       0.934   2.156   2.005  1.00  0.00     0.327 C 
ATOM     22  C   UNL     1      -1.036   1.792   3.022  1.00  0.00     0.250 C 
ATOM     23  O   UNL     1       1.973   2.702   1.662  1.00  0.00    -0.248 OA
ATOM     24  O   UNL     1      -2.016   1.949   3.734  1.00  0.00    -0.272 OA
ENDBRANCH  16  17
ENDBRANCH  14  16
ENDBRANCH   9  14
ENDBRANCH   6   8
ENDBRANCH   5   6
ENDBRANCH   4   5
ENDBRANCH   3   4
ENDBRANCH   2   3
ENDBRANCH   1   2
BRANCH   1  25
ATOM     25  C   UNL     1      -0.280   3.825  -3.030  1.00  0.00     0.188 C 
BRANCH  25  26
ATOM     26  O   UNL     1       0.648   2.901  -3.532  1.00  0.00    -0.376 OA
BRANCH  26  27
ATOM     27  C   UNL     1       0.959   2.830  -4.905  1.00  0.00     0.202 C 
BRANCH  27  28
ATOM     28  C   UNL     1       0.044   3.317  -6.040  1.00  0.00     0.261 C 
BRANCH  28  29
ATOM     29  O   UNL     1      -0.842   4.408  -5.771  1.00  0.00    -0.460 OA
BRANCH  29  30
ATOM     30  C   UNL     1      -2.154   4.082  -5.652  1.00  0.00     0.338 C 
ATOM     31  O   UNL     1      -2.643   2.968  -5.690  1.00  0.00    -0.246 OA
BRANCH  30  32
ATOM     32  C   UNL     1      -2.929   5.287  -5.284  1.00  0.00     0.060 A 
ATOM     33  C   UNL     1      -3.671   5.273  -4.094  1.00  0.00     0.016 A 
ATOM     34  C   UNL     1      -2.965   6.402  -6.122  1.00  0.00     0.016 A 
ATOM     35  C   UNL     1      -4.473   6.366  -3.755  1.00  0.00     0.010 A 
ATOM     36  C   UNL     1      -3.784   7.487  -5.790  1.00  0.00     0.010 A 
ATOM     37  C   UNL     1      -4.562   7.466  -4.617  1.00  0.00    -0.014 A 
BRANCH  37  38
ATOM     38  C   UNL     1      -5.595   8.511  -4.396  1.00  0.00     0.031 A 
ATOM     39  C   UNL     1      -6.905   8.393  -5.127  1.00  0.00     0.074 A 
ATOM     40  C   UNL     1      -5.387   9.550  -3.568  1.00  0.00     0.049 A 
ATOM     41  N   UNL     1      -7.911   9.228  -5.179  1.00  0.00    -0.248 NA
ATOM     42  C   UNL     1      -7.105   7.160  -5.905  1.00  0.00     0.031 C 
ATOM     43  C   UNL     1      -4.195   9.757  -2.751  1.00  0.00     0.029 A 
ATOM     44  N   UNL     1      -6.178  10.641  -3.295  1.00  0.00    -0.354 N 
ATOM     45  C   UNL     1      -8.858   8.628  -5.999  1.00  0.00     0.074 A 
ATOM     46  C   UNL     1      -8.299   7.367  -6.439  1.00  0.00     0.031 C 
ATOM     47  C   UNL     1      -4.321  10.918  -2.084  1.00  0.00     0.029 A 
ATOM     48  C   UNL     1      -5.584  11.556  -2.460  1.00  0.00     0.049 A 
ATOM     49  H   UNL     1      -7.084  10.756  -3.662  1.00  0.00     0.167 HD
ATOM     50  C   UNL     1     -10.082   9.084  -6.354  1.00  0.00     0.037 A 
ATOM     51  C   UNL     1      -5.996  12.782  -2.076  1.00  0.00     0.037 A 
ATOM     52  C   UNL     1     -10.638  10.342  -5.929  1.00  0.00     0.049 A 
ATOM     53  C   UNL     1      -7.321  13.315  -2.570  1.00  0.00     0.074 A 
ATOM     54  C   UNL     1     -11.873  10.886  -6.236  1.00  0.00     0.029 A 
ATOM     55  N   UNL     1      -9.989  11.258  -5.114  1.00  0.00    -0.354 N 
ATOM     56  N   UNL     1      -8.217  12.739  -3.335  1.00  0.00    -0.248 NA
ATOM     57  C   UNL     1      -7.689  14.676  -2.148  1.00  0.00     0.031 C 
ATOM     58  C   UNL     1     -11.948  12.157  -5.658  1.00  0.00     0.029 A 
ATOM     59  C   UNL     1     -10.787  12.377  -4.934  1.00  0.00     0.049 A 
ATOM     60  H   UNL     1      -9.095  11.132  -4.723  1.00  0.00     0.167 HD
ATOM     61  C   UNL     1      -9.264  13.646  -3.452  1.00  0.00     0.074 A 
ATOM     62  C   UNL     1      -8.899  14.810  -2.674  1.00  0.00     0.031 C 
ATOM     63  C   UNL     1     -10.426  13.524  -4.141  1.00  0.00     0.037 A 
BRANCH  50  64
ATOM     64  C   UNL     1     -10.895   8.232  -7.284  1.00  0.00     0.064 A 
ATOM     65  C   UNL     1     -11.471   7.024  -6.866  1.00  0.00     0.173 A 
ATOM     66  C   UNL     1     -11.129   8.651  -8.603  1.00  0.00     0.173 A 
ATOM     67  F   UNL     1     -11.265   6.572  -5.620  1.00  0.00    -0.203 F 
ATOM     68  C   UNL     1     -12.231   6.253  -7.743  1.00  0.00     0.198 A 
ATOM     69  C   UNL     1     -11.915   7.894  -9.466  1.00  0.00     0.198 A 
ATOM     70  F   UNL     1     -10.603   9.801  -9.051  1.00  0.00    -0.203 F 
ATOM     71  F   UNL     1     -12.732   5.078  -7.337  1.00  0.00    -0.200 F 
ATOM     72  C   UNL     1     -12.459   6.692  -9.039  1.00  0.00     0.200 A 
ATOM     73  F   UNL     1     -12.144   8.326 -10.714  1.00  0.00    -0.200 F 
ATOM     74  F   UNL     1     -13.197   5.953  -9.878  1.00  0.00    -0.200 F 
ENDBRANCH  50  64
BRANCH  51  75
ATOM     75  C   UNL     1      -5.136  13.622  -1.198  1.00  0.00     0.064 A 
ATOM     76  C   UNL     1      -5.542  13.966   0.100  1.00  0.00     0.173 A 
ATOM     77  C   UNL     1      -3.920  14.147  -1.659  1.00  0.00     0.173 A 
ATOM     78  F   UNL     1      -6.714  13.519   0.575  1.00  0.00    -0.203 F 
ATOM     79  C   UNL     1      -4.778  14.822   0.891  1.00  0.00     0.198 A 
ATOM     80  C   UNL     1      -3.140  14.976  -0.855  1.00  0.00     0.198 A 
ATOM     81  F   UNL     1      -3.490  13.859  -2.896  1.00  0.00    -0.203 F 
ATOM     82  F   UNL     1      -5.222  15.187   2.102  1.00  0.00    -0.200 F 
ATOM     83  C   UNL     1      -3.575  15.322   0.415  1.00  0.00     0.200 A 
ATOM     84  F   UNL     1      -1.976  15.452  -1.317  1.00  0.00    -0.200 F 
ATOM     85  F   UNL     1      -2.844  16.151   1.173  1.00  0.00    -0.200 F 
ENDBRANCH  51  75
BRANCH  63  86
ATOM     86  C   UNL     1     -11.420  14.648  -4.048  1.00  0.00     0.064 A 
ATOM     87  C   UNL     1     -11.199  15.889  -4.663  1.00  0.00     0.173 A 
ATOM     88  C   UNL     1     -12.641  14.458  -3.379  1.00  0.00     0.173 A 
ATOM     89  F   UNL     1     -10.046  16.129  -5.304  1.00  0.00    -0.203 F 
ATOM     90  C   UNL     1     -12.152  16.904  -4.593  1.00  0.00     0.198 A 
ATOM     91  C   UNL     1     -13.604  15.462  -3.340  1.00  0.00     0.198 A 
ATOM     92  F   UNL     1     -12.909  13.288  -2.781  1.00  0.00    -0.203 F 
ATOM     93  F   UNL     1     -11.900  18.096  -5.151  1.00  0.00    -0.200 F 
ATOM     94  C   UNL     1     -13.357  16.687  -3.941  1.00  0.00     0.200 A 
ATOM     95  F   UNL     1     -14.775  15.243  -2.725  1.00  0.00    -0.200 F 
ATOM     96  F   UNL     1     -14.277  17.659  -3.888  1.00  0.00    -0.200 F 
ENDBRANCH  63  86
ENDBRANCH  37  38
ENDBRANCH  30  32
ENDBRANCH  29  30
ENDBRANCH  28  29
ENDBRANCH  27  28
ENDBRANCH  26  27
ENDBRANCH  25  26
ENDBRANCH   1  25
TORSDOF 20
