REMARK SMILES O=C(OCCOCCOCCOC(=O)c1cc(N2C(=O)C[C@H](Nc3ccccc3O)C2=O)ccc1O)c1ccc(-c2c3nc(c(-c4c(F)c(F)c(F)c(F)c4F)c4ccc([nH]4)c(-c4c(F)c(F)c(F)c(F)c4F)c4nc(c(-c5c(F)c(F)c(F)c(F)c5F)c5ccc2[nH]5)C=C4)C=C3)cc1
REMARK SMILES IDX 8 1 7 2 6 3 5 4 4 5 3 6 2 7 1 8 37 9 38 10 99 11 39 12 98 13
REMARK SMILES IDX 40 14 41 15 42 16 92 17 43 18 97 19 91 20 93 21 44 22 96 23
REMARK SMILES IDX 90 24 89 25 45 27 77 28 57 29 76 30 58 31 61 32 75 33 94 34
REMARK SMILES IDX 59 35 60 36 74 38 95 39 62 40 46 41 47 42 55 43 48 44 49 45
REMARK SMILES IDX 53 46 56 47 50 48 51 49 54 50 52 51 78 52 79 53 87 54 80 55
REMARK SMILES IDX 81 56 85 57 88 58 82 59 83 60 86 61 84 62 63 63 64 64 72 65
REMARK SMILES IDX 65 66 66 67 70 68 73 69 67 70 68 71 71 72 69 73 9 74 10 75
REMARK SMILES IDX 11 76 12 77 13 78 14 79 15 80 16 81 35 82 17 83 34 84 33 85
REMARK SMILES IDX 36 86 18 88 19 89 31 90 20 91 21 92 22 93 32 94 23 95 24 97
REMARK SMILES IDX 25 98 29 99 26 100 28 101 27 102 30 103
REMARK H PARENT 93 26 61 37 36 87 23 96 30 104
REMARK Flexibility Score: inf
ROOT
ATOM      1  C   UNL     1       1.991  -2.973   1.201  1.00  0.00     0.188 C 
ENDROOT
BRANCH   1   2
ATOM      2  C   UNL     1       2.627  -1.584   1.202  1.00  0.00     0.188 C 
BRANCH   2   3
ATOM      3  O   UNL     1       3.955  -1.573   0.680  1.00  0.00    -0.376 OA
BRANCH   3   4
ATOM      4  C   UNL     1       4.849  -0.652   1.314  1.00  0.00     0.202 C 
BRANCH   4   5
ATOM      5  C   UNL     1       4.537   0.845   1.135  1.00  0.00     0.261 C 
BRANCH   5   6
ATOM      6  O   UNL     1       3.158   1.134   0.851  1.00  0.00    -0.460 OA
BRANCH   6   7
ATOM      7  C   UNL     1       2.584   1.318  -0.364  1.00  0.00     0.338 C 
ATOM      8  O   UNL     1       1.422   1.720  -0.420  1.00  0.00    -0.246 OA
BRANCH   7   9
ATOM      9  C   UNL     1       3.303   1.060  -1.644  1.00  0.00     0.060 A 
ATOM     10  C   UNL     1       4.308   0.112  -1.821  1.00  0.00     0.016 A 
ATOM     11  C   UNL     1       2.863   1.758  -2.773  1.00  0.00     0.016 A 
ATOM     12  C   UNL     1       4.933  -0.077  -3.042  1.00  0.00     0.010 A 
ATOM     13  C   UNL     1       3.415   1.506  -4.030  1.00  0.00     0.010 A 
ATOM     14  C   UNL     1       4.480   0.608  -4.161  1.00  0.00    -0.014 A 
BRANCH  14  15
ATOM     15  C   UNL     1       5.243   0.490  -5.416  1.00  0.00     0.031 A 
ATOM     16  C   UNL     1       5.974   1.705  -5.892  1.00  0.00     0.074 A 
ATOM     17  C   UNL     1       5.379  -0.700  -6.028  1.00  0.00     0.049 A 
ATOM     18  N   UNL     1       6.660   1.885  -6.987  1.00  0.00    -0.248 NA
ATOM     19  C   UNL     1       5.931   2.883  -5.008  1.00  0.00     0.031 C 
ATOM     20  C   UNL     1       4.812  -1.962  -5.550  1.00  0.00     0.029 A 
ATOM     21  N   UNL     1       6.068  -1.056  -7.157  1.00  0.00    -0.354 N 
ATOM     22  C   UNL     1       7.093   3.202  -6.936  1.00  0.00     0.074 A 
ATOM     23  C   UNL     1       6.566   3.790  -5.728  1.00  0.00     0.031 C 
ATOM     24  C   UNL     1       5.208  -2.956  -6.359  1.00  0.00     0.029 A 
ATOM     25  C   UNL     1       5.965  -2.391  -7.463  1.00  0.00     0.049 A 
ATOM     26  H   UNL     1       6.586  -0.416  -7.697  1.00  0.00     0.167 HD
ATOM     27  C   UNL     1       7.875   3.853  -7.824  1.00  0.00     0.037 A 
ATOM     28  C   UNL     1       6.401  -3.068  -8.541  1.00  0.00     0.037 A 
ATOM     29  C   UNL     1       8.397   3.228  -9.006  1.00  0.00     0.049 A 
ATOM     30  C   UNL     1       7.168  -2.294  -9.576  1.00  0.00     0.074 A 
ATOM     31  C   UNL     1       9.163   3.780 -10.012  1.00  0.00     0.029 A 
ATOM     32  N   UNL     1       8.198   1.891  -9.333  1.00  0.00    -0.354 N 
ATOM     33  N   UNL     1       7.529  -1.032  -9.559  1.00  0.00    -0.248 NA
ATOM     34  C   UNL     1       7.588  -3.025 -10.775  1.00  0.00     0.031 C 
ATOM     35  C   UNL     1       9.380   2.791 -10.977  1.00  0.00     0.029 A 
ATOM     36  C   UNL     1       8.807   1.605 -10.541  1.00  0.00     0.049 A 
ATOM     37  H   UNL     1       7.697   1.244  -8.786  1.00  0.00     0.167 HD
ATOM     38  C   UNL     1       8.244  -0.822 -10.726  1.00  0.00     0.074 A 
ATOM     39  C   UNL     1       8.277  -2.095 -11.421  1.00  0.00     0.031 C 
ATOM     40  C   UNL     1       8.823   0.315 -11.186  1.00  0.00     0.037 A 
BRANCH  27  41
ATOM     41  C   UNL     1       8.131   5.307  -7.563  1.00  0.00     0.064 A 
ATOM     42  C   UNL     1       8.914   5.747  -6.484  1.00  0.00     0.173 A 
ATOM     43  C   UNL     1       7.521   6.279  -8.369  1.00  0.00     0.173 A 
ATOM     44  F   UNL     1       9.488   4.858  -5.659  1.00  0.00    -0.203 F 
ATOM     45  C   UNL     1       9.042   7.104  -6.199  1.00  0.00     0.198 A 
ATOM     46  C   UNL     1       7.679   7.636  -8.101  1.00  0.00     0.198 A 
ATOM     47  F   UNL     1       6.751   5.913  -9.405  1.00  0.00    -0.203 F 
ATOM     48  F   UNL     1       9.727   7.498  -5.116  1.00  0.00    -0.200 F 
ATOM     49  C   UNL     1       8.428   8.047  -7.009  1.00  0.00     0.200 A 
ATOM     50  F   UNL     1       7.086   8.545  -8.887  1.00  0.00    -0.200 F 
ATOM     51  F   UNL     1       8.542   9.352  -6.726  1.00  0.00    -0.200 F 
ENDBRANCH  27  41
BRANCH  28  52
ATOM     52  C   UNL     1       6.083  -4.513  -8.716  1.00  0.00     0.064 A 
ATOM     53  C   UNL     1       7.092  -5.486  -8.757  1.00  0.00     0.173 A 
ATOM     54  C   UNL     1       4.758  -4.954  -8.865  1.00  0.00     0.173 A 
ATOM     55  F   UNL     1       8.377  -5.123  -8.629  1.00  0.00    -0.203 F 
ATOM     56  C   UNL     1       6.792  -6.832  -8.967  1.00  0.00     0.198 A 
ATOM     57  C   UNL     1       4.456  -6.303  -9.042  1.00  0.00     0.198 A 
ATOM     58  F   UNL     1       3.745  -4.075  -8.820  1.00  0.00    -0.203 F 
ATOM     59  F   UNL     1       7.781  -7.733  -9.048  1.00  0.00    -0.200 F 
ATOM     60  C   UNL     1       5.474  -7.240  -9.106  1.00  0.00     0.200 A 
ATOM     61  F   UNL     1       3.178  -6.693  -9.143  1.00  0.00    -0.200 F 
ATOM     62  F   UNL     1       5.185  -8.534  -9.301  1.00  0.00    -0.200 F 
ENDBRANCH  28  52
BRANCH  40  63
ATOM     63  C   UNL     1       9.579   0.210 -12.474  1.00  0.00     0.064 A 
ATOM     64  C   UNL     1       8.924   0.050 -13.703  1.00  0.00     0.173 A 
ATOM     65  C   UNL     1      10.977   0.325 -12.476  1.00  0.00     0.173 A 
ATOM     66  F   UNL     1       7.590  -0.084 -13.746  1.00  0.00    -0.203 F 
ATOM     67  C   UNL     1       9.647  -0.017 -14.889  1.00  0.00     0.198 A 
ATOM     68  C   UNL     1      11.692   0.297 -13.668  1.00  0.00     0.198 A 
ATOM     69  F   UNL     1      11.645   0.487 -11.324  1.00  0.00    -0.203 F 
ATOM     70  F   UNL     1       9.008  -0.223 -16.049  1.00  0.00    -0.200 F 
ATOM     71  C   UNL     1      11.028   0.118 -14.871  1.00  0.00     0.200 A 
ATOM     72  F   UNL     1      13.024   0.446 -13.650  1.00  0.00    -0.200 F 
ATOM     73  F   UNL     1      11.720   0.069 -16.017  1.00  0.00    -0.200 F 
ENDBRANCH  40  63
ENDBRANCH  14  15
ENDBRANCH   7   9
ENDBRANCH   6   7
ENDBRANCH   5   6
ENDBRANCH   4   5
ENDBRANCH   3   4
ENDBRANCH   2   3
ENDBRANCH   1   2
BRANCH   1  74
ATOM     74  O   UNL     1       2.647  -3.978   1.962  1.00  0.00    -0.376 OA
BRANCH  74  75
ATOM     75  C   UNL     1       4.020  -4.216   1.673  1.00  0.00     0.202 C 
BRANCH  75  76
ATOM     76  C   UNL     1       4.402  -4.776   0.290  1.00  0.00     0.261 C 
BRANCH  76  77
ATOM     77  O   UNL     1       3.886  -4.098  -0.875  1.00  0.00    -0.460 OA
BRANCH  77  78
ATOM     78  C   UNL     1       2.867  -4.754  -1.486  1.00  0.00     0.342 C 
ATOM     79  O   UNL     1       2.244  -5.709  -1.039  1.00  0.00    -0.246 OA
BRANCH  78  80
ATOM     80  C   UNL     1       2.563  -4.230  -2.833  1.00  0.00     0.103 A 
ATOM     81  C   UNL     1       1.570  -3.248  -3.023  1.00  0.00     0.046 A 
ATOM     82  C   UNL     1       3.030  -4.976  -3.920  1.00  0.00     0.130 A 
ATOM     83  C   UNL     1       0.989  -3.084  -4.295  1.00  0.00     0.053 A 
ATOM     84  C   UNL     1       2.466  -4.806  -5.180  1.00  0.00     0.049 A 
ATOM     85  C   UNL     1       1.435  -3.882  -5.359  1.00  0.00     0.031 A 
BRANCH  82  86
ATOM     86  O   UNL     1       4.038  -5.881  -3.744  1.00  0.00    -0.507 OA
ATOM     87  H   UNL     1       4.421  -5.997  -2.896  1.00  0.00     0.293 HD
ENDBRANCH  82  86
BRANCH  83  88
ATOM     88  N   UNL     1      -0.085  -2.183  -4.512  1.00  0.00    -0.249 N 
ATOM     89  C   UNL     1      -1.255  -2.528  -5.130  1.00  0.00     0.236 C 
ATOM     90  C   UNL     1       0.044  -0.820  -4.392  1.00  0.00     0.256 C 
ATOM     91  O   UNL     1      -1.595  -3.641  -5.512  1.00  0.00    -0.274 OA
ATOM     92  C   UNL     1      -2.123  -1.316  -5.285  1.00  0.00     0.136 C 
ATOM     93  C   UNL     1      -1.290  -0.161  -4.751  1.00  0.00     0.179 C 
ATOM     94  O   UNL     1       1.079  -0.230  -4.150  1.00  0.00    -0.272 OA
BRANCH  93  95
ATOM     95  N   UNL     1      -1.173   0.867  -5.800  1.00  0.00    -0.370 N 
ATOM     96  H   UNL     1      -0.754   0.651  -6.665  1.00  0.00     0.161 HD
BRANCH  95  97
ATOM     97  C   UNL     1      -1.665   2.155  -5.553  1.00  0.00     0.077 A 
ATOM     98  C   UNL     1      -2.517   2.744  -6.496  1.00  0.00     0.029 A 
ATOM     99  C   UNL     1      -1.212   2.962  -4.497  1.00  0.00     0.138 A 
ATOM    100  C   UNL     1      -2.946   4.070  -6.359  1.00  0.00     0.002 A 
ATOM    101  C   UNL     1      -1.616   4.294  -4.363  1.00  0.00     0.048 A 
ATOM    102  C   UNL     1      -2.492   4.846  -5.294  1.00  0.00     0.004 A 
BRANCH  99 103
ATOM    103  O   UNL     1      -0.340   2.432  -3.588  1.00  0.00    -0.506 OA
ATOM    104  H   UNL     1      -0.063   1.540  -3.670  1.00  0.00     0.293 HD
ENDBRANCH  99 103
ENDBRANCH  95  97
ENDBRANCH  93  95
ENDBRANCH  83  88
ENDBRANCH  78  80
ENDBRANCH  77  78
ENDBRANCH  76  77
ENDBRANCH  75  76
ENDBRANCH  74  75
ENDBRANCH   1  74
TORSDOF 22
