REMARK SMILES O=C1NC(=O)/C(=C/c2ccc(OCc3cn(-c4ccc(C(=O)OCCOCCOCCOC(=O)c5ccc(-c6c7nc(c(-c8c(F)c(F)c(F)c(F)c8F)c8ccc([nH]8)c(-c8c(F)c(F)c(F)c(F)c8F)c8nc(c(-c9c(F)c(F)c(F)c(F)c9F)c9ccc6[nH]9)C=C8)C=C7)cc5)cc4)nn3)cc2)S1
REMARK SMILES IDX 26 1 25 2 24 3 23 4 21 5 22 6 20 7 17 8 18 9 99 10 19 11
REMARK SMILES IDX 98 12 16 13 14 14 15 15 101 16 100 17 13 18 12 19 11 20 8 21
REMARK SMILES IDX 9 22 103 23 10 24 102 25 7 26 1 27 2 28 3 29 104 30 4 31
REMARK SMILES IDX 6 33 5 34 27 35 28 36 29 37 30 38 31 39 32 40 33 41 34 42
REMARK SMILES IDX 35 43 36 44 97 45 37 46 96 47 38 48 39 49 40 50 90 51 41 52
REMARK SMILES IDX 95 53 89 54 91 55 42 56 94 57 88 58 87 59 43 61 75 62 55 63
REMARK SMILES IDX 74 64 56 65 59 66 73 67 92 68 57 69 58 70 72 72 93 73 60 74
REMARK SMILES IDX 44 75 45 76 53 77 46 78 47 79 51 80 54 81 48 82 49 83 52 84
REMARK SMILES IDX 50 85 76 86 77 87 85 88 78 89 79 90 83 91 86 92 80 93 81 94
REMARK SMILES IDX 84 95 82 96 61 97 62 98 70 99 63 100 64 101 68 102 71 103
REMARK SMILES IDX 65 104 66 105 69 106 67 107
REMARK H PARENT 3 32 91 60 59 71
REMARK Flexibility Score: inf
ROOT
ATOM      1  O   UNL     1     -10.600   7.943   0.243  1.00  0.00    -0.376 OA
ENDROOT
BRANCH   1   2
ATOM      2  C   UNL     1     -10.759   9.340   0.431  1.00  0.00     0.202 C 
BRANCH   2   3
ATOM      3  C   UNL     1      -9.620  10.377   0.308  1.00  0.00     0.261 C 
BRANCH   3   4
ATOM      4  O   UNL     1      -8.276   9.898   0.236  1.00  0.00    -0.460 OA
BRANCH   4   5
ATOM      5  C   UNL     1      -7.575   9.918   1.392  1.00  0.00     0.338 C 
ATOM      6  O   UNL     1      -7.977  10.272   2.487  1.00  0.00    -0.246 OA
BRANCH   5   7
ATOM      7  C   UNL     1      -6.273   9.251   1.183  1.00  0.00     0.060 A 
ATOM      8  C   UNL     1      -3.779   8.027   0.966  1.00  0.00     0.066 A 
ATOM      9  C   UNL     1      -4.689   7.592   1.942  1.00  0.00     0.029 A 
ATOM     10  C   UNL     1      -4.152   9.014   0.042  1.00  0.00     0.029 A 
ATOM     11  C   UNL     1      -5.918   8.232   2.074  1.00  0.00     0.018 A 
ATOM     12  C   UNL     1      -5.416   9.608   0.136  1.00  0.00     0.018 A 
BRANCH   8  13
ATOM     13  N   UNL     1      -2.456   7.530   1.016  1.00  0.00    -0.220 N 
ATOM     14  C   UNL     1      -0.283   7.397   1.161  1.00  0.00     0.120 A 
ATOM     15  C   UNL     1      -1.297   8.157   0.613  1.00  0.00     0.144 A 
ATOM     16  N   UNL     1      -0.839   6.316   1.790  1.00  0.00    -0.131 NA
ATOM     17  N   UNL     1      -2.152   6.401   1.693  1.00  0.00    -0.062 NA
BRANCH  14  18
ATOM     18  C   UNL     1       1.185   7.656   1.257  1.00  0.00     0.289 C 
BRANCH  18  19
ATOM     19  O   UNL     1       1.988   6.990   0.272  1.00  0.00    -0.487 OA
BRANCH  19  20
ATOM     20  C   UNL     1       2.104   5.629   0.347  1.00  0.00     0.119 A 
ATOM     21  C   UNL     1       2.186   2.829   0.141  1.00  0.00    -0.024 A 
ATOM     22  C   UNL     1       2.668   3.623  -0.901  1.00  0.00     0.012 A 
ATOM     23  C   UNL     1       1.751   3.441   1.319  1.00  0.00     0.012 A 
ATOM     24  C   UNL     1       2.623   5.018  -0.796  1.00  0.00     0.047 A 
ATOM     25  C   UNL     1       1.730   4.833   1.428  1.00  0.00     0.047 A 
BRANCH  21  26
ATOM     26  C   UNL     1       2.136   1.371   0.008  1.00  0.00     0.029 C 
ATOM     27  O   UNL     1      -2.434  -0.733   0.031  1.00  0.00    -0.261 OA
ATOM     28  C   UNL     1      -1.262  -0.450  -0.003  1.00  0.00     0.290 C 
ATOM     29  N   UNL     1      -0.226  -1.336  -0.062  1.00  0.00    -0.282 N 
ATOM     30  S   UNL     1      -0.624   1.183   0.024  1.00  0.00    -0.022 SA
ATOM     31  C   UNL     1       1.043  -0.845  -0.084  1.00  0.00     0.265 C 
ATOM     32  H   UNL     1      -0.393  -2.306  -0.089  1.00  0.00     0.174 HD
ATOM     33  C   UNL     1       1.014   0.639  -0.021  1.00  0.00     0.083 C 
ATOM     34  O   UNL     1       2.053  -1.532  -0.132  1.00  0.00    -0.268 OA
ENDBRANCH  21  26
ENDBRANCH  19  20
ENDBRANCH  18  19
ENDBRANCH  14  18
ENDBRANCH   8  13
ENDBRANCH   5   7
ENDBRANCH   4   5
ENDBRANCH   3   4
ENDBRANCH   2   3
ENDBRANCH   1   2
BRANCH   1  35
ATOM     35  C   UNL     1      -9.389   7.325   0.613  1.00  0.00     0.188 C 
BRANCH  35  36
ATOM     36  C   UNL     1      -8.441   7.049  -0.572  1.00  0.00     0.188 C 
BRANCH  36  37
ATOM     37  O   UNL     1      -8.584   7.737  -1.807  1.00  0.00    -0.376 OA
BRANCH  37  38
ATOM     38  C   UNL     1      -9.835   7.839  -2.471  1.00  0.00     0.202 C 
BRANCH  38  39
ATOM     39  C   UNL     1     -10.802   6.665  -2.616  1.00  0.00     0.261 C 
BRANCH  39  40
ATOM     40  O   UNL     1     -10.868   5.766  -1.526  1.00  0.00    -0.460 OA
BRANCH  40  41
ATOM     41  C   UNL     1     -10.114   4.664  -1.702  1.00  0.00     0.338 C 
ATOM     42  O   UNL     1      -9.208   4.499  -2.501  1.00  0.00    -0.246 OA
BRANCH  41  43
ATOM     43  C   UNL     1     -10.641   3.594  -0.859  1.00  0.00     0.060 A 
ATOM     44  C   UNL     1      -9.810   2.496  -0.634  1.00  0.00     0.016 A 
ATOM     45  C   UNL     1     -12.012   3.572  -0.565  1.00  0.00     0.016 A 
ATOM     46  C   UNL     1     -10.395   1.303  -0.276  1.00  0.00     0.010 A 
ATOM     47  C   UNL     1     -12.596   2.376  -0.224  1.00  0.00     0.010 A 
ATOM     48  C   UNL     1     -11.789   1.243  -0.157  1.00  0.00    -0.014 A 
BRANCH  48  49
ATOM     49  C   UNL     1     -12.380  -0.042   0.150  1.00  0.00     0.031 A 
ATOM     50  C   UNL     1     -12.143  -0.455   1.547  1.00  0.00     0.074 A 
ATOM     51  C   UNL     1     -13.133  -0.721  -0.735  1.00  0.00     0.049 A 
ATOM     52  N   UNL     1     -11.461  -1.470   1.956  1.00  0.00    -0.248 NA
ATOM     53  C   UNL     1     -12.580   0.453   2.621  1.00  0.00     0.031 C 
ATOM     54  C   UNL     1     -13.620  -0.240  -2.031  1.00  0.00     0.029 A 
ATOM     55  N   UNL     1     -13.719  -1.946  -0.618  1.00  0.00    -0.354 N 
ATOM     56  C   UNL     1     -11.564  -1.448   3.341  1.00  0.00     0.074 A 
ATOM     57  C   UNL     1     -12.092  -0.160   3.700  1.00  0.00     0.031 C 
ATOM     58  C   UNL     1     -14.604  -1.059  -2.465  1.00  0.00     0.029 A 
ATOM     59  C   UNL     1     -14.729  -2.176  -1.544  1.00  0.00     0.049 A 
ATOM     60  H   UNL     1     -13.451  -2.608   0.060  1.00  0.00     0.167 HD
ATOM     61  C   UNL     1     -11.517  -2.613   4.038  1.00  0.00     0.037 A 
ATOM     62  C   UNL     1     -15.646  -3.173  -1.506  1.00  0.00     0.037 A 
ATOM     63  C   UNL     1     -10.914  -3.659   3.250  1.00  0.00     0.049 A 
ATOM     64  C   UNL     1     -15.110  -4.242  -0.631  1.00  0.00     0.074 A 
ATOM     65  C   UNL     1      -9.666  -3.910   2.721  1.00  0.00     0.029 A 
ATOM     66  N   UNL     1     -11.801  -4.460   2.582  1.00  0.00    -0.354 N 
ATOM     67  N   UNL     1     -14.102  -5.005  -0.945  1.00  0.00    -0.248 NA
ATOM     68  C   UNL     1     -15.486  -4.260   0.778  1.00  0.00     0.031 C 
ATOM     69  C   UNL     1      -9.891  -4.676   1.538  1.00  0.00     0.029 A 
ATOM     70  C   UNL     1     -11.262  -4.899   1.406  1.00  0.00     0.049 A 
ATOM     71  H   UNL     1     -12.703  -4.687   2.905  1.00  0.00     0.167 HD
ATOM     72  C   UNL     1     -13.448  -5.217   0.254  1.00  0.00     0.074 A 
ATOM     73  C   UNL     1     -14.435  -4.912   1.280  1.00  0.00     0.031 C 
ATOM     74  C   UNL     1     -12.085  -5.301   0.286  1.00  0.00     0.037 A 
BRANCH  61  75
ATOM     75  C   UNL     1     -12.472  -2.933   5.170  1.00  0.00     0.064 A 
ATOM     76  C   UNL     1     -12.300  -4.141   5.875  1.00  0.00     0.173 A 
ATOM     77  C   UNL     1     -13.719  -2.293   5.359  1.00  0.00     0.173 A 
ATOM     78  F   UNL     1     -11.171  -4.852   5.743  1.00  0.00    -0.203 F 
ATOM     79  C   UNL     1     -13.326  -4.699   6.643  1.00  0.00     0.198 A 
ATOM     80  C   UNL     1     -14.718  -2.826   6.170  1.00  0.00     0.198 A 
ATOM     81  F   UNL     1     -14.077  -1.199   4.678  1.00  0.00    -0.203 F 
ATOM     82  F   UNL     1     -13.166  -5.915   7.184  1.00  0.00    -0.200 F 
ATOM     83  C   UNL     1     -14.535  -4.043   6.787  1.00  0.00     0.200 A 
ATOM     84  F   UNL     1     -15.893  -2.188   6.271  1.00  0.00    -0.200 F 
ATOM     85  F   UNL     1     -15.541  -4.606   7.468  1.00  0.00    -0.200 F 
ENDBRANCH  61  75
BRANCH  62  86
ATOM     86  C   UNL     1     -17.056  -3.173  -1.966  1.00  0.00     0.064 A 
ATOM     87  C   UNL     1     -17.778  -4.375  -2.075  1.00  0.00     0.173 A 
ATOM     88  C   UNL     1     -17.811  -1.986  -2.031  1.00  0.00     0.173 A 
ATOM     89  F   UNL     1     -17.145  -5.554  -1.988  1.00  0.00    -0.203 F 
ATOM     90  C   UNL     1     -19.172  -4.388  -2.194  1.00  0.00     0.198 A 
ATOM     91  C   UNL     1     -19.200  -2.000  -2.162  1.00  0.00     0.198 A 
ATOM     92  F   UNL     1     -17.231  -0.788  -1.868  1.00  0.00    -0.203 F 
ATOM     93  F   UNL     1     -19.829  -5.556  -2.214  1.00  0.00    -0.200 F 
ATOM     94  C   UNL     1     -19.882  -3.201  -2.224  1.00  0.00     0.200 A 
ATOM     95  F   UNL     1     -19.879  -0.844  -2.158  1.00  0.00    -0.200 F 
ATOM     96  F   UNL     1     -21.222  -3.212  -2.267  1.00  0.00    -0.200 F 
ENDBRANCH  62  86
BRANCH  74  97
ATOM     97  C   UNL     1     -11.398  -5.679  -0.993  1.00  0.00     0.064 A 
ATOM     98  C   UNL     1     -11.440  -4.930  -2.182  1.00  0.00     0.173 A 
ATOM     99  C   UNL     1     -10.618  -6.845  -0.991  1.00  0.00     0.173 A 
ATOM    100  F   UNL     1     -12.082  -3.755  -2.239  1.00  0.00    -0.203 F 
ATOM    101  C   UNL     1     -10.788  -5.372  -3.332  1.00  0.00     0.198 A 
ATOM    102  C   UNL     1      -9.931  -7.257  -2.127  1.00  0.00     0.198 A 
ATOM    103  F   UNL     1     -10.502  -7.576   0.129  1.00  0.00    -0.203 F 
ATOM    104  F   UNL     1     -10.880  -4.666  -4.469  1.00  0.00    -0.200 F 
ATOM    105  C   UNL     1     -10.032  -6.532  -3.302  1.00  0.00     0.200 A 
ATOM    106  F   UNL     1      -9.163  -8.355  -2.078  1.00  0.00    -0.200 F 
ATOM    107  F   UNL     1      -9.385  -6.944  -4.402  1.00  0.00    -0.200 F 
ENDBRANCH  74  97
ENDBRANCH  48  49
ENDBRANCH  41  43
ENDBRANCH  40  41
ENDBRANCH  39  40
ENDBRANCH  38  39
ENDBRANCH  37  38
ENDBRANCH  36  37
ENDBRANCH  35  36
ENDBRANCH   1  35
TORSDOF 22
