REMARK SMILES O=C(OCCOCCOCCOC(=O)c1nn(-c2ccc(Br)cc2F)cc1CCCO)c1ccc(-c2c3nc(c(-c4c(F)c(F)c(F)c(F)c4F)c4ccc([nH]4)c(-c4c(F)c(F)c(F)c(F)c4F)c4nc(c(-c5c(F)c(F)c(F)c(F)c5F)c5ccc2[nH]5)C=C4)C=C3)cc1
REMARK SMILES IDX 8 1 7 2 6 3 5 4 4 5 3 6 2 7 1 8 32 9 33 10 94 11 34 12 93 13
REMARK SMILES IDX 35 14 36 15 37 16 87 17 38 18 92 19 86 20 88 21 39 22 91 23
REMARK SMILES IDX 85 24 84 25 40 27 72 28 52 29 71 30 53 31 56 32 70 33 89 34
REMARK SMILES IDX 54 35 55 36 69 38 90 39 57 40 41 41 42 42 50 43 43 44 44 45
REMARK SMILES IDX 48 46 51 47 45 48 46 49 49 50 47 51 73 52 74 53 82 54 75 55
REMARK SMILES IDX 76 56 80 57 83 58 77 59 78 60 81 61 79 62 58 63 59 64 67 65
REMARK SMILES IDX 60 66 61 67 65 68 68 69 62 70 63 71 66 72 64 73 9 74 10 75
REMARK SMILES IDX 11 76 12 77 13 78 14 79 15 80 16 81 27 82 17 83 26 84 28 85
REMARK SMILES IDX 29 86 30 87 31 88 18 90 19 91 24 92 20 93 23 94 25 95 21 96
REMARK SMILES IDX 22 97
REMARK H PARENT 88 26 56 37 31 89
REMARK Flexibility Score: inf
ROOT
ATOM      1  C   UNL     1       3.269   1.693  -1.482  1.00  0.00     0.188 C 
ENDROOT
BRANCH   1   2
ATOM      2  C   UNL     1       4.176   1.707  -0.244  1.00  0.00     0.188 C 
BRANCH   2   3
ATOM      3  O   UNL     1       5.418   1.039  -0.176  1.00  0.00    -0.376 OA
BRANCH   3   4
ATOM      4  C   UNL     1       5.673  -0.152  -0.894  1.00  0.00     0.202 C 
BRANCH   4   5
ATOM      5  C   UNL     1       4.822  -1.393  -0.641  1.00  0.00     0.261 C 
BRANCH   5   6
ATOM      6  O   UNL     1       3.446  -1.230  -1.008  1.00  0.00    -0.460 OA
BRANCH   6   7
ATOM      7  C   UNL     1       2.308  -1.101  -0.304  1.00  0.00     0.338 C 
ATOM      8  O   UNL     1       1.247  -1.053  -0.930  1.00  0.00    -0.246 OA
BRANCH   7   9
ATOM      9  C   UNL     1       2.221  -0.904   1.168  1.00  0.00     0.060 A 
ATOM     10  C   UNL     1       3.251  -1.086   2.087  1.00  0.00     0.016 A 
ATOM     11  C   UNL     1       0.940  -0.561   1.653  1.00  0.00     0.016 A 
ATOM     12  C   UNL     1       2.962  -1.191   3.434  1.00  0.00     0.010 A 
ATOM     13  C   UNL     1       0.654  -0.605   3.004  1.00  0.00     0.010 A 
ATOM     14  C   UNL     1       1.649  -1.032   3.869  1.00  0.00    -0.014 A 
BRANCH  14  15
ATOM     15  C   UNL     1       1.375  -1.357   5.254  1.00  0.00     0.031 A 
ATOM     16  C   UNL     1       2.079  -0.508   6.245  1.00  0.00     0.074 A 
ATOM     17  C   UNL     1       0.542  -2.363   5.579  1.00  0.00     0.049 A 
ATOM     18  N   UNL     1       2.975  -0.865   7.107  1.00  0.00    -0.248 NA
ATOM     19  C   UNL     1       1.855   0.943   6.173  1.00  0.00     0.031 C 
ATOM     20  C   UNL     1      -0.371  -3.111   4.710  1.00  0.00     0.029 A 
ATOM     21  N   UNL     1       0.284  -2.880   6.808  1.00  0.00    -0.354 N 
ATOM     22  C   UNL     1       3.304   0.290   7.814  1.00  0.00     0.074 A 
ATOM     23  C   UNL     1       2.700   1.387   7.103  1.00  0.00     0.031 C 
ATOM     24  C   UNL     1      -1.243  -3.807   5.474  1.00  0.00     0.029 A 
ATOM     25  C   UNL     1      -0.857  -3.664   6.866  1.00  0.00     0.049 A 
ATOM     26  H   UNL     1       0.858  -2.712   7.590  1.00  0.00     0.167 HD
ATOM     27  C   UNL     1       3.851   0.221   9.058  1.00  0.00     0.037 A 
ATOM     28  C   UNL     1      -1.477  -4.079   7.997  1.00  0.00     0.037 A 
ATOM     29  C   UNL     1       4.491  -1.052   9.275  1.00  0.00     0.049 A 
ATOM     30  C   UNL     1      -0.488  -3.992   9.104  1.00  0.00     0.074 A 
ATOM     31  C   UNL     1       5.542  -1.723   8.679  1.00  0.00     0.029 A 
ATOM     32  N   UNL     1       3.834  -1.997  10.024  1.00  0.00    -0.354 N 
ATOM     33  N   UNL     1       0.563  -4.761   9.194  1.00  0.00    -0.248 NA
ATOM     34  C   UNL     1      -0.410  -2.741   9.845  1.00  0.00     0.031 C 
ATOM     35  C   UNL     1       5.161  -3.098   8.697  1.00  0.00     0.029 A 
ATOM     36  C   UNL     1       3.932  -3.185   9.349  1.00  0.00     0.049 A 
ATOM     37  H   UNL     1       3.380  -1.848  10.885  1.00  0.00     0.167 HD
ATOM     38  C   UNL     1       1.577  -3.926   9.639  1.00  0.00     0.074 A 
ATOM     39  C   UNL     1       0.902  -2.713  10.095  1.00  0.00     0.031 C 
ATOM     40  C   UNL     1       2.884  -4.176   9.333  1.00  0.00     0.037 A 
BRANCH  27  41
ATOM     41  C   UNL     1       3.452   1.131  10.200  1.00  0.00     0.064 A 
ATOM     42  C   UNL     1       4.090   0.973  11.448  1.00  0.00     0.173 A 
ATOM     43  C   UNL     1       2.268   1.901  10.220  1.00  0.00     0.173 A 
ATOM     44  F   UNL     1       5.228   0.270  11.551  1.00  0.00    -0.203 F 
ATOM     45  C   UNL     1       3.516   1.438  12.634  1.00  0.00     0.198 A 
ATOM     46  C   UNL     1       1.726   2.405  11.400  1.00  0.00     0.198 A 
ATOM     47  F   UNL     1       1.526   2.110   9.128  1.00  0.00    -0.203 F 
ATOM     48  F   UNL     1       4.083   1.133  13.809  1.00  0.00    -0.200 F 
ATOM     49  C   UNL     1       2.325   2.138  12.611  1.00  0.00     0.200 A 
ATOM     50  F   UNL     1       0.566   3.076  11.355  1.00  0.00    -0.200 F 
ATOM     51  F   UNL     1       1.732   2.514  13.750  1.00  0.00    -0.200 F 
ENDBRANCH  27  41
BRANCH  28  52
ATOM     52  C   UNL     1      -2.939  -4.163   8.222  1.00  0.00     0.064 A 
ATOM     53  C   UNL     1      -3.469  -4.884   9.303  1.00  0.00     0.173 A 
ATOM     54  C   UNL     1      -3.836  -3.321   7.532  1.00  0.00     0.173 A 
ATOM     55  F   UNL     1      -2.672  -5.666  10.045  1.00  0.00    -0.203 F 
ATOM     56  C   UNL     1      -4.812  -4.761   9.677  1.00  0.00     0.198 A 
ATOM     57  C   UNL     1      -5.176  -3.206   7.899  1.00  0.00     0.198 A 
ATOM     58  F   UNL     1      -3.409  -2.521   6.545  1.00  0.00    -0.203 F 
ATOM     59  F   UNL     1      -5.271  -5.421  10.749  1.00  0.00    -0.200 F 
ATOM     60  C   UNL     1      -5.662  -3.917   8.980  1.00  0.00     0.200 A 
ATOM     61  F   UNL     1      -5.975  -2.355   7.240  1.00  0.00    -0.200 F 
ATOM     62  F   UNL     1      -6.933  -3.755   9.372  1.00  0.00    -0.200 F 
ENDBRANCH  28  52
BRANCH  40  63
ATOM     63  C   UNL     1       3.211  -5.498   8.699  1.00  0.00     0.064 A 
ATOM     64  C   UNL     1       2.747  -5.887   7.430  1.00  0.00     0.173 A 
ATOM     65  C   UNL     1       4.141  -6.333   9.329  1.00  0.00     0.173 A 
ATOM     66  F   UNL     1       1.943  -5.089   6.716  1.00  0.00    -0.203 F 
ATOM     67  C   UNL     1       3.159  -7.083   6.844  1.00  0.00     0.198 A 
ATOM     68  C   UNL     1       4.580  -7.509   8.726  1.00  0.00     0.198 A 
ATOM     69  F   UNL     1       4.668  -5.979  10.512  1.00  0.00    -0.203 F 
ATOM     70  F   UNL     1       2.695  -7.435   5.636  1.00  0.00    -0.200 F 
ATOM     71  C   UNL     1       4.080  -7.889   7.491  1.00  0.00     0.200 A 
ATOM     72  F   UNL     1       5.511  -8.259   9.331  1.00  0.00    -0.200 F 
ATOM     73  F   UNL     1       4.511  -9.018   6.910  1.00  0.00    -0.200 F 
ENDBRANCH  40  63
ENDBRANCH  14  15
ENDBRANCH   7   9
ENDBRANCH   6   7
ENDBRANCH   5   6
ENDBRANCH   4   5
ENDBRANCH   3   4
ENDBRANCH   2   3
ENDBRANCH   1   2
BRANCH   1  74
ATOM     74  O   UNL     1       3.736   1.489  -2.790  1.00  0.00    -0.376 OA
BRANCH  74  75
ATOM     75  C   UNL     1       4.785   2.287  -3.289  1.00  0.00     0.202 C 
BRANCH  75  76
ATOM     76  C   UNL     1       4.770   3.815  -3.134  1.00  0.00     0.261 C 
BRANCH  76  77
ATOM     77  O   UNL     1       4.135   4.327  -1.958  1.00  0.00    -0.458 OA
BRANCH  77  78
ATOM     78  C   UNL     1       2.870   4.843  -2.115  1.00  0.00     0.359 C 
ATOM     79  O   UNL     1       2.259   4.891  -3.170  1.00  0.00    -0.244 OA
BRANCH  78  80
ATOM     80  C   UNL     1       2.313   5.274  -0.824  1.00  0.00     0.173 A 
ATOM     81  N   UNL     1       2.718   6.452  -0.320  1.00  0.00    -0.160 NA
ATOM     82  C   UNL     1       1.367   4.636   0.053  1.00  0.00     0.006 A 
ATOM     83  N   UNL     1       2.136   6.549   0.889  1.00  0.00    -0.237 N 
ATOM     84  C   UNL     1       1.387   5.440   1.181  1.00  0.00     0.119 A 
BRANCH  82  85
ATOM     85  C   UNL     1       0.522   3.394  -0.063  1.00  0.00     0.042 C 
BRANCH  85  86
ATOM     86  C   UNL     1      -0.543   3.423  -1.164  1.00  0.00     0.033 C 
BRANCH  86  87
ATOM     87  C   UNL     1      -0.150   2.722  -2.461  1.00  0.00     0.156 C 
BRANCH  87  88
ATOM     88  O   UNL     1      -0.425   1.331  -2.360  1.00  0.00    -0.396 OA
ATOM     89  H   UNL     1       0.086   0.953  -1.626  1.00  0.00     0.210 HD
ENDBRANCH  87  88
ENDBRANCH  86  87
ENDBRANCH  85  86
ENDBRANCH  82  85
BRANCH  83  90
ATOM     90  C   UNL     1       2.250   7.734   1.643  1.00  0.00     0.100 A 
ATOM     91  C   UNL     1       2.384   8.954   0.964  1.00  0.00     0.032 A 
ATOM     92  C   UNL     1       2.176   7.718   3.035  1.00  0.00     0.149 A 
ATOM     93  C   UNL     1       2.389  10.149   1.683  1.00  0.00     0.018 A 
ATOM     94  C   UNL     1       2.229   8.907   3.757  1.00  0.00     0.057 A 
ATOM     95  F   UNL     1       2.113   6.565   3.717  1.00  0.00    -0.205 F 
ATOM     96  C   UNL     1       2.316  10.120   3.075  1.00  0.00     0.021 A 
ATOM     97  Br  UNL     1       2.327  11.742   4.044  1.00  0.00    -0.051 Br
ENDBRANCH  83  90
ENDBRANCH  78  80
ENDBRANCH  77  78
ENDBRANCH  76  77
ENDBRANCH  75  76
ENDBRANCH  74  75
ENDBRANCH   1  74
TORSDOF 22
