REMARK SMILES CCn1c(=O)n(CC)c2cc(C(=O)OCCOCCOCCOC(=O)c3ccc(-c4c5nc(c(-c6c(F)c(F)c(F)c(F)c6F)c6ccc([nH]6)c(-c6c(F)c(F)c(F)c(F)c6F)c6nc(c(-c7c(F)c(F)c(F)c(F)c7F)c7ccc4[nH]7)C=C6)C=C5)cc3)ccc21
REMARK SMILES IDX 19 1 18 2 17 3 16 4 15 5 14 6 12 7 13 8 11 9 3 10 4 11 91 12
REMARK SMILES IDX 5 13 6 14 9 15 90 16 10 17 89 18 2 19 1 20 7 21 8 22 20 23
REMARK SMILES IDX 21 24 22 25 23 26 24 27 25 28 26 29 27 30 88 31 28 32 87 33
REMARK SMILES IDX 29 34 30 35 31 36 81 37 32 38 86 39 80 40 82 41 33 42 85 43
REMARK SMILES IDX 79 44 78 45 34 47 66 48 46 49 65 50 47 51 50 52 64 53 83 54
REMARK SMILES IDX 48 55 49 56 63 58 84 59 51 60 35 61 36 62 44 63 37 64 38 65
REMARK SMILES IDX 42 66 45 67 39 68 40 69 43 70 41 71 67 72 68 73 76 74 69 75
REMARK SMILES IDX 70 76 74 77 77 78 71 79 72 80 75 81 73 82 52 83 53 84 61 85
REMARK SMILES IDX 54 86 55 87 59 88 62 89 56 90 57 91 60 92 58 93
REMARK H PARENT 82 46 50 57
REMARK Flexibility Score: inf
ROOT
ATOM      1  C   UNL     1       5.360  -3.350   6.460  1.00  0.00     0.188 C 
ENDROOT
BRANCH   1   2
ATOM      2  C   UNL     1       4.678  -3.102   7.824  1.00  0.00     0.188 C 
BRANCH   2   3
ATOM      3  O   UNL     1       4.964  -4.059   8.807  1.00  0.00    -0.376 OA
BRANCH   3   4
ATOM      4  C   UNL     1       4.061  -5.115   9.007  1.00  0.00     0.202 C 
BRANCH   4   5
ATOM      5  C   UNL     1       3.018  -5.543   7.952  1.00  0.00     0.261 C 
BRANCH   5   6
ATOM      6  O   UNL     1       3.080  -4.945   6.628  1.00  0.00    -0.460 OA
BRANCH   6   7
ATOM      7  C   UNL     1       2.011  -4.176   6.281  1.00  0.00     0.338 C 
ATOM      8  O   UNL     1       1.018  -4.061   6.982  1.00  0.00    -0.246 OA
BRANCH   7   9
ATOM      9  C   UNL     1       2.102  -3.454   4.950  1.00  0.00     0.062 A 
ATOM     10  N   UNL     1       0.941  -1.250   1.599  1.00  0.00    -0.292 N 
ATOM     11  C   UNL     1       0.862   0.051   2.094  1.00  0.00     0.329 A 
ATOM     12  C   UNL     1       1.381  -2.112   2.614  1.00  0.00     0.069 A 
ATOM     13  O   UNL     1       0.439   1.043   1.507  1.00  0.00    -0.248 OA
ATOM     14  N   UNL     1       1.383   0.031   3.399  1.00  0.00    -0.292 N 
ATOM     15  C   UNL     1       1.706  -1.338   3.728  1.00  0.00     0.070 A 
ATOM     16  C   UNL     1       1.444  -3.505   2.620  1.00  0.00     0.029 A 
ATOM     17  C   UNL     1       2.152  -2.028   4.863  1.00  0.00     0.044 A 
ATOM     18  C   UNL     1       1.778  -4.179   3.806  1.00  0.00     0.018 A 
BRANCH  10  19
ATOM     19  C   UNL     1       0.489  -1.606   0.288  1.00  0.00     0.124 C 
ATOM     20  C   UNL     1       1.064  -0.686  -0.782  1.00  0.00     0.028 C 
ENDBRANCH  10  19
BRANCH  14  21
ATOM     21  C   UNL     1       1.638   1.321   3.989  1.00  0.00     0.124 C 
ATOM     22  C   UNL     1       0.460   2.293   4.181  1.00  0.00     0.028 C 
ENDBRANCH  14  21
ENDBRANCH   7   9
ENDBRANCH   6   7
ENDBRANCH   5   6
ENDBRANCH   4   5
ENDBRANCH   3   4
ENDBRANCH   2   3
ENDBRANCH   1   2
BRANCH   1  23
ATOM     23  O   UNL     1       6.279  -4.424   6.357  1.00  0.00    -0.376 OA
BRANCH  23  24
ATOM     24  C   UNL     1       7.356  -4.436   7.293  1.00  0.00     0.202 C 
BRANCH  24  25
ATOM     25  C   UNL     1       8.180  -3.139   7.463  1.00  0.00     0.261 C 
BRANCH  25  26
ATOM     26  O   UNL     1       7.403  -2.021   7.967  1.00  0.00    -0.460 OA
BRANCH  26  27
ATOM     27  C   UNL     1       7.517  -0.829   7.314  1.00  0.00     0.338 C 
ATOM     28  O   UNL     1       8.386  -0.520   6.517  1.00  0.00    -0.246 OA
BRANCH  27  29
ATOM     29  C   UNL     1       6.193  -0.133   7.397  1.00  0.00     0.060 A 
ATOM     30  C   UNL     1       5.492   0.116   8.586  1.00  0.00     0.016 A 
ATOM     31  C   UNL     1       5.510  -0.019   6.193  1.00  0.00     0.016 A 
ATOM     32  C   UNL     1       4.084   0.331   8.569  1.00  0.00     0.010 A 
ATOM     33  C   UNL     1       4.121   0.149   6.197  1.00  0.00     0.010 A 
ATOM     34  C   UNL     1       3.343   0.271   7.376  1.00  0.00    -0.014 A 
BRANCH  34  35
ATOM     35  C   UNL     1       1.896   0.756   7.315  1.00  0.00     0.031 A 
ATOM     36  C   UNL     1       1.887   2.239   7.439  1.00  0.00     0.074 A 
ATOM     37  C   UNL     1       0.679   0.152   7.039  1.00  0.00     0.049 A 
ATOM     38  N   UNL     1       1.129   2.887   8.253  1.00  0.00    -0.248 NA
ATOM     39  C   UNL     1       2.856   3.094   6.726  1.00  0.00     0.031 C 
ATOM     40  C   UNL     1       0.387  -1.262   6.927  1.00  0.00     0.029 A 
ATOM     41  N   UNL     1      -0.569   0.664   6.630  1.00  0.00    -0.354 N 
ATOM     42  C   UNL     1       1.326   4.224   7.964  1.00  0.00     0.074 A 
ATOM     43  C   UNL     1       2.485   4.310   7.125  1.00  0.00     0.031 C 
ATOM     44  C   UNL     1      -0.676  -1.512   6.115  1.00  0.00     0.029 A 
ATOM     45  C   UNL     1      -1.362  -0.260   5.869  1.00  0.00     0.049 A 
ATOM     46  H   UNL     1      -0.871   1.576   6.847  1.00  0.00     0.167 HD
ATOM     47  C   UNL     1       0.327   5.097   8.234  1.00  0.00     0.037 A 
ATOM     48  C   UNL     1      -2.599  -0.117   5.285  1.00  0.00     0.037 A 
ATOM     49  C   UNL     1      -0.583   4.536   9.201  1.00  0.00     0.049 A 
ATOM     50  C   UNL     1      -3.307   0.843   6.146  1.00  0.00     0.074 A 
ATOM     51  C   UNL     1      -0.485   4.230  10.542  1.00  0.00     0.029 A 
ATOM     52  N   UNL     1      -1.618   3.801   8.686  1.00  0.00    -0.354 N 
ATOM     53  N   UNL     1      -3.657   0.559   7.368  1.00  0.00    -0.248 NA
ATOM     54  C   UNL     1      -3.446   2.236   5.748  1.00  0.00     0.031 C 
ATOM     55  C   UNL     1      -1.422   3.192  10.792  1.00  0.00     0.029 A 
ATOM     56  C   UNL     1      -2.122   2.927   9.621  1.00  0.00     0.049 A 
ATOM     57  H   UNL     1      -1.957   3.888   7.766  1.00  0.00     0.167 HD
ATOM     58  C   UNL     1      -3.561   1.769   8.004  1.00  0.00     0.074 A 
ATOM     59  C   UNL     1      -3.654   2.773   6.953  1.00  0.00     0.031 C 
ATOM     60  C   UNL     1      -2.980   1.830   9.232  1.00  0.00     0.037 A 
BRANCH  47  61
ATOM     61  C   UNL     1      -0.056   6.239   7.339  1.00  0.00     0.064 A 
ATOM     62  C   UNL     1      -1.015   7.161   7.796  1.00  0.00     0.173 A 
ATOM     63  C   UNL     1       0.241   6.292   5.959  1.00  0.00     0.173 A 
ATOM     64  F   UNL     1      -1.379   7.181   9.087  1.00  0.00    -0.203 F 
ATOM     65  C   UNL     1      -1.680   8.024   6.923  1.00  0.00     0.198 A 
ATOM     66  C   UNL     1      -0.397   7.182   5.097  1.00  0.00     0.198 A 
ATOM     67  F   UNL     1       1.078   5.425   5.377  1.00  0.00    -0.203 F 
ATOM     68  F   UNL     1      -2.660   8.810   7.386  1.00  0.00    -0.200 F 
ATOM     69  C   UNL     1      -1.377   8.027   5.574  1.00  0.00     0.200 A 
ATOM     70  F   UNL     1      -0.104   7.158   3.789  1.00  0.00    -0.200 F 
ATOM     71  F   UNL     1      -2.055   8.813   4.728  1.00  0.00    -0.200 F 
ENDBRANCH  47  61
BRANCH  48  72
ATOM     72  C   UNL     1      -3.381  -0.757   4.160  1.00  0.00     0.064 A 
ATOM     73  C   UNL     1      -4.787  -0.614   4.045  1.00  0.00     0.173 A 
ATOM     74  C   UNL     1      -2.750  -1.230   3.001  1.00  0.00     0.173 A 
ATOM     75  F   UNL     1      -5.516  -0.194   5.088  1.00  0.00    -0.203 F 
ATOM     76  C   UNL     1      -5.482  -0.837   2.843  1.00  0.00     0.198 A 
ATOM     77  C   UNL     1      -3.442  -1.447   1.793  1.00  0.00     0.198 A 
ATOM     78  F   UNL     1      -1.434  -1.441   3.008  1.00  0.00    -0.203 F 
ATOM     79  F   UNL     1      -6.805  -0.621   2.780  1.00  0.00    -0.200 F 
ATOM     80  C   UNL     1      -4.803  -1.222   1.707  1.00  0.00     0.200 A 
ATOM     81  F   UNL     1      -2.783  -1.837   0.693  1.00  0.00    -0.200 F 
ATOM     82  F   UNL     1      -5.446  -1.357   0.537  1.00  0.00    -0.200 F 
ENDBRANCH  48  72
BRANCH  60  83
ATOM     83  C   UNL     1      -3.043   0.624  10.131  1.00  0.00     0.064 A 
ATOM     84  C   UNL     1      -2.418  -0.608   9.881  1.00  0.00     0.173 A 
ATOM     85  C   UNL     1      -3.652   0.781  11.382  1.00  0.00     0.173 A 
ATOM     86  F   UNL     1      -1.787  -0.838   8.730  1.00  0.00    -0.203 F 
ATOM     87  C   UNL     1      -2.380  -1.619  10.841  1.00  0.00     0.198 A 
ATOM     88  C   UNL     1      -3.587  -0.215  12.353  1.00  0.00     0.198 A 
ATOM     89  F   UNL     1      -4.260   1.938  11.689  1.00  0.00    -0.203 F 
ATOM     90  F   UNL     1      -1.755  -2.776  10.576  1.00  0.00    -0.200 F 
ATOM     91  C   UNL     1      -2.948  -1.413  12.085  1.00  0.00     0.200 A 
ATOM     92  F   UNL     1      -4.110   0.007  13.567  1.00  0.00    -0.200 F 
ATOM     93  F   UNL     1      -2.857  -2.357  13.032  1.00  0.00    -0.200 F 
ENDBRANCH  60  83
ENDBRANCH  34  35
ENDBRANCH  27  29
ENDBRANCH  26  27
ENDBRANCH  25  26
ENDBRANCH  24  25
ENDBRANCH  23  24
ENDBRANCH   1  23
TORSDOF 19
