REMARK SMILES Cc1nc2nc(CNC(=O)OC(C)(C)C)nn2c(C)c1CCC(=O)OCCOCCOCCOC(=O)c1ccc(-c2c3nc(c(-c4c(F)c(F)c(F)c(F)c4F)c4ccc([nH]4)c(-c4c(F)c(F)c(F)c(F)c4F)c4nc(c(-c5c(F)c(F)c(F)c(F)c5F)c5ccc2[nH]5)C=C4)C=C3)cc1
REMARK SMILES IDX 27 1 26 2 25 3 23 4 24 5 22 6 21 7 20 8 1 9 2 10 3 11 4 12
REMARK SMILES IDX 18 13 5 14 17 15 19 16 6 17 16 18 7 19 8 20 9 21 10 23 11 24
REMARK SMILES IDX 12 25 13 26 14 27 15 28 28 29 29 30 30 31 31 32 32 33 33 34
REMARK SMILES IDX 34 35 35 36 36 37 37 38 38 39 99 40 39 41 98 42 40 43 41 44
REMARK SMILES IDX 42 45 92 46 43 47 97 48 91 49 93 50 44 51 96 52 90 53 89 54
REMARK SMILES IDX 45 56 77 57 57 58 76 59 58 60 61 61 75 62 94 63 59 64 60 65
REMARK SMILES IDX 74 67 95 68 62 69 46 70 47 71 55 72 48 73 49 74 53 75 56 76
REMARK SMILES IDX 50 77 51 78 54 79 52 80 78 81 79 82 87 83 80 84 81 85 85 86
REMARK SMILES IDX 88 87 82 88 83 89 86 90 84 91 63 92 64 93 72 94 65 95 66 96
REMARK SMILES IDX 70 97 73 98 67 99 68 100 71 101 69 102
REMARK H PARENT 8 22 93 55 61 66
REMARK Flexibility Score: inf
ROOT
ATOM      1  C   UNL     1      -0.620   0.134   7.342  1.00  0.00     0.202 C 
ENDROOT
BRANCH   1   2
ATOM      2  C   UNL     1       0.863  -0.245   7.094  1.00  0.00     0.261 C 
BRANCH   2   3
ATOM      3  O   UNL     1       1.244  -0.344   5.690  1.00  0.00    -0.463 OA
BRANCH   3   4
ATOM      4  C   UNL     1       1.405  -1.557   5.114  1.00  0.00     0.306 C 
ATOM      5  O   UNL     1       1.386  -2.609   5.742  1.00  0.00    -0.252 OA
BRANCH   4   6
ATOM      6  C   UNL     1       1.641  -1.506   3.597  1.00  0.00     0.127 C 
BRANCH   6   7
ATOM      7  C   UNL     1       0.678  -0.773   2.620  1.00  0.00     0.051 C 
BRANCH   7   8
ATOM      8  C   UNL     1       0.918   0.707   2.354  1.00  0.00    -0.005 A 
ATOM      9  C   UNL     1       1.413   0.442  -0.208  1.00  0.00     0.067 C 
ATOM     10  C   UNL     1       1.243   1.345   0.994  1.00  0.00     0.046 A 
ATOM     11  N   UNL     1       1.345   2.631   0.748  1.00  0.00    -0.216 NA
ATOM     12  C   UNL     1       1.117   3.493   1.783  1.00  0.00     0.252 A 
ATOM     13  C   UNL     1       0.645   1.655   3.263  1.00  0.00     0.048 A 
ATOM     14  N   UNL     1       0.878   4.797   1.839  1.00  0.00    -0.192 NA
ATOM     15  N   UNL     1       0.888   2.985   3.038  1.00  0.00    -0.201 N 
ATOM     16  C   UNL     1      -0.150   1.489   4.482  1.00  0.00     0.067 C 
ATOM     17  C   UNL     1       0.594   5.016   3.169  1.00  0.00     0.172 A 
ATOM     18  N   UNL     1       0.764   3.958   3.948  1.00  0.00    -0.148 NA
BRANCH  17  19
ATOM     19  C   UNL     1       0.129   6.262   3.818  1.00  0.00     0.199 C 
BRANCH  19  20
ATOM     20  N   UNL     1       1.192   6.739   4.676  1.00  0.00    -0.314 N 
ATOM     21  C   UNL     1       1.477   8.044   4.859  1.00  0.00     0.408 C 
ATOM     22  H   UNL     1       1.738   6.073   5.154  1.00  0.00     0.167 HD
ATOM     23  O   UNL     1       2.494   8.422   5.427  1.00  0.00    -0.225 OA
BRANCH  21  24
ATOM     24  O   UNL     1       0.522   8.819   4.313  1.00  0.00    -0.444 OA
BRANCH  24  25
ATOM     25  C   UNL     1       0.739  10.219   4.063  1.00  0.00     0.106 C 
ATOM     26  C   UNL     1       0.987  10.996   5.355  1.00  0.00     0.056 C 
ATOM     27  C   UNL     1       1.867  10.384   3.042  1.00  0.00     0.056 C 
ATOM     28  C   UNL     1      -0.582  10.685   3.436  1.00  0.00     0.056 C 
ENDBRANCH  24  25
ENDBRANCH  21  24
ENDBRANCH  19  20
ENDBRANCH  17  19
ENDBRANCH   7   8
ENDBRANCH   6   7
ENDBRANCH   4   6
ENDBRANCH   3   4
ENDBRANCH   2   3
ENDBRANCH   1   2
BRANCH   1  29
ATOM     29  O   UNL     1      -1.549  -0.938   7.218  1.00  0.00    -0.376 OA
BRANCH  29  30
ATOM     30  C   UNL     1      -1.780  -1.429   5.906  1.00  0.00     0.188 C 
BRANCH  30  31
ATOM     31  C   UNL     1      -2.966  -0.784   5.203  1.00  0.00     0.188 C 
BRANCH  31  32
ATOM     32  O   UNL     1      -2.779   0.489   4.575  1.00  0.00    -0.376 OA
BRANCH  32  33
ATOM     33  C   UNL     1      -3.379   1.619   5.228  1.00  0.00     0.202 C 
BRANCH  33  34
ATOM     34  C   UNL     1      -4.826   1.948   4.854  1.00  0.00     0.261 C 
BRANCH  34  35
ATOM     35  O   UNL     1      -5.626   0.796   4.956  1.00  0.00    -0.460 OA
BRANCH  35  36
ATOM     36  C   UNL     1      -5.498  -0.042   3.902  1.00  0.00     0.338 C 
ATOM     37  O   UNL     1      -5.151   0.214   2.767  1.00  0.00    -0.246 OA
BRANCH  36  38
ATOM     38  C   UNL     1      -5.878  -1.364   4.410  1.00  0.00     0.060 A 
ATOM     39  C   UNL     1      -6.262  -2.297   3.461  1.00  0.00     0.016 A 
ATOM     40  C   UNL     1      -6.107  -1.532   5.794  1.00  0.00     0.016 A 
ATOM     41  C   UNL     1      -7.276  -3.126   3.839  1.00  0.00     0.010 A 
ATOM     42  C   UNL     1      -7.076  -2.391   6.182  1.00  0.00     0.010 A 
ATOM     43  C   UNL     1      -7.760  -2.993   5.147  1.00  0.00    -0.014 A 
BRANCH  43  44
ATOM     44  C   UNL     1      -9.116  -3.373   5.397  1.00  0.00     0.031 A 
ATOM     45  C   UNL     1      -9.195  -4.803   5.646  1.00  0.00     0.074 A 
ATOM     46  C   UNL     1     -10.112  -2.470   5.380  1.00  0.00     0.049 A 
ATOM     47  N   UNL     1      -9.440  -5.702   4.759  1.00  0.00    -0.248 NA
ATOM     48  C   UNL     1      -8.652  -5.310   6.914  1.00  0.00     0.031 C 
ATOM     49  C   UNL     1     -10.028  -1.004   5.413  1.00  0.00     0.029 A 
ATOM     50  N   UNL     1     -11.450  -2.706   5.397  1.00  0.00    -0.354 N 
ATOM     51  C   UNL     1      -9.358  -6.890   5.456  1.00  0.00     0.074 A 
ATOM     52  C   UNL     1      -8.610  -6.619   6.656  1.00  0.00     0.031 C 
ATOM     53  C   UNL     1     -11.254  -0.493   5.678  1.00  0.00     0.029 A 
ATOM     54  C   UNL     1     -12.217  -1.578   5.665  1.00  0.00     0.049 A 
ATOM     55  H   UNL     1     -11.841  -3.595   5.235  1.00  0.00     0.167 HD
ATOM     56  C   UNL     1     -10.252  -7.875   5.189  1.00  0.00     0.037 A 
ATOM     57  C   UNL     1     -13.545  -1.610   5.932  1.00  0.00     0.037 A 
ATOM     58  C   UNL     1     -10.982  -7.612   3.975  1.00  0.00     0.049 A 
ATOM     59  C   UNL     1     -14.073  -2.867   5.338  1.00  0.00     0.074 A 
ATOM     60  C   UNL     1     -10.748  -7.756   2.625  1.00  0.00     0.029 A 
ATOM     61  N   UNL     1     -11.992  -6.691   4.116  1.00  0.00    -0.354 N 
ATOM     62  N   UNL     1     -14.101  -3.091   4.051  1.00  0.00    -0.248 NA
ATOM     63  C   UNL     1     -14.213  -4.054   6.178  1.00  0.00     0.031 C 
ATOM     64  C   UNL     1     -11.593  -6.816   1.962  1.00  0.00     0.029 A 
ATOM     65  C   UNL     1     -12.349  -6.137   2.914  1.00  0.00     0.049 A 
ATOM     66  H   UNL     1     -12.409  -6.457   4.977  1.00  0.00     0.167 HD
ATOM     67  C   UNL     1     -13.852  -4.445   3.930  1.00  0.00     0.074 A 
ATOM     68  C   UNL     1     -14.096  -5.008   5.250  1.00  0.00     0.031 C 
ATOM     69  C   UNL     1     -13.151  -4.934   2.868  1.00  0.00     0.037 A 
BRANCH  56  70
ATOM     70  C   UNL     1     -10.788  -8.775   6.256  1.00  0.00     0.064 A 
ATOM     71  C   UNL     1     -11.369  -9.998   5.899  1.00  0.00     0.173 A 
ATOM     72  C   UNL     1     -10.970  -8.366   7.597  1.00  0.00     0.173 A 
ATOM     73  F   UNL     1     -11.305 -10.434   4.632  1.00  0.00    -0.203 F 
ATOM     74  C   UNL     1     -12.079 -10.762   6.826  1.00  0.00     0.198 A 
ATOM     75  C   UNL     1     -11.617  -9.161   8.535  1.00  0.00     0.198 A 
ATOM     76  F   UNL     1     -10.628  -7.141   8.018  1.00  0.00    -0.203 F 
ATOM     77  F   UNL     1     -12.698 -11.882   6.429  1.00  0.00    -0.200 F 
ATOM     78  C   UNL     1     -12.190 -10.351   8.145  1.00  0.00     0.200 A 
ATOM     79  F   UNL     1     -11.737  -8.726   9.797  1.00  0.00    -0.200 F 
ATOM     80  F   UNL     1     -12.890 -11.073   9.028  1.00  0.00    -0.200 F 
ENDBRANCH  56  70
BRANCH  57  81
ATOM     81  C   UNL     1     -14.276  -0.869   6.984  1.00  0.00     0.064 A 
ATOM     82  C   UNL     1     -15.679  -0.822   6.975  1.00  0.00     0.173 A 
ATOM     83  C   UNL     1     -13.639  -0.481   8.179  1.00  0.00     0.173 A 
ATOM     84  F   UNL     1     -16.357  -1.206   5.884  1.00  0.00    -0.203 F 
ATOM     85  C   UNL     1     -16.406  -0.465   8.115  1.00  0.00     0.198 A 
ATOM     86  C   UNL     1     -14.367  -0.123   9.315  1.00  0.00     0.198 A 
ATOM     87  F   UNL     1     -12.306  -0.545   8.301  1.00  0.00    -0.203 F 
ATOM     88  F   UNL     1     -17.746  -0.511   8.094  1.00  0.00    -0.200 F 
ATOM     89  C   UNL     1     -15.749  -0.135   9.289  1.00  0.00     0.200 A 
ATOM     90  F   UNL     1     -13.721   0.160  10.455  1.00  0.00    -0.200 F 
ATOM     91  F   UNL     1     -16.445   0.125  10.404  1.00  0.00    -0.200 F 
ENDBRANCH  57  81
BRANCH  69  92
ATOM     92  C   UNL     1     -13.111  -4.090   1.631  1.00  0.00     0.064 A 
ATOM     93  C   UNL     1     -12.438  -2.861   1.528  1.00  0.00     0.173 A 
ATOM     94  C   UNL     1     -13.742  -4.582   0.481  1.00  0.00     0.173 A 
ATOM     95  F   UNL     1     -11.755  -2.363   2.567  1.00  0.00    -0.203 F 
ATOM     96  C   UNL     1     -12.432  -2.144   0.331  1.00  0.00     0.198 A 
ATOM     97  C   UNL     1     -13.705  -3.882  -0.720  1.00  0.00     0.198 A 
ATOM     98  F   UNL     1     -14.370  -5.768   0.517  1.00  0.00    -0.203 F 
ATOM     99  F   UNL     1     -11.799  -0.963   0.256  1.00  0.00    -0.200 F 
ATOM    100  C   UNL     1     -13.060  -2.659  -0.793  1.00  0.00     0.200 A 
ATOM    101  F   UNL     1     -14.281  -4.404  -1.811  1.00  0.00    -0.200 F 
ATOM    102  F   UNL     1     -13.028  -1.986  -1.952  1.00  0.00    -0.200 F 
ENDBRANCH  69  92
ENDBRANCH  43  44
ENDBRANCH  36  38
ENDBRANCH  35  36
ENDBRANCH  34  35
ENDBRANCH  33  34
ENDBRANCH  32  33
ENDBRANCH  31  32
ENDBRANCH  30  31
ENDBRANCH  29  30
ENDBRANCH   1  29
TORSDOF 23
