REMARK SMILES C#CC[C@]1(C(=O)OCCOCCOCCOC(=O)c2ccc(-c3c4nc(c(-c5c(F)c(F)c(F)c(F)c5F)c5ccc([nH]5)c(-c5c(F)c(F)c(F)c(F)c5F)c5nc(c(-c6c(F)c(F)c(F)c(F)c6F)c6ccc3[nH]6)C=C5)C=C4)cc2)CC[C@@H](C)C1
REMARK SMILES IDX 11 1 10 2 9 3 8 4 7 5 5 6 6 7 4 8 82 9 86 10 83 11 84 12
REMARK SMILES IDX 85 13 3 14 2 15 1 16 12 17 13 18 14 19 15 20 16 21 17 22
REMARK SMILES IDX 18 23 19 24 20 25 81 26 21 27 80 28 22 29 23 30 24 31 74 32
REMARK SMILES IDX 25 33 79 34 73 35 75 36 26 37 78 38 72 39 71 40 27 42 59 43
REMARK SMILES IDX 39 44 58 45 40 46 43 47 57 48 76 49 41 50 42 51 56 53 77 54
REMARK SMILES IDX 44 55 28 56 29 57 37 58 30 59 31 60 35 61 38 62 32 63 33 64
REMARK SMILES IDX 36 65 34 66 60 67 61 68 69 69 62 70 63 71 67 72 70 73 64 74
REMARK SMILES IDX 65 75 68 76 66 77 45 78 46 79 54 80 47 81 48 82 52 83 55 84
REMARK SMILES IDX 49 85 50 86 53 87 51 88
REMARK H PARENT 75 41 43 52
REMARK Flexibility Score: inf
ROOT
ATOM      1  C   UNL     1      -1.074   2.571  -0.342  1.00  0.00     0.188 C 
ENDROOT
BRANCH   1   2
ATOM      2  O   UNL     1      -0.710   2.587  -1.707  1.00  0.00    -0.376 OA
BRANCH   2   3
ATOM      3  C   UNL     1      -1.283   1.646  -2.600  1.00  0.00     0.202 C 
BRANCH   3   4
ATOM      4  C   UNL     1      -1.412   0.167  -2.217  1.00  0.00     0.261 C 
BRANCH   4   5
ATOM      5  O   UNL     1      -2.108  -0.077  -0.985  1.00  0.00    -0.463 OA
BRANCH   5   6
ATOM      6  C   UNL     1      -1.369  -0.561   0.049  1.00  0.00     0.313 C 
ATOM      7  O   UNL     1      -0.161  -0.766  -0.003  1.00  0.00    -0.252 OA
BRANCH   6   8
ATOM      8  C   UNL     1      -2.191  -0.803   1.322  1.00  0.00     0.079 C 
ATOM      9  C   UNL     1      -3.735  -0.732   1.161  1.00  0.00     0.020 C 
ATOM     10  C   UNL     1      -2.044  -2.322   1.595  1.00  0.00     0.023 C 
ATOM     11  C   UNL     1      -4.154  -1.981   0.391  1.00  0.00     0.004 C 
ATOM     12  C   UNL     1      -3.059  -3.018   0.651  1.00  0.00    -0.013 C 
ATOM     13  C   UNL     1      -2.475  -3.517  -0.674  1.00  0.00     0.007 C 
BRANCH   8  14
ATOM     14  C   UNL     1      -1.586   0.165   2.442  1.00  0.00     0.108 C 
BRANCH  14  15
ATOM     15  C   UNL     1      -2.523   0.262   3.635  1.00  0.00    -0.106 C 
ATOM     16  C   UNL     1      -3.327   0.344   4.658  1.00  0.00     0.004 C 
ENDBRANCH  14  15
ENDBRANCH   8  14
ENDBRANCH   6   8
ENDBRANCH   5   6
ENDBRANCH   4   5
ENDBRANCH   3   4
ENDBRANCH   2   3
ENDBRANCH   1   2
BRANCH   1  17
ATOM     17  C   UNL     1      -2.561   2.553   0.067  1.00  0.00     0.188 C 
BRANCH  17  18
ATOM     18  O   UNL     1      -3.571   2.703  -0.893  1.00  0.00    -0.376 OA
BRANCH  18  19
ATOM     19  C   UNL     1      -3.729   3.945  -1.543  1.00  0.00     0.202 C 
BRANCH  19  20
ATOM     20  C   UNL     1      -3.265   5.292  -0.951  1.00  0.00     0.261 C 
BRANCH  20  21
ATOM     21  O   UNL     1      -2.170   5.287  -0.021  1.00  0.00    -0.460 OA
BRANCH  21  22
ATOM     22  C   UNL     1      -2.491   5.471   1.285  1.00  0.00     0.338 C 
ATOM     23  O   UNL     1      -3.609   5.650   1.749  1.00  0.00    -0.246 OA
BRANCH  22  24
ATOM     24  C   UNL     1      -1.304   5.204   2.133  1.00  0.00     0.060 A 
ATOM     25  C   UNL     1      -1.359   4.169   3.081  1.00  0.00     0.016 A 
ATOM     26  C   UNL     1      -0.153   5.982   2.017  1.00  0.00     0.016 A 
ATOM     27  C   UNL     1      -0.274   3.927   3.931  1.00  0.00     0.010 A 
ATOM     28  C   UNL     1       0.920   5.760   2.889  1.00  0.00     0.010 A 
ATOM     29  C   UNL     1       0.856   4.752   3.871  1.00  0.00    -0.014 A 
BRANCH  29  30
ATOM     30  C   UNL     1       1.878   4.710   4.952  1.00  0.00     0.031 A 
ATOM     31  C   UNL     1       1.775   5.713   6.070  1.00  0.00     0.074 A 
ATOM     32  C   UNL     1       2.882   3.815   4.954  1.00  0.00     0.049 A 
ATOM     33  N   UNL     1       2.598   5.951   7.061  1.00  0.00    -0.248 NA
ATOM     34  C   UNL     1       0.578   6.569   6.064  1.00  0.00     0.031 C 
ATOM     35  C   UNL     1       3.075   2.757   3.967  1.00  0.00     0.029 A 
ATOM     36  N   UNL     1       3.945   3.672   5.815  1.00  0.00    -0.354 N 
ATOM     37  C   UNL     1       2.021   6.982   7.791  1.00  0.00     0.074 A 
ATOM     38  C   UNL     1       0.797   7.348   7.112  1.00  0.00     0.031 C 
ATOM     39  C   UNL     1       4.205   2.089   4.261  1.00  0.00     0.029 A 
ATOM     40  C   UNL     1       4.835   2.697   5.434  1.00  0.00     0.049 A 
ATOM     41  H   UNL     1       4.058   4.217   6.627  1.00  0.00     0.167 HD
ATOM     42  C   UNL     1       2.465   7.568   8.929  1.00  0.00     0.037 A 
ATOM     43  C   UNL     1       6.035   2.359   5.951  1.00  0.00     0.037 A 
ATOM     44  C   UNL     1       3.691   7.218   9.598  1.00  0.00     0.049 A 
ATOM     45  C   UNL     1       6.558   3.092   7.165  1.00  0.00     0.074 A 
ATOM     46  C   UNL     1       4.227   7.760  10.754  1.00  0.00     0.029 A 
ATOM     47  N   UNL     1       4.576   6.242   9.166  1.00  0.00    -0.354 N 
ATOM     48  N   UNL     1       6.004   4.058   7.857  1.00  0.00    -0.248 NA
ATOM     49  C   UNL     1       7.878   2.682   7.671  1.00  0.00     0.031 C 
ATOM     50  C   UNL     1       5.466   7.154  10.988  1.00  0.00     0.029 A 
ATOM     51  C   UNL     1       5.668   6.185  10.019  1.00  0.00     0.049 A 
ATOM     52  H   UNL     1       4.449   5.675   8.372  1.00  0.00     0.167 HD
ATOM     53  C   UNL     1       6.886   4.345   8.893  1.00  0.00     0.074 A 
ATOM     54  C   UNL     1       8.007   3.442   8.749  1.00  0.00     0.031 C 
ATOM     55  C   UNL     1       6.775   5.273   9.877  1.00  0.00     0.037 A 
BRANCH  42  56
ATOM     56  C   UNL     1       1.630   8.674   9.508  1.00  0.00     0.064 A 
ATOM     57  C   UNL     1       0.380   8.424  10.096  1.00  0.00     0.173 A 
ATOM     58  C   UNL     1       2.100   9.996   9.504  1.00  0.00     0.173 A 
ATOM     59  F   UNL     1      -0.121   7.180  10.114  1.00  0.00    -0.203 F 
ATOM     60  C   UNL     1      -0.380   9.461  10.631  1.00  0.00     0.198 A 
ATOM     61  C   UNL     1       1.352  11.025  10.070  1.00  0.00     0.198 A 
ATOM     62  F   UNL     1       3.290  10.290   8.960  1.00  0.00    -0.203 F 
ATOM     63  F   UNL     1      -1.594   9.206  11.139  1.00  0.00    -0.200 F 
ATOM     64  C   UNL     1       0.110  10.758  10.625  1.00  0.00     0.200 A 
ATOM     65  F   UNL     1       1.834  12.275  10.078  1.00  0.00    -0.200 F 
ATOM     66  F   UNL     1      -0.620  11.754  11.148  1.00  0.00    -0.200 F 
ENDBRANCH  42  56
BRANCH  43  67
ATOM     67  C   UNL     1       6.854   1.295   5.308  1.00  0.00     0.064 A 
ATOM     68  C   UNL     1       7.136   0.091   5.970  1.00  0.00     0.173 A 
ATOM     69  C   UNL     1       7.412   1.480   4.033  1.00  0.00     0.173 A 
ATOM     70  F   UNL     1       6.656  -0.122   7.204  1.00  0.00    -0.203 F 
ATOM     71  C   UNL     1       7.963  -0.873   5.395  1.00  0.00     0.198 A 
ATOM     72  C   UNL     1       8.210   0.501   3.444  1.00  0.00     0.198 A 
ATOM     73  F   UNL     1       7.184   2.616   3.358  1.00  0.00    -0.203 F 
ATOM     74  F   UNL     1       8.268  -1.985   6.078  1.00  0.00    -0.200 F 
ATOM     75  C   UNL     1       8.494  -0.670   4.130  1.00  0.00     0.200 A 
ATOM     76  F   UNL     1       8.714   0.698   2.218  1.00  0.00    -0.200 F 
ATOM     77  F   UNL     1       9.290  -1.596   3.578  1.00  0.00    -0.200 F 
ENDBRANCH  43  67
BRANCH  55  78
ATOM     78  C   UNL     1       7.867   5.332  10.910  1.00  0.00     0.064 A 
ATOM     79  C   UNL     1       9.155   5.797  10.606  1.00  0.00     0.173 A 
ATOM     80  C   UNL     1       7.604   4.962  12.239  1.00  0.00     0.173 A 
ATOM     81  F   UNL     1       9.465   6.154   9.351  1.00  0.00    -0.203 F 
ATOM     82  C   UNL     1      10.145   5.861  11.585  1.00  0.00     0.198 A 
ATOM     83  C   UNL     1       8.585   5.061  13.222  1.00  0.00     0.198 A 
ATOM     84  F   UNL     1       6.387   4.519  12.590  1.00  0.00    -0.203 F 
ATOM     85  F   UNL     1      11.382   6.260  11.259  1.00  0.00    -0.200 F 
ATOM     86  C   UNL     1       9.857   5.502  12.893  1.00  0.00     0.200 A 
ATOM     87  F   UNL     1       8.298   4.730  14.489  1.00  0.00    -0.200 F 
ATOM     88  F   UNL     1      10.807   5.574  13.835  1.00  0.00    -0.200 F 
ENDBRANCH  55  78
ENDBRANCH  29  30
ENDBRANCH  22  24
ENDBRANCH  21  22
ENDBRANCH  20  21
ENDBRANCH  19  20
ENDBRANCH  18  19
ENDBRANCH  17  18
ENDBRANCH   1  17
TORSDOF 19
