REMARK SMILES O=C(C[C@@H]([NH2+]Cc1cccnc1)C(=O)OCCOCCOCCOC(=O)c1ccc(-c2c3nc(c(-c4c(F)c(F)c(F)c(F)c4F)c4ccc([nH]4)c(-c4c(F)c(F)c(F)c(F)c4F)c4nc(c(-c5c(F)c(F)c(F)c(F)c5F)c5ccc2[nH]5)C=C4)C=C3)cc1)Nc1ccc2ccccc2c1
REMARK SMILES IDX 19 1 18 2 17 3 16 4 15 5 13 6 14 7 4 8 3 9 2 10 1 11 90 12
REMARK SMILES IDX 91 14 92 15 100 16 93 17 99 18 94 19 98 20 95 21 97 22 96 23
REMARK SMILES IDX 5 24 6 27 7 28 8 29 12 30 9 31 11 32 10 33 20 34 21 35 22 36
REMARK SMILES IDX 23 37 24 38 25 39 26 40 27 41 28 42 89 43 29 44 88 45 30 46
REMARK SMILES IDX 31 47 32 48 82 49 33 50 87 51 81 52 83 53 34 54 86 55 80 56
REMARK SMILES IDX 79 57 35 59 67 60 47 61 66 62 48 63 51 64 65 65 84 66 49 67
REMARK SMILES IDX 50 68 64 70 85 71 52 72 36 73 37 74 45 75 38 76 39 77 43 78
REMARK SMILES IDX 46 79 40 80 41 81 44 82 42 83 68 84 69 85 77 86 70 87 71 88
REMARK SMILES IDX 75 89 78 90 72 91 73 92 76 93 74 94 53 95 54 96 62 97 55 98
REMARK SMILES IDX 56 99 60 100 63 101 57 102 58 103 61 104 59 105
REMARK H PARENT 90 13 5 25 5 26 83 58 51 69
REMARK Flexibility Score: inf
ROOT
ATOM      1  C   UNL     1       3.872   2.571   4.374  1.00  0.00     0.188 C 
ENDROOT
BRANCH   1   2
ATOM      2  O   UNL     1       4.981   3.276   4.904  1.00  0.00    -0.376 OA
BRANCH   2   3
ATOM      3  C   UNL     1       6.006   3.766   4.048  1.00  0.00     0.202 C 
BRANCH   3   4
ATOM      4  C   UNL     1       6.678   2.869   2.985  1.00  0.00     0.261 C 
BRANCH   4   5
ATOM      5  O   UNL     1       5.812   2.192   2.043  1.00  0.00    -0.459 OA
BRANCH   5   6
ATOM      6  C   UNL     1       5.625   0.875   2.299  1.00  0.00     0.365 C 
ATOM      7  O   UNL     1       6.146   0.324   3.265  1.00  0.00    -0.245 OA
BRANCH   6   8
ATOM      8  C   UNL     1       4.579   0.156   1.394  1.00  0.00     0.303 C 
BRANCH   8   9
ATOM      9  C   UNL     1       4.062   0.956   0.171  1.00  0.00     0.177 C 
BRANCH   9  10
ATOM     10  C   UNL     1       2.876   0.255  -0.504  1.00  0.00     0.231 C 
ATOM     11  O   UNL     1       1.714   0.588  -0.298  1.00  0.00    -0.274 OA
ATOM     12  N   UNL     1       3.287  -0.850  -1.232  1.00  0.00    -0.326 N 
ATOM     13  H   UNL     1       4.253  -0.940  -1.400  1.00  0.00     0.169 HD
BRANCH  12  14
ATOM     14  C   UNL     1       2.454  -1.854  -1.754  1.00  0.00     0.041 A 
ATOM     15  C   UNL     1       2.776  -3.169  -1.413  1.00  0.00     0.027 A 
ATOM     16  C   UNL     1       1.423  -1.607  -2.663  1.00  0.00     0.034 A 
ATOM     17  C   UNL     1       2.029  -4.234  -1.907  1.00  0.00     0.011 A 
ATOM     18  C   UNL     1       0.765  -2.691  -3.295  1.00  0.00    -0.016 A 
ATOM     19  C   UNL     1       1.038  -4.013  -2.866  1.00  0.00    -0.018 A 
ATOM     20  C   UNL     1      -0.115  -2.520  -4.381  1.00  0.00     0.009 A 
ATOM     21  C   UNL     1       0.364  -5.100  -3.443  1.00  0.00     0.009 A 
ATOM     22  C   UNL     1      -0.706  -3.622  -5.012  1.00  0.00     0.001 A 
ATOM     23  C   UNL     1      -0.491  -4.907  -4.524  1.00  0.00     0.001 A 
ENDBRANCH  12  14
ENDBRANCH   9  10
ENDBRANCH   8   9
BRANCH   8  24
ATOM     24  N   UNL     1       5.042  -1.190   0.927  1.00  0.00    -0.330 N 
ATOM     25  H   UNL     1       5.618  -1.040   0.098  1.00  0.00     0.347 HD
ATOM     26  H   UNL     1       4.179  -1.715   0.786  1.00  0.00     0.347 HD
BRANCH  24  27
ATOM     27  C   UNL     1       5.822  -2.024   1.851  1.00  0.00     0.299 C 
BRANCH  27  28
ATOM     28  C   UNL     1       5.011  -2.757   2.888  1.00  0.00     0.024 A 
ATOM     29  C   UNL     1       5.003  -4.155   2.905  1.00  0.00     0.013 A 
ATOM     30  C   UNL     1       4.280  -2.122   3.889  1.00  0.00     0.120 A 
ATOM     31  C   UNL     1       4.262  -4.840   3.864  1.00  0.00     0.021 A 
ATOM     32  N   UNL     1       3.528  -2.758   4.819  1.00  0.00    -0.264 NA
ATOM     33  C   UNL     1       3.536  -4.104   4.782  1.00  0.00     0.111 A 
ENDBRANCH  27  28
ENDBRANCH  24  27
ENDBRANCH   8  24
ENDBRANCH   6   8
ENDBRANCH   5   6
ENDBRANCH   4   5
ENDBRANCH   3   4
ENDBRANCH   2   3
ENDBRANCH   1   2
BRANCH   1  34
ATOM     34  C   UNL     1       3.205   3.043   3.076  1.00  0.00     0.188 C 
BRANCH  34  35
ATOM     35  O   UNL     1       3.910   4.031   2.369  1.00  0.00    -0.376 OA
BRANCH  35  36
ATOM     36  C   UNL     1       3.402   5.351   2.277  1.00  0.00     0.202 C 
BRANCH  36  37
ATOM     37  C   UNL     1       2.646   6.048   3.428  1.00  0.00     0.261 C 
BRANCH  37  38
ATOM     38  O   UNL     1       1.823   5.234   4.274  1.00  0.00    -0.460 OA
BRANCH  38  39
ATOM     39  C   UNL     1       0.617   4.869   3.782  1.00  0.00     0.338 C 
ATOM     40  O   UNL     1       0.132   5.195   2.709  1.00  0.00    -0.246 OA
BRANCH  39  41
ATOM     41  C   UNL     1       0.087   3.792   4.651  1.00  0.00     0.060 A 
ATOM     42  C   UNL     1      -0.169   2.533   4.086  1.00  0.00     0.016 A 
ATOM     43  C   UNL     1      -0.133   4.012   6.011  1.00  0.00     0.016 A 
ATOM     44  C   UNL     1      -0.692   1.504   4.869  1.00  0.00     0.010 A 
ATOM     45  C   UNL     1      -0.687   2.990   6.789  1.00  0.00     0.010 A 
ATOM     46  C   UNL     1      -1.013   1.749   6.209  1.00  0.00    -0.014 A 
BRANCH  46  47
ATOM     47  C   UNL     1      -1.935   0.825   6.916  1.00  0.00     0.031 A 
ATOM     48  C   UNL     1      -3.397   1.189   6.946  1.00  0.00     0.074 A 
ATOM     49  C   UNL     1      -1.514  -0.317   7.486  1.00  0.00     0.049 A 
ATOM     50  N   UNL     1      -4.396   0.595   7.546  1.00  0.00    -0.248 NA
ATOM     51  C   UNL     1      -3.779   2.396   6.194  1.00  0.00     0.031 C 
ATOM     52  C   UNL     1      -0.143  -0.818   7.474  1.00  0.00     0.029 A 
ATOM     53  N   UNL     1      -2.214  -1.261   8.197  1.00  0.00    -0.354 N 
ATOM     54  C   UNL     1      -5.518   1.361   7.252  1.00  0.00     0.074 A 
ATOM     55  C   UNL     1      -5.073   2.482   6.456  1.00  0.00     0.031 C 
ATOM     56  C   UNL     1      -0.098  -1.974   8.161  1.00  0.00     0.029 A 
ATOM     57  C   UNL     1      -1.429  -2.275   8.687  1.00  0.00     0.049 A 
ATOM     58  H   UNL     1      -3.187  -1.215   8.342  1.00  0.00     0.167 HD
ATOM     59  C   UNL     1      -6.808   1.142   7.601  1.00  0.00     0.037 A 
ATOM     60  C   UNL     1      -1.751  -3.312   9.486  1.00  0.00     0.037 A 
ATOM     61  C   UNL     1      -7.252   0.026   8.392  1.00  0.00     0.049 A 
ATOM     62  C   UNL     1      -3.182  -3.485   9.938  1.00  0.00     0.074 A 
ATOM     63  C   UNL     1      -8.536  -0.283   8.802  1.00  0.00     0.029 A 
ATOM     64  N   UNL     1      -6.420  -0.961   8.899  1.00  0.00    -0.354 N 
ATOM     65  N   UNL     1      -4.240  -2.766   9.652  1.00  0.00    -0.248 NA
ATOM     66  C   UNL     1      -3.463  -4.627  10.823  1.00  0.00     0.031 C 
ATOM     67  C   UNL     1      -8.474  -1.426   9.607  1.00  0.00     0.029 A 
ATOM     68  C   UNL     1      -7.162  -1.870   9.636  1.00  0.00     0.049 A 
ATOM     69  H   UNL     1      -5.447  -1.009   8.755  1.00  0.00     0.167 HD
ATOM     70  C   UNL     1      -5.313  -3.391  10.278  1.00  0.00     0.074 A 
ATOM     71  C   UNL     1      -4.779  -4.553  10.955  1.00  0.00     0.031 C 
ATOM     72  C   UNL     1      -6.623  -3.037  10.287  1.00  0.00     0.037 A 
BRANCH  59  73
ATOM     73  C   UNL     1      -7.825   2.151   7.152  1.00  0.00     0.064 A 
ATOM     74  C   UNL     1      -8.181   2.293   5.801  1.00  0.00     0.173 A 
ATOM     75  C   UNL     1      -8.470   2.972   8.089  1.00  0.00     0.173 A 
ATOM     76  F   UNL     1      -7.583   1.545   4.862  1.00  0.00    -0.203 F 
ATOM     77  C   UNL     1      -9.122   3.240   5.404  1.00  0.00     0.198 A 
ATOM     78  C   UNL     1      -9.436   3.892   7.693  1.00  0.00     0.198 A 
ATOM     79  F   UNL     1      -8.169   2.876   9.393  1.00  0.00    -0.203 F 
ATOM     80  F   UNL     1      -9.405   3.397   4.104  1.00  0.00    -0.200 F 
ATOM     81  C   UNL     1      -9.754   4.032   6.351  1.00  0.00     0.200 A 
ATOM     82  F   UNL     1     -10.057   4.646   8.610  1.00  0.00    -0.200 F 
ATOM     83  F   UNL     1     -10.666   4.937   5.968  1.00  0.00    -0.200 F 
ENDBRANCH  59  73
BRANCH  60  84
ATOM     84  C   UNL     1      -0.704  -4.274   9.924  1.00  0.00     0.064 A 
ATOM     85  C   UNL     1      -0.734  -5.615   9.512  1.00  0.00     0.173 A 
ATOM     86  C   UNL     1       0.321  -3.887  10.801  1.00  0.00     0.173 A 
ATOM     87  F   UNL     1      -1.710  -6.044   8.699  1.00  0.00    -0.203 F 
ATOM     88  C   UNL     1       0.202  -6.535   9.981  1.00  0.00     0.198 A 
ATOM     89  C   UNL     1       1.276  -4.800  11.243  1.00  0.00     0.198 A 
ATOM     90  F   UNL     1       0.391  -2.620  11.235  1.00  0.00    -0.203 F 
ATOM     91  F   UNL     1       0.112  -7.822   9.620  1.00  0.00    -0.200 F 
ATOM     92  C   UNL     1       1.210  -6.126  10.841  1.00  0.00     0.200 A 
ATOM     93  F   UNL     1       2.252  -4.400  12.069  1.00  0.00    -0.200 F 
ATOM     94  F   UNL     1       2.107  -7.012  11.295  1.00  0.00    -0.200 F 
ENDBRANCH  60  84
BRANCH  72  95
ATOM     95  C   UNL     1      -7.588  -3.953  10.989  1.00  0.00     0.064 A 
ATOM     96  C   UNL     1      -7.601  -4.097  12.384  1.00  0.00     0.173 A 
ATOM     97  C   UNL     1      -8.545  -4.667  10.249  1.00  0.00     0.173 A 
ATOM     98  F   UNL     1      -6.705  -3.445  13.139  1.00  0.00    -0.203 F 
ATOM     99  C   UNL     1      -8.510  -4.950  13.008  1.00  0.00     0.198 A 
ATOM    100  C   UNL     1      -9.475  -5.489  10.879  1.00  0.00     0.198 A 
ATOM    101  F   UNL     1      -8.587  -4.558   8.912  1.00  0.00    -0.203 F 
ATOM    102  F   UNL     1      -8.464  -5.118  14.336  1.00  0.00    -0.200 F 
ATOM    103  C   UNL     1      -9.450  -5.639  12.256  1.00  0.00     0.200 A 
ATOM    104  F   UNL     1     -10.396  -6.137  10.151  1.00  0.00    -0.200 F 
ATOM    105  F   UNL     1     -10.327  -6.453  12.859  1.00  0.00    -0.200 F 
ENDBRANCH  72  95
ENDBRANCH  46  47
ENDBRANCH  39  41
ENDBRANCH  38  39
ENDBRANCH  37  38
ENDBRANCH  36  37
ENDBRANCH  35  36
ENDBRANCH  34  35
ENDBRANCH   1  34
TORSDOF 23
