REMARK SMILES O=C(OCCOCCOCCOC(=O)c1cc(OC[C@@H]2Cc3cc(F)ccc3O2)cs1)c1ccc(-c2c3nc(c(-c4c(F)c(F)c(F)c(F)c4F)c4ccc([nH]4)c(-c4c(F)c(F)c(F)c(F)c4F)c4nc(c(-c5c(F)c(F)c(F)c(F)c5F)c5ccc2[nH]5)C=C4)C=C3)cc1
REMARK SMILES IDX 8 1 7 2 6 3 5 4 4 5 3 6 2 7 1 8 32 9 33 10 94 11 34 12 93 13
REMARK SMILES IDX 35 14 36 15 37 16 87 17 38 18 92 19 86 20 88 21 39 22 91 23
REMARK SMILES IDX 85 24 84 25 40 27 72 28 52 29 71 30 53 31 56 32 70 33 89 34
REMARK SMILES IDX 54 35 55 36 69 38 90 39 57 40 41 41 42 42 50 43 43 44 44 45
REMARK SMILES IDX 48 46 51 47 45 48 46 49 49 50 47 51 73 52 74 53 82 54 75 55
REMARK SMILES IDX 76 56 80 57 83 58 77 59 78 60 81 61 79 62 58 63 59 64 67 65
REMARK SMILES IDX 60 66 61 67 65 68 68 69 62 70 63 71 66 72 64 73 9 74 10 75
REMARK SMILES IDX 11 76 12 77 13 78 14 79 15 80 16 81 31 82 17 83 30 84 18 85
REMARK SMILES IDX 19 86 20 87 21 88 29 89 22 90 28 91 23 92 27 93 24 94 26 95
REMARK SMILES IDX 25 96
REMARK H PARENT 88 26 56 37
REMARK Flexibility Score: inf
ROOT
ATOM      1  C   UNL     1       1.938  -2.618   1.166  1.00  0.00     0.188 C 
ENDROOT
BRANCH   1   2
ATOM      2  C   UNL     1       2.413  -1.169   1.104  1.00  0.00     0.188 C 
BRANCH   2   3
ATOM      3  O   UNL     1       3.639  -1.058   0.362  1.00  0.00    -0.376 OA
BRANCH   3   4
ATOM      4  C   UNL     1       4.671  -0.408   1.103  1.00  0.00     0.202 C 
BRANCH   4   5
ATOM      5  C   UNL     1       4.593   1.123   1.081  1.00  0.00     0.261 C 
BRANCH   5   6
ATOM      6  O   UNL     1       3.273   1.640   0.843  1.00  0.00    -0.460 OA
BRANCH   6   7
ATOM      7  C   UNL     1       2.574   1.784  -0.307  1.00  0.00     0.338 C 
ATOM      8  O   UNL     1       1.421   2.210  -0.214  1.00  0.00    -0.246 OA
BRANCH   7   9
ATOM      9  C   UNL     1       3.082   1.486  -1.693  1.00  0.00     0.060 A 
ATOM     10  C   UNL     1       2.203   1.781  -2.760  1.00  0.00     0.016 A 
ATOM     11  C   UNL     1       4.333   0.971  -2.031  1.00  0.00     0.016 A 
ATOM     12  C   UNL     1       2.573   1.607  -4.102  1.00  0.00     0.010 A 
ATOM     13  C   UNL     1       4.715   0.814  -3.368  1.00  0.00     0.010 A 
ATOM     14  C   UNL     1       3.845   1.133  -4.414  1.00  0.00    -0.014 A 
BRANCH  14  15
ATOM     15  C   UNL     1       4.358   1.085  -5.801  1.00  0.00     0.031 A 
ATOM     16  C   UNL     1       4.229  -0.140  -6.650  1.00  0.00     0.074 A 
ATOM     17  C   UNL     1       5.029   2.156  -6.260  1.00  0.00     0.049 A 
ATOM     18  N   UNL     1       4.789  -0.406  -7.805  1.00  0.00    -0.248 NA
ATOM     19  C   UNL     1       3.368  -1.207  -6.133  1.00  0.00     0.031 C 
ATOM     20  C   UNL     1       5.196   3.413  -5.533  1.00  0.00     0.029 A 
ATOM     21  N   UNL     1       5.689   2.356  -7.443  1.00  0.00    -0.354 N 
ATOM     22  C   UNL     1       4.405  -1.703  -8.120  1.00  0.00     0.074 A 
ATOM     23  C   UNL     1       3.506  -2.131  -7.076  1.00  0.00     0.031 C 
ATOM     24  C   UNL     1       5.888   4.269  -6.299  1.00  0.00     0.029 A 
ATOM     25  C   UNL     1       6.230   3.611  -7.558  1.00  0.00     0.049 A 
ATOM     26  H   UNL     1       5.768   1.668  -8.142  1.00  0.00     0.167 HD
ATOM     27  C   UNL     1       4.806  -2.470  -9.164  1.00  0.00     0.037 A 
ATOM     28  C   UNL     1       6.905   4.173  -8.577  1.00  0.00     0.037 A 
ATOM     29  C   UNL     1       5.652  -1.993 -10.230  1.00  0.00     0.049 A 
ATOM     30  C   UNL     1       7.168   3.374  -9.819  1.00  0.00     0.074 A 
ATOM     31  C   UNL     1       6.153  -2.686 -11.320  1.00  0.00     0.029 A 
ATOM     32  N   UNL     1       6.083  -0.683 -10.357  1.00  0.00    -0.354 N 
ATOM     33  N   UNL     1       6.906   2.112 -10.052  1.00  0.00    -0.248 NA
ATOM     34  C   UNL     1       7.803   4.074 -10.944  1.00  0.00     0.031 C 
ATOM     35  C   UNL     1       6.899  -1.799 -12.099  1.00  0.00     0.029 A 
ATOM     36  C   UNL     1       6.805  -0.542 -11.528  1.00  0.00     0.049 A 
ATOM     37  H   UNL     1       5.903   0.038  -9.711  1.00  0.00     0.167 HD
ATOM     38  C   UNL     1       7.331   1.869 -11.349  1.00  0.00     0.074 A 
ATOM     39  C   UNL     1       7.850   3.117 -11.863  1.00  0.00     0.031 C 
ATOM     40  C   UNL     1       7.299   0.706 -12.041  1.00  0.00     0.037 A 
BRANCH  27  41
ATOM     41  C   UNL     1       4.399  -3.916  -9.219  1.00  0.00     0.064 A 
ATOM     42  C   UNL     1       3.087  -4.323  -9.493  1.00  0.00     0.173 A 
ATOM     43  C   UNL     1       5.385  -4.915  -9.126  1.00  0.00     0.173 A 
ATOM     44  F   UNL     1       2.104  -3.416  -9.590  1.00  0.00    -0.203 F 
ATOM     45  C   UNL     1       2.776  -5.672  -9.669  1.00  0.00     0.198 A 
ATOM     46  C   UNL     1       5.079  -6.255  -9.344  1.00  0.00     0.198 A 
ATOM     47  F   UNL     1       6.658  -4.593  -8.849  1.00  0.00    -0.203 F 
ATOM     48  F   UNL     1       1.509  -6.043  -9.897  1.00  0.00    -0.200 F 
ATOM     49  C   UNL     1       3.774  -6.633  -9.612  1.00  0.00     0.200 A 
ATOM     50  F   UNL     1       6.043  -7.183  -9.258  1.00  0.00    -0.200 F 
ATOM     51  F   UNL     1       3.476  -7.929  -9.782  1.00  0.00    -0.200 F 
ENDBRANCH  27  41
BRANCH  28  52
ATOM     52  C   UNL     1       7.254   5.609  -8.485  1.00  0.00     0.064 A 
ATOM     53  C   UNL     1       6.474   6.557  -9.160  1.00  0.00     0.173 A 
ATOM     54  C   UNL     1       8.280   6.071  -7.651  1.00  0.00     0.173 A 
ATOM     55  F   UNL     1       5.486   6.154  -9.972  1.00  0.00    -0.203 F 
ATOM     56  C   UNL     1       6.704   7.920  -9.000  1.00  0.00     0.198 A 
ATOM     57  C   UNL     1       8.497   7.436  -7.477  1.00  0.00     0.198 A 
ATOM     58  F   UNL     1       9.037   5.198  -6.970  1.00  0.00    -0.203 F 
ATOM     59  F   UNL     1       5.946   8.806  -9.659  1.00  0.00    -0.200 F 
ATOM     60  C   UNL     1       7.708   8.358  -8.150  1.00  0.00     0.200 A 
ATOM     61  F   UNL     1       9.453   7.859  -6.639  1.00  0.00    -0.200 F 
ATOM     62  F   UNL     1       7.911   9.671  -7.974  1.00  0.00    -0.200 F 
ENDBRANCH  28  52
BRANCH  40  63
ATOM     63  C   UNL     1       7.810   0.702 -13.447  1.00  0.00     0.064 A 
ATOM     64  C   UNL     1       9.183   0.719 -13.724  1.00  0.00     0.173 A 
ATOM     65  C   UNL     1       6.918   0.553 -14.519  1.00  0.00     0.173 A 
ATOM     66  F   UNL     1      10.072   0.853 -12.728  1.00  0.00    -0.203 F 
ATOM     67  C   UNL     1       9.646   0.596 -15.031  1.00  0.00     0.198 A 
ATOM     68  C   UNL     1       7.385   0.411 -15.822  1.00  0.00     0.198 A 
ATOM     69  F   UNL     1       5.595   0.515 -14.298  1.00  0.00    -0.203 F 
ATOM     70  F   UNL     1      10.963   0.625 -15.278  1.00  0.00    -0.200 F 
ATOM     71  C   UNL     1       8.748   0.433 -16.076  1.00  0.00     0.200 A 
ATOM     72  F   UNL     1       6.518   0.238 -16.829  1.00  0.00    -0.200 F 
ATOM     73  F   UNL     1       9.198   0.294 -17.331  1.00  0.00    -0.200 F 
ENDBRANCH  40  63
ENDBRANCH  14  15
ENDBRANCH   7   9
ENDBRANCH   6   7
ENDBRANCH   5   6
ENDBRANCH   4   5
ENDBRANCH   3   4
ENDBRANCH   2   3
ENDBRANCH   1   2
BRANCH   1  74
ATOM     74  O   UNL     1       2.685  -3.440   2.063  1.00  0.00    -0.376 OA
BRANCH  74  75
ATOM     75  C   UNL     1       3.946  -3.915   1.598  1.00  0.00     0.202 C 
BRANCH  75  76
ATOM     76  C   UNL     1       3.873  -5.162   0.714  1.00  0.00     0.261 C 
BRANCH  76  77
ATOM     77  O   UNL     1       3.500  -4.864  -0.638  1.00  0.00    -0.459 OA
BRANCH  77  78
ATOM     78  C   UNL     1       2.213  -5.121  -1.002  1.00  0.00     0.348 C 
ATOM     79  O   UNL     1       1.325  -5.522  -0.254  1.00  0.00    -0.245 OA
BRANCH  78  80
ATOM     80  C   UNL     1       2.087  -4.865  -2.408  1.00  0.00     0.116 A 
ATOM     81  C   UNL     1       2.891  -5.382  -3.399  1.00  0.00     0.074 A 
ATOM     82  S   UNL     1       0.885  -3.837  -3.035  1.00  0.00    -0.133 S 
ATOM     83  C   UNL     1       2.551  -4.904  -4.685  1.00  0.00     0.131 A 
ATOM     84  C   UNL     1       1.470  -4.050  -4.636  1.00  0.00     0.112 A 
BRANCH  83  85
ATOM     85  O   UNL     1       3.149  -5.178  -5.869  1.00  0.00    -0.489 OA
BRANCH  85  86
ATOM     86  C   UNL     1       4.181  -6.163  -5.826  1.00  0.00     0.275 C 
BRANCH  86  87
ATOM     87  C   UNL     1       5.611  -5.625  -5.593  1.00  0.00     0.215 C 
ATOM     88  C   UNL     1       6.239  -6.097  -4.270  1.00  0.00     0.088 C 
ATOM     89  O   UNL     1       5.697  -4.182  -5.691  1.00  0.00    -0.486 OA
ATOM     90  C   UNL     1       6.420  -4.801  -3.586  1.00  0.00     0.001 A 
ATOM     91  C   UNL     1       6.162  -3.769  -4.472  1.00  0.00     0.123 A 
ATOM     92  C   UNL     1       6.855  -4.546  -2.297  1.00  0.00     0.047 A 
ATOM     93  C   UNL     1       6.386  -2.450  -4.130  1.00  0.00     0.050 A 
ATOM     94  C   UNL     1       7.053  -3.219  -1.931  1.00  0.00     0.123 A 
ATOM     95  C   UNL     1       6.845  -2.175  -2.838  1.00  0.00     0.043 A 
ATOM     96  F   UNL     1       7.474  -2.933  -0.691  1.00  0.00    -0.207 F 
ENDBRANCH  86  87
ENDBRANCH  85  86
ENDBRANCH  83  85
ENDBRANCH  78  80
ENDBRANCH  77  78
ENDBRANCH  76  77
ENDBRANCH  75  76
ENDBRANCH  74  75
ENDBRANCH   1  74
TORSDOF 20
