REMARK SMILES COc1ccc(C[N@@H+]2CCO[C@H](CC(=O)OCCOCCOCCOC(=O)c3ccc(-c4c5nc(c(-c6c(F)c(F)c(F)c(F)c6F)c6ccc([nH]6)c(-c6c(F)c(F)c(F)c(F)c6F)c6nc(c(-c7c(F)c(F)c(F)c(F)c7F)c7ccc4[nH]7)C=C6)C=C5)cc3)C2)cc1OC
REMARK SMILES IDX 20 1 19 2 18 3 17 4 16 5 14 6 15 7 13 8 12 9 8 10 9 11 91 12
REMARK SMILES IDX 10 14 11 15 7 16 6 17 3 18 4 19 93 20 5 21 92 22 2 23 1 24
REMARK SMILES IDX 94 25 95 26 21 27 22 28 23 29 24 30 25 31 26 32 27 33 28 34
REMARK SMILES IDX 29 35 90 36 30 37 89 38 31 39 32 40 33 41 83 42 34 43 88 44
REMARK SMILES IDX 82 45 84 46 35 47 87 48 81 49 80 50 36 52 68 53 48 54 67 55
REMARK SMILES IDX 49 56 52 57 66 58 85 59 50 60 51 61 65 63 86 64 53 65 37 66
REMARK SMILES IDX 38 67 46 68 39 69 40 70 44 71 47 72 41 73 42 74 45 75 43 76
REMARK SMILES IDX 69 77 70 78 78 79 71 80 72 81 76 82 79 83 73 84 74 85 77 86
REMARK SMILES IDX 75 87 54 88 55 89 63 90 56 91 57 92 61 93 64 94 58 95 59 96
REMARK SMILES IDX 62 97 60 98
REMARK H PARENT 8 13 84 51 52 62
REMARK Flexibility Score: inf
ROOT
ATOM      1  C   UNL     1      -2.054   4.180  -1.867  1.00  0.00     0.188 C 
ENDROOT
BRANCH   1   2
ATOM      2  O   UNL     1      -2.106   5.514  -1.388  1.00  0.00    -0.376 OA
BRANCH   2   3
ATOM      3  C   UNL     1      -0.875   6.236  -1.543  1.00  0.00     0.202 C 
BRANCH   3   4
ATOM      4  C   UNL     1       0.322   5.659  -0.746  1.00  0.00     0.261 C 
BRANCH   4   5
ATOM      5  O   UNL     1       1.165   4.941  -1.681  1.00  0.00    -0.463 OA
BRANCH   5   6
ATOM      6  C   UNL     1       1.695   3.565  -1.567  1.00  0.00     0.308 C 
ATOM      7  O   UNL     1       1.487   3.222  -0.380  1.00  0.00    -0.252 OA
BRANCH   6   8
ATOM      8  C   UNL     1       2.596   2.534  -3.275  1.00  0.00     0.160 C 
BRANCH   8   9
ATOM      9  C   UNL     1       2.832   2.915  -5.019  1.00  0.00     0.184 C 
ATOM     10  N   UNL     1       3.205   5.404  -5.311  1.00  0.00    -0.327 N 
ATOM     11  C   UNL     1       1.882   5.446  -5.967  1.00  0.00     0.291 C 
ATOM     12  C   UNL     1       3.789   4.059  -5.462  1.00  0.00     0.295 C 
ATOM     13  H   UNL     1       3.793   6.103  -5.765  1.00  0.00     0.348 HD
ATOM     14  C   UNL     1       1.287   4.107  -6.491  1.00  0.00     0.222 C 
ATOM     15  O   UNL     1       1.613   2.889  -5.793  1.00  0.00    -0.366 OA
BRANCH  10  16
ATOM     16  C   UNL     1       3.130   5.738  -3.886  1.00  0.00     0.299 C 
BRANCH  16  17
ATOM     17  C   UNL     1       2.667   4.547  -3.115  1.00  0.00     0.010 A 
ATOM     18  C   UNL     1       1.685   1.395  -1.665  1.00  0.00     0.160 A 
ATOM     19  C   UNL     1       0.550   2.243  -2.746  1.00  0.00     0.051 A 
ATOM     20  C   UNL     1       3.273   2.110  -1.266  1.00  0.00     0.161 A 
ATOM     21  C   UNL     1       1.022   3.801  -3.499  1.00  0.00     0.013 A 
ATOM     22  C   UNL     1       3.752   3.711  -1.944  1.00  0.00     0.060 A 
BRANCH  18  23
ATOM     23  O   UNL     1       1.329   0.136  -1.265  1.00  0.00    -0.493 OA
ATOM     24  C   UNL     1       0.557   0.186  -0.067  1.00  0.00     0.278 C 
ENDBRANCH  18  23
BRANCH  20  25
ATOM     25  O   UNL     1       4.262   1.482  -0.554  1.00  0.00    -0.493 OA
ATOM     26  C   UNL     1       3.940   0.173  -0.106  1.00  0.00     0.278 C 
ENDBRANCH  20  25
ENDBRANCH  16  17
ENDBRANCH  10  16
ENDBRANCH   8   9
ENDBRANCH   6   8
ENDBRANCH   5   6
ENDBRANCH   4   5
ENDBRANCH   3   4
ENDBRANCH   2   3
ENDBRANCH   1   2
BRANCH   1  27
ATOM     27  C   UNL     1      -2.443   4.001  -3.333  1.00  0.00     0.188 C 
BRANCH  27  28
ATOM     28  O   UNL     1      -1.909   4.959  -4.250  1.00  0.00    -0.376 OA
BRANCH  28  29
ATOM     29  C   UNL     1      -2.926   5.685  -4.943  1.00  0.00     0.202 C 
BRANCH  29  30
ATOM     30  C   UNL     1      -3.651   4.904  -6.060  1.00  0.00     0.261 C 
BRANCH  30  31
ATOM     31  O   UNL     1      -3.790   3.504  -5.766  1.00  0.00    -0.460 OA
BRANCH  31  32
ATOM     32  C   UNL     1      -2.813   2.705  -6.273  1.00  0.00     0.338 C 
ATOM     33  O   UNL     1      -1.984   3.019  -7.109  1.00  0.00    -0.246 OA
BRANCH  32  34
ATOM     34  C   UNL     1      -2.810   1.394  -5.562  1.00  0.00     0.060 A 
ATOM     35  C   UNL     1      -1.608   0.674  -5.489  1.00  0.00     0.016 A 
ATOM     36  C   UNL     1      -3.956   0.882  -4.941  1.00  0.00     0.016 A 
ATOM     37  C   UNL     1      -1.569  -0.585  -4.874  1.00  0.00     0.010 A 
ATOM     38  C   UNL     1      -3.913  -0.369  -4.316  1.00  0.00     0.010 A 
ATOM     39  C   UNL     1      -2.736  -1.140  -4.332  1.00  0.00    -0.014 A 
BRANCH  39  40
ATOM     40  C   UNL     1      -2.818  -2.598  -4.029  1.00  0.00     0.031 A 
ATOM     41  C   UNL     1      -3.498  -3.487  -5.038  1.00  0.00     0.074 A 
ATOM     42  C   UNL     1      -2.324  -3.145  -2.905  1.00  0.00     0.049 A 
ATOM     43  N   UNL     1      -3.757  -4.769  -4.989  1.00  0.00    -0.248 NA
ATOM     44  C   UNL     1      -3.964  -2.825  -6.266  1.00  0.00     0.031 C 
ATOM     45  C   UNL     1      -1.609  -2.423  -1.862  1.00  0.00     0.029 A 
ATOM     46  N   UNL     1      -2.360  -4.443  -2.451  1.00  0.00    -0.354 N 
ATOM     47  C   UNL     1      -4.422  -5.062  -6.173  1.00  0.00     0.074 A 
ATOM     48  C   UNL     1      -4.585  -3.814  -6.886  1.00  0.00     0.031 C 
ATOM     49  C   UNL     1      -1.271  -3.284  -0.886  1.00  0.00     0.029 A 
ATOM     50  C   UNL     1      -1.773  -4.617  -1.222  1.00  0.00     0.049 A 
ATOM     51  H   UNL     1      -2.769  -5.180  -2.961  1.00  0.00     0.167 HD
ATOM     52  C   UNL     1      -4.845  -6.262  -6.640  1.00  0.00     0.037 A 
ATOM     53  C   UNL     1      -1.661  -5.721  -0.455  1.00  0.00     0.037 A 
ATOM     54  C   UNL     1      -4.701  -7.504  -5.928  1.00  0.00     0.049 A 
ATOM     55  C   UNL     1      -2.224  -7.034  -0.946  1.00  0.00     0.074 A 
ATOM     56  C   UNL     1      -5.088  -8.773  -6.320  1.00  0.00     0.029 A 
ATOM     57  N   UNL     1      -4.139  -7.631  -4.665  1.00  0.00    -0.354 N 
ATOM     58  N   UNL     1      -2.825  -7.310  -2.078  1.00  0.00    -0.248 NA
ATOM     59  C   UNL     1      -2.080  -8.193  -0.051  1.00  0.00     0.031 C 
ATOM     60  C   UNL     1      -4.831  -9.654  -5.264  1.00  0.00     0.029 A 
ATOM     61  C   UNL     1      -4.200  -8.952  -4.250  1.00  0.00     0.049 A 
ATOM     62  H   UNL     1      -3.753  -6.891  -4.141  1.00  0.00     0.167 HD
ATOM     63  C   UNL     1      -3.086  -8.676  -2.053  1.00  0.00     0.074 A 
ATOM     64  C   UNL     1      -2.577  -9.173  -0.793  1.00  0.00     0.031 C 
ATOM     65  C   UNL     1      -3.683  -9.448  -2.997  1.00  0.00     0.037 A 
BRANCH  52  66
ATOM     66  C   UNL     1      -5.546  -6.263  -7.971  1.00  0.00     0.064 A 
ATOM     67  C   UNL     1      -4.885  -5.912  -9.160  1.00  0.00     0.173 A 
ATOM     68  C   UNL     1      -6.908  -6.587  -8.054  1.00  0.00     0.173 A 
ATOM     69  F   UNL     1      -3.585  -5.580  -9.139  1.00  0.00    -0.203 F 
ATOM     70  C   UNL     1      -5.577  -5.820 -10.366  1.00  0.00     0.198 A 
ATOM     71  C   UNL     1      -7.585  -6.541  -9.270  1.00  0.00     0.198 A 
ATOM     72  F   UNL     1      -7.590  -6.939  -6.954  1.00  0.00    -0.203 F 
ATOM     73  F   UNL     1      -4.945  -5.389 -11.467  1.00  0.00    -0.200 F 
ATOM     74  C   UNL     1      -6.924  -6.138 -10.420  1.00  0.00     0.200 A 
ATOM     75  F   UNL     1      -8.884  -6.867  -9.324  1.00  0.00    -0.200 F 
ATOM     76  F   UNL     1      -7.591  -6.041 -11.579  1.00  0.00    -0.200 F 
ENDBRANCH  52  66
BRANCH  53  77
ATOM     77  C   UNL     1      -0.959  -5.649   0.857  1.00  0.00     0.064 A 
ATOM     78  C   UNL     1       0.266  -6.304   1.055  1.00  0.00     0.173 A 
ATOM     79  C   UNL     1      -1.499  -4.942   1.941  1.00  0.00     0.173 A 
ATOM     80  F   UNL     1       0.809  -7.022   0.061  1.00  0.00    -0.203 F 
ATOM     81  C   UNL     1       0.916  -6.264   2.287  1.00  0.00     0.198 A 
ATOM     82  C   UNL     1      -0.833  -4.877   3.164  1.00  0.00     0.198 A 
ATOM     83  F   UNL     1      -2.671  -4.304   1.810  1.00  0.00    -0.203 F 
ATOM     84  F   UNL     1       2.062  -6.937   2.460  1.00  0.00    -0.200 F 
ATOM     85  C   UNL     1       0.370  -5.543   3.338  1.00  0.00     0.200 A 
ATOM     86  F   UNL     1      -1.358  -4.170   4.173  1.00  0.00    -0.200 F 
ATOM     87  F   UNL     1       1.001  -5.496   4.520  1.00  0.00    -0.200 F 
ENDBRANCH  53  77
BRANCH  65  88
ATOM     88  C   UNL     1      -3.761 -10.931  -2.744  1.00  0.00     0.064 A 
ATOM     89  C   UNL     1      -4.566 -11.481  -1.736  1.00  0.00     0.173 A 
ATOM     90  C   UNL     1      -3.039 -11.821  -3.557  1.00  0.00     0.173 A 
ATOM     91  F   UNL     1      -5.273 -10.681  -0.923  1.00  0.00    -0.203 F 
ATOM     92  C   UNL     1      -4.615 -12.858  -1.526  1.00  0.00     0.198 A 
ATOM     93  C   UNL     1      -3.122 -13.199  -3.372  1.00  0.00     0.198 A 
ATOM     94  F   UNL     1      -2.260 -11.356  -4.546  1.00  0.00    -0.203 F 
ATOM     95  F   UNL     1      -5.342 -13.355  -0.515  1.00  0.00    -0.200 F 
ATOM     96  C   UNL     1      -3.899 -13.716  -2.348  1.00  0.00     0.200 A 
ATOM     97  F   UNL     1      -2.447 -14.025  -4.183  1.00  0.00    -0.200 F 
ATOM     98  F   UNL     1      -3.954 -15.040  -2.149  1.00  0.00    -0.200 F 
ENDBRANCH  65  88
ENDBRANCH  39  40
ENDBRANCH  32  34
ENDBRANCH  31  32
ENDBRANCH  30  31
ENDBRANCH  29  30
ENDBRANCH  28  29
ENDBRANCH  27  28
ENDBRANCH   1  27
TORSDOF 22
