REMARK SMILES C/C(=N\Nc1nc(-c2ccc(Cl)cc2)cs1)c1nnn(-c2ccc(C(=O)OCCOCCOCCOC(=O)c3ccc(-c4c5nc(c(-c6c(F)c(F)c(F)c(F)c6F)c6ccc([nH]6)c(-c6c(F)c(F)c(F)c(F)c6F)c6nc(c(-c7c(F)c(F)c(F)c(F)c7F)c7ccc4[nH]7)C=C6)C=C5)cc3)cc2)c1C
REMARK SMILES IDX 30 1 29 2 28 3 27 4 25 5 26 6 24 7 21 8 22 9 103 10 23 11
REMARK SMILES IDX 102 12 20 13 17 14 18 15 104 16 19 17 105 18 2 19 1 20 3 21
REMARK SMILES IDX 4 22 5 24 6 25 16 26 7 27 15 28 8 29 9 30 14 31 10 32 13 33
REMARK SMILES IDX 11 34 12 35 31 36 32 37 33 38 34 39 35 40 36 41 37 42 38 43
REMARK SMILES IDX 39 44 40 45 101 46 41 47 100 48 42 49 43 50 44 51 94 52
REMARK SMILES IDX 45 53 99 54 93 55 95 56 46 57 98 58 92 59 91 60 47 62 79 63
REMARK SMILES IDX 59 64 78 65 60 66 63 67 77 68 96 69 61 70 62 71 76 73 97 74
REMARK SMILES IDX 64 75 48 76 49 77 57 78 50 79 51 80 55 81 58 82 52 83 53 84
REMARK SMILES IDX 56 85 54 86 80 87 81 88 89 89 82 90 83 91 87 92 90 93 84 94
REMARK SMILES IDX 85 95 88 96 86 97 65 98 66 99 74 100 67 101 68 102 72 103
REMARK SMILES IDX 75 104 69 105 70 106 73 107 71 108
REMARK H PARENT 4 23 95 61 63 72
REMARK Flexibility Score: inf
ROOT
ATOM      1  O   UNL     1       8.286   2.216   9.624  1.00  0.00    -0.376 OA
ENDROOT
BRANCH   1   2
ATOM      2  C   UNL     1       9.378   1.922   8.769  1.00  0.00     0.202 C 
BRANCH   2   3
ATOM      3  C   UNL     1       9.291   1.547   7.274  1.00  0.00     0.261 C 
BRANCH   3   4
ATOM      4  O   UNL     1       8.072   1.836   6.594  1.00  0.00    -0.460 OA
BRANCH   4   5
ATOM      5  C   UNL     1       7.290   0.758   6.309  1.00  0.00     0.338 C 
ATOM      6  O   UNL     1       7.531  -0.399   6.540  1.00  0.00    -0.246 OA
BRANCH   5   7
ATOM      7  C   UNL     1       5.975   1.238   5.814  1.00  0.00     0.060 A 
ATOM      8  C   UNL     1       3.501   1.929   4.777  1.00  0.00     0.067 A 
ATOM      9  C   UNL     1       3.570   0.912   5.734  1.00  0.00     0.029 A 
ATOM     10  C   UNL     1       4.630   2.694   4.452  1.00  0.00     0.029 A 
ATOM     11  C   UNL     1       4.822   0.553   6.234  1.00  0.00     0.018 A 
ATOM     12  C   UNL     1       5.873   2.347   4.971  1.00  0.00     0.018 A 
BRANCH   8  13
ATOM     13  N   UNL     1       2.376   1.978   3.925  1.00  0.00    -0.217 N 
ATOM     14  C   UNL     1       1.097   1.563   2.209  1.00  0.00     0.132 A 
ATOM     15  N   UNL     1       0.309   1.691   3.319  1.00  0.00    -0.128 NA
ATOM     16  C   UNL     1       2.422   1.759   2.559  1.00  0.00     0.071 A 
ATOM     17  N   UNL     1       1.106   1.860   4.370  1.00  0.00    -0.061 NA
ATOM     18  C   UNL     1       3.668   1.538   1.774  1.00  0.00     0.069 C 
BRANCH  14  19
ATOM     19  C   UNL     1       0.649   1.068   0.916  1.00  0.00     0.087 C 
ATOM     20  C   UNL     1       1.258  -0.254   0.508  1.00  0.00     0.071 C 
ATOM     21  N   UNL     1      -0.129   1.861   0.233  1.00  0.00    -0.176 NA
BRANCH  21  22
ATOM     22  N   UNL     1      -0.485   1.630  -1.076  1.00  0.00    -0.252 N 
ATOM     23  H   UNL     1      -0.784   2.430  -1.566  1.00  0.00     0.193 HD
BRANCH  22  24
ATOM     24  C   UNL     1      -0.493   0.485  -1.804  1.00  0.00     0.203 A 
ATOM     25  N   UNL     1      -0.736  -0.719  -1.344  1.00  0.00    -0.219 NA
ATOM     26  S   UNL     1      -0.047   0.512  -3.476  1.00  0.00    -0.103 S 
ATOM     27  C   UNL     1      -0.262  -1.676  -2.216  1.00  0.00     0.084 A 
ATOM     28  C   UNL     1       0.161  -1.196  -3.437  1.00  0.00     0.097 A 
BRANCH  27  29
ATOM     29  C   UNL     1      -0.153  -3.051  -1.766  1.00  0.00     0.001 A 
ATOM     30  C   UNL     1      -1.255  -3.657  -1.152  1.00  0.00     0.012 A 
ATOM     31  C   UNL     1       1.074  -3.728  -1.805  1.00  0.00     0.012 A 
ATOM     32  C   UNL     1      -1.142  -4.934  -0.597  1.00  0.00     0.021 A 
ATOM     33  C   UNL     1       1.190  -5.002  -1.239  1.00  0.00     0.021 A 
ATOM     34  C   UNL     1       0.081  -5.599  -0.640  1.00  0.00     0.041 A 
ATOM     35  Cl  UNL     1       0.230  -7.159   0.071  1.00  0.00    -0.084 Cl
ENDBRANCH  27  29
ENDBRANCH  22  24
ENDBRANCH  21  22
ENDBRANCH  14  19
ENDBRANCH   8  13
ENDBRANCH   5   7
ENDBRANCH   4   5
ENDBRANCH   3   4
ENDBRANCH   2   3
ENDBRANCH   1   2
BRANCH   1  36
ATOM     36  C   UNL     1       6.963   2.218   9.144  1.00  0.00     0.188 C 
BRANCH  36  37
ATOM     37  C   UNL     1       6.456   3.475   8.404  1.00  0.00     0.188 C 
BRANCH  37  38
ATOM     38  O   UNL     1       7.324   4.378   7.744  1.00  0.00    -0.376 OA
BRANCH  38  39
ATOM     39  C   UNL     1       8.365   5.089   8.396  1.00  0.00     0.202 C 
BRANCH  39  40
ATOM     40  C   UNL     1       8.287   5.608   9.829  1.00  0.00     0.261 C 
BRANCH  40  41
ATOM     41  O   UNL     1       7.585   4.765  10.713  1.00  0.00    -0.460 OA
BRANCH  41  42
ATOM     42  C   UNL     1       6.304   5.136  10.896  1.00  0.00     0.338 C 
ATOM     43  O   UNL     1       5.698   6.026  10.323  1.00  0.00    -0.246 OA
BRANCH  42  44
ATOM     44  C   UNL     1       5.734   4.335  11.981  1.00  0.00     0.060 A 
ATOM     45  C   UNL     1       4.385   4.571  12.245  1.00  0.00     0.016 A 
ATOM     46  C   UNL     1       6.607   3.767  12.919  1.00  0.00     0.016 A 
ATOM     47  C   UNL     1       3.994   4.565  13.556  1.00  0.00     0.010 A 
ATOM     48  C   UNL     1       6.222   3.783  14.232  1.00  0.00     0.010 A 
ATOM     49  C   UNL     1       4.964   4.299  14.528  1.00  0.00    -0.014 A 
BRANCH  49  50
ATOM     50  C   UNL     1       4.617   4.595  15.894  1.00  0.00     0.031 A 
ATOM     51  C   UNL     1       3.741   3.579  16.497  1.00  0.00     0.074 A 
ATOM     52  C   UNL     1       5.119   5.668  16.530  1.00  0.00     0.049 A 
ATOM     53  N   UNL     1       2.527   3.723  16.909  1.00  0.00    -0.248 NA
ATOM     54  C   UNL     1       4.230   2.192  16.494  1.00  0.00     0.031 C 
ATOM     55  C   UNL     1       6.199   6.561  16.100  1.00  0.00     0.029 A 
ATOM     56  N   UNL     1       4.818   6.125  17.772  1.00  0.00    -0.354 N 
ATOM     57  C   UNL     1       2.161   2.474  17.393  1.00  0.00     0.074 A 
ATOM     58  C   UNL     1       3.161   1.542  16.947  1.00  0.00     0.031 C 
ATOM     59  C   UNL     1       6.609   7.298  17.159  1.00  0.00     0.029 A 
ATOM     60  C   UNL     1       5.743   7.014  18.291  1.00  0.00     0.049 A 
ATOM     61  H   UNL     1       4.010   5.847  18.262  1.00  0.00     0.167 HD
ATOM     62  C   UNL     1       1.219   2.358  18.363  1.00  0.00     0.037 A 
ATOM     63  C   UNL     1       5.830   7.392  19.590  1.00  0.00     0.037 A 
ATOM     64  C   UNL     1       0.355   3.510  18.402  1.00  0.00     0.049 A 
ATOM     65  C   UNL     1       4.529   7.070  20.238  1.00  0.00     0.074 A 
ATOM     66  C   UNL     1      -0.488   4.114  17.489  1.00  0.00     0.029 A 
ATOM     67  N   UNL     1       0.550   4.440  19.394  1.00  0.00    -0.354 N 
ATOM     68  N   UNL     1       3.411   7.687  19.977  1.00  0.00    -0.248 NA
ATOM     69  C   UNL     1       4.385   5.756  20.851  1.00  0.00     0.031 C 
ATOM     70  C   UNL     1      -0.372   5.514  17.738  1.00  0.00     0.029 A 
ATOM     71  C   UNL     1       0.504   5.680  18.811  1.00  0.00     0.049 A 
ATOM     72  H   UNL     1       0.695   4.250  20.349  1.00  0.00     0.167 HD
ATOM     73  C   UNL     1       2.442   6.693  19.997  1.00  0.00     0.074 A 
ATOM     74  C   UNL     1       3.083   5.547  20.633  1.00  0.00     0.031 C 
ATOM     75  C   UNL     1       1.310   6.798  19.240  1.00  0.00     0.037 A 
BRANCH  62  76
ATOM     76  C   UNL     1       1.355   1.389  19.508  1.00  0.00     0.064 A 
ATOM     77  C   UNL     1       0.274   1.226  20.392  1.00  0.00     0.173 A 
ATOM     78  C   UNL     1       2.586   0.845  19.942  1.00  0.00     0.173 A 
ATOM     79  F   UNL     1      -0.934   1.726  20.092  1.00  0.00    -0.203 F 
ATOM     80  C   UNL     1       0.435   0.634  21.647  1.00  0.00     0.198 A 
ATOM     81  C   UNL     1       2.728   0.201  21.168  1.00  0.00     0.198 A 
ATOM     82  F   UNL     1       3.727   1.011  19.263  1.00  0.00    -0.203 F 
ATOM     83  F   UNL     1      -0.590   0.621  22.509  1.00  0.00    -0.200 F 
ATOM     84  C   UNL     1       1.662   0.126  22.035  1.00  0.00     0.200 A 
ATOM     85  F   UNL     1       3.932  -0.265  21.530  1.00  0.00    -0.200 F 
ATOM     86  F   UNL     1       1.833  -0.383  23.261  1.00  0.00    -0.200 F 
ENDBRANCH  62  76
BRANCH  63  87
ATOM     87  C   UNL     1       7.056   7.685  20.367  1.00  0.00     0.064 A 
ATOM     88  C   UNL     1       6.990   8.354  21.599  1.00  0.00     0.173 A 
ATOM     89  C   UNL     1       8.291   7.084  20.047  1.00  0.00     0.173 A 
ATOM     90  F   UNL     1       5.838   8.910  22.003  1.00  0.00    -0.203 F 
ATOM     91  C   UNL     1       8.086   8.403  22.467  1.00  0.00     0.198 A 
ATOM     92  C   UNL     1       9.387   7.144  20.908  1.00  0.00     0.198 A 
ATOM     93  F   UNL     1       8.433   6.345  18.938  1.00  0.00    -0.203 F 
ATOM     94  F   UNL     1       7.967   8.998  23.662  1.00  0.00    -0.200 F 
ATOM     95  C   UNL     1       9.281   7.792  22.123  1.00  0.00     0.200 A 
ATOM     96  F   UNL     1      10.525   6.516  20.578  1.00  0.00    -0.200 F 
ATOM     97  F   UNL     1      10.314   7.790  22.977  1.00  0.00    -0.200 F 
ENDBRANCH  63  87
BRANCH  75  98
ATOM     98  C   UNL     1       1.027   8.129  18.600  1.00  0.00     0.064 A 
ATOM     99  C   UNL     1       1.854   8.718  17.627  1.00  0.00     0.173 A 
ATOM    100  C   UNL     1      -0.188   8.765  18.884  1.00  0.00     0.173 A 
ATOM    101  F   UNL     1       2.980   8.117  17.224  1.00  0.00    -0.203 F 
ATOM    102  C   UNL     1       1.503   9.918  17.010  1.00  0.00     0.198 A 
ATOM    103  C   UNL     1      -0.554   9.943  18.238  1.00  0.00     0.198 A 
ATOM    104  F   UNL     1      -1.045   8.217  19.759  1.00  0.00    -0.203 F 
ATOM    105  F   UNL     1       2.319  10.469  16.099  1.00  0.00    -0.200 F 
ATOM    106  C   UNL     1       0.296  10.525  17.311  1.00  0.00     0.200 A 
ATOM    107  F   UNL     1      -1.745  10.501  18.495  1.00  0.00    -0.200 F 
ATOM    108  F   UNL     1      -0.060  11.658  16.690  1.00  0.00    -0.200 F 
ENDBRANCH  75  98
ENDBRANCH  49  50
ENDBRANCH  42  44
ENDBRANCH  41  42
ENDBRANCH  40  41
ENDBRANCH  39  40
ENDBRANCH  38  39
ENDBRANCH  37  38
ENDBRANCH  36  37
ENDBRANCH   1  36
TORSDOF 22
