REMARK SMILES CCOC(=O)c1ccc(NC(=O)[C@H]2CC=CC[C@@]2(C)C(=O)OCCOCCOCCOC(=O)c2ccc(-c3c4nc(c(-c5c(F)c(F)c(F)c(F)c5F)c5ccc([nH]5)c(-c5c(F)c(F)c(F)c(F)c5F)c5nc(c(-c6c(F)c(F)c(F)c(F)c6F)c6ccc3[nH]6)C=C5)C=C4)cc2)cc1
REMARK SMILES IDX 25 1 24 2 23 3 22 4 20 5 21 6 18 7 13 8 14 9 15 10 17 11
REMARK SMILES IDX 19 12 16 13 11 14 10 15 12 17 9 18 6 19 7 20 98 21 8 22
REMARK SMILES IDX 97 23 4 24 5 25 3 26 2 27 1 28 26 29 27 30 28 31 29 32 30 33
REMARK SMILES IDX 31 34 32 35 33 36 34 37 35 38 96 39 36 40 95 41 37 42 38 43
REMARK SMILES IDX 39 44 89 45 40 46 94 47 88 48 90 49 41 50 93 51 87 52 86 53
REMARK SMILES IDX 42 55 74 56 54 57 73 58 55 59 58 60 72 61 91 62 56 63 57 64
REMARK SMILES IDX 71 66 92 67 59 68 43 69 44 70 52 71 45 72 46 73 50 74 53 75
REMARK SMILES IDX 47 76 48 77 51 78 49 79 75 80 76 81 84 82 77 83 78 84 82 85
REMARK SMILES IDX 85 86 79 87 80 88 83 89 81 90 60 91 61 92 69 93 62 94 63 95
REMARK SMILES IDX 67 96 70 97 64 98 65 99 68 100 66 101
REMARK H PARENT 10 16 90 54 58 65
REMARK Flexibility Score: inf
ROOT
ATOM      1  O   UNL     1       1.964   9.402  -2.434  1.00  0.00    -0.376 OA
ENDROOT
BRANCH   1   2
ATOM      2  C   UNL     1       1.411   8.584  -1.413  1.00  0.00     0.202 C 
BRANCH   2   3
ATOM      3  C   UNL     1       1.907   7.138  -1.298  1.00  0.00     0.261 C 
BRANCH   3   4
ATOM      4  O   UNL     1       3.334   6.980  -1.134  1.00  0.00    -0.463 OA
BRANCH   4   5
ATOM      5  C   UNL     1       3.993   6.345  -2.125  1.00  0.00     0.313 C 
ATOM      6  O   UNL     1       3.440   5.996  -3.167  1.00  0.00    -0.252 OA
BRANCH   5   7
ATOM      7  C   UNL     1       5.509   6.095  -1.905  1.00  0.00     0.080 C 
ATOM      8  C   UNL     1       6.252   6.472  -0.550  1.00  0.00     0.100 C 
ATOM      9  C   UNL     1       7.274   5.472   0.052  1.00  0.00     0.041 C 
ATOM     10  C   UNL     1       7.371   4.123  -0.570  1.00  0.00    -0.030 C 
ATOM     11  C   UNL     1       5.673   4.595  -2.344  1.00  0.00     0.046 C 
ATOM     12  C   UNL     1       6.186   6.951  -3.030  1.00  0.00     0.025 C 
ATOM     13  C   UNL     1       6.667   3.739  -1.635  1.00  0.00    -0.030 C 
BRANCH   8  14
ATOM     14  C   UNL     1       5.591   7.237   0.616  1.00  0.00     0.228 C 
ATOM     15  N   UNL     1       4.562   6.827   1.399  1.00  0.00    -0.326 N 
ATOM     16  H   UNL     1       4.279   7.511   2.048  1.00  0.00     0.169 HD
ATOM     17  O   UNL     1       6.084   8.336   0.927  1.00  0.00    -0.274 OA
BRANCH  15  18
ATOM     18  C   UNL     1       3.816   5.648   1.489  1.00  0.00     0.041 A 
ATOM     19  C   UNL     1       2.338   3.292   1.767  1.00  0.00     0.060 A 
ATOM     20  C   UNL     1       3.392   3.345   0.869  1.00  0.00     0.018 A 
ATOM     21  C   UNL     1       1.978   4.417   2.509  1.00  0.00     0.018 A 
ATOM     22  C   UNL     1       4.118   4.516   0.756  1.00  0.00     0.027 A 
ATOM     23  C   UNL     1       2.723   5.599   2.365  1.00  0.00     0.027 A 
BRANCH  19  24
ATOM     24  C   UNL     1       1.767   1.963   1.981  1.00  0.00     0.338 C 
ATOM     25  O   UNL     1       2.418   1.049   2.459  1.00  0.00    -0.246 OA
BRANCH  24  26
ATOM     26  O   UNL     1       0.557   1.892   1.384  1.00  0.00    -0.462 OA
BRANCH  26  27
ATOM     27  C   UNL     1       0.073   0.548   1.238  1.00  0.00     0.230 C 
ATOM     28  C   UNL     1       0.654  -0.081  -0.019  1.00  0.00     0.049 C 
ENDBRANCH  26  27
ENDBRANCH  24  26
ENDBRANCH  19  24
ENDBRANCH  15  18
ENDBRANCH   8  14
ENDBRANCH   5   7
ENDBRANCH   4   5
ENDBRANCH   3   4
ENDBRANCH   2   3
ENDBRANCH   1   2
BRANCH   1  29
ATOM     29  C   UNL     1       3.371   9.600  -2.488  1.00  0.00     0.188 C 
BRANCH  29  30
ATOM     30  C   UNL     1       4.178   9.697  -1.183  1.00  0.00     0.188 C 
BRANCH  30  31
ATOM     31  O   UNL     1       3.389   9.888  -0.026  1.00  0.00    -0.376 OA
BRANCH  31  32
ATOM     32  C   UNL     1       3.635  11.079   0.703  1.00  0.00     0.202 C 
BRANCH  32  33
ATOM     33  C   UNL     1       3.251  12.379  -0.020  1.00  0.00     0.261 C 
BRANCH  33  34
ATOM     34  O   UNL     1       3.760  12.523  -1.358  1.00  0.00    -0.460 OA
BRANCH  34  35
ATOM     35  C   UNL     1       5.080  12.764  -1.508  1.00  0.00     0.338 C 
ATOM     36  O   UNL     1       5.907  12.920  -0.621  1.00  0.00    -0.246 OA
BRANCH  35  37
ATOM     37  C   UNL     1       5.404  12.595  -2.943  1.00  0.00     0.060 A 
ATOM     38  C   UNL     1       6.356  11.641  -3.334  1.00  0.00     0.016 A 
ATOM     39  C   UNL     1       4.732  13.352  -3.906  1.00  0.00     0.016 A 
ATOM     40  C   UNL     1       6.663  11.466  -4.688  1.00  0.00     0.010 A 
ATOM     41  C   UNL     1       5.055  13.193  -5.255  1.00  0.00     0.010 A 
ATOM     42  C   UNL     1       6.045  12.275  -5.651  1.00  0.00    -0.014 A 
BRANCH  42  43
ATOM     43  C   UNL     1       6.582  12.353  -7.034  1.00  0.00     0.031 A 
ATOM     44  C   UNL     1       7.521  13.483  -7.356  1.00  0.00     0.074 A 
ATOM     45  C   UNL     1       6.228  11.478  -7.991  1.00  0.00     0.049 A 
ATOM     46  N   UNL     1       8.017  13.860  -8.506  1.00  0.00    -0.248 NA
ATOM     47  C   UNL     1       7.949  14.310  -6.215  1.00  0.00     0.031 C 
ATOM     48  C   UNL     1       5.367  10.316  -7.802  1.00  0.00     0.029 A 
ATOM     49  N   UNL     1       6.542  11.455  -9.329  1.00  0.00    -0.354 N 
ATOM     50  C   UNL     1       8.799  14.974  -8.230  1.00  0.00     0.074 A 
ATOM     51  C   UNL     1       8.688  15.231  -6.811  1.00  0.00     0.031 C 
ATOM     52  C   UNL     1       5.203   9.699  -8.987  1.00  0.00     0.029 A 
ATOM     53  C   UNL     1       5.914  10.450 -10.023  1.00  0.00     0.049 A 
ATOM     54  H   UNL     1       7.158  12.097  -9.750  1.00  0.00     0.167 HD
ATOM     55  C   UNL     1       9.547  15.714  -9.082  1.00  0.00     0.037 A 
ATOM     56  C   UNL     1       5.893  10.190 -11.346  1.00  0.00     0.037 A 
ATOM     57  C   UNL     1       9.648  15.462 -10.494  1.00  0.00     0.049 A 
ATOM     58  C   UNL     1       6.663  11.081 -12.291  1.00  0.00     0.074 A 
ATOM     59  C   UNL     1      10.386  16.147 -11.443  1.00  0.00     0.029 A 
ATOM     60  N   UNL     1       8.979  14.448 -11.163  1.00  0.00    -0.354 N 
ATOM     61  N   UNL     1       7.413  12.123 -12.026  1.00  0.00    -0.248 NA
ATOM     62  C   UNL     1       6.580  10.758 -13.724  1.00  0.00     0.031 C 
ATOM     63  C   UNL     1      10.116  15.585 -12.695  1.00  0.00     0.029 A 
ATOM     64  C   UNL     1       9.266  14.505 -12.518  1.00  0.00     0.049 A 
ATOM     65  H   UNL     1       8.387  13.785 -10.739  1.00  0.00     0.167 HD
ATOM     66  C   UNL     1       7.921  12.553 -13.247  1.00  0.00     0.074 A 
ATOM     67  C   UNL     1       7.398  11.655 -14.255  1.00  0.00     0.031 C 
ATOM     68  C   UNL     1       8.751  13.594 -13.509  1.00  0.00     0.037 A 
BRANCH  55  69
ATOM     69  C   UNL     1      10.282  16.891  -8.507  1.00  0.00     0.064 A 
ATOM     70  C   UNL     1      11.364  16.732  -7.628  1.00  0.00     0.173 A 
ATOM     71  C   UNL     1       9.901  18.199  -8.845  1.00  0.00     0.173 A 
ATOM     72  F   UNL     1      11.759  15.504  -7.258  1.00  0.00    -0.203 F 
ATOM     73  C   UNL     1      12.012  17.836  -7.080  1.00  0.00     0.198 A 
ATOM     74  C   UNL     1      10.574  19.300  -8.324  1.00  0.00     0.198 A 
ATOM     75  F   UNL     1       8.875  18.410  -9.683  1.00  0.00    -0.203 F 
ATOM     76  F   UNL     1      13.001  17.659  -6.193  1.00  0.00    -0.200 F 
ATOM     77  C   UNL     1      11.621  19.119  -7.434  1.00  0.00     0.200 A 
ATOM     78  F   UNL     1      10.204  20.539  -8.678  1.00  0.00    -0.200 F 
ATOM     79  F   UNL     1      12.247  20.180  -6.908  1.00  0.00    -0.200 F 
ENDBRANCH  55  69
BRANCH  56  80
ATOM     80  C   UNL     1       5.106   9.039 -11.868  1.00  0.00     0.064 A 
ATOM     81  C   UNL     1       5.745   7.931 -12.443  1.00  0.00     0.173 A 
ATOM     82  C   UNL     1       3.704   9.032 -11.828  1.00  0.00     0.173 A 
ATOM     83  F   UNL     1       7.083   7.903 -12.535  1.00  0.00    -0.203 F 
ATOM     84  C   UNL     1       5.012   6.870 -12.973  1.00  0.00     0.198 A 
ATOM     85  C   UNL     1       2.973   7.957 -12.330  1.00  0.00     0.198 A 
ATOM     86  F   UNL     1       3.042  10.071 -11.298  1.00  0.00    -0.203 F 
ATOM     87  F   UNL     1       5.648   5.848 -13.563  1.00  0.00    -0.200 F 
ATOM     88  C   UNL     1       3.627   6.880 -12.909  1.00  0.00     0.200 A 
ATOM     89  F   UNL     1       1.635   7.968 -12.259  1.00  0.00    -0.200 F 
ATOM     90  F   UNL     1       2.923   5.859 -13.416  1.00  0.00    -0.200 F 
ENDBRANCH  56  80
BRANCH  68  91
ATOM     91  C   UNL     1       9.198  13.791 -14.931  1.00  0.00     0.064 A 
ATOM     92  C   UNL     1       8.324  14.244 -15.930  1.00  0.00     0.173 A 
ATOM     93  C   UNL     1      10.540  13.575 -15.284  1.00  0.00     0.173 A 
ATOM     94  F   UNL     1       7.029  14.456 -15.650  1.00  0.00    -0.203 F 
ATOM     95  C   UNL     1       8.771  14.447 -17.234  1.00  0.00     0.198 A 
ATOM     96  C   UNL     1      10.990  13.812 -16.580  1.00  0.00     0.198 A 
ATOM     97  F   UNL     1      11.421  13.151 -14.366  1.00  0.00    -0.203 F 
ATOM     98  F   UNL     1       7.907  14.833 -18.184  1.00  0.00    -0.200 F 
ATOM     99  C   UNL     1      10.104  14.240 -17.556  1.00  0.00     0.200 A 
ATOM    100  F   UNL     1      12.283  13.629 -16.883  1.00  0.00    -0.200 F 
ATOM    101  F   UNL     1      10.534  14.448 -18.808  1.00  0.00    -0.200 F 
ENDBRANCH  68  91
ENDBRANCH  42  43
ENDBRANCH  35  37
ENDBRANCH  34  35
ENDBRANCH  33  34
ENDBRANCH  32  33
ENDBRANCH  31  32
ENDBRANCH  30  31
ENDBRANCH  29  30
ENDBRANCH   1  29
TORSDOF 22
