REMARK SMILES O=C(Cc1ccccc1Nc1c(F)cccc1C(F)(F)F)OCCOCCOCCOC(=O)c1ccc(-c2c3nc(c(-c4c(F)c(F)c(F)c(F)c4F)c4ccc([nH]4)c(-c4c(F)c(F)c(F)c(F)c4F)c4nc(c(-c5c(F)c(F)c(F)c(F)c5F)c5ccc2[nH]5)C=C4)C=C3)cc1
REMARK SMILES IDX 26 1 25 2 24 3 23 4 22 5 2 6 1 7 3 8 4 9 5 10 9 11 6 12 8 13
REMARK SMILES IDX 7 14 10 15 11 17 12 18 17 19 13 20 14 21 16 22 15 23 18 24
REMARK SMILES IDX 19 25 20 26 21 27 27 28 28 29 29 30 30 31 31 32 32 33 33 34
REMARK SMILES IDX 34 35 35 36 96 37 36 38 95 39 37 40 38 41 39 42 89 43 40 44
REMARK SMILES IDX 94 45 88 46 90 47 41 48 93 49 87 50 86 51 42 53 74 54 54 55
REMARK SMILES IDX 73 56 55 57 58 58 72 59 91 60 56 61 57 62 71 64 92 65 59 66
REMARK SMILES IDX 43 67 44 68 52 69 45 70 46 71 50 72 53 73 47 74 48 75 51 76
REMARK SMILES IDX 49 77 75 78 76 79 84 80 77 81 78 82 82 83 85 84 79 85 80 86
REMARK SMILES IDX 83 87 81 88 60 89 61 90 69 91 62 92 63 93 67 94 70 95 64 96
REMARK SMILES IDX 65 97 68 98 66 99
REMARK H PARENT 10 16 90 52 58 63
REMARK Flexibility Score: inf
ROOT
ATOM      1  C   UNL     1       2.212   1.328   1.590  1.00  0.00     0.188 C 
ENDROOT
BRANCH   1   2
ATOM      2  O   UNL     1       3.584   0.971   1.597  1.00  0.00    -0.376 OA
BRANCH   2   3
ATOM      3  C   UNL     1       4.377   1.290   0.460  1.00  0.00     0.202 C 
BRANCH   3   4
ATOM      4  C   UNL     1       3.766   1.138  -0.937  1.00  0.00     0.261 C 
BRANCH   4   5
ATOM      5  O   UNL     1       2.610   0.298  -1.114  1.00  0.00    -0.463 OA
BRANCH   5   6
ATOM      6  C   UNL     1       2.525  -1.041  -0.972  1.00  0.00     0.310 C 
ATOM      7  O   UNL     1       1.616  -1.647  -1.541  1.00  0.00    -0.252 OA
BRANCH   6   8
ATOM      8  C   UNL     1       3.412  -1.740   0.024  1.00  0.00     0.160 C 
BRANCH   8   9
ATOM      9  C   UNL     1       4.250  -2.840  -0.573  1.00  0.00    -0.013 A 
ATOM     10  C   UNL     1       3.704  -4.130  -0.649  1.00  0.00     0.006 A 
ATOM     11  C   UNL     1       5.544  -2.590  -1.076  1.00  0.00     0.042 A 
ATOM     12  C   UNL     1       4.448  -5.178  -1.181  1.00  0.00     0.000 A 
ATOM     13  C   UNL     1       6.280  -3.657  -1.599  1.00  0.00     0.026 A 
ATOM     14  C   UNL     1       5.735  -4.941  -1.655  1.00  0.00     0.002 A 
BRANCH  11  15
ATOM     15  N   UNL     1       6.160  -1.342  -0.858  1.00  0.00    -0.352 N 
ATOM     16  H   UNL     1       6.034  -0.991   0.053  1.00  0.00     0.167 HD
BRANCH  15  17
ATOM     17  C   UNL     1       6.925  -0.497  -1.694  1.00  0.00     0.087 A 
ATOM     18  C   UNL     1       7.880   0.324  -1.049  1.00  0.00     0.147 A 
ATOM     19  C   UNL     1       6.743  -0.325  -3.077  1.00  0.00     0.082 A 
ATOM     20  F   UNL     1       8.017   0.229   0.284  1.00  0.00    -0.205 F 
ATOM     21  C   UNL     1       8.665   1.249  -1.727  1.00  0.00     0.041 A 
ATOM     22  C   UNL     1       7.567   0.604  -3.762  1.00  0.00     0.015 A 
ATOM     23  C   UNL     1       8.516   1.382  -3.097  1.00  0.00     0.004 A 
BRANCH  19  24
ATOM     24  C   UNL     1       5.669  -1.023  -3.880  1.00  0.00     0.418 C 
ATOM     25  F   UNL     1       5.398  -0.369  -5.052  1.00  0.00    -0.166 F 
ATOM     26  F   UNL     1       6.017  -2.283  -4.251  1.00  0.00    -0.166 F 
ATOM     27  F   UNL     1       4.467  -1.102  -3.252  1.00  0.00    -0.166 F 
ENDBRANCH  19  24
ENDBRANCH  15  17
ENDBRANCH  11  15
ENDBRANCH   8   9
ENDBRANCH   6   8
ENDBRANCH   5   6
ENDBRANCH   4   5
ENDBRANCH   3   4
ENDBRANCH   2   3
ENDBRANCH   1   2
BRANCH   1  28
ATOM     28  C   UNL     1       1.853   2.804   1.401  1.00  0.00     0.188 C 
BRANCH  28  29
ATOM     29  O   UNL     1       2.927   3.599   0.918  1.00  0.00    -0.376 OA
BRANCH  29  30
ATOM     30  C   UNL     1       3.410   4.559   1.857  1.00  0.00     0.202 C 
BRANCH  30  31
ATOM     31  C   UNL     1       4.334   4.012   2.960  1.00  0.00     0.261 C 
BRANCH  31  32
ATOM     32  O   UNL     1       3.829   2.904   3.728  1.00  0.00    -0.460 OA
BRANCH  32  33
ATOM     33  C   UNL     1       2.830   3.159   4.591  1.00  0.00     0.338 C 
ATOM     34  O   UNL     1       2.272   4.234   4.769  1.00  0.00    -0.246 OA
BRANCH  33  35
ATOM     35  C   UNL     1       2.396   1.897   5.226  1.00  0.00     0.060 A 
ATOM     36  C   UNL     1       1.068   1.487   5.056  1.00  0.00     0.016 A 
ATOM     37  C   UNL     1       3.257   1.167   6.052  1.00  0.00     0.016 A 
ATOM     38  C   UNL     1       0.583   0.375   5.745  1.00  0.00     0.010 A 
ATOM     39  C   UNL     1       2.761   0.069   6.770  1.00  0.00     0.010 A 
ATOM     40  C   UNL     1       1.408  -0.300   6.657  1.00  0.00    -0.014 A 
BRANCH  40  41
ATOM     41  C   UNL     1       0.762  -1.169   7.676  1.00  0.00     0.031 A 
ATOM     42  C   UNL     1       0.343  -0.528   8.976  1.00  0.00     0.074 A 
ATOM     43  C   UNL     1       0.471  -2.461   7.444  1.00  0.00     0.049 A 
ATOM     44  N   UNL     1      -0.312  -1.038   9.988  1.00  0.00    -0.248 NA
ATOM     45  C   UNL     1       0.710   0.887   9.151  1.00  0.00     0.031 C 
ATOM     46  C   UNL     1       0.782  -3.193   6.220  1.00  0.00     0.029 A 
ATOM     47  N   UNL     1      -0.170  -3.383   8.237  1.00  0.00    -0.354 N 
ATOM     48  C   UNL     1      -0.440  -0.007  10.910  1.00  0.00     0.074 A 
ATOM     49  C   UNL     1       0.236   1.146  10.358  1.00  0.00     0.031 C 
ATOM     50  C   UNL     1       0.329  -4.455   6.342  1.00  0.00     0.029 A 
ATOM     51  C   UNL     1      -0.291  -4.622   7.657  1.00  0.00     0.049 A 
ATOM     52  H   UNL     1      -0.510  -3.174   9.137  1.00  0.00     0.167 HD
ATOM     53  C   UNL     1      -1.076  -0.010  12.106  1.00  0.00     0.037 A 
ATOM     54  C   UNL     1      -0.841  -5.756   8.136  1.00  0.00     0.037 A 
ATOM     55  C   UNL     1      -1.745  -1.153  12.665  1.00  0.00     0.049 A 
ATOM     56  C   UNL     1      -1.487  -5.753   9.502  1.00  0.00     0.074 A 
ATOM     57  C   UNL     1      -2.425  -1.252  13.866  1.00  0.00     0.029 A 
ATOM     58  N   UNL     1      -1.809  -2.400  12.063  1.00  0.00    -0.354 N 
ATOM     59  N   UNL     1      -1.641  -4.763  10.347  1.00  0.00    -0.248 NA
ATOM     60  C   UNL     1      -2.049  -7.028   9.971  1.00  0.00     0.031 C 
ATOM     61  C   UNL     1      -2.857  -2.575  14.014  1.00  0.00     0.029 A 
ATOM     62  C   UNL     1      -2.498  -3.283  12.879  1.00  0.00     0.049 A 
ATOM     63  H   UNL     1      -1.422  -2.625  11.186  1.00  0.00     0.167 HD
ATOM     64  C   UNL     1      -2.351  -5.283  11.423  1.00  0.00     0.074 A 
ATOM     65  C   UNL     1      -2.604  -6.675  11.121  1.00  0.00     0.031 C 
ATOM     66  C   UNL     1      -2.761  -4.662  12.557  1.00  0.00     0.037 A 
BRANCH  53  67
ATOM     67  C   UNL     1      -1.047   1.261  12.902  1.00  0.00     0.064 A 
ATOM     68  C   UNL     1      -1.781   2.393  12.514  1.00  0.00     0.173 A 
ATOM     69  C   UNL     1      -0.285   1.344  14.077  1.00  0.00     0.173 A 
ATOM     70  F   UNL     1      -2.510   2.371  11.388  1.00  0.00    -0.203 F 
ATOM     71  C   UNL     1      -1.730   3.568  13.258  1.00  0.00     0.198 A 
ATOM     72  C   UNL     1      -0.261   2.511  14.834  1.00  0.00     0.198 A 
ATOM     73  F   UNL     1       0.435   0.290  14.491  1.00  0.00    -0.203 F 
ATOM     74  F   UNL     1      -2.398   4.653  12.841  1.00  0.00    -0.200 F 
ATOM     75  C   UNL     1      -0.976   3.625  14.420  1.00  0.00     0.200 A 
ATOM     76  F   UNL     1       0.461   2.561  15.962  1.00  0.00    -0.200 F 
ATOM     77  F   UNL     1      -0.930   4.756  15.137  1.00  0.00    -0.200 F 
ENDBRANCH  53  67
BRANCH  54  78
ATOM     78  C   UNL     1      -0.821  -7.001   7.321  1.00  0.00     0.064 A 
ATOM     79  C   UNL     1      -2.005  -7.554   6.812  1.00  0.00     0.173 A 
ATOM     80  C   UNL     1       0.376  -7.687   7.074  1.00  0.00     0.173 A 
ATOM     81  F   UNL     1      -3.181  -6.953   7.049  1.00  0.00    -0.203 F 
ATOM     82  C   UNL     1      -1.995  -8.757   6.108  1.00  0.00     0.198 A 
ATOM     83  C   UNL     1       0.389  -8.875   6.346  1.00  0.00     0.198 A 
ATOM     84  F   UNL     1       1.536  -7.207   7.547  1.00  0.00    -0.203 F 
ATOM     85  F   UNL     1      -3.147  -9.292   5.682  1.00  0.00    -0.200 F 
ATOM     86  C   UNL     1      -0.797  -9.414   5.871  1.00  0.00     0.200 A 
ATOM     87  F   UNL     1       1.550  -9.504   6.114  1.00  0.00    -0.200 F 
ATOM     88  F   UNL     1      -0.787 -10.572   5.197  1.00  0.00    -0.200 F 
ENDBRANCH  54  78
BRANCH  66  89
ATOM     89  C   UNL     1      -3.579  -5.462  13.532  1.00  0.00     0.064 A 
ATOM     90  C   UNL     1      -3.020  -6.492  14.301  1.00  0.00     0.173 A 
ATOM     91  C   UNL     1      -4.938  -5.165  13.723  1.00  0.00     0.173 A 
ATOM     92  F   UNL     1      -1.728  -6.823  14.150  1.00  0.00    -0.203 F 
ATOM     93  C   UNL     1      -3.798  -7.218  15.200  1.00  0.00     0.198 A 
ATOM     94  C   UNL     1      -5.705  -5.871  14.646  1.00  0.00     0.198 A 
ATOM     95  F   UNL     1      -5.521  -4.181  13.022  1.00  0.00    -0.203 F 
ATOM     96  F   UNL     1      -3.255  -8.234  15.885  1.00  0.00    -0.200 F 
ATOM     97  C   UNL     1      -5.137  -6.903  15.376  1.00  0.00     0.200 A 
ATOM     98  F   UNL     1      -6.994  -5.553  14.827  1.00  0.00    -0.200 F 
ATOM     99  F   UNL     1      -5.883  -7.600  16.245  1.00  0.00    -0.200 F 
ENDBRANCH  66  89
ENDBRANCH  40  41
ENDBRANCH  33  35
ENDBRANCH  32  33
ENDBRANCH  31  32
ENDBRANCH  30  31
ENDBRANCH  29  30
ENDBRANCH  28  29
ENDBRANCH   1  28
TORSDOF 21
