REMARK SMILES CC1=C([C@H](NC(=O)[C@@H]2[C@H](C)c3cc(F)ccc3N2C)C(=O)OCCOCCOCCOC(=O)c2ccc(-c3c4nc(c(-c5c(F)c(F)c(F)c(F)c5F)c5ccc([nH]5)c(-c5c(F)c(F)c(F)c(F)c5F)c5nc(c(-c6c(F)c(F)c(F)c(F)c6F)c6ccc3[nH]6)C=C5)C=C4)cc2)[C@@H](C)N=N1
REMARK SMILES IDX 26 1 25 2 24 3 23 4 22 5 20 6 21 7 4 8 3 9 1 10 2 11 100 12
REMARK SMILES IDX 97 13 99 14 98 15 5 16 6 17 7 19 8 20 9 21 18 22 11 23 10 24
REMARK SMILES IDX 17 25 19 26 12 27 16 28 13 29 15 30 14 31 27 32 28 33 29 34
REMARK SMILES IDX 30 35 31 36 32 37 33 38 34 39 35 40 96 41 36 42 95 43 37 44
REMARK SMILES IDX 38 45 39 46 89 47 40 48 94 49 88 50 90 51 41 52 93 53 87 54
REMARK SMILES IDX 86 55 42 57 74 58 54 59 73 60 55 61 58 62 72 63 91 64 56 65
REMARK SMILES IDX 57 66 71 68 92 69 59 70 43 71 44 72 52 73 45 74 46 75 50 76
REMARK SMILES IDX 53 77 47 78 48 79 51 80 49 81 75 82 76 83 84 84 77 85 78 86
REMARK SMILES IDX 82 87 85 88 79 89 80 90 83 91 81 92 60 93 61 94 69 95 62 96
REMARK SMILES IDX 63 97 67 98 70 99 64 100 65 101 68 102 66 103
REMARK H PARENT 5 18 90 56 58 67
REMARK Flexibility Score: inf
ROOT
ATOM      1  C   UNL     1       5.302   2.510   2.869  1.00  0.00     0.188 C 
ENDROOT
BRANCH   1   2
ATOM      2  O   UNL     1       6.083   3.705   2.758  1.00  0.00    -0.376 OA
BRANCH   2   3
ATOM      3  C   UNL     1       5.407   5.106   2.676  1.00  0.00     0.202 C 
BRANCH   3   4
ATOM      4  C   UNL     1       4.762   6.302   0.972  1.00  0.00     0.261 C 
BRANCH   4   5
ATOM      5  O   UNL     1       3.228   6.192   0.073  1.00  0.00    -0.461 OA
BRANCH   5   6
ATOM      6  C   UNL     1       2.818   5.710  -1.187  1.00  0.00     0.333 C 
ATOM      7  O   UNL     1       3.570   5.715  -2.159  1.00  0.00    -0.249 OA
BRANCH   6   8
ATOM      8  C   UNL     1       1.319   4.661  -1.178  1.00  0.00     0.223 C 
BRANCH   8   9
ATOM      9  C   UNL     1       0.496   4.651  -2.394  1.00  0.00     0.012 C 
ATOM     10  C   UNL     1       0.003   2.185  -2.793  1.00  0.00     0.069 C 
ATOM     11  C   UNL     1      -0.003   3.650  -3.134  1.00  0.00     0.064 C 
ATOM     12  N   UNL     1      -0.703   4.152  -4.208  1.00  0.00    -0.160 NA
ATOM     13  C   UNL     1      -0.357   5.791  -2.738  1.00  0.00     0.156 C 
ATOM     14  N   UNL     1      -0.766   5.424  -4.110  1.00  0.00    -0.181 NA
ATOM     15  C   UNL     1       0.290   7.120  -2.474  1.00  0.00     0.040 C 
ENDBRANCH   8   9
BRANCH   8  16
ATOM     16  N   UNL     1       0.235   4.379  -0.151  1.00  0.00    -0.337 N 
ATOM     17  C   UNL     1       0.393   4.194   1.215  1.00  0.00     0.244 C 
ATOM     18  H   UNL     1      -0.685   4.319  -0.495  1.00  0.00     0.164 HD
ATOM     19  O   UNL     1      -0.463   3.704   1.931  1.00  0.00    -0.273 OA
BRANCH  17  20
ATOM     20  C   UNL     1       1.714   4.705   1.590  1.00  0.00     0.178 C 
ATOM     21  C   UNL     1       2.825   3.794   0.929  1.00  0.00     0.050 C 
ATOM     22  N   UNL     1       2.136   5.375   2.830  1.00  0.00    -0.362 N 
ATOM     23  C   UNL     1       4.043   4.456   1.356  1.00  0.00    -0.016 A 
ATOM     24  C   UNL     1       2.673   2.356   0.594  1.00  0.00     0.015 C 
ATOM     25  C   UNL     1       3.439   5.736   2.488  1.00  0.00     0.041 A 
ATOM     26  C   UNL     1       1.263   6.083   3.723  1.00  0.00     0.144 C 
ATOM     27  C   UNL     1       5.691   4.464   0.674  1.00  0.00     0.045 A 
ATOM     28  C   UNL     1       4.543   7.012   3.005  1.00  0.00     0.029 A 
ATOM     29  C   UNL     1       6.800   5.750   1.239  1.00  0.00     0.123 A 
ATOM     30  C   UNL     1       6.223   7.048   2.337  1.00  0.00     0.041 A 
ATOM     31  F   UNL     1       8.098   5.684   0.911  1.00  0.00    -0.207 F 
ENDBRANCH  17  20
ENDBRANCH   8  16
ENDBRANCH   6   8
ENDBRANCH   5   6
ENDBRANCH   4   5
ENDBRANCH   3   4
ENDBRANCH   2   3
ENDBRANCH   1   2
BRANCH   1  32
ATOM     32  C   UNL     1       3.864   2.516   3.410  1.00  0.00     0.188 C 
BRANCH  32  33
ATOM     33  O   UNL     1       3.691   3.212   4.593  1.00  0.00    -0.376 OA
BRANCH  33  34
ATOM     34  C   UNL     1       3.565   2.413   5.731  1.00  0.00     0.202 C 
BRANCH  34  35
ATOM     35  C   UNL     1       4.165   0.966   5.785  1.00  0.00     0.261 C 
BRANCH  35  36
ATOM     36  O   UNL     1       4.386   0.151   4.558  1.00  0.00    -0.460 OA
BRANCH  36  37
ATOM     37  C   UNL     1       3.377  -0.566   3.956  1.00  0.00     0.338 C 
ATOM     38  O   UNL     1       2.317  -0.828   4.506  1.00  0.00    -0.246 OA
BRANCH  37  39
ATOM     39  C   UNL     1       3.558  -0.682   2.411  1.00  0.00     0.060 A 
ATOM     40  C   UNL     1       4.766  -0.537   1.706  1.00  0.00     0.016 A 
ATOM     41  C   UNL     1       2.395  -0.715   1.615  1.00  0.00     0.016 A 
ATOM     42  C   UNL     1       4.791  -0.301   0.279  1.00  0.00     0.010 A 
ATOM     43  C   UNL     1       2.423  -0.499   0.201  1.00  0.00     0.010 A 
ATOM     44  C   UNL     1       3.610  -0.193  -0.499  1.00  0.00    -0.014 A 
BRANCH  44  45
ATOM     45  C   UNL     1       3.570  -0.125  -2.027  1.00  0.00     0.031 A 
ATOM     46  C   UNL     1       4.072  -1.428  -2.498  1.00  0.00     0.074 A 
ATOM     47  C   UNL     1       3.267   0.752  -3.050  1.00  0.00     0.049 A 
ATOM     48  N   UNL     1       5.243  -1.581  -3.021  1.00  0.00    -0.248 NA
ATOM     49  C   UNL     1       3.406  -2.663  -2.090  1.00  0.00     0.031 C 
ATOM     50  C   UNL     1       3.115   2.208  -3.079  1.00  0.00     0.029 A 
ATOM     51  N   UNL     1       3.014   0.453  -4.412  1.00  0.00    -0.354 N 
ATOM     52  C   UNL     1       5.399  -2.943  -3.172  1.00  0.00     0.074 A 
ATOM     53  C   UNL     1       4.353  -3.551  -2.393  1.00  0.00     0.031 C 
ATOM     54  C   UNL     1       2.624   2.630  -4.276  1.00  0.00     0.029 A 
ATOM     55  C   UNL     1       2.351   1.484  -5.146  1.00  0.00     0.049 A 
ATOM     56  H   UNL     1       3.276  -0.403  -4.822  1.00  0.00     0.167 HD
ATOM     57  C   UNL     1       6.214  -3.420  -4.146  1.00  0.00     0.037 A 
ATOM     58  C   UNL     1       2.114   1.674  -6.492  1.00  0.00     0.037 A 
ATOM     59  C   UNL     1       7.149  -2.405  -4.584  1.00  0.00     0.049 A 
ATOM     60  C   UNL     1       3.244   1.032  -7.194  1.00  0.00     0.074 A 
ATOM     61  C   UNL     1       8.150  -1.671  -3.974  1.00  0.00     0.029 A 
ATOM     62  N   UNL     1       6.881  -1.752  -5.762  1.00  0.00    -0.354 N 
ATOM     63  N   UNL     1       4.441   1.542  -7.191  1.00  0.00    -0.248 NA
ATOM     64  C   UNL     1       3.146  -0.401  -7.420  1.00  0.00     0.031 C 
ATOM     65  C   UNL     1       8.109  -0.385  -4.586  1.00  0.00     0.029 A 
ATOM     66  C   UNL     1       7.144  -0.420  -5.586  1.00  0.00     0.049 A 
ATOM     67  H   UNL     1       6.556  -2.171  -6.592  1.00  0.00     0.167 HD
ATOM     68  C   UNL     1       5.255   0.456  -6.926  1.00  0.00     0.074 A 
ATOM     69  C   UNL     1       4.406  -0.722  -7.116  1.00  0.00     0.031 C 
ATOM     70  C   UNL     1       6.448   0.622  -6.288  1.00  0.00     0.037 A 
BRANCH  57  71
ATOM     71  C   UNL     1       5.858  -4.623  -4.984  1.00  0.00     0.064 A 
ATOM     72  C   UNL     1       6.759  -5.026  -5.989  1.00  0.00     0.173 A 
ATOM     73  C   UNL     1       4.570  -5.200  -5.060  1.00  0.00     0.173 A 
ATOM     74  F   UNL     1       8.009  -4.541  -6.022  1.00  0.00    -0.203 F 
ATOM     75  C   UNL     1       6.364  -5.848  -7.044  1.00  0.00     0.198 A 
ATOM     76  C   UNL     1       4.196  -6.060  -6.086  1.00  0.00     0.198 A 
ATOM     77  F   UNL     1       3.577  -4.883  -4.224  1.00  0.00    -0.203 F 
ATOM     78  F   UNL     1       7.213  -6.084  -8.052  1.00  0.00    -0.200 F 
ATOM     79  C   UNL     1       5.079  -6.356  -7.098  1.00  0.00     0.200 A 
ATOM     80  F   UNL     1       2.939  -6.526  -6.125  1.00  0.00    -0.200 F 
ATOM     81  F   UNL     1       4.677  -7.087  -8.144  1.00  0.00    -0.200 F 
ENDBRANCH  57  71
BRANCH  58  82
ATOM     82  C   UNL     1       0.767   1.762  -7.199  1.00  0.00     0.064 A 
ATOM     83  C   UNL     1       0.649   2.085  -8.573  1.00  0.00     0.173 A 
ATOM     84  C   UNL     1      -0.442   1.379  -6.593  1.00  0.00     0.173 A 
ATOM     85  F   UNL     1       1.740   2.406  -9.286  1.00  0.00    -0.203 F 
ATOM     86  C   UNL     1      -0.580   2.031  -9.266  1.00  0.00     0.198 A 
ATOM     87  C   UNL     1      -1.673   1.359  -7.268  1.00  0.00     0.198 A 
ATOM     88  F   UNL     1      -0.449   0.889  -5.352  1.00  0.00    -0.203 F 
ATOM     89  F   UNL     1      -0.629   2.285 -10.584  1.00  0.00    -0.200 F 
ATOM     90  C   UNL     1      -1.743   1.673  -8.609  1.00  0.00     0.200 A 
ATOM     91  F   UNL     1      -2.779   0.968  -6.618  1.00  0.00    -0.200 F 
ATOM     92  F   UNL     1      -2.907   1.578  -9.268  1.00  0.00    -0.200 F 
ENDBRANCH  58  82
BRANCH  70  93
ATOM     93  C   UNL     1       6.946   2.024  -6.087  1.00  0.00     0.064 A 
ATOM     94  C   UNL     1       6.425   2.875  -5.102  1.00  0.00     0.173 A 
ATOM     95  C   UNL     1       8.092   2.452  -6.757  1.00  0.00     0.173 A 
ATOM     96  F   UNL     1       5.464   2.439  -4.287  1.00  0.00    -0.203 F 
ATOM     97  C   UNL     1       6.967   4.134  -4.853  1.00  0.00     0.198 A 
ATOM     98  C   UNL     1       8.674   3.686  -6.469  1.00  0.00     0.198 A 
ATOM     99  F   UNL     1       8.697   1.635  -7.633  1.00  0.00    -0.203 F 
ATOM    100  F   UNL     1       6.438   4.922  -3.906  1.00  0.00    -0.200 F 
ATOM    101  C   UNL     1       8.099   4.537  -5.537  1.00  0.00     0.200 A 
ATOM    102  F   UNL     1       9.828   4.029  -7.059  1.00  0.00    -0.200 F 
ATOM    103  F   UNL     1       8.670   5.717  -5.257  1.00  0.00    -0.200 F 
ENDBRANCH  70  93
ENDBRANCH  44  45
ENDBRANCH  37  39
ENDBRANCH  36  37
ENDBRANCH  35  36
ENDBRANCH  34  35
ENDBRANCH  33  34
ENDBRANCH  32  33
ENDBRANCH   1  32
TORSDOF 20
