REMARK SMILES NS(=O)(=O)c1ccc(-c2cc(Cl)cc3c2O[C@H](C(F)(F)F)C(C(=O)OCCOCCOCCOC(=O)c2ccc(-c4c5nc(c(-c6c(F)c(F)c(F)c(F)c6F)c6ccc([nH]6)c(-c6c(F)c(F)c(F)c(F)c6F)c6nc(c(-c7c(F)c(F)c(F)c(F)c7F)c7ccc4[nH]7)C=C6)C=C5)cc2)=C3)cc1
REMARK SMILES IDX 29 1 28 2 27 3 26 4 25 5 23 6 24 7 22 8 9 9 10 10 15 11
REMARK SMILES IDX 11 12 14 13 16 14 12 15 13 16 100 17 17 18 8 19 5 20 6 21
REMARK SMILES IDX 102 22 7 23 101 24 2 25 3 26 4 27 1 28 18 31 19 32 20 33
REMARK SMILES IDX 21 34 30 35 31 36 32 37 33 38 34 39 35 40 36 41 37 42 38 43
REMARK SMILES IDX 99 44 39 45 98 46 40 47 41 48 42 49 92 50 43 51 97 52 91 53
REMARK SMILES IDX 93 54 44 55 96 56 90 57 89 58 45 60 77 61 57 62 76 63 58 64
REMARK SMILES IDX 61 65 75 66 94 67 59 68 60 69 74 71 95 72 62 73 46 74 47 75
REMARK SMILES IDX 55 76 48 77 49 78 53 79 56 80 50 81 51 82 54 83 52 84 78 85
REMARK SMILES IDX 79 86 87 87 80 88 81 89 85 90 88 91 82 92 83 93 86 94 84 95
REMARK SMILES IDX 63 96 64 97 72 98 65 99 66 100 70 101 73 102 67 103 68 104
REMARK SMILES IDX 71 105 69 106
REMARK H PARENT 1 29 1 30 93 59 61 70
REMARK Flexibility Score: inf
ROOT
ATOM      1  C   UNL     1       1.990   2.910  10.994  1.00  0.00     0.188 C 
ENDROOT
BRANCH   1   2
ATOM      2  O   UNL     1       3.096   2.761  11.862  1.00  0.00    -0.376 OA
BRANCH   2   3
ATOM      3  C   UNL     1       3.772   3.956  12.247  1.00  0.00     0.202 C 
BRANCH   3   4
ATOM      4  C   UNL     1       2.912   5.147  12.712  1.00  0.00     0.261 C 
BRANCH   4   5
ATOM      5  O   UNL     1       1.967   5.607  11.707  1.00  0.00    -0.460 OA
BRANCH   5   6
ATOM      6  C   UNL     1       2.417   6.572  10.878  1.00  0.00     0.338 C 
ATOM      7  O   UNL     1       3.503   7.126  10.996  1.00  0.00    -0.246 OA
BRANCH   6   8
ATOM      8  C   UNL     1       1.514   6.820   9.717  1.00  0.00     0.087 C 
ATOM      9  C   UNL     1       1.250   4.330   6.404  1.00  0.00     0.026 A 
ATOM     10  C   UNL     1       2.467   3.611   6.467  1.00  0.00     0.033 A 
ATOM     11  C   UNL     1       1.150   5.384   7.329  1.00  0.00     0.135 A 
ATOM     12  C   UNL     1       3.562   4.006   7.235  1.00  0.00     0.042 A 
ATOM     13  C   UNL     1       2.337   5.926   7.871  1.00  0.00     0.019 A 
ATOM     14  O   UNL     1      -0.025   5.837   7.941  1.00  0.00    -0.475 OA
ATOM     15  Cl  UNL     1       4.982   3.049   7.331  1.00  0.00    -0.084 Cl
ATOM     16  C   UNL     1       3.531   5.221   7.875  1.00  0.00     0.032 A 
ATOM     17  C   UNL     1       2.225   7.183   8.639  1.00  0.00     0.027 C 
ATOM     18  C   UNL     1       0.196   6.101   9.433  1.00  0.00     0.316 C 
BRANCH   9  19
ATOM     19  C   UNL     1       0.469   4.045   5.147  1.00  0.00    -0.015 A 
ATOM     20  C   UNL     1      -0.078   3.116   2.475  1.00  0.00     0.082 A 
ATOM     21  C   UNL     1      -0.300   2.285   3.565  1.00  0.00     0.022 A 
ATOM     22  C   UNL     1       0.392   4.414   2.700  1.00  0.00     0.022 A 
ATOM     23  C   UNL     1      -0.038   2.759   4.868  1.00  0.00     0.010 A 
ATOM     24  C   UNL     1       0.648   4.871   4.018  1.00  0.00     0.010 A 
BRANCH  20  25
ATOM     25  S   UNL     1      -0.297   2.519   0.811  1.00  0.00     0.238 S 
ATOM     26  O   UNL     1       0.767   3.024  -0.014  1.00  0.00    -0.207 OA
ATOM     27  O   UNL     1      -1.690   2.693   0.456  1.00  0.00    -0.207 OA
BRANCH  25  28
ATOM     28  N   UNL     1      -0.049   0.864   0.912  1.00  0.00    -0.225 NA
ATOM     29  H   UNL     1      -0.158   0.446  -0.012  1.00  0.00     0.137 HD
ATOM     30  H   UNL     1      -0.730   0.456   1.552  1.00  0.00     0.137 HD
ENDBRANCH  25  28
ENDBRANCH  20  25
ENDBRANCH   9  19
BRANCH  18  31
ATOM     31  C   UNL     1      -0.925   6.928  10.078  1.00  0.00     0.430 C 
ATOM     32  F   UNL     1      -1.020   8.164   9.539  1.00  0.00    -0.167 F 
ATOM     33  F   UNL     1      -2.131   6.330   9.967  1.00  0.00    -0.167 F 
ATOM     34  F   UNL     1      -0.691   7.092  11.406  1.00  0.00    -0.167 F 
ENDBRANCH  18  31
ENDBRANCH   6   8
ENDBRANCH   5   6
ENDBRANCH   4   5
ENDBRANCH   3   4
ENDBRANCH   2   3
ENDBRANCH   1   2
BRANCH   1  35
ATOM     35  C   UNL     1       0.618   2.879  11.704  1.00  0.00     0.188 C 
BRANCH  35  36
ATOM     36  O   UNL     1       0.555   2.866  13.120  1.00  0.00    -0.376 OA
BRANCH  36  37
ATOM     37  C   UNL     1       1.320   1.907  13.839  1.00  0.00     0.202 C 
BRANCH  37  38
ATOM     38  C   UNL     1       1.308   0.427  13.415  1.00  0.00     0.261 C 
BRANCH  38  39
ATOM     39  O   UNL     1       1.597   0.158  12.028  1.00  0.00    -0.460 OA
BRANCH  39  40
ATOM     40  C   UNL     1       0.584  -0.389  11.312  1.00  0.00     0.338 C 
ATOM     41  O   UNL     1      -0.540  -0.652  11.708  1.00  0.00    -0.246 OA
BRANCH  40  42
ATOM     42  C   UNL     1       0.940  -0.470   9.879  1.00  0.00     0.060 A 
ATOM     43  C   UNL     1       0.194   0.293   8.982  1.00  0.00     0.016 A 
ATOM     44  C   UNL     1       1.899  -1.364   9.396  1.00  0.00     0.016 A 
ATOM     45  C   UNL     1       0.402   0.151   7.609  1.00  0.00     0.010 A 
ATOM     46  C   UNL     1       2.109  -1.491   8.008  1.00  0.00     0.010 A 
ATOM     47  C   UNL     1       1.364  -0.732   7.093  1.00  0.00    -0.014 A 
BRANCH  47  48
ATOM     48  C   UNL     1       1.455  -0.960   5.613  1.00  0.00     0.031 A 
ATOM     49  C   UNL     1       0.458  -1.869   4.959  1.00  0.00     0.074 A 
ATOM     50  C   UNL     1       2.380  -0.358   4.836  1.00  0.00     0.049 A 
ATOM     51  N   UNL     1       0.340  -2.196   3.697  1.00  0.00    -0.248 NA
ATOM     52  C   UNL     1      -0.510  -2.522   5.850  1.00  0.00     0.031 C 
ATOM     53  C   UNL     1       3.414   0.524   5.339  1.00  0.00     0.029 A 
ATOM     54  N   UNL     1       2.575  -0.341   3.469  1.00  0.00    -0.354 N 
ATOM     55  C   UNL     1      -0.662  -3.154   3.653  1.00  0.00     0.074 A 
ATOM     56  C   UNL     1      -1.156  -3.311   5.005  1.00  0.00     0.031 C 
ATOM     57  C   UNL     1       4.030   1.124   4.304  1.00  0.00     0.029 A 
ATOM     58  C   UNL     1       3.520   0.579   3.050  1.00  0.00     0.049 A 
ATOM     59  H   UNL     1       2.087  -0.929   2.849  1.00  0.00     0.167 HD
ATOM     60  C   UNL     1      -1.087  -3.876   2.589  1.00  0.00     0.037 A 
ATOM     61  C   UNL     1       3.929   0.940   1.811  1.00  0.00     0.037 A 
ATOM     62  C   UNL     1      -0.580  -3.727   1.249  1.00  0.00     0.049 A 
ATOM     63  C   UNL     1       3.411   0.150   0.629  1.00  0.00     0.074 A 
ATOM     64  C   UNL     1      -0.944  -4.429   0.113  1.00  0.00     0.029 A 
ATOM     65  N   UNL     1       0.408  -2.832   0.864  1.00  0.00    -0.354 N 
ATOM     66  N   UNL     1       2.457  -0.750   0.594  1.00  0.00    -0.248 NA
ATOM     67  C   UNL     1       4.039   0.395  -0.679  1.00  0.00     0.031 C 
ATOM     68  C   UNL     1      -0.133  -4.004  -0.943  1.00  0.00     0.029 A 
ATOM     69  C   UNL     1       0.677  -2.974  -0.490  1.00  0.00     0.049 A 
ATOM     70  H   UNL     1       0.853  -2.190   1.463  1.00  0.00     0.167 HD
ATOM     71  C   UNL     1       2.397  -1.202  -0.720  1.00  0.00     0.074 A 
ATOM     72  C   UNL     1       3.350  -0.415  -1.472  1.00  0.00     0.031 C 
ATOM     73  C   UNL     1       1.623  -2.185  -1.243  1.00  0.00     0.037 A 
BRANCH  60  74
ATOM     74  C   UNL     1      -2.078  -4.971   2.861  1.00  0.00     0.064 A 
ATOM     75  C   UNL     1      -3.407  -4.710   3.223  1.00  0.00     0.173 A 
ATOM     76  C   UNL     1      -1.678  -6.314   2.761  1.00  0.00     0.173 A 
ATOM     77  F   UNL     1      -3.834  -3.445   3.356  1.00  0.00    -0.203 F 
ATOM     78  C   UNL     1      -4.289  -5.751   3.506  1.00  0.00     0.198 A 
ATOM     79  C   UNL     1      -2.571  -7.351   3.009  1.00  0.00     0.198 A 
ATOM     80  F   UNL     1      -0.416  -6.619   2.421  1.00  0.00    -0.203 F 
ATOM     81  F   UNL     1      -5.536  -5.477   3.913  1.00  0.00    -0.200 F 
ATOM     82  C   UNL     1      -3.872  -7.069   3.393  1.00  0.00     0.200 A 
ATOM     83  F   UNL     1      -2.167  -8.623   2.886  1.00  0.00    -0.200 F 
ATOM     84  F   UNL     1      -4.722  -8.069   3.664  1.00  0.00    -0.200 F 
ENDBRANCH  60  74
BRANCH  61  85
ATOM     85  C   UNL     1       4.860   2.096   1.584  1.00  0.00     0.064 A 
ATOM     86  C   UNL     1       4.470   3.174   0.770  1.00  0.00     0.173 A 
ATOM     87  C   UNL     1       6.152   2.162   2.121  1.00  0.00     0.173 A 
ATOM     88  F   UNL     1       3.281   3.150   0.164  1.00  0.00    -0.203 F 
ATOM     89  C   UNL     1       5.310   4.256   0.509  1.00  0.00     0.198 A 
ATOM     90  C   UNL     1       6.984   3.262   1.893  1.00  0.00     0.198 A 
ATOM     91  F   UNL     1       6.620   1.155   2.873  1.00  0.00    -0.203 F 
ATOM     92  F   UNL     1       4.908   5.234  -0.315  1.00  0.00    -0.200 F 
ATOM     93  C   UNL     1       6.565   4.306   1.083  1.00  0.00     0.200 A 
ATOM     94  F   UNL     1       8.199   3.306   2.456  1.00  0.00    -0.200 F 
ATOM     95  F   UNL     1       7.375   5.345   0.842  1.00  0.00    -0.200 F 
ENDBRANCH  61  85
BRANCH  73  96
ATOM     96  C   UNL     1       1.738  -2.454  -2.720  1.00  0.00     0.064 A 
ATOM     97  C   UNL     1       2.884  -3.029  -3.289  1.00  0.00     0.173 A 
ATOM     98  C   UNL     1       0.650  -2.191  -3.569  1.00  0.00     0.173 A 
ATOM     99  F   UNL     1       3.956  -3.293  -2.526  1.00  0.00    -0.203 F 
ATOM    100  C   UNL     1       2.946  -3.308  -4.653  1.00  0.00     0.198 A 
ATOM    101  C   UNL     1       0.702  -2.505  -4.925  1.00  0.00     0.198 A 
ATOM    102  F   UNL     1      -0.474  -1.650  -3.076  1.00  0.00    -0.203 F 
ATOM    103  F   UNL     1       4.069  -3.816  -5.181  1.00  0.00    -0.200 F 
ATOM    104  C   UNL     1       1.852  -3.056  -5.467  1.00  0.00     0.200 A 
ATOM    105  F   UNL     1      -0.366  -2.281  -5.703  1.00  0.00    -0.200 F 
ATOM    106  F   UNL     1       1.907  -3.342  -6.775  1.00  0.00    -0.200 F 
ENDBRANCH  73  96
ENDBRANCH  47  48
ENDBRANCH  40  42
ENDBRANCH  39  40
ENDBRANCH  38  39
ENDBRANCH  37  38
ENDBRANCH  36  37
ENDBRANCH  35  36
ENDBRANCH   1  35
TORSDOF 21
