REMARK SMILES Cn1ccc(S(=O)(=O)N2[C@@H](C(=O)OCCOCCOCCOC(=O)c3ccc(-c4c5nc(c(-c6c(F)c(F)c(F)c(F)c6F)c6ccc([nH]6)c(-c6c(F)c(F)c(F)c(F)c6F)c6nc(c(-c7c(F)c(F)c(F)c(F)c7F)c7ccc4[nH]7)C=C6)C=C5)cc3)C[C@H]3CCCC[C@H]32)c1
REMARK SMILES IDX 17 1 16 2 15 3 14 4 13 5 11 6 12 7 10 8 9 9 94 10 88 11
REMARK SMILES IDX 89 12 93 13 90 14 92 15 91 16 6 17 7 18 8 19 5 20 1 21 2 22
REMARK SMILES IDX 3 23 95 24 4 25 18 26 19 27 20 28 21 29 22 30 23 31 24 32
REMARK SMILES IDX 25 33 26 34 87 35 27 36 86 37 28 38 29 39 30 40 80 41 31 42
REMARK SMILES IDX 85 43 79 44 81 45 32 46 84 47 78 48 77 49 33 51 65 52 45 53
REMARK SMILES IDX 64 54 46 55 49 56 63 57 82 58 47 59 48 60 62 62 83 63 50 64
REMARK SMILES IDX 34 65 35 66 43 67 36 68 37 69 41 70 44 71 38 72 39 73 42 74
REMARK SMILES IDX 40 75 66 76 67 77 75 78 68 79 69 80 73 81 76 82 70 83 71 84
REMARK SMILES IDX 74 85 72 86 51 87 52 88 60 89 53 90 54 91 58 92 61 93 55 94
REMARK SMILES IDX 56 95 59 96 57 97
REMARK H PARENT 81 50 49 61
REMARK Flexibility Score: inf
ROOT
ATOM      1  C   UNL     1      -2.804  -6.014   3.770  1.00  0.00     0.188 C 
ENDROOT
BRANCH   1   2
ATOM      2  O   UNL     1      -3.484  -5.272   4.779  1.00  0.00    -0.376 OA
BRANCH   2   3
ATOM      3  C   UNL     1      -4.476  -4.335   4.379  1.00  0.00     0.202 C 
BRANCH   3   4
ATOM      4  C   UNL     1      -3.938  -3.014   3.831  1.00  0.00     0.261 C 
BRANCH   4   5
ATOM      5  O   UNL     1      -3.232  -3.182   2.588  1.00  0.00    -0.462 OA
BRANCH   5   6
ATOM      6  C   UNL     1      -1.899  -2.949   2.616  1.00  0.00     0.324 C 
ATOM      7  O   UNL     1      -1.247  -2.718   3.631  1.00  0.00    -0.250 OA
BRANCH   6   8
ATOM      8  C   UNL     1      -1.234  -3.072   1.267  1.00  0.00     0.183 C 
ATOM      9  N   UNL     1      -2.035  -3.082   0.010  1.00  0.00    -0.180 NA
ATOM     10  C   UNL     1      -1.361  -3.948  -1.002  1.00  0.00     0.077 C 
ATOM     11  C   UNL     1      -0.414  -4.364   1.159  1.00  0.00     0.037 C 
ATOM     12  C   UNL     1      -0.049  -4.375  -0.323  1.00  0.00     0.009 C 
ATOM     13  C   UNL     1      -2.299  -5.116  -1.330  1.00  0.00     0.020 C 
ATOM     14  C   UNL     1       0.573  -5.667  -0.845  1.00  0.00     0.005 C 
ATOM     15  C   UNL     1      -1.575  -6.257  -2.031  1.00  0.00     0.002 C 
ATOM     16  C   UNL     1      -0.427  -6.766  -1.175  1.00  0.00     0.000 C 
BRANCH   9  17
ATOM     17  S   UNL     1      -2.674  -1.599  -0.502  1.00  0.00     0.245 S 
ATOM     18  O   UNL     1      -3.538  -1.100   0.543  1.00  0.00    -0.207 OA
ATOM     19  O   UNL     1      -3.109  -1.721  -1.875  1.00  0.00    -0.207 OA
BRANCH  17  20
ATOM     20  C   UNL     1      -1.391  -0.431  -0.552  1.00  0.00     0.100 A 
ATOM     21  C   UNL     1       2.073   0.565  -0.407  1.00  0.00     0.149 C 
ATOM     22  N   UNL     1       0.633   0.475  -0.502  1.00  0.00    -0.356 N 
ATOM     23  C   UNL     1      -0.244   1.460  -0.131  1.00  0.00     0.086 A 
ATOM     24  C   UNL     1      -0.063  -0.647  -0.869  1.00  0.00     0.106 A 
ATOM     25  C   UNL     1      -1.515   0.925  -0.152  1.00  0.00     0.041 A 
ENDBRANCH  17  20
ENDBRANCH   9  17
ENDBRANCH   6   8
ENDBRANCH   5   6
ENDBRANCH   4   5
ENDBRANCH   3   4
ENDBRANCH   2   3
ENDBRANCH   1   2
BRANCH   1  26
ATOM     26  C   UNL     1      -3.528  -6.299   2.446  1.00  0.00     0.188 C 
BRANCH  26  27
ATOM     27  O   UNL     1      -4.799  -6.902   2.672  1.00  0.00    -0.376 OA
BRANCH  27  28
ATOM     28  C   UNL     1      -5.003  -8.115   1.954  1.00  0.00     0.202 C 
BRANCH  28  29
ATOM     29  C   UNL     1      -4.659  -9.311   2.845  1.00  0.00     0.261 C 
BRANCH  29  30
ATOM     30  O   UNL     1      -3.277  -9.349   3.251  1.00  0.00    -0.460 OA
BRANCH  30  31
ATOM     31  C   UNL     1      -2.397  -9.629   2.269  1.00  0.00     0.338 C 
ATOM     32  O   UNL     1      -2.639  -9.847   1.095  1.00  0.00    -0.246 OA
BRANCH  31  33
ATOM     33  C   UNL     1      -1.029  -9.497   2.793  1.00  0.00     0.060 A 
ATOM     34  C   UNL     1      -0.232  -8.466   2.294  1.00  0.00     0.016 A 
ATOM     35  C   UNL     1      -0.495 -10.445   3.663  1.00  0.00     0.016 A 
ATOM     36  C   UNL     1       1.129  -8.425   2.580  1.00  0.00     0.010 A 
ATOM     37  C   UNL     1       0.867 -10.388   3.977  1.00  0.00     0.010 A 
ATOM     38  C   UNL     1       1.696  -9.407   3.398  1.00  0.00    -0.014 A 
BRANCH  38  39
ATOM     39  C   UNL     1       3.172  -9.505   3.523  1.00  0.00     0.031 A 
ATOM     40  C   UNL     1       3.884 -10.647   2.850  1.00  0.00     0.074 A 
ATOM     41  C   UNL     1       3.882  -8.571   4.181  1.00  0.00     0.049 A 
ATOM     42  N   UNL     1       5.132 -11.027   2.952  1.00  0.00    -0.248 NA
ATOM     43  C   UNL     1       3.077 -11.471   1.936  1.00  0.00     0.031 C 
ATOM     44  C   UNL     1       3.331  -7.366   4.799  1.00  0.00     0.029 A 
ATOM     45  N   UNL     1       5.229  -8.496   4.439  1.00  0.00    -0.354 N 
ATOM     46  C   UNL     1       5.248 -12.158   2.154  1.00  0.00     0.074 A 
ATOM     47  C   UNL     1       3.946 -12.402   1.571  1.00  0.00     0.031 C 
ATOM     48  C   UNL     1       4.332  -6.670   5.365  1.00  0.00     0.029 A 
ATOM     49  C   UNL     1       5.581  -7.411   5.202  1.00  0.00     0.049 A 
ATOM     50  H   UNL     1       5.879  -9.157   4.109  1.00  0.00     0.167 HD
ATOM     51  C   UNL     1       6.341 -12.924   1.931  1.00  0.00     0.037 A 
ATOM     52  C   UNL     1       6.769  -7.077   5.743  1.00  0.00     0.037 A 
ATOM     53  C   UNL     1       7.643 -12.661   2.482  1.00  0.00     0.049 A 
ATOM     54  C   UNL     1       7.957  -7.979   5.531  1.00  0.00     0.074 A 
ATOM     55  C   UNL     1       8.809 -13.392   2.337  1.00  0.00     0.029 A 
ATOM     56  N   UNL     1       7.952 -11.568   3.277  1.00  0.00    -0.354 N 
ATOM     57  N   UNL     1       8.045  -9.085   4.834  1.00  0.00    -0.248 NA
ATOM     58  C   UNL     1       9.209  -7.591   6.198  1.00  0.00     0.031 C 
ATOM     59  C   UNL     1       9.819 -12.754   3.066  1.00  0.00     0.029 A 
ATOM     60  C   UNL     1       9.290 -11.606   3.633  1.00  0.00     0.049 A 
ATOM     61  H   UNL     1       7.315 -10.868   3.548  1.00  0.00     0.167 HD
ATOM     62  C   UNL     1       9.360  -9.514   4.961  1.00  0.00     0.074 A 
ATOM     63  C   UNL     1      10.039  -8.540   5.790  1.00  0.00     0.031 C 
ATOM     64  C   UNL     1       9.951 -10.618   4.444  1.00  0.00     0.037 A 
BRANCH  51  65
ATOM     65  C   UNL     1       6.163 -14.146   1.081  1.00  0.00     0.064 A 
ATOM     66  C   UNL     1       6.013 -14.064  -0.310  1.00  0.00     0.173 A 
ATOM     67  C   UNL     1       6.164 -15.419   1.670  1.00  0.00     0.173 A 
ATOM     68  F   UNL     1       5.986 -12.867  -0.917  1.00  0.00    -0.203 F 
ATOM     69  C   UNL     1       5.848 -15.213  -1.080  1.00  0.00     0.198 A 
ATOM     70  C   UNL     1       6.023 -16.567   0.895  1.00  0.00     0.198 A 
ATOM     71  F   UNL     1       6.304 -15.550   2.998  1.00  0.00    -0.203 F 
ATOM     72  F   UNL     1       5.663 -15.110  -2.403  1.00  0.00    -0.200 F 
ATOM     73  C   UNL     1       5.860 -16.463  -0.478  1.00  0.00     0.200 A 
ATOM     74  F   UNL     1       6.042 -17.774   1.478  1.00  0.00    -0.200 F 
ATOM     75  F   UNL     1       5.704 -17.567  -1.220  1.00  0.00    -0.200 F 
ENDBRANCH  51  65
BRANCH  52  76
ATOM     76  C   UNL     1       6.891  -5.852   6.575  1.00  0.00     0.064 A 
ATOM     77  C   UNL     1       7.642  -4.754   6.135  1.00  0.00     0.173 A 
ATOM     78  C   UNL     1       6.284  -5.766   7.836  1.00  0.00     0.173 A 
ATOM     79  F   UNL     1       8.265  -4.801   4.949  1.00  0.00    -0.203 F 
ATOM     80  C   UNL     1       7.794  -3.622   6.933  1.00  0.00     0.198 A 
ATOM     81  C   UNL     1       6.414  -4.623   8.621  1.00  0.00     0.198 A 
ATOM     82  F   UNL     1       5.561  -6.794   8.305  1.00  0.00    -0.203 F 
ATOM     83  F   UNL     1       8.556  -2.604   6.509  1.00  0.00    -0.200 F 
ATOM     84  C   UNL     1       7.176  -3.555   8.173  1.00  0.00     0.200 A 
ATOM     85  F   UNL     1       5.808  -4.560   9.815  1.00  0.00    -0.200 F 
ATOM     86  F   UNL     1       7.323  -2.466   8.939  1.00  0.00    -0.200 F 
ENDBRANCH  52  76
BRANCH  64  87
ATOM     87  C   UNL     1      11.412 -10.810   4.723  1.00  0.00     0.064 A 
ATOM     88  C   UNL     1      11.871 -11.227   5.980  1.00  0.00     0.173 A 
ATOM     89  C   UNL     1      12.359 -10.612   3.706  1.00  0.00     0.173 A 
ATOM     90  F   UNL     1      11.005 -11.414   6.987  1.00  0.00    -0.203 F 
ATOM     91  C   UNL     1      13.230 -11.418   6.216  1.00  0.00     0.198 A 
ATOM     92  C   UNL     1      13.714 -10.827   3.939  1.00  0.00     0.198 A 
ATOM     93  F   UNL     1      11.967 -10.219   2.485  1.00  0.00    -0.203 F 
ATOM     94  F   UNL     1      13.652 -11.778   7.436  1.00  0.00    -0.200 F 
ATOM     95  C   UNL     1      14.149 -11.224   5.195  1.00  0.00     0.200 A 
ATOM     96  F   UNL     1      14.599 -10.649   2.949  1.00  0.00    -0.200 F 
ATOM     97  F   UNL     1      15.456 -11.413   5.423  1.00  0.00    -0.200 F 
ENDBRANCH  64  87
ENDBRANCH  38  39
ENDBRANCH  31  33
ENDBRANCH  30  31
ENDBRANCH  29  30
ENDBRANCH  28  29
ENDBRANCH  27  28
ENDBRANCH  26  27
ENDBRANCH   1  26
TORSDOF 19
