REMARK SMILES C=CCN1C(=O)/C(=C\c2cccn2-c2ccc(C(=O)OCCOCCOCCOC(=O)c3ccc(-c4c5nc(c(-c6c(F)c(F)c(F)c(F)c6F)c6ccc([nH]6)c(-c6c(F)c(F)c(F)c(F)c6F)c6nc(c(-c7c(F)c(F)c(F)c(F)c7F)c7ccc4[nH]7)C=C6)C=C5)cc3)cc2)C(O)=NC1=S
REMARK SMILES IDX 24 1 23 2 22 3 21 4 20 5 18 6 19 7 17 8 14 9 15 10 96 11
REMARK SMILES IDX 16 12 95 13 13 14 9 15 10 16 11 17 12 18 8 19 4 20 5 21
REMARK SMILES IDX 100 22 6 23 7 24 99 25 101 26 97 27 3 28 2 29 1 30 98 31
REMARK SMILES IDX 25 33 26 34 27 35 28 36 29 37 30 38 31 39 32 40 33 41 94 42
REMARK SMILES IDX 34 43 93 44 35 45 36 46 37 47 87 48 38 49 92 50 86 51 88 52
REMARK SMILES IDX 39 53 91 54 85 55 84 56 40 58 72 59 52 60 71 61 53 62 56 63
REMARK SMILES IDX 70 64 89 65 54 66 55 67 69 69 90 70 57 71 41 72 42 73 50 74
REMARK SMILES IDX 43 75 44 76 48 77 51 78 45 79 46 80 49 81 47 82 73 83 74 84
REMARK SMILES IDX 82 85 75 86 76 87 80 88 83 89 77 90 78 91 81 92 79 93 58 94
REMARK SMILES IDX 59 95 67 96 60 97 61 98 65 99 68 100 62 101 63 102 66 103
REMARK SMILES IDX 64 104
REMARK H PARENT 98 32 88 57 56 68
REMARK Flexibility Score: inf
ROOT
ATOM      1  C   UNL     1       3.684  -6.899  -8.989  1.00  0.00     0.188 C 
ENDROOT
BRANCH   1   2
ATOM      2  O   UNL     1       4.572  -6.218  -9.860  1.00  0.00    -0.376 OA
BRANCH   2   3
ATOM      3  C   UNL     1       3.949  -5.363 -10.813  1.00  0.00     0.202 C 
BRANCH   3   4
ATOM      4  C   UNL     1       3.342  -4.063 -10.258  1.00  0.00     0.261 C 
BRANCH   4   5
ATOM      5  O   UNL     1       2.492  -4.220  -9.111  1.00  0.00    -0.460 OA
BRANCH   5   6
ATOM      6  C   UNL     1       1.226  -4.634  -9.337  1.00  0.00     0.338 C 
ATOM      7  O   UNL     1       0.735  -4.912 -10.416  1.00  0.00    -0.246 OA
BRANCH   6   8
ATOM      8  C   UNL     1       0.548  -4.854  -8.034  1.00  0.00     0.060 A 
ATOM      9  C   UNL     1      -0.814  -5.322  -5.637  1.00  0.00     0.046 A 
ATOM     10  C   UNL     1      -0.895  -6.257  -6.676  1.00  0.00     0.027 A 
ATOM     11  C   UNL     1       0.003  -4.190  -5.769  1.00  0.00     0.027 A 
ATOM     12  C   UNL     1      -0.238  -6.005  -7.883  1.00  0.00     0.018 A 
ATOM     13  C   UNL     1       0.695  -3.963  -6.964  1.00  0.00     0.018 A 
BRANCH   9  14
ATOM     14  N   UNL     1      -1.617  -5.507  -4.477  1.00  0.00    -0.317 N 
ATOM     15  C   UNL     1      -2.448  -4.568  -3.866  1.00  0.00     0.047 A 
ATOM     16  C   UNL     1      -3.073  -5.186  -2.797  1.00  0.00     0.028 A 
ATOM     17  C   UNL     1      -2.645  -6.530  -2.760  1.00  0.00     0.020 A 
ATOM     18  C   UNL     1      -1.785  -6.711  -3.820  1.00  0.00     0.092 A 
BRANCH  15  19
ATOM     19  C   UNL     1      -2.644  -3.280  -4.436  1.00  0.00     0.046 C 
ATOM     20  N   UNL     1      -1.545  -0.773  -1.968  1.00  0.00    -0.279 N 
ATOM     21  C   UNL     1      -1.558  -2.038  -2.557  1.00  0.00     0.265 C 
ATOM     22  C   UNL     1      -1.932   0.397  -2.639  1.00  0.00     0.206 C 
ATOM     23  O   UNL     1      -1.011  -3.014  -2.049  1.00  0.00    -0.268 OA
ATOM     24  C   UNL     1      -2.249  -2.122  -3.872  1.00  0.00     0.104 C 
ATOM     25  N   UNL     1      -2.347   0.310  -3.943  1.00  0.00    -0.184 NA
ATOM     26  S   UNL     1      -1.901   1.944  -1.944  1.00  0.00    -0.038 S 
ATOM     27  C   UNL     1      -2.495  -0.828  -4.510  1.00  0.00     0.226 C 
BRANCH  20  28
ATOM     28  C   UNL     1      -1.060  -0.757  -0.582  1.00  0.00     0.155 C 
BRANCH  28  29
ATOM     29  C   UNL     1       0.444  -0.730  -0.564  1.00  0.00    -0.013 C 
ATOM     30  C   UNL     1       1.188   0.243  -0.023  1.00  0.00     0.006 C 
ENDBRANCH  28  29
ENDBRANCH  20  28
BRANCH  27  31
ATOM     31  O   UNL     1      -2.867  -0.804  -5.802  1.00  0.00    -0.493 OA
ATOM     32  H   UNL     1      -2.990  -1.607  -6.269  1.00  0.00     0.295 HD
ENDBRANCH  27  31
ENDBRANCH  15  19
ENDBRANCH   9  14
ENDBRANCH   6   8
ENDBRANCH   5   6
ENDBRANCH   4   5
ENDBRANCH   3   4
ENDBRANCH   2   3
ENDBRANCH   1   2
BRANCH   1  33
ATOM     33  C   UNL     1       3.804  -6.507  -7.505  1.00  0.00     0.188 C 
BRANCH  33  34
ATOM     34  O   UNL     1       4.664  -5.466  -7.065  1.00  0.00    -0.376 OA
BRANCH  34  35
ATOM     35  C   UNL     1       5.901  -5.211  -7.708  1.00  0.00     0.202 C 
BRANCH  35  36
ATOM     36  C   UNL     1       6.954  -6.315  -7.877  1.00  0.00     0.261 C 
BRANCH  36  37
ATOM     37  O   UNL     1       6.484  -7.659  -7.906  1.00  0.00    -0.460 OA
BRANCH  37  38
ATOM     38  C   UNL     1       6.337  -8.192  -6.675  1.00  0.00     0.338 C 
ATOM     39  O   UNL     1       6.400  -7.625  -5.599  1.00  0.00    -0.246 OA
BRANCH  38  40
ATOM     40  C   UNL     1       6.087  -9.630  -6.797  1.00  0.00     0.060 A 
ATOM     41  C   UNL     1       5.126 -10.200  -5.956  1.00  0.00     0.016 A 
ATOM     42  C   UNL     1       6.946 -10.414  -7.575  1.00  0.00     0.016 A 
ATOM     43  C   UNL     1       5.088 -11.576  -5.815  1.00  0.00     0.010 A 
ATOM     44  C   UNL     1       6.931 -11.790  -7.408  1.00  0.00     0.010 A 
ATOM     45  C   UNL     1       6.035 -12.358  -6.489  1.00  0.00    -0.014 A 
BRANCH  45  46
ATOM     46  C   UNL     1       6.151 -13.782  -6.115  1.00  0.00     0.031 A 
ATOM     47  C   UNL     1       5.308 -14.721  -6.954  1.00  0.00     0.074 A 
ATOM     48  C   UNL     1       6.971 -14.034  -5.053  1.00  0.00     0.049 A 
ATOM     49  N   UNL     1       4.864 -15.909  -6.673  1.00  0.00    -0.248 NA
ATOM     50  C   UNL     1       4.851 -14.257  -8.288  1.00  0.00     0.031 C 
ATOM     51  C   UNL     1       7.752 -12.991  -4.360  1.00  0.00     0.029 A 
ATOM     52  N   UNL     1       7.320 -15.164  -4.342  1.00  0.00    -0.354 N 
ATOM     53  C   UNL     1       4.262 -16.401  -7.842  1.00  0.00     0.074 A 
ATOM     54  C   UNL     1       4.177 -15.304  -8.761  1.00  0.00     0.031 C 
ATOM     55  C   UNL     1       8.419 -13.509  -3.314  1.00  0.00     0.029 A 
ATOM     56  C   UNL     1       8.146 -14.927  -3.213  1.00  0.00     0.049 A 
ATOM     57  H   UNL     1       7.019 -16.066  -4.598  1.00  0.00     0.167 HD
ATOM     58  C   UNL     1       3.998 -17.719  -8.057  1.00  0.00     0.037 A 
ATOM     59  C   UNL     1       8.563 -15.793  -2.241  1.00  0.00     0.037 A 
ATOM     60  C   UNL     1       4.324 -18.522  -6.927  1.00  0.00     0.049 A 
ATOM     61  C   UNL     1       8.136 -17.133  -2.687  1.00  0.00     0.074 A 
ATOM     62  C   UNL     1       3.720 -18.754  -5.720  1.00  0.00     0.029 A 
ATOM     63  N   UNL     1       5.588 -19.055  -6.884  1.00  0.00    -0.354 N 
ATOM     64  N   UNL     1       8.659 -17.774  -3.690  1.00  0.00    -0.248 NA
ATOM     65  C   UNL     1       7.007 -17.788  -2.019  1.00  0.00     0.031 C 
ATOM     66  C   UNL     1       4.769 -19.136  -4.850  1.00  0.00     0.029 A 
ATOM     67  C   UNL     1       5.970 -19.133  -5.564  1.00  0.00     0.049 A 
ATOM     68  H   UNL     1       6.127 -19.332  -7.660  1.00  0.00     0.167 HD
ATOM     69  C   UNL     1       7.713 -18.736  -3.970  1.00  0.00     0.074 A 
ATOM     70  C   UNL     1       6.899 -18.871  -2.785  1.00  0.00     0.031 C 
ATOM     71  C   UNL     1       7.377 -18.982  -5.261  1.00  0.00     0.037 A 
BRANCH  58  72
ATOM     72  C   UNL     1       3.659 -18.418  -9.339  1.00  0.00     0.064 A 
ATOM     73  C   UNL     1       2.922 -19.622  -9.284  1.00  0.00     0.173 A 
ATOM     74  C   UNL     1       4.292 -18.127 -10.557  1.00  0.00     0.173 A 
ATOM     75  F   UNL     1       2.277 -19.977  -8.162  1.00  0.00    -0.203 F 
ATOM     76  C   UNL     1       2.890 -20.514 -10.354  1.00  0.00     0.198 A 
ATOM     77  C   UNL     1       4.221 -19.004 -11.642  1.00  0.00     0.198 A 
ATOM     78  F   UNL     1       5.068 -17.042 -10.690  1.00  0.00    -0.203 F 
ATOM     79  F   UNL     1       2.268 -21.694 -10.222  1.00  0.00    -0.200 F 
ATOM     80  C   UNL     1       3.548 -20.209 -11.530  1.00  0.00     0.200 A 
ATOM     81  F   UNL     1       4.868 -18.706 -12.778  1.00  0.00    -0.200 F 
ATOM     82  F   UNL     1       3.566 -21.087 -12.542  1.00  0.00    -0.200 F 
ENDBRANCH  58  72
BRANCH  59  83
ATOM     83  C   UNL     1       9.257 -15.702  -0.896  1.00  0.00     0.064 A 
ATOM     84  C   UNL     1       9.639 -14.524  -0.238  1.00  0.00     0.173 A 
ATOM     85  C   UNL     1       9.465 -16.883  -0.127  1.00  0.00     0.173 A 
ATOM     86  F   UNL     1       9.571 -13.331  -0.830  1.00  0.00    -0.203 F 
ATOM     87  C   UNL     1      10.101 -14.515   1.090  1.00  0.00     0.198 A 
ATOM     88  C   UNL     1       9.879 -16.870   1.207  1.00  0.00     0.198 A 
ATOM     89  F   UNL     1       9.250 -18.101  -0.643  1.00  0.00    -0.203 F 
ATOM     90  F   UNL     1      10.439 -13.351   1.664  1.00  0.00    -0.200 F 
ATOM     91  C   UNL     1      10.186 -15.681   1.823  1.00  0.00     0.200 A 
ATOM     92  F   UNL     1       9.947 -18.021   1.893  1.00  0.00    -0.200 F 
ATOM     93  F   UNL     1      10.558 -15.658   3.109  1.00  0.00    -0.200 F 
ENDBRANCH  59  83
BRANCH  71  94
ATOM     94  C   UNL     1       8.461 -18.563  -6.236  1.00  0.00     0.064 A 
ATOM     95  C   UNL     1       9.706 -19.211  -6.233  1.00  0.00     0.173 A 
ATOM     96  C   UNL     1       8.357 -17.430  -7.059  1.00  0.00     0.173 A 
ATOM     97  F   UNL     1       9.888 -20.307  -5.481  1.00  0.00    -0.203 F 
ATOM     98  C   UNL     1      10.781 -18.732  -6.988  1.00  0.00     0.198 A 
ATOM     99  C   UNL     1       9.421 -16.956  -7.823  1.00  0.00     0.198 A 
ATOM    100  F   UNL     1       7.211 -16.758  -7.141  1.00  0.00    -0.203 F 
ATOM    101  F   UNL     1      11.960 -19.366  -6.949  1.00  0.00    -0.200 F 
ATOM    102  C   UNL     1      10.639 -17.602  -7.779  1.00  0.00     0.200 A 
ATOM    103  F   UNL     1       9.258 -15.873  -8.598  1.00  0.00    -0.200 F 
ATOM    104  F   UNL     1      11.668 -17.145  -8.506  1.00  0.00    -0.200 F 
ENDBRANCH  71  94
ENDBRANCH  45  46
ENDBRANCH  38  40
ENDBRANCH  37  38
ENDBRANCH  36  37
ENDBRANCH  35  36
ENDBRANCH  34  35
ENDBRANCH  33  34
ENDBRANCH   1  33
TORSDOF 22
