REMARK SMILES CCC(C)(C)n1c(SCC(=O)OCCOCCOCCOC(=O)c2ccc(-c3c4nc(c(-c5c(F)c(F)c(F)c(F)c5F)c5ccc([nH]5)c(-c5c(F)c(F)c(F)c(F)c5F)c5nc(c(-c6c(F)c(F)c(F)c(F)c6F)c6ccc3[nH]6)C=C5)C=C4)cc2)nc2cccnc21
REMARK SMILES IDX 16 1 15 2 14 3 13 4 12 5 10 6 11 7 9 8 8 9 7 10 6 11 93 12
REMARK SMILES IDX 87 13 88 14 92 15 89 16 91 17 90 18 3 19 4 20 5 21 2 22 1 23
REMARK SMILES IDX 17 24 18 25 19 26 20 27 21 28 22 29 23 30 24 31 25 32 86 33
REMARK SMILES IDX 26 34 85 35 27 36 28 37 29 38 79 39 30 40 84 41 78 42 80 43
REMARK SMILES IDX 31 44 83 45 77 46 76 47 32 49 64 50 44 51 63 52 45 53 48 54
REMARK SMILES IDX 62 55 81 56 46 57 47 58 61 60 82 61 49 62 33 63 34 64 42 65
REMARK SMILES IDX 35 66 36 67 40 68 43 69 37 70 38 71 41 72 39 73 65 74 66 75
REMARK SMILES IDX 74 76 67 77 68 78 72 79 75 80 69 81 70 82 73 83 71 84 50 85
REMARK SMILES IDX 51 86 59 87 52 88 53 89 57 90 60 91 54 92 55 93 58 94 56 95
REMARK H PARENT 80 48 48 59
REMARK Flexibility Score: inf
ROOT
ATOM      1  C   UNL     1       0.309  -0.628  -0.968  1.00  0.00     0.188 C 
ENDROOT
BRANCH   1   2
ATOM      2  O   UNL     1      -0.389  -1.848  -0.925  1.00  0.00    -0.376 OA
BRANCH   2   3
ATOM      3  C   UNL     1      -0.062  -2.737  -1.981  1.00  0.00     0.202 C 
BRANCH   3   4
ATOM      4  C   UNL     1      -0.226  -2.186  -3.411  1.00  0.00     0.261 C 
BRANCH   4   5
ATOM      5  O   UNL     1       0.613  -1.036  -3.722  1.00  0.00    -0.463 OA
BRANCH   5   6
ATOM      6  C   UNL     1      -0.021   0.060  -4.237  1.00  0.00     0.316 C 
ATOM      7  O   UNL     1      -1.208   0.060  -4.558  1.00  0.00    -0.251 OA
BRANCH   6   8
ATOM      8  C   UNL     1       0.808   1.328  -4.400  1.00  0.00     0.200 C 
BRANCH   8   9
ATOM      9  S   UNL     1       2.434   1.351  -3.746  1.00  0.00    -0.076 SA
BRANCH   9  10
ATOM     10  C   UNL     1       2.998   2.180  -2.326  1.00  0.00     0.171 A 
ATOM     11  N   UNL     1       2.549   2.808  -1.119  1.00  0.00    -0.298 N 
ATOM     12  C   UNL     1       3.772   3.229  -0.514  1.00  0.00     0.161 A 
ATOM     13  N   UNL     1       4.314   2.060  -2.336  1.00  0.00    -0.221 NA
ATOM     14  C   UNL     1       4.791   2.610  -1.218  1.00  0.00     0.109 A 
ATOM     15  N   UNL     1       3.988   4.025   0.561  1.00  0.00    -0.237 NA
ATOM     16  C   UNL     1       6.108   2.628  -0.745  1.00  0.00     0.034 A 
ATOM     17  C   UNL     1       5.282   3.975   1.017  1.00  0.00     0.113 A 
ATOM     18  C   UNL     1       6.340   3.283   0.451  1.00  0.00     0.022 A 
BRANCH  11  19
ATOM     19  C   UNL     1       1.192   3.238  -0.630  1.00  0.00     0.043 C 
ATOM     20  C   UNL     1       0.154   3.046  -1.738  1.00  0.00     0.035 C 
ATOM     21  C   UNL     1       1.228   4.790  -0.403  1.00  0.00     0.035 C 
BRANCH  19  22
ATOM     22  C   UNL     1       0.460   2.791   0.767  1.00  0.00     0.025 C 
ATOM     23  C   UNL     1       0.280   1.450   1.471  1.00  0.00     0.006 C 
ENDBRANCH  19  22
ENDBRANCH  11  19
ENDBRANCH   9  10
ENDBRANCH   8   9
ENDBRANCH   6   8
ENDBRANCH   5   6
ENDBRANCH   4   5
ENDBRANCH   3   4
ENDBRANCH   2   3
ENDBRANCH   1   2
BRANCH   1  24
ATOM     24  C   UNL     1       1.844  -0.641  -0.873  1.00  0.00     0.188 C 
BRANCH  24  25
ATOM     25  O   UNL     1       2.524  -1.867  -0.709  1.00  0.00    -0.376 OA
BRANCH  25  26
ATOM     26  C   UNL     1       2.469  -2.478   0.567  1.00  0.00     0.202 C 
BRANCH  26  27
ATOM     27  C   UNL     1       3.470  -1.922   1.571  1.00  0.00     0.261 C 
BRANCH  27  28
ATOM     28  O   UNL     1       2.868  -0.920   2.397  1.00  0.00    -0.460 OA
BRANCH  28  29
ATOM     29  C   UNL     1       3.337   0.307   2.165  1.00  0.00     0.338 C 
ATOM     30  O   UNL     1       4.049   0.665   1.221  1.00  0.00    -0.246 OA
BRANCH  29  31
ATOM     31  C   UNL     1       2.979   1.221   3.240  1.00  0.00     0.060 A 
ATOM     32  C   UNL     1       2.953   2.562   2.894  1.00  0.00     0.016 A 
ATOM     33  C   UNL     1       3.050   0.823   4.567  1.00  0.00     0.016 A 
ATOM     34  C   UNL     1       3.364   3.507   3.780  1.00  0.00     0.010 A 
ATOM     35  C   UNL     1       3.442   1.771   5.486  1.00  0.00     0.010 A 
ATOM     36  C   UNL     1       3.755   3.054   5.026  1.00  0.00    -0.014 A 
BRANCH  36  37
ATOM     37  C   UNL     1       4.524   3.993   5.814  1.00  0.00     0.031 A 
ATOM     38  C   UNL     1       3.742   5.206   6.145  1.00  0.00     0.074 A 
ATOM     39  C   UNL     1       5.794   3.675   6.143  1.00  0.00     0.049 A 
ATOM     40  N   UNL     1       4.074   6.442   5.977  1.00  0.00    -0.248 NA
ATOM     41  C   UNL     1       2.323   5.012   6.518  1.00  0.00     0.031 C 
ATOM     42  C   UNL     1       6.481   2.410   5.838  1.00  0.00     0.029 A 
ATOM     43  N   UNL     1       6.689   4.320   6.947  1.00  0.00    -0.354 N 
ATOM     44  C   UNL     1       2.994   7.169   6.470  1.00  0.00     0.074 A 
ATOM     45  C   UNL     1       1.881   6.266   6.575  1.00  0.00     0.031 C 
ATOM     46  C   UNL     1       7.531   2.258   6.669  1.00  0.00     0.029 A 
ATOM     47  C   UNL     1       7.658   3.457   7.470  1.00  0.00     0.049 A 
ATOM     48  H   UNL     1       6.657   5.286   7.138  1.00  0.00     0.167 HD
ATOM     49  C   UNL     1       3.214   8.324   7.149  1.00  0.00     0.037 A 
ATOM     50  C   UNL     1       8.373   3.689   8.598  1.00  0.00     0.037 A 
ATOM     51  C   UNL     1       4.462   8.927   6.779  1.00  0.00     0.049 A 
ATOM     52  C   UNL     1       8.329   5.151   8.839  1.00  0.00     0.074 A 
ATOM     53  C   UNL     1       4.922   9.673   5.717  1.00  0.00     0.029 A 
ATOM     54  N   UNL     1       5.552   8.394   7.411  1.00  0.00    -0.354 N 
ATOM     55  N   UNL     1       8.911   6.025   8.066  1.00  0.00    -0.248 NA
ATOM     56  C   UNL     1       7.333   5.690   9.761  1.00  0.00     0.031 C 
ATOM     57  C   UNL     1       6.333   9.480   5.670  1.00  0.00     0.029 A 
ATOM     58  C   UNL     1       6.708   8.651   6.723  1.00  0.00     0.049 A 
ATOM     59  H   UNL     1       5.511   7.889   8.255  1.00  0.00     0.167 HD
ATOM     60  C   UNL     1       8.075   7.123   8.112  1.00  0.00     0.074 A 
ATOM     61  C   UNL     1       7.235   6.933   9.285  1.00  0.00     0.031 C 
ATOM     62  C   UNL     1       7.912   7.914   7.016  1.00  0.00     0.037 A 
BRANCH  49  63
ATOM     63  C   UNL     1       2.567   8.569   8.489  1.00  0.00     0.064 A 
ATOM     64  C   UNL     1       2.571   9.854   9.051  1.00  0.00     0.173 A 
ATOM     65  C   UNL     1       2.175   7.523   9.361  1.00  0.00     0.173 A 
ATOM     66  F   UNL     1       3.008  10.904   8.339  1.00  0.00    -0.203 F 
ATOM     67  C   UNL     1       2.193  10.073  10.380  1.00  0.00     0.198 A 
ATOM     68  C   UNL     1       1.731   7.751  10.658  1.00  0.00     0.198 A 
ATOM     69  F   UNL     1       2.319   6.233   9.032  1.00  0.00    -0.203 F 
ATOM     70  F   UNL     1       2.297  11.299  10.909  1.00  0.00    -0.200 F 
ATOM     71  C   UNL     1       1.756   9.025  11.176  1.00  0.00     0.200 A 
ATOM     72  F   UNL     1       1.352   6.713  11.417  1.00  0.00    -0.200 F 
ATOM     73  F   UNL     1       1.414   9.231  12.454  1.00  0.00    -0.200 F 
ENDBRANCH  49  63
BRANCH  50  74
ATOM     74  C   UNL     1       8.753   2.733   9.669  1.00  0.00     0.064 A 
ATOM     75  C   UNL     1       9.638   3.138  10.684  1.00  0.00     0.173 A 
ATOM     76  C   UNL     1       8.035   1.544   9.906  1.00  0.00     0.173 A 
ATOM     77  F   UNL     1      10.351   4.266  10.546  1.00  0.00    -0.203 F 
ATOM     78  C   UNL     1       9.737   2.443  11.893  1.00  0.00     0.198 A 
ATOM     79  C   UNL     1       8.145   0.845  11.109  1.00  0.00     0.198 A 
ATOM     80  F   UNL     1       7.134   1.088   9.026  1.00  0.00    -0.203 F 
ATOM     81  F   UNL     1      10.520   2.918  12.872  1.00  0.00    -0.200 F 
ATOM     82  C   UNL     1       8.975   1.309  12.112  1.00  0.00     0.200 A 
ATOM     83  F   UNL     1       7.384  -0.239  11.318  1.00  0.00    -0.200 F 
ATOM     84  F   UNL     1       9.005   0.691  13.300  1.00  0.00    -0.200 F 
ENDBRANCH  50  74
BRANCH  62  85
ATOM     85  C   UNL     1       8.996   7.885   5.988  1.00  0.00     0.064 A 
ATOM     86  C   UNL     1       9.278   6.785   5.164  1.00  0.00     0.173 A 
ATOM     87  C   UNL     1       9.733   9.059   5.787  1.00  0.00     0.173 A 
ATOM     88  F   UNL     1       8.562   5.655   5.258  1.00  0.00    -0.203 F 
ATOM     89  C   UNL     1      10.282   6.854   4.199  1.00  0.00     0.198 A 
ATOM     90  C   UNL     1      10.707   9.137   4.800  1.00  0.00     0.198 A 
ATOM     91  F   UNL     1       9.475  10.148   6.528  1.00  0.00    -0.203 F 
ATOM     92  F   UNL     1      10.549   5.788   3.429  1.00  0.00    -0.200 F 
ATOM     93  C   UNL     1      10.989   8.032   4.013  1.00  0.00     0.200 A 
ATOM     94  F   UNL     1      11.358  10.291   4.598  1.00  0.00    -0.200 F 
ATOM     95  F   UNL     1      11.928   8.111   3.060  1.00  0.00    -0.200 F 
ENDBRANCH  62  85
ENDBRANCH  36  37
ENDBRANCH  29  31
ENDBRANCH  28  29
ENDBRANCH  27  28
ENDBRANCH  26  27
ENDBRANCH  25  26
ENDBRANCH  24  25
ENDBRANCH   1  24
TORSDOF 21
