REMARK SMILES CCCC1CN(c2cc(C(=O)OCCOCCOCCOC(=O)c3ccc(-c4c5nc(c(-c6c(F)c(F)c(F)c(F)c6F)c6ccc([nH]6)c(-c6c(F)c(F)c(F)c(F)c6F)c6nc(c(-c7c(F)c(F)c(F)c(F)c7F)c7ccc4[nH]7)C=C6)C=C5)cc3)ccc2C)C1
REMARK SMILES IDX 16 1 15 2 14 3 13 4 12 5 10 6 11 7 9 8 7 9 8 10 89 11 88 12
REMARK SMILES IDX 90 13 87 14 6 15 4 16 5 17 91 18 3 19 2 20 1 21 17 22 18 23
REMARK SMILES IDX 19 24 20 25 21 26 22 27 23 28 24 29 25 30 86 31 26 32 85 33
REMARK SMILES IDX 27 34 28 35 29 36 79 37 30 38 84 39 78 40 80 41 31 42 83 43
REMARK SMILES IDX 77 44 76 45 32 47 64 48 44 49 63 50 45 51 48 52 62 53 81 54
REMARK SMILES IDX 46 55 47 56 61 58 82 59 49 60 33 61 34 62 42 63 35 64 36 65
REMARK SMILES IDX 40 66 43 67 37 68 38 69 41 70 39 71 65 72 66 73 74 74 67 75
REMARK SMILES IDX 68 76 72 77 75 78 69 79 70 80 73 81 71 82 50 83 51 84 59 85
REMARK SMILES IDX 52 86 53 87 57 88 60 89 54 90 55 91 58 92 56 93
REMARK H PARENT 80 46 48 57
REMARK Flexibility Score: inf
ROOT
ATOM      1  C   UNL     1      -5.247  -0.346   9.229  1.00  0.00     0.188 C 
ENDROOT
BRANCH   1   2
ATOM      2  O   UNL     1      -4.703   0.854   8.653  1.00  0.00    -0.376 OA
BRANCH   2   3
ATOM      3  C   UNL     1      -4.363   1.103   7.280  1.00  0.00     0.202 C 
BRANCH   3   4
ATOM      4  C   UNL     1      -3.136   2.305   6.928  1.00  0.00     0.261 C 
BRANCH   4   5
ATOM      5  O   UNL     1      -1.360   2.308   7.371  1.00  0.00    -0.460 OA
BRANCH   5   6
ATOM      6  C   UNL     1       0.043   1.778   7.392  1.00  0.00     0.338 C 
ATOM      7  O   UNL     1       0.963   2.464   7.867  1.00  0.00    -0.246 OA
BRANCH   6   8
ATOM      8  C   UNL     1       0.801   0.502   6.872  1.00  0.00     0.062 A 
ATOM      9  C   UNL     1       1.728  -1.025   5.095  1.00  0.00     0.040 A 
ATOM     10  C   UNL     1       1.040   0.145   5.521  1.00  0.00     0.041 A 
ATOM     11  C   UNL     1       2.473  -1.715   6.057  1.00  0.00    -0.028 A 
ATOM     12  C   UNL     1       2.388  -1.296   7.402  1.00  0.00     0.006 A 
ATOM     13  C   UNL     1       3.463  -2.799   5.716  1.00  0.00     0.046 C 
ATOM     14  C   UNL     1       1.556  -0.228   7.802  1.00  0.00     0.016 A 
BRANCH   9  15
ATOM     15  N   UNL     1       1.657  -1.425   3.740  1.00  0.00    -0.371 N 
ATOM     16  C   UNL     1       0.785  -2.016   1.948  1.00  0.00     0.028 C 
ATOM     17  C   UNL     1       1.501  -2.713   3.127  1.00  0.00     0.122 C 
ATOM     18  C   UNL     1       1.265  -0.701   2.579  1.00  0.00     0.122 C 
BRANCH  16  19
ATOM     19  C   UNL     1       1.255  -2.339   0.531  1.00  0.00     0.007 C 
BRANCH  19  20
ATOM     20  C   UNL     1       0.592  -1.448  -0.529  1.00  0.00    -0.003 C 
ATOM     21  C   UNL     1       1.029   0.010  -0.485  1.00  0.00     0.004 C 
ENDBRANCH  19  20
ENDBRANCH  16  19
ENDBRANCH   9  15
ENDBRANCH   6   8
ENDBRANCH   5   6
ENDBRANCH   4   5
ENDBRANCH   3   4
ENDBRANCH   2   3
ENDBRANCH   1   2
BRANCH   1  22
ATOM     22  C   UNL     1      -4.854  -1.792   8.851  1.00  0.00     0.188 C 
BRANCH  22  23
ATOM     23  O   UNL     1      -5.396  -2.229   7.610  1.00  0.00    -0.376 OA
BRANCH  23  24
ATOM     24  C   UNL     1      -6.336  -3.313   7.692  1.00  0.00     0.202 C 
BRANCH  24  25
ATOM     25  C   UNL     1      -5.801  -4.690   8.167  1.00  0.00     0.261 C 
BRANCH  25  26
ATOM     26  O   UNL     1      -4.688  -5.117   7.366  1.00  0.00    -0.460 OA
BRANCH  26  27
ATOM     27  C   UNL     1      -3.507  -5.304   8.036  1.00  0.00     0.338 C 
ATOM     28  O   UNL     1      -3.374  -5.834   9.108  1.00  0.00    -0.246 OA
BRANCH  27  29
ATOM     29  C   UNL     1      -2.489  -4.407   7.399  1.00  0.00     0.060 A 
ATOM     30  C   UNL     1      -1.456  -3.914   8.208  1.00  0.00     0.016 A 
ATOM     31  C   UNL     1      -2.898  -3.695   6.283  1.00  0.00     0.016 A 
ATOM     32  C   UNL     1      -1.059  -2.579   8.072  1.00  0.00     0.010 A 
ATOM     33  C   UNL     1      -2.642  -2.344   6.288  1.00  0.00     0.010 A 
ATOM     34  C   UNL     1      -1.768  -1.747   7.203  1.00  0.00    -0.014 A 
BRANCH  34  35
ATOM     35  C   UNL     1      -1.865  -0.262   7.314  1.00  0.00     0.031 A 
ATOM     36  C   UNL     1      -1.849   0.467   5.685  1.00  0.00     0.074 A 
ATOM     37  C   UNL     1      -1.989   0.294   8.655  1.00  0.00     0.049 A 
ATOM     38  N   UNL     1      -1.247   1.604   5.430  1.00  0.00    -0.248 NA
ATOM     39  C   UNL     1      -2.347   0.038   4.357  1.00  0.00     0.031 C 
ATOM     40  C   UNL     1      -2.472   1.643   9.219  1.00  0.00     0.029 A 
ATOM     41  N   UNL     1      -1.725  -0.266   9.932  1.00  0.00    -0.354 N 
ATOM     42  C   UNL     1      -1.539   2.227   4.279  1.00  0.00     0.074 A 
ATOM     43  C   UNL     1      -2.128   1.117   3.552  1.00  0.00     0.031 C 
ATOM     44  C   UNL     1      -2.637   1.752  10.523  1.00  0.00     0.029 A 
ATOM     45  C   UNL     1      -1.797   0.735  10.969  1.00  0.00     0.049 A 
ATOM     46  H   UNL     1      -1.519  -1.216  10.090  1.00  0.00     0.167 HD
ATOM     47  C   UNL     1      -1.321   3.593   4.177  1.00  0.00     0.037 A 
ATOM     48  C   UNL     1      -0.733   1.203  11.678  1.00  0.00     0.037 A 
ATOM     49  C   UNL     1      -1.188   4.380   5.486  1.00  0.00     0.049 A 
ATOM     50  C   UNL     1       0.004   2.475  11.139  1.00  0.00     0.074 A 
ATOM     51  C   UNL     1      -2.103   5.173   6.188  1.00  0.00     0.029 A 
ATOM     52  N   UNL     1      -0.075   4.375   6.342  1.00  0.00    -0.354 N 
ATOM     53  N   UNL     1      -0.410   3.324  10.206  1.00  0.00    -0.248 NA
ATOM     54  C   UNL     1       1.336   2.821  11.620  1.00  0.00     0.031 C 
ATOM     55  C   UNL     1      -1.588   5.518   7.485  1.00  0.00     0.029 A 
ATOM     56  C   UNL     1      -0.319   4.989   7.614  1.00  0.00     0.049 A 
ATOM     57  H   UNL     1       0.794   3.986   6.091  1.00  0.00     0.167 HD
ATOM     58  C   UNL     1       0.633   4.178   9.826  1.00  0.00     0.074 A 
ATOM     59  C   UNL     1       1.680   3.827  10.798  1.00  0.00     0.031 C 
ATOM     60  C   UNL     1       0.724   5.005   8.696  1.00  0.00     0.037 A 
BRANCH  47  61
ATOM     61  C   UNL     1      -1.561   4.330   2.871  1.00  0.00     0.064 A 
ATOM     62  C   UNL     1      -1.855   5.713   2.829  1.00  0.00     0.173 A 
ATOM     63  C   UNL     1      -1.452   3.713   1.611  1.00  0.00     0.173 A 
ATOM     64  F   UNL     1      -1.861   6.472   3.930  1.00  0.00    -0.203 F 
ATOM     65  C   UNL     1      -2.141   6.384   1.638  1.00  0.00     0.198 A 
ATOM     66  C   UNL     1      -1.770   4.377   0.422  1.00  0.00     0.198 A 
ATOM     67  F   UNL     1      -0.987   2.461   1.491  1.00  0.00    -0.203 F 
ATOM     68  F   UNL     1      -2.430   7.694   1.667  1.00  0.00    -0.200 F 
ATOM     69  C   UNL     1      -2.131   5.709   0.437  1.00  0.00     0.200 A 
ATOM     70  F   UNL     1      -1.720   3.713  -0.742  1.00  0.00    -0.200 F 
ATOM     71  F   UNL     1      -2.439   6.345  -0.701  1.00  0.00    -0.200 F 
ENDBRANCH  47  61
BRANCH  48  72
ATOM     72  C   UNL     1      -0.417   0.087  12.618  1.00  0.00     0.064 A 
ATOM     73  C   UNL     1      -1.544  -0.263  13.429  1.00  0.00     0.173 A 
ATOM     74  C   UNL     1       0.319  -0.965  12.058  1.00  0.00     0.173 A 
ATOM     75  F   UNL     1      -2.300   0.711  13.969  1.00  0.00    -0.203 F 
ATOM     76  C   UNL     1      -2.106  -1.539  13.342  1.00  0.00     0.198 A 
ATOM     77  C   UNL     1      -0.234  -2.249  12.010  1.00  0.00     0.198 A 
ATOM     78  F   UNL     1       1.387  -0.688  11.297  1.00  0.00    -0.203 F 
ATOM     79  F   UNL     1      -3.342  -1.763  13.816  1.00  0.00    -0.200 F 
ATOM     80  C   UNL     1      -1.471  -2.515  12.591  1.00  0.00     0.200 A 
ATOM     81  F   UNL     1       0.343  -3.184  11.242  1.00  0.00    -0.200 F 
ATOM     82  F   UNL     1      -2.098  -3.672  12.335  1.00  0.00    -0.200 F 
ENDBRANCH  48  72
BRANCH  60  83
ATOM     83  C   UNL     1       1.970   5.876   8.455  1.00  0.00     0.064 A 
ATOM     84  C   UNL     1       2.683   6.499   9.498  1.00  0.00     0.173 A 
ATOM     85  C   UNL     1       2.455   6.177   7.158  1.00  0.00     0.173 A 
ATOM     86  F   UNL     1       2.231   6.465  10.761  1.00  0.00    -0.203 F 
ATOM     87  C   UNL     1       3.874   7.203   9.278  1.00  0.00     0.198 A 
ATOM     88  C   UNL     1       3.606   6.937   6.936  1.00  0.00     0.198 A 
ATOM     89  F   UNL     1       1.847   5.754   6.045  1.00  0.00    -0.203 F 
ATOM     90  F   UNL     1       4.569   7.679  10.321  1.00  0.00    -0.200 F 
ATOM     91  C   UNL     1       4.340   7.415   7.996  1.00  0.00     0.200 A 
ATOM     92  F   UNL     1       3.996   7.196   5.678  1.00  0.00    -0.200 F 
ATOM     93  F   UNL     1       5.475   8.094   7.783  1.00  0.00    -0.200 F 
ENDBRANCH  60  83
ENDBRANCH  34  35
ENDBRANCH  27  29
ENDBRANCH  26  27
ENDBRANCH  25  26
ENDBRANCH  24  25
ENDBRANCH  23  24
ENDBRANCH  22  23
ENDBRANCH   1  22
TORSDOF 20
