REMARK SMILES CC(C)N(CCCC(=O)OCCOCCOCCOC(=O)c1ccc(-c2c3nc(c(-c4c(F)c(F)c(F)c(F)c4F)c4ccc([nH]4)c(-c4c(F)c(F)c(F)c(F)c4F)c4nc(c(-c5c(F)c(F)c(F)c(F)c5F)c5ccc2[nH]5)C=C4)C=C3)cc1)C(=O)N[C@@H]1CCCC1(C)C
REMARK SMILES IDX 13 1 12 2 11 3 10 4 8 5 9 6 7 7 6 8 5 9 4 10 2 11 1 12 3 13
REMARK SMILES IDX 85 14 86 15 87 16 88 18 89 19 92 20 90 21 91 22 93 23 94 24
REMARK SMILES IDX 14 25 15 26 16 27 17 28 18 29 19 30 20 31 21 32 22 33 23 34
REMARK SMILES IDX 84 35 24 36 83 37 25 38 26 39 27 40 77 41 28 42 82 43 76 44
REMARK SMILES IDX 78 45 29 46 81 47 75 48 74 49 30 51 62 52 42 53 61 54 43 55
REMARK SMILES IDX 46 56 60 57 79 58 44 59 45 60 59 62 80 63 47 64 31 65 32 66
REMARK SMILES IDX 40 67 33 68 34 69 38 70 41 71 35 72 36 73 39 74 37 75 63 76
REMARK SMILES IDX 64 77 72 78 65 79 66 80 70 81 73 82 67 83 68 84 71 85 69 86
REMARK SMILES IDX 48 87 49 88 57 89 50 90 51 91 55 92 58 93 52 94 53 95 56 96
REMARK SMILES IDX 54 97
REMARK H PARENT 87 17 78 50 46 61
REMARK Flexibility Score: inf
ROOT
ATOM      1  O   UNL     1      -3.040  -0.611   2.631  1.00  0.00    -0.376 OA
ENDROOT
BRANCH   1   2
ATOM      2  C   UNL     1      -2.143  -0.171   1.599  1.00  0.00     0.202 C 
BRANCH   2   3
ATOM      3  C   UNL     1      -1.633  -1.299   0.659  1.00  0.00     0.261 C 
BRANCH   3   4
ATOM      4  O   UNL     1      -2.268  -1.482  -0.648  1.00  0.00    -0.463 OA
BRANCH   4   5
ATOM      5  C   UNL     1      -3.184  -2.475  -0.897  1.00  0.00     0.305 C 
ATOM      6  O   UNL     1      -3.807  -3.063  -0.022  1.00  0.00    -0.252 OA
BRANCH   5   7
ATOM      7  C   UNL     1      -3.226  -2.857  -2.405  1.00  0.00     0.124 C 
BRANCH   7   8
ATOM      8  C   UNL     1      -4.504  -2.885  -3.304  1.00  0.00     0.033 C 
BRANCH   8   9
ATOM      9  C   UNL     1      -5.172  -1.699  -4.106  1.00  0.00     0.122 C 
BRANCH   9  10
ATOM     10  N   UNL     1      -4.372  -0.617  -4.660  1.00  0.00    -0.322 N 
BRANCH  10  11
ATOM     11  C   UNL     1      -4.847   0.067  -5.904  1.00  0.00     0.080 C 
ATOM     12  C   UNL     1      -4.072   1.325  -6.346  1.00  0.00     0.031 C 
ATOM     13  C   UNL     1      -4.947  -0.859  -7.118  1.00  0.00     0.031 C 
ENDBRANCH  10  11
BRANCH  10  14
ATOM     14  C   UNL     1      -3.290  -0.154  -3.988  1.00  0.00     0.317 C 
ATOM     15  O   UNL     1      -2.210   0.060  -4.537  1.00  0.00    -0.249 OA
ATOM     16  N   UNL     1      -3.359   0.030  -2.652  1.00  0.00    -0.335 N 
ATOM     17  H   UNL     1      -2.484  -0.118  -2.226  1.00  0.00     0.165 HD
BRANCH  16  18
ATOM     18  C   UNL     1      -4.377   0.389  -1.663  1.00  0.00     0.089 C 
ATOM     19  C   UNL     1      -5.593  -0.488  -1.310  1.00  0.00     0.025 C 
ATOM     20  C   UNL     1      -4.862   1.852  -1.702  1.00  0.00    -0.015 C 
ATOM     21  C   UNL     1      -6.800   0.421  -1.346  1.00  0.00     0.003 C 
ATOM     22  C   UNL     1      -6.209   1.769  -0.974  1.00  0.00     0.008 C 
ATOM     23  C   UNL     1      -3.853   2.748  -0.963  1.00  0.00     0.013 C 
ATOM     24  C   UNL     1      -5.064   2.415  -3.101  1.00  0.00     0.013 C 
ENDBRANCH  16  18
ENDBRANCH  10  14
ENDBRANCH   9  10
ENDBRANCH   8   9
ENDBRANCH   7   8
ENDBRANCH   5   7
ENDBRANCH   4   5
ENDBRANCH   3   4
ENDBRANCH   2   3
ENDBRANCH   1   2
BRANCH   1  25
ATOM     25  C   UNL     1      -4.368  -0.706   2.154  1.00  0.00     0.188 C 
BRANCH  25  26
ATOM     26  C   UNL     1      -5.362   0.322   2.704  1.00  0.00     0.188 C 
BRANCH  26  27
ATOM     27  O   UNL     1      -4.986   1.690   2.644  1.00  0.00    -0.376 OA
BRANCH  27  28
ATOM     28  C   UNL     1      -6.056   2.652   2.624  1.00  0.00     0.202 C 
BRANCH  28  29
ATOM     29  C   UNL     1      -7.401   2.468   3.374  1.00  0.00     0.261 C 
BRANCH  29  30
ATOM     30  O   UNL     1      -7.792   1.127   3.691  1.00  0.00    -0.460 OA
BRANCH  30  31
ATOM     31  C   UNL     1      -8.494   0.427   2.769  1.00  0.00     0.338 C 
ATOM     32  O   UNL     1      -8.923   0.844   1.703  1.00  0.00    -0.246 OA
BRANCH  31  33
ATOM     33  C   UNL     1      -8.438  -1.009   3.156  1.00  0.00     0.060 A 
ATOM     34  C   UNL     1      -8.277  -1.982   2.157  1.00  0.00     0.016 A 
ATOM     35  C   UNL     1      -8.467  -1.393   4.500  1.00  0.00     0.016 A 
ATOM     36  C   UNL     1      -8.196  -3.338   2.497  1.00  0.00     0.010 A 
ATOM     37  C   UNL     1      -8.386  -2.745   4.839  1.00  0.00     0.010 A 
ATOM     38  C   UNL     1      -8.294  -3.730   3.838  1.00  0.00    -0.014 A 
BRANCH  38  39
ATOM     39  C   UNL     1      -8.557  -5.143   4.216  1.00  0.00     0.031 A 
ATOM     40  C   UNL     1      -9.975  -5.511   4.562  1.00  0.00     0.074 A 
ATOM     41  C   UNL     1      -7.585  -6.069   4.300  1.00  0.00     0.049 A 
ATOM     42  N   UNL     1     -10.449  -6.592   5.125  1.00  0.00    -0.248 NA
ATOM     43  C   UNL     1     -10.999  -4.503   4.238  1.00  0.00     0.031 C 
ATOM     44  C   UNL     1      -6.187  -5.872   3.930  1.00  0.00     0.029 A 
ATOM     45  N   UNL     1      -7.634  -7.365   4.758  1.00  0.00    -0.354 N 
ATOM     46  C   UNL     1     -11.816  -6.380   5.251  1.00  0.00     0.074 A 
ATOM     47  C   UNL     1     -12.095  -5.063   4.725  1.00  0.00     0.031 C 
ATOM     48  C   UNL     1      -5.503  -6.999   4.200  1.00  0.00     0.029 A 
ATOM     49  C   UNL     1      -6.405  -7.977   4.811  1.00  0.00     0.049 A 
ATOM     50  H   UNL     1      -8.471  -7.812   5.022  1.00  0.00     0.167 HD
ATOM     51  C   UNL     1     -12.756  -7.209   5.762  1.00  0.00     0.037 A 
ATOM     52  C   UNL     1      -6.048  -9.168   5.335  1.00  0.00     0.037 A 
ATOM     53  C   UNL     1     -12.477  -8.523   6.274  1.00  0.00     0.049 A 
ATOM     54  C   UNL     1      -7.101 -10.044   5.976  1.00  0.00     0.074 A 
ATOM     55  C   UNL     1     -13.360  -9.445   6.808  1.00  0.00     0.029 A 
ATOM     56  N   UNL     1     -11.217  -9.100   6.319  1.00  0.00    -0.354 N 
ATOM     57  N   UNL     1      -8.390  -9.839   6.102  1.00  0.00    -0.248 NA
ATOM     58  C   UNL     1      -6.645 -11.319   6.554  1.00  0.00     0.031 C 
ATOM     59  C   UNL     1     -12.626 -10.557   7.230  1.00  0.00     0.029 A 
ATOM     60  C   UNL     1     -11.297 -10.358   6.892  1.00  0.00     0.049 A 
ATOM     61  H   UNL     1     -10.390  -8.679   5.992  1.00  0.00     0.167 HD
ATOM     62  C   UNL     1      -8.902 -10.972   6.728  1.00  0.00     0.074 A 
ATOM     63  C   UNL     1      -7.786 -11.863   6.955  1.00  0.00     0.031 C 
ATOM     64  C   UNL     1     -10.181 -11.250   7.080  1.00  0.00     0.037 A 
BRANCH  51  65
ATOM     65  C   UNL     1     -14.168  -6.705   5.828  1.00  0.00     0.064 A 
ATOM     66  C   UNL     1     -14.945  -6.517   4.676  1.00  0.00     0.173 A 
ATOM     67  C   UNL     1     -14.762  -6.436   7.071  1.00  0.00     0.173 A 
ATOM     68  F   UNL     1     -14.418  -6.741   3.462  1.00  0.00    -0.203 F 
ATOM     69  C   UNL     1     -16.256  -6.056   4.764  1.00  0.00     0.198 A 
ATOM     70  C   UNL     1     -16.084  -6.009   7.157  1.00  0.00     0.198 A 
ATOM     71  F   UNL     1     -14.064  -6.600   8.205  1.00  0.00    -0.203 F 
ATOM     72  F   UNL     1     -16.962  -5.834   3.647  1.00  0.00    -0.200 F 
ATOM     73  C   UNL     1     -16.827  -5.812   6.004  1.00  0.00     0.200 A 
ATOM     74  F   UNL     1     -16.638  -5.787   8.357  1.00  0.00    -0.200 F 
ATOM     75  F   UNL     1     -18.092  -5.378   6.087  1.00  0.00    -0.200 F 
ENDBRANCH  51  65
BRANCH  52  76
ATOM     76  C   UNL     1      -4.623  -9.604   5.318  1.00  0.00     0.064 A 
ATOM     77  C   UNL     1      -4.218 -10.731   4.587  1.00  0.00     0.173 A 
ATOM     78  C   UNL     1      -3.647  -8.940   6.077  1.00  0.00     0.173 A 
ATOM     79  F   UNL     1      -5.117 -11.424   3.873  1.00  0.00    -0.203 F 
ATOM     80  C   UNL     1      -2.903 -11.192   4.639  1.00  0.00     0.198 A 
ATOM     81  C   UNL     1      -2.325  -9.381   6.100  1.00  0.00     0.198 A 
ATOM     82  F   UNL     1      -3.979  -7.863   6.805  1.00  0.00    -0.203 F 
ATOM     83  F   UNL     1      -2.562 -12.312   3.986  1.00  0.00    -0.200 F 
ATOM     84  C   UNL     1      -1.956 -10.514   5.391  1.00  0.00     0.200 A 
ATOM     85  F   UNL     1      -1.412  -8.717   6.822  1.00  0.00    -0.200 F 
ATOM     86  F   UNL     1      -0.695 -10.961   5.446  1.00  0.00    -0.200 F 
ENDBRANCH  52  76
BRANCH  64  87
ATOM     87  C   UNL     1     -10.472 -12.599   7.675  1.00  0.00     0.064 A 
ATOM     88  C   UNL     1     -10.067 -12.946   8.972  1.00  0.00     0.173 A 
ATOM     89  C   UNL     1     -11.233 -13.534   6.954  1.00  0.00     0.173 A 
ATOM     90  F   UNL     1      -9.329 -12.094   9.700  1.00  0.00    -0.203 F 
ATOM     91  C   UNL     1     -10.396 -14.185   9.517  1.00  0.00     0.198 A 
ATOM     92  C   UNL     1     -11.590 -14.757   7.515  1.00  0.00     0.198 A 
ATOM     93  F   UNL     1     -11.656 -13.249   5.713  1.00  0.00    -0.203 F 
ATOM     94  F   UNL     1      -9.963 -14.512  10.743  1.00  0.00    -0.200 F 
ATOM     95  C   UNL     1     -11.165 -15.084   8.793  1.00  0.00     0.200 A 
ATOM     96  F   UNL     1     -12.350 -15.615   6.821  1.00  0.00    -0.200 F 
ATOM     97  F   UNL     1     -11.495 -16.268   9.327  1.00  0.00    -0.200 F 
ENDBRANCH  64  87
ENDBRANCH  38  39
ENDBRANCH  31  33
ENDBRANCH  30  31
ENDBRANCH  29  30
ENDBRANCH  28  29
ENDBRANCH  27  28
ENDBRANCH  26  27
ENDBRANCH  25  26
ENDBRANCH   1  25
TORSDOF 23
