REMARK SMILES O=C(N/N=C/c1ccccc1O)C(=O)Nc1cccc(C(=O)OCCOCCOCCOC(=O)c2ccc(-c3c4nc(c(-c5c(F)c(F)c(F)c(F)c5F)c5ccc([nH]5)c(-c5c(F)c(F)c(F)c(F)c5F)c5nc(c(-c6c(F)c(F)c(F)c(F)c6F)c6ccc3[nH]6)C=C5)C=C4)cc2)c1
REMARK SMILES IDX 26 1 25 2 24 3 23 4 21 5 22 6 20 7 16 8 17 9 98 10 18 11
REMARK SMILES IDX 19 12 15 13 13 14 14 15 2 17 1 18 3 19 4 21 5 22 6 23 7 24
REMARK SMILES IDX 11 25 8 26 10 27 9 28 12 29 27 31 28 32 29 33 30 34 31 35
REMARK SMILES IDX 32 36 33 37 34 38 35 39 36 40 97 41 37 42 96 43 38 44 39 45
REMARK SMILES IDX 40 46 90 47 41 48 95 49 89 50 91 51 42 52 94 53 88 54 87 55
REMARK SMILES IDX 43 57 75 58 55 59 74 60 56 61 59 62 73 63 92 64 57 65 58 66
REMARK SMILES IDX 72 68 93 69 60 70 44 71 45 72 53 73 46 74 47 75 51 76 54 77
REMARK SMILES IDX 48 78 49 79 52 80 50 81 76 82 77 83 85 84 78 85 79 86 83 87
REMARK SMILES IDX 86 88 80 89 81 90 84 91 82 92 61 93 62 94 70 95 63 96 64 97
REMARK SMILES IDX 68 98 71 99 65 100 66 101 69 102 67 103
REMARK H PARENT 15 16 3 20 12 30 91 56 59 67
REMARK Flexibility Score: inf
ROOT
ATOM      1  O   UNL     1       5.677  -6.232   1.997  1.00  0.00    -0.376 OA
ENDROOT
BRANCH   1   2
ATOM      2  C   UNL     1       4.276  -6.024   2.005  1.00  0.00     0.202 C 
BRANCH   2   3
ATOM      3  C   UNL     1       3.697  -4.658   2.376  1.00  0.00     0.261 C 
BRANCH   3   4
ATOM      4  O   UNL     1       4.264  -3.546   1.671  1.00  0.00    -0.460 OA
BRANCH   4   5
ATOM      5  C   UNL     1       5.034  -2.731   2.428  1.00  0.00     0.338 C 
ATOM      6  O   UNL     1       5.353  -2.900   3.597  1.00  0.00    -0.246 OA
BRANCH   5   7
ATOM      7  C   UNL     1       5.457  -1.521   1.688  1.00  0.00     0.062 A 
ATOM      8  C   UNL     1       4.877   0.586  -0.569  1.00  0.00     0.042 A 
ATOM      9  C   UNL     1       5.527   1.936   0.499  1.00  0.00     0.026 A 
ATOM     10  C   UNL     1       4.942  -1.151  -0.029  1.00  0.00     0.041 A 
ATOM     11  C   UNL     1       6.211   1.522   2.140  1.00  0.00     0.003 A 
ATOM     12  C   UNL     1       6.106  -0.179   2.753  1.00  0.00     0.016 A 
BRANCH   8  13
ATOM     13  N   UNL     1       3.867   0.987  -1.437  1.00  0.00    -0.318 N 
ATOM     14  C   UNL     1       2.502   0.917  -1.193  1.00  0.00     0.315 C 
ATOM     15  O   UNL     1       1.768   1.517  -1.984  1.00  0.00    -0.263 OA
ATOM     16  H   UNL     1       4.147   1.355  -2.306  1.00  0.00     0.170 HD
BRANCH  14  17
ATOM     17  C   UNL     1       1.823   0.229   0.020  1.00  0.00     0.329 C 
ATOM     18  O   UNL     1       0.699  -0.250  -0.133  1.00  0.00    -0.262 OA
ATOM     19  N   UNL     1       2.370   0.294   1.308  1.00  0.00    -0.239 N 
ATOM     20  H   UNL     1       1.941   0.811   2.028  1.00  0.00     0.194 HD
BRANCH  19  21
ATOM     21  N   UNL     1       3.532  -0.399   1.515  1.00  0.00    -0.180 NA
ATOM     22  C   UNL     1       4.688   0.334   1.400  1.00  0.00     0.145 C 
BRANCH  22  23
ATOM     23  C   UNL     1       6.660   0.010   0.629  1.00  0.00     0.036 A 
ATOM     24  C   UNL     1       7.398   0.865  -0.419  1.00  0.00     0.013 A 
ATOM     25  C   UNL     1       7.788  -0.960   0.965  1.00  0.00     0.124 A 
ATOM     26  C   UNL     1       8.777   0.962  -0.766  1.00  0.00     0.001 A 
ATOM     27  C   UNL     1       9.181  -0.854   0.618  1.00  0.00     0.047 A 
ATOM     28  C   UNL     1       9.687   0.129  -0.193  1.00  0.00     0.004 A 
BRANCH  25  29
ATOM     29  O   UNL     1       7.655  -2.186   1.619  1.00  0.00    -0.507 OA
ATOM     30  H   UNL     1       6.816  -2.459   1.935  1.00  0.00     0.293 HD
ENDBRANCH  25  29
ENDBRANCH  22  23
ENDBRANCH  19  21
ENDBRANCH  14  17
ENDBRANCH   8  13
ENDBRANCH   5   7
ENDBRANCH   4   5
ENDBRANCH   3   4
ENDBRANCH   2   3
ENDBRANCH   1   2
BRANCH   1  31
ATOM     31  C   UNL     1       6.519  -5.350   1.279  1.00  0.00     0.188 C 
BRANCH  31  32
ATOM     32  C   UNL     1       6.182  -4.900  -0.159  1.00  0.00     0.188 C 
BRANCH  32  33
ATOM     33  O   UNL     1       5.241  -5.614  -0.939  1.00  0.00    -0.376 OA
BRANCH  33  34
ATOM     34  C   UNL     1       5.392  -7.016  -1.095  1.00  0.00     0.202 C 
BRANCH  34  35
ATOM     35  C   UNL     1       6.742  -7.583  -1.541  1.00  0.00     0.261 C 
BRANCH  35  36
ATOM     36  O   UNL     1       7.840  -7.234  -0.678  1.00  0.00    -0.460 OA
BRANCH  36  37
ATOM     37  C   UNL     1       8.871  -6.595  -1.282  1.00  0.00     0.338 C 
ATOM     38  O   UNL     1       8.983  -6.313  -2.462  1.00  0.00    -0.246 OA
BRANCH  37  39
ATOM     39  C   UNL     1       9.850  -6.137  -0.279  1.00  0.00     0.060 A 
ATOM     40  C   UNL     1       9.927  -4.770   0.002  1.00  0.00     0.016 A 
ATOM     41  C   UNL     1      10.787  -7.021   0.261  1.00  0.00     0.016 A 
ATOM     42  C   UNL     1      10.960  -4.286   0.802  1.00  0.00     0.010 A 
ATOM     43  C   UNL     1      11.827  -6.524   1.061  1.00  0.00     0.010 A 
ATOM     44  C   UNL     1      11.932  -5.147   1.317  1.00  0.00    -0.014 A 
BRANCH  44  45
ATOM     45  C   UNL     1      13.144  -4.551   1.939  1.00  0.00     0.031 A 
ATOM     46  C   UNL     1      14.399  -4.452   1.116  1.00  0.00     0.074 A 
ATOM     47  C   UNL     1      13.110  -3.991   3.163  1.00  0.00     0.049 A 
ATOM     48  N   UNL     1      15.600  -4.070   1.469  1.00  0.00    -0.248 NA
ATOM     49  C   UNL     1      14.274  -4.815  -0.304  1.00  0.00     0.031 C 
ATOM     50  C   UNL     1      11.925  -3.880   4.012  1.00  0.00     0.029 A 
ATOM     51  N   UNL     1      14.108  -3.401   3.901  1.00  0.00    -0.354 N 
ATOM     52  C   UNL     1      16.380  -4.182   0.326  1.00  0.00     0.074 A 
ATOM     53  C   UNL     1      15.518  -4.660  -0.733  1.00  0.00     0.031 C 
ATOM     54  C   UNL     1      12.268  -3.270   5.160  1.00  0.00     0.029 A 
ATOM     55  C   UNL     1      13.707  -3.009   5.156  1.00  0.00     0.049 A 
ATOM     56  H   UNL     1      15.024  -3.272   3.564  1.00  0.00     0.167 HD
ATOM     57  C   UNL     1      17.700  -3.917   0.176  1.00  0.00     0.037 A 
ATOM     58  C   UNL     1      14.428  -2.543   6.196  1.00  0.00     0.037 A 
ATOM     59  C   UNL     1      18.553  -3.425   1.226  1.00  0.00     0.049 A 
ATOM     60  C   UNL     1      15.922  -2.377   6.044  1.00  0.00     0.074 A 
ATOM     61  C   UNL     1      19.911  -3.162   1.183  1.00  0.00     0.029 A 
ATOM     62  N   UNL     1      18.127  -3.119   2.510  1.00  0.00    -0.354 N 
ATOM     63  N   UNL     1      16.674  -2.554   4.985  1.00  0.00    -0.248 NA
ATOM     64  C   UNL     1      16.669  -1.960   7.241  1.00  0.00     0.031 C 
ATOM     65  C   UNL     1      20.316  -2.746   2.455  1.00  0.00     0.029 A 
ATOM     66  C   UNL     1      19.200  -2.690   3.274  1.00  0.00     0.049 A 
ATOM     67  H   UNL     1      17.199  -3.196   2.830  1.00  0.00     0.167 HD
ATOM     68  C   UNL     1      17.971  -2.242   5.378  1.00  0.00     0.074 A 
ATOM     69  C   UNL     1      17.902  -1.849   6.769  1.00  0.00     0.031 C 
ATOM     70  C   UNL     1      19.116  -2.281   4.652  1.00  0.00     0.037 A 
BRANCH  57  71
ATOM     71  C   UNL     1      18.318  -4.218  -1.158  1.00  0.00     0.064 A 
ATOM     72  C   UNL     1      18.063  -3.434  -2.292  1.00  0.00     0.173 A 
ATOM     73  C   UNL     1      19.202  -5.300  -1.291  1.00  0.00     0.173 A 
ATOM     74  F   UNL     1      17.211  -2.401  -2.222  1.00  0.00    -0.203 F 
ATOM     75  C   UNL     1      18.653  -3.738  -3.517  1.00  0.00     0.198 A 
ATOM     76  C   UNL     1      19.814  -5.582  -2.509  1.00  0.00     0.198 A 
ATOM     77  F   UNL     1      19.480  -6.080  -0.235  1.00  0.00    -0.203 F 
ATOM     78  F   UNL     1      18.359  -3.006  -4.600  1.00  0.00    -0.200 F 
ATOM     79  C   UNL     1      19.533  -4.806  -3.623  1.00  0.00     0.200 A 
ATOM     80  F   UNL     1      20.672  -6.606  -2.604  1.00  0.00    -0.200 F 
ATOM     81  F   UNL     1      20.105  -5.091  -4.800  1.00  0.00    -0.200 F 
ENDBRANCH  57  71
BRANCH  58  82
ATOM     82  C   UNL     1      13.773  -2.263   7.505  1.00  0.00     0.064 A 
ATOM     83  C   UNL     1      13.747  -0.970   8.046  1.00  0.00     0.173 A 
ATOM     84  C   UNL     1      13.213  -3.297   8.271  1.00  0.00     0.173 A 
ATOM     85  F   UNL     1      14.299   0.050   7.371  1.00  0.00    -0.203 F 
ATOM     86  C   UNL     1      13.209  -0.727   9.309  1.00  0.00     0.198 A 
ATOM     87  C   UNL     1      12.643  -3.048   9.517  1.00  0.00     0.198 A 
ATOM     88  F   UNL     1      13.222  -4.556   7.809  1.00  0.00    -0.203 F 
ATOM     89  F   UNL     1      13.255   0.508   9.828  1.00  0.00    -0.200 F 
ATOM     90  C   UNL     1      12.652  -1.764  10.041  1.00  0.00     0.200 A 
ATOM     91  F   UNL     1      12.098  -4.053  10.216  1.00  0.00    -0.200 F 
ATOM     92  F   UNL     1      12.137  -1.531  11.256  1.00  0.00    -0.200 F 
ENDBRANCH  58  82
BRANCH  70  93
ATOM     93  C   UNL     1      20.383  -1.834   5.326  1.00  0.00     0.064 A 
ATOM     94  C   UNL     1      21.000  -2.597   6.328  1.00  0.00     0.173 A 
ATOM     95  C   UNL     1      21.013  -0.643   4.929  1.00  0.00     0.173 A 
ATOM     96  F   UNL     1      20.433  -3.736   6.754  1.00  0.00    -0.203 F 
ATOM     97  C   UNL     1      22.184  -2.172   6.926  1.00  0.00     0.198 A 
ATOM     98  C   UNL     1      22.214  -0.238   5.505  1.00  0.00     0.198 A 
ATOM     99  F   UNL     1      20.470   0.121   3.969  1.00  0.00    -0.203 F 
ATOM    100  F   UNL     1      22.729  -2.893   7.916  1.00  0.00    -0.200 F 
ATOM    101  C   UNL     1      22.794  -0.998   6.508  1.00  0.00     0.200 A 
ATOM    102  F   UNL     1      22.809   0.888   5.088  1.00  0.00    -0.200 F 
ATOM    103  F   UNL     1      23.938  -0.596   7.079  1.00  0.00    -0.200 F 
ENDBRANCH  70  93
ENDBRANCH  44  45
ENDBRANCH  37  39
ENDBRANCH  36  37
ENDBRANCH  35  36
ENDBRANCH  34  35
ENDBRANCH  33  34
ENDBRANCH  32  33
ENDBRANCH  31  32
ENDBRANCH   1  31
TORSDOF 22
