REMARK SMILES O=C(CSC(=S)N1CCCCC1)OCCOCCOCCOC(=O)c1ccc(-c2c3nc(c(-c4c(F)c(F)c(F)c(F)c4F)c4ccc([nH]4)c(-c4c(F)c(F)c(F)c(F)c4F)c4nc(c(-c5c(F)c(F)c(F)c(F)c5F)c5ccc2[nH]5)C=C4)C=C3)cc1
REMARK SMILES IDX 17 1 16 2 15 3 14 4 13 5 2 6 1 7 3 8 4 9 5 10 6 11 7 12 8 13
REMARK SMILES IDX 12 14 9 15 11 16 10 17 18 18 19 19 20 20 21 21 22 22 23 23
REMARK SMILES IDX 24 24 25 25 26 26 87 27 27 28 86 29 28 30 29 31 30 32 80 33
REMARK SMILES IDX 31 34 85 35 79 36 81 37 32 38 84 39 78 40 77 41 33 43 65 44
REMARK SMILES IDX 45 45 64 46 46 47 49 48 63 49 82 50 47 51 48 52 62 54 83 55
REMARK SMILES IDX 50 56 34 57 35 58 43 59 36 60 37 61 41 62 44 63 38 64 39 65
REMARK SMILES IDX 42 66 40 67 66 68 67 69 75 70 68 71 69 72 73 73 76 74 70 75
REMARK SMILES IDX 71 76 74 77 72 78 51 79 52 80 60 81 53 82 54 83 58 84 61 85
REMARK SMILES IDX 55 86 56 87 59 88 57 89
REMARK H PARENT 81 42 49 53
REMARK Flexibility Score: inf
ROOT
ATOM      1  C   UNL     1       2.832   1.597   0.781  1.00  0.00     0.188 C 
ENDROOT
BRANCH   1   2
ATOM      2  O   UNL     1       4.227   1.414   0.967  1.00  0.00    -0.376 OA
BRANCH   2   3
ATOM      3  C   UNL     1       4.825   0.230   0.455  1.00  0.00     0.202 C 
BRANCH   3   4
ATOM      4  C   UNL     1       4.569  -0.103  -1.017  1.00  0.00     0.261 C 
BRANCH   4   5
ATOM      5  O   UNL     1       3.208  -0.370  -1.440  1.00  0.00    -0.463 OA
BRANCH   5   6
ATOM      6  C   UNL     1       2.215  -1.042  -0.828  1.00  0.00     0.316 C 
ATOM      7  O   UNL     1       1.052  -0.809  -1.160  1.00  0.00    -0.251 OA
BRANCH   6   8
ATOM      8  C   UNL     1       2.505  -2.007   0.290  1.00  0.00     0.199 C 
BRANCH   8   9
ATOM      9  S   UNL     1       3.633  -3.340  -0.156  1.00  0.00    -0.085 SA
BRANCH   9  10
ATOM     10  C   UNL     1       2.792  -4.086  -1.521  1.00  0.00     0.136 C 
ATOM     11  S   UNL     1       1.137  -4.376  -1.528  1.00  0.00    -0.053 S 
BRANCH  10  12
ATOM     12  N   UNL     1       3.657  -4.443  -2.557  1.00  0.00    -0.358 N 
ATOM     13  C   UNL     1       3.219  -4.502  -3.954  1.00  0.00     0.118 C 
ATOM     14  C   UNL     1       4.843  -5.266  -2.295  1.00  0.00     0.118 C 
ATOM     15  C   UNL     1       2.858  -5.933  -4.351  1.00  0.00     0.021 C 
ATOM     16  C   UNL     1       4.483  -6.729  -2.559  1.00  0.00     0.021 C 
ATOM     17  C   UNL     1       3.970  -6.922  -3.990  1.00  0.00     0.004 C 
ENDBRANCH  10  12
ENDBRANCH   9  10
ENDBRANCH   8   9
ENDBRANCH   6   8
ENDBRANCH   5   6
ENDBRANCH   4   5
ENDBRANCH   3   4
ENDBRANCH   2   3
ENDBRANCH   1   2
BRANCH   1  18
ATOM     18  C   UNL     1       2.315   2.926   1.346  1.00  0.00     0.188 C 
BRANCH  18  19
ATOM     19  O   UNL     1       3.086   4.083   1.046  1.00  0.00    -0.376 OA
BRANCH  19  20
ATOM     20  C   UNL     1       4.404   4.149   1.599  1.00  0.00     0.202 C 
BRANCH  20  21
ATOM     21  C   UNL     1       4.518   4.085   3.131  1.00  0.00     0.261 C 
BRANCH  21  22
ATOM     22  O   UNL     1       4.135   2.812   3.699  1.00  0.00    -0.460 OA
BRANCH  22  23
ATOM     23  C   UNL     1       3.190   2.886   4.668  1.00  0.00     0.338 C 
ATOM     24  O   UNL     1       2.662   3.891   5.112  1.00  0.00    -0.246 OA
BRANCH  23  25
ATOM     25  C   UNL     1       2.751   1.549   5.112  1.00  0.00     0.060 A 
ATOM     26  C   UNL     1       1.429   1.168   4.848  1.00  0.00     0.016 A 
ATOM     27  C   UNL     1       3.533   0.817   6.008  1.00  0.00     0.016 A 
ATOM     28  C   UNL     1       0.858   0.101   5.545  1.00  0.00     0.010 A 
ATOM     29  C   UNL     1       2.956  -0.250   6.710  1.00  0.00     0.010 A 
ATOM     30  C   UNL     1       1.598  -0.571   6.528  1.00  0.00    -0.014 A 
BRANCH  30  31
ATOM     31  C   UNL     1       0.886  -1.428   7.514  1.00  0.00     0.031 A 
ATOM     32  C   UNL     1       0.460  -0.820   8.828  1.00  0.00     0.074 A 
ATOM     33  C   UNL     1       0.578  -2.708   7.245  1.00  0.00     0.049 A 
ATOM     34  N   UNL     1      -0.192  -1.362   9.826  1.00  0.00    -0.248 NA
ATOM     35  C   UNL     1       0.818   0.592   9.042  1.00  0.00     0.031 C 
ATOM     36  C   UNL     1       0.898  -3.413   6.008  1.00  0.00     0.029 A 
ATOM     37  N   UNL     1      -0.082  -3.642   8.008  1.00  0.00    -0.354 N 
ATOM     38  C   UNL     1      -0.320  -0.362  10.783  1.00  0.00     0.074 A 
ATOM     39  C   UNL     1       0.348   0.810  10.261  1.00  0.00     0.031 C 
ATOM     40  C   UNL     1       0.437  -4.674   6.095  1.00  0.00     0.029 A 
ATOM     41  C   UNL     1      -0.196  -4.867   7.400  1.00  0.00     0.049 A 
ATOM     42  H   UNL     1      -0.438  -3.450   8.905  1.00  0.00     0.167 HD
ATOM     43  C   UNL     1      -0.947  -0.408  11.983  1.00  0.00     0.037 A 
ATOM     44  C   UNL     1      -0.746  -6.013   7.848  1.00  0.00     0.037 A 
ATOM     45  C   UNL     1      -1.621  -1.565  12.511  1.00  0.00     0.049 A 
ATOM     46  C   UNL     1      -1.397  -6.052   9.208  1.00  0.00     0.074 A 
ATOM     47  C   UNL     1      -2.299  -1.697  13.711  1.00  0.00     0.029 A 
ATOM     48  N   UNL     1      -1.698  -2.791  11.871  1.00  0.00    -0.354 N 
ATOM     49  N   UNL     1      -1.546  -5.091  10.086  1.00  0.00    -0.248 NA
ATOM     50  C   UNL     1      -1.966  -7.341   9.632  1.00  0.00     0.031 C 
ATOM     51  C   UNL     1      -2.754  -3.017  13.814  1.00  0.00     0.029 A 
ATOM     52  C   UNL     1      -2.396  -3.692  12.659  1.00  0.00     0.049 A 
ATOM     53  H   UNL     1      -1.313  -2.993  10.987  1.00  0.00     0.167 HD
ATOM     54  C   UNL     1      -2.258  -5.645  11.143  1.00  0.00     0.074 A 
ATOM     55  C   UNL     1      -2.514  -7.027  10.798  1.00  0.00     0.031 C 
ATOM     56  C   UNL     1      -2.666  -5.059  12.296  1.00  0.00     0.037 A 
BRANCH  43  57
ATOM     57  C   UNL     1      -0.918   0.835  12.822  1.00  0.00     0.064 A 
ATOM     58  C   UNL     1      -1.699   1.955  12.501  1.00  0.00     0.173 A 
ATOM     59  C   UNL     1      -0.123   0.894  13.975  1.00  0.00     0.173 A 
ATOM     60  F   UNL     1      -2.466   1.951  11.400  1.00  0.00    -0.203 F 
ATOM     61  C   UNL     1      -1.665   3.100  13.293  1.00  0.00     0.198 A 
ATOM     62  C   UNL     1      -0.110   2.031  14.778  1.00  0.00     0.198 A 
ATOM     63  F   UNL     1       0.638  -0.154  14.327  1.00  0.00    -0.203 F 
ATOM     64  F   UNL     1      -2.386   4.175  12.946  1.00  0.00    -0.200 F 
ATOM     65  C   UNL     1      -0.875   3.135  14.433  1.00  0.00     0.200 A 
ATOM     66  F   UNL     1       0.646   2.060  15.884  1.00  0.00    -0.200 F 
ATOM     67  F   UNL     1      -0.846   4.237  15.196  1.00  0.00    -0.200 F 
ENDBRANCH  43  57
BRANCH  44  68
ATOM     68  C   UNL     1      -0.723  -7.229   6.997  1.00  0.00     0.064 A 
ATOM     69  C   UNL     1      -1.901  -7.734   6.427  1.00  0.00     0.173 A 
ATOM     70  C   UNL     1       0.468  -7.931   6.766  1.00  0.00     0.173 A 
ATOM     71  F   UNL     1      -3.069  -7.113   6.646  1.00  0.00    -0.203 F 
ATOM     72  C   UNL     1      -1.890  -8.907   5.675  1.00  0.00     0.198 A 
ATOM     73  C   UNL     1       0.481  -9.090   5.994  1.00  0.00     0.198 A 
ATOM     74  F   UNL     1       1.620  -7.492   7.295  1.00  0.00    -0.203 F 
ATOM     75  F   UNL     1      -3.037  -9.395   5.185  1.00  0.00    -0.200 F 
ATOM     76  C   UNL     1      -0.699  -9.582   5.456  1.00  0.00     0.200 A 
ATOM     77  F   UNL     1       1.635  -9.737   5.780  1.00  0.00    -0.200 F 
ATOM     78  F   UNL     1      -0.690 -10.712   4.737  1.00  0.00    -0.200 F 
ENDBRANCH  44  68
BRANCH  56  79
ATOM     79  C   UNL     1      -3.481  -5.888  13.245  1.00  0.00     0.064 A 
ATOM     80  C   UNL     1      -2.906  -6.910  14.014  1.00  0.00     0.173 A 
ATOM     81  C   UNL     1      -4.850  -5.630  13.414  1.00  0.00     0.173 A 
ATOM     82  F   UNL     1      -1.604  -7.204  13.881  1.00  0.00    -0.203 F 
ATOM     83  C   UNL     1      -3.677  -7.660  14.899  1.00  0.00     0.198 A 
ATOM     84  C   UNL     1      -5.613  -6.365  14.317  1.00  0.00     0.198 A 
ATOM     85  F   UNL     1      -5.447  -4.659  12.707  1.00  0.00    -0.203 F 
ATOM     86  F   UNL     1      -3.116  -8.662  15.591  1.00  0.00    -0.200 F 
ATOM     87  C   UNL     1      -5.028  -7.384  15.053  1.00  0.00     0.200 A 
ATOM     88  F   UNL     1      -6.915  -6.089  14.473  1.00  0.00    -0.200 F 
ATOM     89  F   UNL     1      -5.768  -8.105  15.907  1.00  0.00    -0.200 F 
ENDBRANCH  56  79
ENDBRANCH  30  31
ENDBRANCH  23  25
ENDBRANCH  22  23
ENDBRANCH  21  22
ENDBRANCH  20  21
ENDBRANCH  19  20
ENDBRANCH  18  19
ENDBRANCH   1  18
TORSDOF 20
