REMARK SMILES O=C(OCCOCCOCCOC(=O)c1sccc1S(=O)(=O)Nc1ccc(Cn2cncn2)cc1)c1ccc(-c2c3nc(c(-c4c(F)c(F)c(F)c(F)c4F)c4ccc([nH]4)c(-c4c(F)c(F)c(F)c(F)c4F)c4nc(c(-c5c(F)c(F)c(F)c(F)c5F)c5ccc2[nH]5)C=C4)C=C3)cc1
REMARK SMILES IDX 9 1 8 2 7 3 6 4 5 5 4 6 3 7 2 8 1 9 36 10 37 11 98 12 38 13
REMARK SMILES IDX 97 14 39 15 40 16 41 17 91 18 42 19 96 20 90 21 92 22 43 23
REMARK SMILES IDX 95 24 89 25 88 26 44 28 76 29 56 30 75 31 57 32 60 33 74 34
REMARK SMILES IDX 93 35 58 36 59 37 73 39 94 40 61 41 45 42 46 43 54 44 47 45
REMARK SMILES IDX 48 46 52 47 55 48 49 49 50 50 53 51 51 52 77 53 78 54 86 55
REMARK SMILES IDX 79 56 80 57 84 58 87 59 81 60 82 61 85 62 83 63 62 64 63 65
REMARK SMILES IDX 71 66 64 67 65 68 69 69 72 70 66 71 67 72 70 73 68 74 10 75
REMARK SMILES IDX 11 76 12 77 13 78 14 79 15 80 16 81 19 82 17 83 18 84 20 85
REMARK SMILES IDX 21 86 22 87 23 88 24 90 25 91 35 92 26 93 34 94 27 95 28 96
REMARK SMILES IDX 29 97 30 98 33 99 31 100 32 101
REMARK H PARENT 92 27 60 38 23 89
REMARK Flexibility Score: inf
ROOT
ATOM      1  O   UNL     1       4.696   2.001   1.144  1.00  0.00    -0.376 OA
ENDROOT
BRANCH   1   2
ATOM      2  C   UNL     1       3.583   1.189   0.641  1.00  0.00     0.188 C 
BRANCH   2   3
ATOM      3  C   UNL     1       3.730  -0.397   0.579  1.00  0.00     0.188 C 
BRANCH   3   4
ATOM      4  O   UNL     1       4.830  -0.984  -0.087  1.00  0.00    -0.376 OA
BRANCH   4   5
ATOM      5  C   UNL     1       5.735  -0.098  -0.701  1.00  0.00     0.202 C 
BRANCH   5   6
ATOM      6  C   UNL     1       5.308   0.347  -2.100  1.00  0.00     0.261 C 
BRANCH   6   7
ATOM      7  O   UNL     1       3.932   0.760  -2.300  1.00  0.00    -0.460 OA
BRANCH   7   8
ATOM      8  C   UNL     1       2.737   0.129  -2.247  1.00  0.00     0.338 C 
ATOM      9  O   UNL     1       1.712   0.810  -2.201  1.00  0.00    -0.246 OA
BRANCH   8  10
ATOM     10  C   UNL     1       2.566  -1.341  -2.154  1.00  0.00     0.060 A 
ATOM     11  C   UNL     1       3.558  -2.252  -2.486  1.00  0.00     0.016 A 
ATOM     12  C   UNL     1       1.300  -1.811  -1.720  1.00  0.00     0.016 A 
ATOM     13  C   UNL     1       3.248  -3.589  -2.562  1.00  0.00     0.010 A 
ATOM     14  C   UNL     1       0.985  -3.155  -1.784  1.00  0.00     0.010 A 
ATOM     15  C   UNL     1       1.938  -4.007  -2.312  1.00  0.00    -0.014 A 
BRANCH  15  16
ATOM     16  C   UNL     1       1.619  -5.335  -2.787  1.00  0.00     0.031 A 
ATOM     17  C   UNL     1       2.378  -6.423  -2.132  1.00  0.00     0.074 A 
ATOM     18  C   UNL     1       0.842  -5.481  -3.876  1.00  0.00     0.049 A 
ATOM     19  N   UNL     1       3.341  -7.123  -2.637  1.00  0.00    -0.248 NA
ATOM     20  C   UNL     1       2.159  -6.635  -0.697  1.00  0.00     0.031 C 
ATOM     21  C   UNL     1      -0.073  -4.518  -4.497  1.00  0.00     0.029 A 
ATOM     22  N   UNL     1       0.695  -6.585  -4.651  1.00  0.00    -0.354 N 
ATOM     23  C   UNL     1       3.748  -7.988  -1.627  1.00  0.00     0.074 A 
ATOM     24  C   UNL     1       3.084  -7.555  -0.425  1.00  0.00     0.031 C 
ATOM     25  C   UNL     1      -0.844  -5.156  -5.406  1.00  0.00     0.029 A 
ATOM     26  C   UNL     1      -0.372  -6.521  -5.534  1.00  0.00     0.049 A 
ATOM     27  H   UNL     1       1.294  -7.364  -4.592  1.00  0.00     0.167 HD
ATOM     28  C   UNL     1       4.437  -9.124  -1.915  1.00  0.00     0.037 A 
ATOM     29  C   UNL     1      -0.872  -7.574  -6.225  1.00  0.00     0.037 A 
ATOM     30  C   UNL     1       5.115  -9.020  -3.181  1.00  0.00     0.049 A 
ATOM     31  C   UNL     1       0.210  -8.593  -6.312  1.00  0.00     0.074 A 
ATOM     32  C   UNL     1       6.129  -8.214  -3.664  1.00  0.00     0.029 A 
ATOM     33  N   UNL     1       4.528  -9.581  -4.288  1.00  0.00    -0.354 N 
ATOM     34  N   UNL     1       1.302  -8.420  -7.007  1.00  0.00    -0.248 NA
ATOM     35  C   UNL     1       0.304  -9.576  -5.240  1.00  0.00     0.031 C 
ATOM     36  C   UNL     1       5.780  -7.955  -5.021  1.00  0.00     0.029 A 
ATOM     37  C   UNL     1       4.610  -8.662  -5.302  1.00  0.00     0.049 A 
ATOM     38  H   UNL     1       4.124 -10.477  -4.343  1.00  0.00     0.167 HD
ATOM     39  C   UNL     1       2.316  -8.953  -6.222  1.00  0.00     0.074 A 
ATOM     40  C   UNL     1       1.632  -9.704  -5.172  1.00  0.00     0.031 C 
ATOM     41  C   UNL     1       3.602  -8.505  -6.322  1.00  0.00     0.037 A 
BRANCH  28  42
ATOM     42  C   UNL     1       4.174 -10.444  -1.236  1.00  0.00     0.064 A 
ATOM     43  C   UNL     1       4.973 -11.557  -1.564  1.00  0.00     0.173 A 
ATOM     44  C   UNL     1       2.984 -10.736  -0.532  1.00  0.00     0.173 A 
ATOM     45  F   UNL     1       6.125 -11.399  -2.235  1.00  0.00    -0.203 F 
ATOM     46  C   UNL     1       4.559 -12.865  -1.298  1.00  0.00     0.198 A 
ATOM     47  C   UNL     1       2.598 -12.038  -0.228  1.00  0.00     0.198 A 
ATOM     48  F   UNL     1       2.093  -9.793  -0.208  1.00  0.00    -0.203 F 
ATOM     49  F   UNL     1       5.286 -13.896  -1.747  1.00  0.00    -0.200 F 
ATOM     50  C   UNL     1       3.365 -13.104  -0.643  1.00  0.00     0.200 A 
ATOM     51  F   UNL     1       1.429 -12.247   0.395  1.00  0.00    -0.200 F 
ATOM     52  F   UNL     1       2.929 -14.356  -0.455  1.00  0.00    -0.200 F 
ENDBRANCH  28  42
BRANCH  29  53
ATOM     53  C   UNL     1      -2.311  -7.890  -6.387  1.00  0.00     0.064 A 
ATOM     54  C   UNL     1      -2.747  -8.828  -7.335  1.00  0.00     0.173 A 
ATOM     55  C   UNL     1      -3.268  -7.467  -5.439  1.00  0.00     0.173 A 
ATOM     56  F   UNL     1      -1.887  -9.321  -8.237  1.00  0.00    -0.203 F 
ATOM     57  C   UNL     1      -4.057  -9.320  -7.327  1.00  0.00     0.198 A 
ATOM     58  C   UNL     1      -4.574  -7.952  -5.438  1.00  0.00     0.198 A 
ATOM     59  F   UNL     1      -2.930  -6.644  -4.436  1.00  0.00    -0.203 F 
ATOM     60  F   UNL     1      -4.425 -10.255  -8.214  1.00  0.00    -0.200 F 
ATOM     61  C   UNL     1      -4.967  -8.887  -6.375  1.00  0.00     0.200 A 
ATOM     62  F   UNL     1      -5.430  -7.553  -4.486  1.00  0.00    -0.200 F 
ATOM     63  F   UNL     1      -6.205  -9.399  -6.335  1.00  0.00    -0.200 F 
ENDBRANCH  29  53
BRANCH  41  64
ATOM     64  C   UNL     1       3.935  -7.575  -7.453  1.00  0.00     0.064 A 
ATOM     65  C   UNL     1       3.419  -6.272  -7.562  1.00  0.00     0.173 A 
ATOM     66  C   UNL     1       4.948  -7.947  -8.346  1.00  0.00     0.173 A 
ATOM     67  F   UNL     1       2.523  -5.812  -6.679  1.00  0.00    -0.203 F 
ATOM     68  C   UNL     1       3.877  -5.395  -8.545  1.00  0.00     0.198 A 
ATOM     69  C   UNL     1       5.427  -7.059  -9.304  1.00  0.00     0.198 A 
ATOM     70  F   UNL     1       5.520  -9.157  -8.246  1.00  0.00    -0.203 F 
ATOM     71  F   UNL     1       3.375  -4.154  -8.627  1.00  0.00    -0.200 F 
ATOM     72  C   UNL     1       4.888  -5.786  -9.408  1.00  0.00     0.200 A 
ATOM     73  F   UNL     1       6.441  -7.422 -10.101  1.00  0.00    -0.200 F 
ATOM     74  F   UNL     1       5.367  -4.926 -10.318  1.00  0.00    -0.200 F 
ENDBRANCH  41  64
ENDBRANCH  15  16
ENDBRANCH   8  10
ENDBRANCH   7   8
ENDBRANCH   6   7
ENDBRANCH   5   6
ENDBRANCH   4   5
ENDBRANCH   3   4
ENDBRANCH   2   3
ENDBRANCH   1   2
BRANCH   1  75
ATOM     75  C   UNL     1       4.920   2.819   2.367  1.00  0.00     0.202 C 
BRANCH  75  76
ATOM     76  C   UNL     1       4.499   2.670   4.145  1.00  0.00     0.261 C 
BRANCH  76  77
ATOM     77  O   UNL     1       3.161   1.290   4.890  1.00  0.00    -0.459 OA
BRANCH  77  78
ATOM     78  C   UNL     1       1.988   0.548   5.058  1.00  0.00     0.349 C 
ATOM     79  O   UNL     1       0.867   0.927   4.697  1.00  0.00    -0.245 OA
BRANCH  78  80
ATOM     80  C   UNL     1       2.261  -0.858   5.392  1.00  0.00     0.133 A 
ATOM     81  S   UNL     1       1.250  -1.983   4.500  1.00  0.00    -0.136 S 
ATOM     82  C   UNL     1       3.162  -1.564   6.180  1.00  0.00     0.113 A 
ATOM     83  C   UNL     1       1.937  -3.349   5.229  1.00  0.00     0.067 A 
ATOM     84  C   UNL     1       2.937  -2.996   6.096  1.00  0.00     0.035 A 
BRANCH  82  85
ATOM     85  S   UNL     1       4.457  -1.037   7.225  1.00  0.00     0.263 S 
ATOM     86  O   UNL     1       3.976  -1.389   8.543  1.00  0.00    -0.201 OA
ATOM     87  O   UNL     1       5.598  -1.738   6.662  1.00  0.00    -0.201 OA
BRANCH  85  88
ATOM     88  N   UNL     1       4.946   0.594   7.282  1.00  0.00    -0.280 N 
ATOM     89  H   UNL     1       5.393   0.988   8.065  1.00  0.00     0.180 HD
BRANCH  88  90
ATOM     90  C   UNL     1       4.658   1.337   6.113  1.00  0.00     0.049 A 
ATOM     91  C   UNL     1       4.909   0.497   4.585  1.00  0.00     0.027 A 
ATOM     92  C   UNL     1       3.473   2.650   6.269  1.00  0.00     0.027 A 
ATOM     93  C   UNL     1       3.836   0.909   3.207  1.00  0.00     0.008 A 
ATOM     94  C   UNL     1       2.438   3.134   4.900  1.00  0.00     0.008 A 
ATOM     95  C   UNL     1       2.592   2.304   3.309  1.00  0.00    -0.026 A 
BRANCH  95  96
ATOM     96  C   UNL     1       1.683   2.993   2.258  1.00  0.00     0.181 C 
BRANCH  96  97
ATOM     97  N   UNL     1       2.179   4.228   1.615  1.00  0.00    -0.249 N 
ATOM     98  C   UNL     1       2.718   4.394   0.365  1.00  0.00     0.220 A 
ATOM     99  N   UNL     1       1.830   5.444   2.111  1.00  0.00    -0.160 NA
ATOM    100  N   UNL     1       2.751   5.666   0.039  1.00  0.00    -0.224 NA
ATOM    101  C   UNL     1       2.163   6.263   1.107  1.00  0.00     0.246 A 
ENDBRANCH  96  97
ENDBRANCH  95  96
ENDBRANCH  88  90
ENDBRANCH  85  88
ENDBRANCH  82  85
ENDBRANCH  78  80
ENDBRANCH  77  78
ENDBRANCH  76  77
ENDBRANCH  75  76
ENDBRANCH   1  75
TORSDOF 22
