REMARK SMILES CC[C@](C)(NC(=O)NC[C@H]1COCCO1)C(=O)OCCOCCOCCOC(=O)c1ccc(-c2c3nc(c(-c4c(F)c(F)c(F)c(F)c4F)c4ccc([nH]4)c(-c4c(F)c(F)c(F)c(F)c4F)c4nc(c(-c5c(F)c(F)c(F)c(F)c5F)c5ccc2[nH]5)C=C4)C=C3)cc1
REMARK SMILES IDX 22 1 21 2 20 3 19 4 18 5 16 6 17 7 3 8 4 9 2 10 1 11 5 12
REMARK SMILES IDX 6 13 7 15 8 16 9 18 10 19 11 20 15 21 12 22 14 23 13 24
REMARK SMILES IDX 23 25 24 26 25 27 26 28 27 29 28 30 29 31 30 32 31 33 92 34
REMARK SMILES IDX 32 35 91 36 33 37 34 38 35 39 85 40 36 41 90 42 84 43 86 44
REMARK SMILES IDX 37 45 89 46 83 47 82 48 38 50 70 51 50 52 69 53 51 54 54 55
REMARK SMILES IDX 68 56 87 57 52 58 53 59 67 61 88 62 55 63 39 64 40 65 48 66
REMARK SMILES IDX 41 67 42 68 46 69 49 70 43 71 44 72 47 73 45 74 71 75 72 76
REMARK SMILES IDX 80 77 73 78 74 79 78 80 81 81 75 82 76 83 79 84 77 85 56 86
REMARK SMILES IDX 57 87 65 88 58 89 59 90 63 91 66 92 60 93 61 94 64 95 62 96
REMARK H PARENT 5 14 8 17 86 49 54 60
REMARK Flexibility Score: inf
ROOT
ATOM      1  C   UNL     1       6.846  -1.571  -1.132  1.00  0.00     0.188 C 
ENDROOT
BRANCH   1   2
ATOM      2  O   UNL     1       5.788  -2.276  -0.491  1.00  0.00    -0.376 OA
BRANCH   2   3
ATOM      3  C   UNL     1       4.586  -2.379  -1.254  1.00  0.00     0.202 C 
BRANCH   3   4
ATOM      4  C   UNL     1       3.738  -1.111  -1.183  1.00  0.00     0.261 C 
BRANCH   4   5
ATOM      5  O   UNL     1       4.481  -0.019  -1.753  1.00  0.00    -0.462 OA
BRANCH   5   6
ATOM      6  C   UNL     1       4.830   1.021  -0.968  1.00  0.00     0.331 C 
ATOM      7  O   UNL     1       4.357   1.215   0.148  1.00  0.00    -0.249 OA
BRANCH   6   8
ATOM      8  C   UNL     1       5.858   1.991  -1.657  1.00  0.00     0.136 C 
ATOM      9  C   UNL     1       6.851   2.309  -0.486  1.00  0.00     0.047 C 
BRANCH   8  10
ATOM     10  C   UNL     1       5.168   3.326  -2.051  1.00  0.00     0.037 C 
ATOM     11  C   UNL     1       3.667   3.263  -2.308  1.00  0.00     0.007 C 
ENDBRANCH   8  10
BRANCH   8  12
ATOM     12  N   UNL     1       6.800   1.553  -2.765  1.00  0.00    -0.322 N 
ATOM     13  C   UNL     1       6.873   1.262  -4.060  1.00  0.00     0.315 C 
ATOM     14  H   UNL     1       7.697   1.442  -2.377  1.00  0.00     0.166 HD
ATOM     15  O   UNL     1       7.992   1.369  -4.574  1.00  0.00    -0.249 OA
ATOM     16  N   UNL     1       5.883   0.844  -4.844  1.00  0.00    -0.335 N 
ATOM     17  H   UNL     1       5.981   1.039  -5.804  1.00  0.00     0.165 HD
BRANCH  16  18
ATOM     18  C   UNL     1       4.689   0.144  -4.464  1.00  0.00     0.152 C 
BRANCH  18  19
ATOM     19  C   UNL     1       3.636  -0.179  -5.538  1.00  0.00     0.163 C 
ATOM     20  C   UNL     1       4.158  -0.485  -6.944  1.00  0.00     0.194 C 
ATOM     21  O   UNL     1       2.787  -1.265  -5.086  1.00  0.00    -0.372 OA
ATOM     22  O   UNL     1       4.860  -1.732  -6.982  1.00  0.00    -0.376 OA
ATOM     23  C   UNL     1       3.426  -2.549  -5.198  1.00  0.00     0.189 C 
ATOM     24  C   UNL     1       3.969  -2.790  -6.603  1.00  0.00     0.188 C 
ENDBRANCH  18  19
ENDBRANCH  16  18
ENDBRANCH   8  12
ENDBRANCH   6   8
ENDBRANCH   5   6
ENDBRANCH   4   5
ENDBRANCH   3   4
ENDBRANCH   2   3
ENDBRANCH   1   2
BRANCH   1  25
ATOM     25  C   UNL     1       7.522  -2.333  -2.251  1.00  0.00     0.188 C 
BRANCH  25  26
ATOM     26  O   UNL     1       6.739  -2.680  -3.385  1.00  0.00    -0.376 OA
BRANCH  26  27
ATOM     27  C   UNL     1       7.529  -3.149  -4.489  1.00  0.00     0.202 C 
BRANCH  27  28
ATOM     28  C   UNL     1       8.419  -4.396  -4.253  1.00  0.00     0.261 C 
BRANCH  28  29
ATOM     29  O   UNL     1       9.195  -4.416  -3.036  1.00  0.00    -0.460 OA
BRANCH  29  30
ATOM     30  C   UNL     1      10.196  -3.515  -2.898  1.00  0.00     0.338 C 
ATOM     31  O   UNL     1      10.690  -2.850  -3.795  1.00  0.00    -0.246 OA
BRANCH  30  32
ATOM     32  C   UNL     1      10.386  -3.233  -1.436  1.00  0.00     0.060 A 
ATOM     33  C   UNL     1      10.694  -1.917  -1.054  1.00  0.00     0.016 A 
ATOM     34  C   UNL     1      10.111  -4.186  -0.443  1.00  0.00     0.016 A 
ATOM     35  C   UNL     1      10.783  -1.569   0.297  1.00  0.00     0.010 A 
ATOM     36  C   UNL     1      10.209  -3.841   0.913  1.00  0.00     0.010 A 
ATOM     37  C   UNL     1      10.594  -2.542   1.288  1.00  0.00    -0.014 A 
BRANCH  37  38
ATOM     38  C   UNL     1      11.114  -2.276   2.656  1.00  0.00     0.031 A 
ATOM     39  C   UNL     1      12.535  -2.693   2.936  1.00  0.00     0.074 A 
ATOM     40  C   UNL     1      10.403  -1.629   3.598  1.00  0.00     0.049 A 
ATOM     41  N   UNL     1      13.260  -2.542   4.015  1.00  0.00    -0.248 NA
ATOM     42  C   UNL     1      13.238  -3.374   1.834  1.00  0.00     0.031 C 
ATOM     43  C   UNL     1       9.033  -1.147   3.450  1.00  0.00     0.029 A 
ATOM     44  N   UNL     1      10.751  -1.265   4.878  1.00  0.00    -0.354 N 
ATOM     45  C   UNL     1      14.501  -3.086   3.710  1.00  0.00     0.074 A 
ATOM     46  C   UNL     1      14.419  -3.623   2.372  1.00  0.00     0.031 C 
ATOM     47  C   UNL     1       8.651  -0.559   4.599  1.00  0.00     0.029 A 
ATOM     48  C   UNL     1       9.742  -0.638   5.570  1.00  0.00     0.049 A 
ATOM     49  H   UNL     1      11.640  -1.438   5.264  1.00  0.00     0.167 HD
ATOM     50  C   UNL     1      15.623  -3.118   4.467  1.00  0.00     0.037 A 
ATOM     51  C   UNL     1       9.709  -0.195   6.844  1.00  0.00     0.037 A 
ATOM     52  C   UNL     1      15.700  -2.614   5.810  1.00  0.00     0.049 A 
ATOM     53  C   UNL     1      10.947  -0.320   7.703  1.00  0.00     0.074 A 
ATOM     54  C   UNL     1      16.779  -2.622   6.675  1.00  0.00     0.029 A 
ATOM     55  N   UNL     1      14.646  -2.019   6.487  1.00  0.00    -0.354 N 
ATOM     56  N   UNL     1      12.126  -0.812   7.398  1.00  0.00    -0.248 NA
ATOM     57  C   UNL     1      10.854   0.186   9.080  1.00  0.00     0.031 C 
ATOM     58  C   UNL     1      16.363  -2.079   7.895  1.00  0.00     0.029 A 
ATOM     59  C   UNL     1      15.044  -1.672   7.767  1.00  0.00     0.049 A 
ATOM     60  H   UNL     1      13.748  -1.866   6.113  1.00  0.00     0.167 HD
ATOM     61  C   UNL     1      12.917  -0.648   8.530  1.00  0.00     0.074 A 
ATOM     62  C   UNL     1      12.092   0.013   9.519  1.00  0.00     0.031 C 
ATOM     63  C   UNL     1      14.208  -1.012   8.737  1.00  0.00     0.037 A 
BRANCH  50  64
ATOM     64  C   UNL     1      16.845  -3.740   3.856  1.00  0.00     0.064 A 
ATOM     65  C   UNL     1      17.533  -3.123   2.799  1.00  0.00     0.173 A 
ATOM     66  C   UNL     1      17.340  -4.961   4.337  1.00  0.00     0.173 A 
ATOM     67  F   UNL     1      17.087  -1.966   2.286  1.00  0.00    -0.203 F 
ATOM     68  C   UNL     1      18.656  -3.718   2.230  1.00  0.00     0.198 A 
ATOM     69  C   UNL     1      18.483  -5.537   3.787  1.00  0.00     0.198 A 
ATOM     70  F   UNL     1      16.718  -5.595   5.341  1.00  0.00    -0.203 F 
ATOM     71  F   UNL     1      19.264  -3.138   1.186  1.00  0.00    -0.200 F 
ATOM     72  C   UNL     1      19.134  -4.920   2.730  1.00  0.00     0.200 A 
ATOM     73  F   UNL     1      18.949  -6.693   4.277  1.00  0.00    -0.200 F 
ATOM     74  F   UNL     1      20.219  -5.489   2.186  1.00  0.00    -0.200 F 
ENDBRANCH  50  64
BRANCH  51  75
ATOM     75  C   UNL     1       8.459   0.392   7.407  1.00  0.00     0.064 A 
ATOM     76  C   UNL     1       8.392   1.736   7.806  1.00  0.00     0.173 A 
ATOM     77  C   UNL     1       7.318  -0.399   7.610  1.00  0.00     0.173 A 
ATOM     78  F   UNL     1       9.464   2.530   7.666  1.00  0.00    -0.203 F 
ATOM     79  C   UNL     1       7.247   2.255   8.411  1.00  0.00     0.198 A 
ATOM     80  C   UNL     1       6.162   0.130   8.182  1.00  0.00     0.198 A 
ATOM     81  F   UNL     1       7.327  -1.693   7.259  1.00  0.00    -0.203 F 
ATOM     82  F   UNL     1       7.237   3.523   8.843  1.00  0.00    -0.200 F 
ATOM     83  C   UNL     1       6.131   1.453   8.593  1.00  0.00     0.200 A 
ATOM     84  F   UNL     1       5.084  -0.648   8.351  1.00  0.00    -0.200 F 
ATOM     85  F   UNL     1       5.034   1.950   9.179  1.00  0.00    -0.200 F 
ENDBRANCH  51  75
BRANCH  63  86
ATOM     86  C   UNL     1      14.818  -0.668  10.069  1.00  0.00     0.064 A 
ATOM     87  C   UNL     1      14.409  -1.296  11.255  1.00  0.00     0.173 A 
ATOM     88  C   UNL     1      15.842   0.288  10.154  1.00  0.00     0.173 A 
ATOM     89  F   UNL     1      13.430  -2.212  11.232  1.00  0.00    -0.203 F 
ATOM     90  C   UNL     1      14.970  -0.947  12.481  1.00  0.00     0.198 A 
ATOM     91  C   UNL     1      16.428   0.606  11.376  1.00  0.00     0.198 A 
ATOM     92  F   UNL     1      16.283   0.908   9.049  1.00  0.00    -0.203 F 
ATOM     93  F   UNL     1      14.516  -1.511  13.608  1.00  0.00    -0.200 F 
ATOM     94  C   UNL     1      15.982  -0.000  12.540  1.00  0.00     0.200 A 
ATOM     95  F   UNL     1      17.420   1.506  11.427  1.00  0.00    -0.200 F 
ATOM     96  F   UNL     1      16.521   0.334  13.720  1.00  0.00    -0.200 F 
ENDBRANCH  63  86
ENDBRANCH  37  38
ENDBRANCH  30  32
ENDBRANCH  29  30
ENDBRANCH  28  29
ENDBRANCH  27  28
ENDBRANCH  26  27
ENDBRANCH  25  26
ENDBRANCH   1  25
TORSDOF 21
