REMARK SMILES CC[C@H](C(=O)OCCOCCOCCOC(=O)c1ccc(-c2c3nc(c(-c4c(F)c(F)c(F)c(F)c4F)c4ccc([nH]4)c(-c4c(F)c(F)c(F)c(F)c4F)c4nc(c(-c5c(F)c(F)c(F)c(F)c5F)c5ccc2[nH]5)C=C4)C=C3)cc1)N(C)c1cc(C)ccc1[N+](=O)[O-]
REMARK SMILES IDX 10 1 9 2 8 3 7 4 6 5 4 6 5 7 3 8 2 9 1 10 81 11 82 12 83 13
REMARK SMILES IDX 84 14 89 15 85 16 88 17 86 18 87 19 90 20 91 21 92 22 11 23
REMARK SMILES IDX 12 24 13 25 14 26 15 27 16 28 17 29 18 30 19 31 80 32 20 33
REMARK SMILES IDX 79 34 21 35 22 36 23 37 73 38 24 39 78 40 72 41 74 42 25 43
REMARK SMILES IDX 77 44 71 45 70 46 26 48 58 49 38 50 57 51 39 52 42 53 56 54
REMARK SMILES IDX 75 55 40 56 41 57 55 59 76 60 43 61 27 62 28 63 36 64 29 65
REMARK SMILES IDX 30 66 34 67 37 68 31 69 32 70 35 71 33 72 59 73 60 74 68 75
REMARK SMILES IDX 61 76 62 77 66 78 69 79 63 80 64 81 67 82 65 83 44 84 45 85
REMARK SMILES IDX 53 86 46 87 47 88 51 89 54 90 48 91 49 92 52 93 50 94
REMARK H PARENT 74 47 42 58
REMARK Flexibility Score: inf
ROOT
ATOM      1  C   UNL     1      -0.612  -1.561  -0.060  1.00  0.00     0.188 C 
ENDROOT
BRANCH   1   2
ATOM      2  O   UNL     1      -1.964  -1.454  -0.438  1.00  0.00    -0.376 OA
BRANCH   2   3
ATOM      3  C   UNL     1      -2.797  -0.672   0.408  1.00  0.00     0.202 C 
BRANCH   3   4
ATOM      4  C   UNL     1      -2.230   0.407   1.351  1.00  0.00     0.261 C 
BRANCH   4   5
ATOM      5  O   UNL     1      -1.312   1.396   0.840  1.00  0.00    -0.462 OA
BRANCH   5   6
ATOM      6  C   UNL     1      -0.047   1.373   1.369  1.00  0.00     0.328 C 
ATOM      7  O   UNL     1       0.425   0.410   1.972  1.00  0.00    -0.250 OA
BRANCH   6   8
ATOM      8  C   UNL     1       0.691   2.722   1.366  1.00  0.00     0.192 C 
BRANCH   8   9
ATOM      9  C   UNL     1       0.477   3.594   0.120  1.00  0.00     0.034 C 
ATOM     10  C   UNL     1       1.509   3.287  -0.968  1.00  0.00     0.007 C 
ENDBRANCH   8   9
BRANCH   8  11
ATOM     11  N   UNL     1       0.450   3.481   2.632  1.00  0.00    -0.356 N 
ATOM     12  C   UNL     1       1.561   4.144   3.299  1.00  0.00     0.145 C 
BRANCH  11  13
ATOM     13  C   UNL     1      -0.808   3.578   3.207  1.00  0.00     0.116 A 
ATOM     14  C   UNL     1      -1.522   4.779   3.060  1.00  0.00     0.036 A 
ATOM     15  C   UNL     1      -1.462   2.545   3.911  1.00  0.00     0.292 A 
ATOM     16  C   UNL     1      -2.859   4.907   3.477  1.00  0.00    -0.049 A 
ATOM     17  C   UNL     1      -2.835   2.613   4.207  1.00  0.00     0.088 A 
ATOM     18  C   UNL     1      -3.519   6.254   3.497  1.00  0.00     0.044 C 
ATOM     19  C   UNL     1      -3.534   3.790   3.971  1.00  0.00     0.010 A 
BRANCH  15  20
ATOM     20  N   UNL     1      -0.731   1.407   4.483  1.00  0.00     0.064 N 
ATOM     21  O   UNL     1      -1.352   0.337   4.598  1.00  0.00    -0.258 OA
ATOM     22  O   UNL     1       0.417   1.597   4.909  1.00  0.00    -0.258 OA
ENDBRANCH  15  20
ENDBRANCH  11  13
ENDBRANCH   8  11
ENDBRANCH   6   8
ENDBRANCH   5   6
ENDBRANCH   4   5
ENDBRANCH   3   4
ENDBRANCH   2   3
ENDBRANCH   1   2
BRANCH   1  23
ATOM     23  C   UNL     1       0.285  -0.727  -0.966  1.00  0.00     0.188 C 
BRANCH  23  24
ATOM     24  O   UNL     1      -0.175   0.493  -1.532  1.00  0.00    -0.376 OA
BRANCH  24  25
ATOM     25  C   UNL     1      -1.322   0.559  -2.378  1.00  0.00     0.202 C 
BRANCH  25  26
ATOM     26  C   UNL     1      -1.580  -0.493  -3.473  1.00  0.00     0.261 C 
BRANCH  26  27
ATOM     27  O   UNL     1      -0.485  -1.354  -3.770  1.00  0.00    -0.460 OA
BRANCH  27  28
ATOM     28  C   UNL     1       0.627  -0.739  -4.246  1.00  0.00     0.338 C 
ATOM     29  O   UNL     1       0.712   0.375  -4.702  1.00  0.00    -0.246 OA
BRANCH  28  30
ATOM     30  C   UNL     1       1.775  -1.599  -3.852  1.00  0.00     0.060 A 
ATOM     31  C   UNL     1       2.893  -0.963  -3.299  1.00  0.00     0.016 A 
ATOM     32  C   UNL     1       1.690  -2.998  -3.860  1.00  0.00     0.016 A 
ATOM     33  C   UNL     1       3.962  -1.722  -2.828  1.00  0.00     0.010 A 
ATOM     34  C   UNL     1       2.759  -3.760  -3.383  1.00  0.00     0.010 A 
ATOM     35  C   UNL     1       3.922  -3.120  -2.921  1.00  0.00    -0.014 A 
BRANCH  35  36
ATOM     36  C   UNL     1       5.192  -3.875  -2.805  1.00  0.00     0.031 A 
ATOM     37  C   UNL     1       5.906  -4.227  -4.083  1.00  0.00     0.074 A 
ATOM     38  C   UNL     1       5.741  -4.173  -1.615  1.00  0.00     0.049 A 
ATOM     39  N   UNL     1       7.059  -4.818  -4.261  1.00  0.00    -0.248 NA
ATOM     40  C   UNL     1       5.221  -3.858  -5.334  1.00  0.00     0.031 C 
ATOM     41  C   UNL     1       5.163  -3.863  -0.310  1.00  0.00     0.029 A 
ATOM     42  N   UNL     1       6.926  -4.800  -1.320  1.00  0.00    -0.354 N 
ATOM     43  C   UNL     1       7.236  -4.883  -5.637  1.00  0.00     0.074 A 
ATOM     44  C   UNL     1       6.054  -4.324  -6.250  1.00  0.00     0.031 C 
ATOM     45  C   UNL     1       6.000  -4.298   0.650  1.00  0.00     0.029 A 
ATOM     46  C   UNL     1       7.162  -4.931   0.026  1.00  0.00     0.049 A 
ATOM     47  H   UNL     1       7.549  -5.126  -2.010  1.00  0.00     0.167 HD
ATOM     48  C   UNL     1       8.300  -5.347  -6.332  1.00  0.00     0.037 A 
ATOM     49  C   UNL     1       8.198  -5.499   0.672  1.00  0.00     0.037 A 
ATOM     50  C   UNL     1       9.475  -5.908  -5.725  1.00  0.00     0.049 A 
ATOM     51  C   UNL     1       9.345  -6.069  -0.128  1.00  0.00     0.074 A 
ATOM     52  C   UNL     1      10.612  -6.401  -6.339  1.00  0.00     0.029 A 
ATOM     53  N   UNL     1       9.659  -6.061  -4.358  1.00  0.00    -0.354 N 
ATOM     54  N   UNL     1       9.524  -6.093  -1.427  1.00  0.00    -0.248 NA
ATOM     55  C   UNL     1      10.443  -6.680   0.636  1.00  0.00     0.031 C 
ATOM     56  C   UNL     1      11.460  -6.904  -5.347  1.00  0.00     0.029 A 
ATOM     57  C   UNL     1      10.881  -6.663  -4.111  1.00  0.00     0.049 A 
ATOM     58  H   UNL     1       9.015  -5.782  -3.667  1.00  0.00     0.167 HD
ATOM     59  C   UNL     1      10.764  -6.687  -1.633  1.00  0.00     0.074 A 
ATOM     60  C   UNL     1      11.301  -6.991  -0.324  1.00  0.00     0.031 C 
ATOM     61  C   UNL     1      11.403  -6.956  -2.800  1.00  0.00     0.037 A 
BRANCH  48  62
ATOM     62  C   UNL     1       8.221  -5.289  -7.830  1.00  0.00     0.064 A 
ATOM     63  C   UNL     1       8.261  -4.070  -8.526  1.00  0.00     0.173 A 
ATOM     64  C   UNL     1       8.116  -6.469  -8.579  1.00  0.00     0.173 A 
ATOM     65  F   UNL     1       8.338  -2.910  -7.855  1.00  0.00    -0.203 F 
ATOM     66  C   UNL     1       8.172  -4.035  -9.915  1.00  0.00     0.198 A 
ATOM     67  C   UNL     1       8.061  -6.433  -9.970  1.00  0.00     0.198 A 
ATOM     68  F   UNL     1       8.069  -7.660  -7.964  1.00  0.00    -0.203 F 
ATOM     69  F   UNL     1       8.157  -2.858 -10.555  1.00  0.00    -0.200 F 
ATOM     70  C   UNL     1       8.081  -5.216 -10.636  1.00  0.00     0.200 A 
ATOM     71  F   UNL     1       7.984  -7.575 -10.665  1.00  0.00    -0.200 F 
ATOM     72  F   UNL     1       8.004  -5.183 -11.973  1.00  0.00    -0.200 F 
ENDBRANCH  48  62
BRANCH  49  73
ATOM     73  C   UNL     1       8.213  -5.557   2.159  1.00  0.00     0.064 A 
ATOM     74  C   UNL     1       9.157  -4.839   2.907  1.00  0.00     0.173 A 
ATOM     75  C   UNL     1       7.306  -6.365   2.861  1.00  0.00     0.173 A 
ATOM     76  F   UNL     1      10.066  -4.076   2.282  1.00  0.00    -0.203 F 
ATOM     77  C   UNL     1       9.210  -4.946   4.296  1.00  0.00     0.198 A 
ATOM     78  C   UNL     1       7.339  -6.447   4.252  1.00  0.00     0.198 A 
ATOM     79  F   UNL     1       6.387  -7.079   2.194  1.00  0.00    -0.203 F 
ATOM     80  F   UNL     1      10.161  -4.296   4.980  1.00  0.00    -0.200 F 
ATOM     81  C   UNL     1       8.297  -5.745   4.967  1.00  0.00     0.200 A 
ATOM     82  F   UNL     1       6.450  -7.215   4.897  1.00  0.00    -0.200 F 
ATOM     83  F   UNL     1       8.350  -5.851   6.302  1.00  0.00    -0.200 F 
ENDBRANCH  49  73
BRANCH  61  84
ATOM     84  C   UNL     1      12.773  -7.570  -2.711  1.00  0.00     0.064 A 
ATOM     85  C   UNL     1      12.970  -8.883  -2.256  1.00  0.00     0.173 A 
ATOM     86  C   UNL     1      13.905  -6.838  -3.105  1.00  0.00     0.173 A 
ATOM     87  F   UNL     1      11.924  -9.624  -1.861  1.00  0.00    -0.203 F 
ATOM     88  C   UNL     1      14.250  -9.422  -2.155  1.00  0.00     0.198 A 
ATOM     89  C   UNL     1      15.179  -7.394  -3.038  1.00  0.00     0.198 A 
ATOM     90  F   UNL     1      13.774  -5.583  -3.562  1.00  0.00    -0.203 F 
ATOM     91  F   UNL     1      14.418 -10.653  -1.652  1.00  0.00    -0.200 F 
ATOM     92  C   UNL     1      15.352  -8.679  -2.550  1.00  0.00     0.200 A 
ATOM     93  F   UNL     1      16.241  -6.681  -3.440  1.00  0.00    -0.200 F 
ATOM     94  F   UNL     1      16.584  -9.199  -2.451  1.00  0.00    -0.200 F 
ENDBRANCH  61  84
ENDBRANCH  35  36
ENDBRANCH  28  30
ENDBRANCH  27  28
ENDBRANCH  26  27
ENDBRANCH  25  26
ENDBRANCH  24  25
ENDBRANCH  23  24
ENDBRANCH   1  23
TORSDOF 21
