REMARK SMILES C[C@H]1[C@@H](C(=O)OCCOCCOCCOC(=O)c2ccc(-c3c4nc(c(-c5c(F)c(F)c(F)c(F)c5F)c5ccc([nH]5)c(-c5c(F)c(F)c(F)c(F)c5F)c5nc(c(-c6c(F)c(F)c(F)c(F)c6F)c6ccc3[nH]6)C=C5)C=C4)cc2)CCN1C(=O)NC1CCCCC1
REMARK SMILES IDX 10 1 9 2 8 3 7 4 6 5 4 6 5 7 3 8 1 9 2 10 83 11 81 12 82 13
REMARK SMILES IDX 84 14 85 15 86 16 87 18 88 19 92 20 89 21 91 22 90 23 11 24
REMARK SMILES IDX 12 25 13 26 14 27 15 28 16 29 17 30 18 31 19 32 80 33 20 34
REMARK SMILES IDX 79 35 21 36 22 37 23 38 73 39 24 40 78 41 72 42 74 43 25 44
REMARK SMILES IDX 77 45 71 46 70 47 26 49 58 50 38 51 57 52 39 53 42 54 56 55
REMARK SMILES IDX 75 56 40 57 41 58 55 60 76 61 43 62 27 63 28 64 36 65 29 66
REMARK SMILES IDX 30 67 34 68 37 69 31 70 32 71 35 72 33 73 59 74 60 75 68 76
REMARK SMILES IDX 61 77 62 78 66 79 69 80 63 81 64 82 67 83 65 84 44 85 45 86
REMARK SMILES IDX 53 87 46 88 47 89 51 90 54 91 48 92 49 93 52 94 50 95
REMARK H PARENT 86 17 74 48 42 59
REMARK Flexibility Score: inf
ROOT
ATOM      1  C   UNL     1      -0.575   1.623  -3.775  1.00  0.00     0.188 C 
ENDROOT
BRANCH   1   2
ATOM      2  O   UNL     1       0.268   2.507  -4.491  1.00  0.00    -0.376 OA
BRANCH   2   3
ATOM      3  C   UNL     1       1.523   2.890  -3.943  1.00  0.00     0.202 C 
BRANCH   3   4
ATOM      4  C   UNL     1       1.532   3.540  -2.560  1.00  0.00     0.261 C 
BRANCH   4   5
ATOM      5  O   UNL     1       1.198   2.583  -1.544  1.00  0.00    -0.463 OA
BRANCH   5   6
ATOM      6  C   UNL     1       0.127   2.810  -0.758  1.00  0.00     0.311 C 
ATOM      7  O   UNL     1      -0.584   3.806  -0.826  1.00  0.00    -0.252 OA
BRANCH   6   8
ATOM      8  C   UNL     1      -0.158   1.678   0.208  1.00  0.00     0.123 C 
ATOM      9  C   UNL     1       2.073   0.337  -0.462  1.00  0.00     0.032 C 
ATOM     10  C   UNL     1       0.860   0.553   0.458  1.00  0.00     0.098 C 
ATOM     11  N   UNL     1       0.111  -0.677   0.669  1.00  0.00    -0.321 N 
ATOM     12  C   UNL     1      -1.498   0.979  -0.007  1.00  0.00     0.039 C 
ATOM     13  C   UNL     1      -1.260  -0.508   0.225  1.00  0.00     0.122 C 
BRANCH  11  14
ATOM     14  C   UNL     1       0.472  -1.889   1.179  1.00  0.00     0.317 C 
ATOM     15  O   UNL     1      -0.304  -2.850   1.083  1.00  0.00    -0.249 OA
ATOM     16  N   UNL     1       1.617  -2.165   1.836  1.00  0.00    -0.335 N 
ATOM     17  H   UNL     1       1.582  -3.097   2.150  1.00  0.00     0.165 HD
BRANCH  16  18
ATOM     18  C   UNL     1       2.913  -1.570   2.260  1.00  0.00     0.083 C 
ATOM     19  C   UNL     1       2.855  -0.092   2.589  1.00  0.00     0.025 C 
ATOM     20  C   UNL     1       3.475  -2.318   3.488  1.00  0.00     0.025 C 
ATOM     21  C   UNL     1       4.046   0.572   3.225  1.00  0.00     0.002 C 
ATOM     22  C   UNL     1       4.731  -1.646   4.065  1.00  0.00     0.002 C 
ATOM     23  C   UNL     1       4.491  -0.187   4.439  1.00  0.00     0.000 C 
ENDBRANCH  16  18
ENDBRANCH  11  14
ENDBRANCH   6   8
ENDBRANCH   5   6
ENDBRANCH   4   5
ENDBRANCH   3   4
ENDBRANCH   2   3
ENDBRANCH   1   2
BRANCH   1  24
ATOM     24  C   UNL     1      -0.035   0.285  -3.246  1.00  0.00     0.188 C 
BRANCH  24  25
ATOM     25  O   UNL     1       1.153  -0.293  -3.743  1.00  0.00    -0.376 OA
BRANCH  25  26
ATOM     26  C   UNL     1       1.318  -0.405  -5.145  1.00  0.00     0.202 C 
BRANCH  26  27
ATOM     27  C   UNL     1       0.268  -1.178  -5.952  1.00  0.00     0.261 C 
BRANCH  27  28
ATOM     28  O   UNL     1      -1.083  -0.748  -5.722  1.00  0.00    -0.460 OA
BRANCH  28  29
ATOM     29  C   UNL     1      -1.871  -1.613  -5.036  1.00  0.00     0.338 C 
ATOM     30  O   UNL     1      -1.578  -2.726  -4.628  1.00  0.00    -0.246 OA
BRANCH  29  31
ATOM     31  C   UNL     1      -3.118  -0.918  -4.660  1.00  0.00     0.060 A 
ATOM     32  C   UNL     1      -3.449  -0.784  -3.301  1.00  0.00     0.016 A 
ATOM     33  C   UNL     1      -3.960  -0.412  -5.647  1.00  0.00     0.016 A 
ATOM     34  C   UNL     1      -4.626  -0.140  -2.922  1.00  0.00     0.010 A 
ATOM     35  C   UNL     1      -5.158   0.191  -5.270  1.00  0.00     0.010 A 
ATOM     36  C   UNL     1      -5.506   0.311  -3.910  1.00  0.00    -0.014 A 
BRANCH  36  37
ATOM     37  C   UNL     1      -6.894   0.700  -3.574  1.00  0.00     0.031 A 
ATOM     38  C   UNL     1      -7.964  -0.337  -3.748  1.00  0.00     0.074 A 
ATOM     39  C   UNL     1      -7.206   1.950  -3.197  1.00  0.00     0.049 A 
ATOM     40  N   UNL     1      -9.262  -0.196  -3.798  1.00  0.00    -0.248 NA
ATOM     41  C   UNL     1      -7.498  -1.725  -3.903  1.00  0.00     0.031 C 
ATOM     42  C   UNL     1      -6.249   3.013  -2.908  1.00  0.00     0.029 A 
ATOM     43  N   UNL     1      -8.434   2.542  -3.030  1.00  0.00    -0.354 N 
ATOM     44  C   UNL     1      -9.765  -1.469  -4.028  1.00  0.00     0.074 A 
ATOM     45  C   UNL     1      -8.636  -2.369  -4.111  1.00  0.00     0.031 C 
ATOM     46  C   UNL     1      -6.926   4.143  -2.637  1.00  0.00     0.029 A 
ATOM     47  C   UNL     1      -8.359   3.893  -2.797  1.00  0.00     0.049 A 
ATOM     48  H   UNL     1      -9.284   2.046  -3.072  1.00  0.00     0.167 HD
ATOM     49  C   UNL     1     -11.057  -1.846  -4.168  1.00  0.00     0.037 A 
ATOM     50  C   UNL     1      -9.334   4.824  -2.777  1.00  0.00     0.037 A 
ATOM     51  C   UNL     1     -12.167  -0.936  -4.084  1.00  0.00     0.049 A 
ATOM     52  C   UNL     1     -10.761   4.400  -3.036  1.00  0.00     0.074 A 
ATOM     53  C   UNL     1     -13.516  -1.208  -4.212  1.00  0.00     0.029 A 
ATOM     54  N   UNL     1     -12.049   0.428  -3.857  1.00  0.00    -0.354 N 
ATOM     55  N   UNL     1     -11.240   3.203  -3.276  1.00  0.00    -0.248 NA
ATOM     56  C   UNL     1     -11.782   5.459  -3.034  1.00  0.00     0.031 C 
ATOM     57  C   UNL     1     -14.212   0.001  -4.123  1.00  0.00     0.029 A 
ATOM     58  C   UNL     1     -13.302   1.015  -3.865  1.00  0.00     0.049 A 
ATOM     59  H   UNL     1     -11.201   0.906  -3.712  1.00  0.00     0.167 HD
ATOM     60  C   UNL     1     -12.615   3.357  -3.407  1.00  0.00     0.074 A 
ATOM     61  C   UNL     1     -12.896   4.765  -3.226  1.00  0.00     0.031 C 
ATOM     62  C   UNL     1     -13.561   2.416  -3.647  1.00  0.00     0.037 A 
BRANCH  49  63
ATOM     63  C   UNL     1     -11.331  -3.287  -4.480  1.00  0.00     0.064 A 
ATOM     64  C   UNL     1     -11.121  -4.305  -3.539  1.00  0.00     0.173 A 
ATOM     65  C   UNL     1     -11.833  -3.651  -5.739  1.00  0.00     0.173 A 
ATOM     66  F   UNL     1     -10.627  -4.013  -2.327  1.00  0.00    -0.203 F 
ATOM     67  C   UNL     1     -11.378  -5.637  -3.856  1.00  0.00     0.198 A 
ATOM     68  C   UNL     1     -12.121  -4.979  -6.041  1.00  0.00     0.198 A 
ATOM     69  F   UNL     1     -12.052  -2.717  -6.677  1.00  0.00    -0.203 F 
ATOM     70  F   UNL     1     -11.120  -6.599  -2.959  1.00  0.00    -0.200 F 
ATOM     71  C   UNL     1     -11.885  -5.971  -5.103  1.00  0.00     0.200 A 
ATOM     72  F   UNL     1     -12.624  -5.298  -7.242  1.00  0.00    -0.200 F 
ATOM     73  F   UNL     1     -12.140  -7.252  -5.403  1.00  0.00    -0.200 F 
ENDBRANCH  49  63
BRANCH  50  74
ATOM     74  C   UNL     1      -8.998   6.255  -2.547  1.00  0.00     0.064 A 
ATOM     75  C   UNL     1      -9.432   6.921  -1.393  1.00  0.00     0.173 A 
ATOM     76  C   UNL     1      -8.259   6.993  -3.484  1.00  0.00     0.173 A 
ATOM     77  F   UNL     1     -10.167   6.268  -0.480  1.00  0.00    -0.203 F 
ATOM     78  C   UNL     1      -9.159   8.273  -1.194  1.00  0.00     0.198 A 
ATOM     79  C   UNL     1      -7.958   8.337  -3.269  1.00  0.00     0.198 A 
ATOM     80  F   UNL     1      -7.824   6.408  -4.610  1.00  0.00    -0.203 F 
ATOM     81  F   UNL     1      -9.633   8.897  -0.107  1.00  0.00    -0.200 F 
ATOM     82  C   UNL     1      -8.416   8.978  -2.128  1.00  0.00     0.200 A 
ATOM     83  F   UNL     1      -7.231   9.011  -4.170  1.00  0.00    -0.200 F 
ATOM     84  F   UNL     1      -8.152  10.278  -1.936  1.00  0.00    -0.200 F 
ENDBRANCH  50  74
BRANCH  62  85
ATOM     85  C   UNL     1     -15.000   2.847  -3.651  1.00  0.00     0.064 A 
ATOM     86  C   UNL     1     -15.554   3.580  -4.709  1.00  0.00     0.173 A 
ATOM     87  C   UNL     1     -15.858   2.425  -2.623  1.00  0.00     0.173 A 
ATOM     88  F   UNL     1     -14.774   4.018  -5.710  1.00  0.00    -0.203 F 
ATOM     89  C   UNL     1     -16.914   3.880  -4.734  1.00  0.00     0.198 A 
ATOM     90  C   UNL     1     -17.221   2.699  -2.667  1.00  0.00     0.198 A 
ATOM     91  F   UNL     1     -15.378   1.712  -1.592  1.00  0.00    -0.203 F 
ATOM     92  F   UNL     1     -17.420   4.605  -5.742  1.00  0.00    -0.200 F 
ATOM     93  C   UNL     1     -17.748   3.428  -3.722  1.00  0.00     0.200 A 
ATOM     94  F   UNL     1     -18.027   2.243  -1.698  1.00  0.00    -0.200 F 
ATOM     95  F   UNL     1     -19.061   3.694  -3.763  1.00  0.00    -0.200 F 
ENDBRANCH  62  85
ENDBRANCH  36  37
ENDBRANCH  29  31
ENDBRANCH  28  29
ENDBRANCH  27  28
ENDBRANCH  26  27
ENDBRANCH  25  26
ENDBRANCH  24  25
ENDBRANCH   1  24
TORSDOF 19
