REMARK SMILES Cc1cc(/C=C2/C(=O)NC(=S)N=C2OCCOCCOCCOC(=O)c2ccc(-c3c4nc(c(-c5c(F)c(F)c(F)c(F)c5F)c5ccc([nH]5)c(-c5c(F)c(F)c(F)c(F)c5F)c5nc(c(-c6c(F)c(F)c(F)c(F)c6F)c6ccc3[nH]6)C=C5)C=C4)cc2)c(C)n1-c1cccc(C(=O)[O-])c1
REMARK SMILES IDX 18 1 17 2 16 3 15 4 14 5 13 6 5 7 6 8 7 9 8 10 9 11 12 12
REMARK SMILES IDX 10 13 11 15 4 16 1 17 2 18 3 19 91 20 89 21 90 22 92 23
REMARK SMILES IDX 93 24 100 25 94 26 96 27 95 28 97 29 98 30 99 31 19 32 20 33
REMARK SMILES IDX 21 34 22 35 23 36 24 37 25 38 26 39 27 40 88 41 28 42 87 43
REMARK SMILES IDX 29 44 30 45 31 46 81 47 32 48 86 49 80 50 82 51 33 52 85 53
REMARK SMILES IDX 79 54 78 55 34 57 66 58 46 59 65 60 47 61 50 62 64 63 83 64
REMARK SMILES IDX 48 65 49 66 63 68 84 69 51 70 35 71 36 72 44 73 37 74 38 75
REMARK SMILES IDX 42 76 45 77 39 78 40 79 43 80 41 81 67 82 68 83 76 84 69 85
REMARK SMILES IDX 70 86 74 87 77 88 71 89 72 90 75 91 73 92 52 93 53 94 61 95
REMARK SMILES IDX 54 96 55 97 59 98 62 99 56 100 57 101 60 102 58 103
REMARK H PARENT 9 14 82 56 50 67
REMARK Flexibility Score: inf
ROOT
ATOM      1  C   UNL     1      -0.078  -6.202  -4.897  1.00  0.00     0.188 C 
ENDROOT
BRANCH   1   2
ATOM      2  O   UNL     1      -1.188  -5.950  -5.746  1.00  0.00    -0.376 OA
BRANCH   2   3
ATOM      3  C   UNL     1      -2.112  -4.934  -5.319  1.00  0.00     0.201 C 
BRANCH   3   4
ATOM      4  C   UNL     1      -3.020  -5.191  -4.077  1.00  0.00     0.260 C 
BRANCH   4   5
ATOM      5  O   UNL     1      -2.353  -5.092  -2.779  1.00  0.00    -0.475 OA
BRANCH   5   6
ATOM      6  C   UNL     1      -1.767  -6.186  -2.276  1.00  0.00     0.229 C 
ATOM      7  C   UNL     1       0.097  -4.866  -0.901  1.00  0.00     0.029 C 
ATOM      8  C   UNL     1      -0.568  -5.939  -1.410  1.00  0.00     0.103 C 
ATOM      9  C   UNL     1       0.153  -7.239  -1.114  1.00  0.00     0.262 C 
ATOM     10  O   UNL     1       1.148  -7.340  -0.402  1.00  0.00    -0.269 OA
ATOM     11  N   UNL     1      -0.335  -8.355  -1.735  1.00  0.00    -0.297 N 
ATOM     12  N   UNL     1      -2.184  -7.323  -2.709  1.00  0.00    -0.184 NA
ATOM     13  C   UNL     1      -1.457  -8.445  -2.501  1.00  0.00     0.203 C 
ATOM     14  H   UNL     1       0.181  -9.185  -1.616  1.00  0.00     0.172 HD
ATOM     15  S   UNL     1      -1.818  -9.914  -3.220  1.00  0.00    -0.038 S 
BRANCH   7  16
ATOM     16  C   UNL     1       0.034  -3.418  -0.874  1.00  0.00    -0.003 A 
ATOM     17  C   UNL     1       1.380  -0.081   0.262  1.00  0.00     0.065 C 
ATOM     18  C   UNL     1       0.696  -1.271  -0.316  1.00  0.00     0.020 A 
ATOM     19  C   UNL     1       0.931  -2.619  -0.080  1.00  0.00     0.031 A 
ATOM     20  N   UNL     1      -0.391  -1.209  -1.157  1.00  0.00    -0.318 N 
ATOM     21  C   UNL     1      -0.665  -2.493  -1.620  1.00  0.00     0.027 A 
ATOM     22  C   UNL     1      -1.498  -2.644  -2.825  1.00  0.00     0.065 C 
BRANCH  20  23
ATOM     23  C   UNL     1      -1.070  -0.067  -1.664  1.00  0.00     0.046 A 
ATOM     24  C   UNL     1      -2.472  -0.062  -1.565  1.00  0.00     0.026 A 
ATOM     25  C   UNL     1      -0.414   0.765  -2.580  1.00  0.00     0.036 A 
ATOM     26  C   UNL     1      -3.229   0.726  -2.425  1.00  0.00     0.003 A 
ATOM     27  C   UNL     1      -1.185   1.557  -3.442  1.00  0.00    -0.001 A 
ATOM     28  C   UNL     1      -2.587   1.522  -3.374  1.00  0.00     0.010 A 
BRANCH  27  29
ATOM     29  C   UNL     1      -0.587   2.397  -4.526  1.00  0.00     0.072 C 
ATOM     30  O   UNL     1      -1.179   3.035  -5.324  1.00  0.00    -0.545 OA
ATOM     31  O   UNL     1       0.769   2.348  -4.508  1.00  0.00    -0.545 OA
ENDBRANCH  27  29
ENDBRANCH  20  23
ENDBRANCH   7  16
ENDBRANCH   5   6
ENDBRANCH   4   5
ENDBRANCH   3   4
ENDBRANCH   2   3
ENDBRANCH   1   2
BRANCH   1  32
ATOM     32  C   UNL     1       1.306  -5.643  -5.232  1.00  0.00     0.188 C 
BRANCH  32  33
ATOM     33  O   UNL     1       1.333  -4.302  -5.662  1.00  0.00    -0.376 OA
BRANCH  33  34
ATOM     34  C   UNL     1       0.893  -4.082  -7.008  1.00  0.00     0.202 C 
BRANCH  34  35
ATOM     35  C   UNL     1       1.647  -4.809  -8.196  1.00  0.00     0.261 C 
BRANCH  35  36
ATOM     36  O   UNL     1       1.143  -6.061  -8.906  1.00  0.00    -0.460 OA
BRANCH  36  37
ATOM     37  C   UNL     1       2.026  -7.131  -9.110  1.00  0.00     0.338 C 
ATOM     38  O   UNL     1       3.023  -7.234  -8.393  1.00  0.00    -0.246 OA
BRANCH  37  39
ATOM     39  C   UNL     1       1.811  -8.305 -10.227  1.00  0.00     0.060 A 
ATOM     40  C   UNL     1       1.827  -9.644  -9.847  1.00  0.00     0.016 A 
ATOM     41  C   UNL     1       1.898  -8.271 -11.640  1.00  0.00     0.016 A 
ATOM     42  C   UNL     1       1.945 -10.845 -10.815  1.00  0.00     0.010 A 
ATOM     43  C   UNL     1       2.190  -9.508 -12.598  1.00  0.00     0.010 A 
ATOM     44  C   UNL     1       2.386 -10.883 -12.224  1.00  0.00    -0.014 A 
BRANCH  44  45
ATOM     45  C   UNL     1       3.311 -12.213 -13.171  1.00  0.00     0.031 A 
ATOM     46  C   UNL     1       4.870 -13.168 -12.484  1.00  0.00     0.074 A 
ATOM     47  C   UNL     1       2.902 -12.615 -14.512  1.00  0.00     0.049 A 
ATOM     48  N   UNL     1       5.637 -12.768 -11.470  1.00  0.00    -0.248 NA
ATOM     49  C   UNL     1       5.217 -14.735 -11.770  1.00  0.00     0.031 C 
ATOM     50  C   UNL     1       2.297 -11.923 -15.669  1.00  0.00     0.029 A 
ATOM     51  N   UNL     1       2.927 -13.936 -15.112  1.00  0.00    -0.354 N 
ATOM     52  C   UNL     1       4.897 -13.356 -10.370  1.00  0.00     0.074 A 
ATOM     53  C   UNL     1       5.096 -14.713 -10.450  1.00  0.00     0.031 C 
ATOM     54  C   UNL     1       2.127 -12.756 -16.764  1.00  0.00     0.029 A 
ATOM     55  C   UNL     1       2.473 -14.154 -16.474  1.00  0.00     0.049 A 
ATOM     56  H   UNL     1       3.258 -14.700 -14.586  1.00  0.00     0.167 HD
ATOM     57  C   UNL     1       3.621 -12.906 -10.346  1.00  0.00     0.037 A 
ATOM     58  C   UNL     1       2.537 -15.361 -17.222  1.00  0.00     0.037 A 
ATOM     59  C   UNL     1       2.660 -14.093 -11.203  1.00  0.00     0.049 A 
ATOM     60  C   UNL     1       3.059 -16.445 -16.342  1.00  0.00     0.074 A 
ATOM     61  C   UNL     1       1.762 -15.180 -11.004  1.00  0.00     0.029 A 
ATOM     62  N   UNL     1       2.865 -14.611 -12.542  1.00  0.00    -0.354 N 
ATOM     63  N   UNL     1       4.301 -16.588 -15.998  1.00  0.00    -0.248 NA
ATOM     64  C   UNL     1       2.178 -17.493 -15.801  1.00  0.00     0.031 C 
ATOM     65  C   UNL     1       2.134 -16.348 -11.982  1.00  0.00     0.029 A 
ATOM     66  C   UNL     1       3.246 -15.946 -12.726  1.00  0.00     0.049 A 
ATOM     67  H   UNL     1       2.737 -14.023 -13.322  1.00  0.00     0.167 HD
ATOM     68  C   UNL     1       4.148 -17.168 -14.767  1.00  0.00     0.074 A 
ATOM     69  C   UNL     1       2.964 -17.971 -14.835  1.00  0.00     0.031 C 
ATOM     70  C   UNL     1       4.418 -16.273 -13.797  1.00  0.00     0.037 A 
BRANCH  57  71
ATOM     71  C   UNL     1       4.429 -11.265 -10.335  1.00  0.00     0.064 A 
ATOM     72  C   UNL     1       5.195 -11.077  -9.151  1.00  0.00     0.173 A 
ATOM     73  C   UNL     1       5.030 -10.452 -11.460  1.00  0.00     0.173 A 
ATOM     74  F   UNL     1       4.836 -11.737  -8.039  1.00  0.00    -0.203 F 
ATOM     75  C   UNL     1       6.478 -10.463  -9.165  1.00  0.00     0.198 A 
ATOM     76  C   UNL     1       6.261  -9.790 -11.420  1.00  0.00     0.198 A 
ATOM     77  F   UNL     1       4.649 -10.485 -12.746  1.00  0.00    -0.203 F 
ATOM     78  F   UNL     1       7.262 -10.573  -8.083  1.00  0.00    -0.200 F 
ATOM     79  C   UNL     1       7.016  -9.855 -10.292  1.00  0.00     0.200 A 
ATOM     80  F   UNL     1       6.761  -9.260 -12.553  1.00  0.00    -0.200 F 
ATOM     81  F   UNL     1       8.269  -9.378 -10.308  1.00  0.00    -0.200 F 
ENDBRANCH  57  71
BRANCH  58  82
ATOM     82  C   UNL     1       2.244 -16.098 -18.576  1.00  0.00     0.064 A 
ATOM     83  C   UNL     1       3.087 -17.200 -19.005  1.00  0.00     0.173 A 
ATOM     84  C   UNL     1       0.971 -16.125 -19.151  1.00  0.00     0.173 A 
ATOM     85  F   UNL     1       4.342 -17.320 -18.544  1.00  0.00    -0.203 F 
ATOM     86  C   UNL     1       2.643 -18.267 -19.815  1.00  0.00     0.198 A 
ATOM     87  C   UNL     1       0.541 -17.182 -19.999  1.00  0.00     0.198 A 
ATOM     88  F   UNL     1       0.077 -15.190 -18.812  1.00  0.00    -0.203 F 
ATOM     89  F   UNL     1       3.435 -19.329 -20.045  1.00  0.00    -0.200 F 
ATOM     90  C   UNL     1       1.358 -18.264 -20.300  1.00  0.00     0.200 A 
ATOM     91  F   UNL     1      -0.718 -17.190 -20.461  1.00  0.00    -0.200 F 
ATOM     92  F   UNL     1       0.895 -19.306 -21.010  1.00  0.00    -0.200 F 
ENDBRANCH  58  82
BRANCH  70  93
ATOM     93  C   UNL     1       5.851 -15.398 -14.321  1.00  0.00     0.064 A 
ATOM     94  C   UNL     1       5.954 -14.459 -15.402  1.00  0.00     0.173 A 
ATOM     95  C   UNL     1       7.149 -15.689 -13.818  1.00  0.00     0.173 A 
ATOM     96  F   UNL     1       4.907 -14.022 -16.076  1.00  0.00    -0.203 F 
ATOM     97  C   UNL     1       7.128 -13.908 -15.936  1.00  0.00     0.198 A 
ATOM     98  C   UNL     1       8.345 -15.083 -14.314  1.00  0.00     0.198 A 
ATOM     99  F   UNL     1       7.299 -16.550 -12.801  1.00  0.00    -0.203 F 
ATOM    100  F   UNL     1       7.047 -13.091 -17.000  1.00  0.00    -0.200 F 
ATOM    101  C   UNL     1       8.335 -14.223 -15.395  1.00  0.00     0.200 A 
ATOM    102  F   UNL     1       9.523 -15.356 -13.736  1.00  0.00    -0.200 F 
ATOM    103  F   UNL     1       9.461 -13.720 -15.921  1.00  0.00    -0.200 F 
ENDBRANCH  70  93
ENDBRANCH  44  45
ENDBRANCH  37  39
ENDBRANCH  36  37
ENDBRANCH  35  36
ENDBRANCH  34  35
ENDBRANCH  33  34
ENDBRANCH  32  33
ENDBRANCH   1  32
TORSDOF 19
