REMARK SMILES COc1ccc(N2C(=O)/C(=C/c3c(C(=O)OCCOCCOCCOC(=O)c4ccc(-c5c6nc(c(-c7c(F)c(F)c(F)c(F)c7F)c7ccc([nH]7)c(-c7c(F)c(F)c(F)c(F)c7F)c7nc(c(-c8c(F)c(F)c(F)c(F)c8F)c8ccc5[nH]8)C=C7)C=C6)cc4)[nH]c4cc(OC)ccc34)SC2=S)cc1
REMARK SMILES IDX 20 1 19 2 18 3 17 4 16 5 14 6 15 7 13 8 12 9 99 10 91 11
REMARK SMILES IDX 92 12 98 13 93 15 97 16 94 17 11 18 7 19 8 20 101 21 9 22
REMARK SMILES IDX 10 23 100 24 102 25 6 26 3 27 4 28 104 29 5 30 103 31 2 32
REMARK SMILES IDX 1 33 95 34 96 35 21 36 22 37 23 38 24 39 25 40 26 41 27 42
REMARK SMILES IDX 28 43 29 44 90 45 30 46 89 47 31 48 32 49 33 50 83 51 34 52
REMARK SMILES IDX 88 53 82 54 84 55 35 56 87 57 81 58 80 59 36 61 68 62 48 63
REMARK SMILES IDX 67 64 49 65 52 66 66 67 85 68 50 69 51 70 65 72 86 73 53 74
REMARK SMILES IDX 37 75 38 76 46 77 39 78 40 79 44 80 47 81 41 82 42 83 45 84
REMARK SMILES IDX 43 85 69 86 70 87 78 88 71 89 72 90 76 91 79 92 73 93 74 94
REMARK SMILES IDX 77 95 75 96 54 97 55 98 63 99 56 100 57 101 61 102 64 103
REMARK SMILES IDX 58 104 59 105 62 106 60 107
REMARK H PARENT 91 14 84 60 52 71
REMARK Flexibility Score: inf
ROOT
ATOM      1  C   UNL     1       3.863  -4.556   9.895  1.00  0.00     0.188 C 
ENDROOT
BRANCH   1   2
ATOM      2  O   UNL     1       4.650  -3.371   9.873  1.00  0.00    -0.376 OA
BRANCH   2   3
ATOM      3  C   UNL     1       4.952  -2.859   8.562  1.00  0.00     0.202 C 
BRANCH   3   4
ATOM      4  C   UNL     1       5.986  -3.669   7.759  1.00  0.00     0.261 C 
BRANCH   4   5
ATOM      5  O   UNL     1       5.360  -4.834   7.184  1.00  0.00    -0.459 OA
BRANCH   5   6
ATOM      6  C   UNL     1       6.071  -5.981   7.309  1.00  0.00     0.355 C 
ATOM      7  O   UNL     1       7.292  -6.028   7.403  1.00  0.00    -0.244 OA
BRANCH   6   8
ATOM      8  C   UNL     1       5.202  -7.065   7.702  1.00  0.00     0.133 A 
ATOM      9  C   UNL     1       4.051  -7.684   7.207  1.00  0.00     0.016 A 
ATOM     10  C   UNL     1       3.751  -8.783   8.110  1.00  0.00     0.008 A 
ATOM     11  N   UNL     1       5.502  -7.676   8.899  1.00  0.00    -0.348 N 
ATOM     12  C   UNL     1       4.629  -8.680   9.190  1.00  0.00     0.050 A 
ATOM     13  C   UNL     1       2.823  -9.852   8.151  1.00  0.00     0.015 A 
ATOM     14  H   UNL     1       6.257  -7.418   9.476  1.00  0.00     0.167 HD
ATOM     15  C   UNL     1       4.591  -9.501  10.322  1.00  0.00     0.073 A 
ATOM     16  C   UNL     1       2.809 -10.736   9.255  1.00  0.00     0.047 A 
ATOM     17  C   UNL     1       3.678 -10.549  10.327  1.00  0.00     0.120 A 
BRANCH   9  18
ATOM     18  C   UNL     1       3.367  -7.357   5.968  1.00  0.00     0.032 C 
ATOM     19  N   UNL     1       1.736  -4.474   4.390  1.00  0.00    -0.261 N 
ATOM     20  C   UNL     1       2.100  -5.825   4.347  1.00  0.00     0.270 C 
ATOM     21  C   UNL     1       1.988  -3.807   5.576  1.00  0.00     0.152 C 
ATOM     22  O   UNL     1       2.000  -6.596   3.403  1.00  0.00    -0.268 OA
ATOM     23  C   UNL     1       2.677  -6.234   5.682  1.00  0.00     0.081 C 
ATOM     24  S   UNL     1       2.330  -4.989   6.800  1.00  0.00    -0.054 SA
ATOM     25  S   UNL     1       2.071  -2.156   5.864  1.00  0.00    -0.051 S 
BRANCH  19  26
ATOM     26  C   UNL     1       1.189  -3.762   3.289  1.00  0.00     0.051 A 
ATOM     27  C   UNL     1       0.415  -1.661   1.586  1.00  0.00     0.119 A 
ATOM     28  C   UNL     1      -0.429  -2.080   2.614  1.00  0.00     0.048 A 
ATOM     29  C   UNL     1       1.615  -2.345   1.366  1.00  0.00     0.048 A 
ATOM     30  C   UNL     1      -0.049  -3.122   3.458  1.00  0.00     0.030 A 
ATOM     31  C   UNL     1       2.000  -3.405   2.208  1.00  0.00     0.030 A 
BRANCH  27  32
ATOM     32  O   UNL     1      -0.036  -0.564   0.907  1.00  0.00    -0.497 OA
ATOM     33  C   UNL     1       0.798  -0.040  -0.116  1.00  0.00     0.278 C 
ENDBRANCH  27  32
ENDBRANCH  19  26
ENDBRANCH   9  18
BRANCH  17  34
ATOM     34  O   UNL     1       3.632 -11.303  11.469  1.00  0.00    -0.497 OA
ATOM     35  C   UNL     1       3.955 -12.673  11.239  1.00  0.00     0.278 C 
ENDBRANCH  17  34
ENDBRANCH   6   8
ENDBRANCH   5   6
ENDBRANCH   4   5
ENDBRANCH   3   4
ENDBRANCH   2   3
ENDBRANCH   1   2
BRANCH   1  36
ATOM     36  C   UNL     1       2.343  -4.434  10.090  1.00  0.00     0.188 C 
BRANCH  36  37
ATOM     37  O   UNL     1       1.630  -3.447   9.363  1.00  0.00    -0.376 OA
BRANCH  37  38
ATOM     38  C   UNL     1       1.763  -2.086   9.769  1.00  0.00     0.202 C 
BRANCH  38  39
ATOM     39  C   UNL     1       1.282  -1.765  11.185  1.00  0.00     0.261 C 
BRANCH  39  40
ATOM     40  O   UNL     1       2.270  -2.185  12.144  1.00  0.00    -0.460 OA
BRANCH  40  41
ATOM     41  C   UNL     1       1.846  -3.075  13.071  1.00  0.00     0.338 C 
ATOM     42  O   UNL     1       0.700  -3.424  13.299  1.00  0.00    -0.246 OA
BRANCH  41  43
ATOM     43  C   UNL     1       3.022  -3.780  13.615  1.00  0.00     0.060 A 
ATOM     44  C   UNL     1       3.014  -5.184  13.599  1.00  0.00     0.016 A 
ATOM     45  C   UNL     1       4.101  -3.080  14.156  1.00  0.00     0.016 A 
ATOM     46  C   UNL     1       4.063  -5.893  14.175  1.00  0.00     0.010 A 
ATOM     47  C   UNL     1       5.136  -3.791  14.766  1.00  0.00     0.010 A 
ATOM     48  C   UNL     1       5.095  -5.195  14.813  1.00  0.00    -0.014 A 
BRANCH  48  49
ATOM     49  C   UNL     1       5.992  -5.927  15.733  1.00  0.00     0.031 A 
ATOM     50  C   UNL     1       5.542  -6.108  17.156  1.00  0.00     0.074 A 
ATOM     51  C   UNL     1       7.165  -6.427  15.314  1.00  0.00     0.049 A 
ATOM     52  N   UNL     1       6.146  -6.703  18.151  1.00  0.00    -0.248 NA
ATOM     53  C   UNL     1       4.226  -5.541  17.502  1.00  0.00     0.031 C 
ATOM     54  C   UNL     1       7.687  -6.335  13.954  1.00  0.00     0.029 A 
ATOM     55  N   UNL     1       8.132  -7.108  16.006  1.00  0.00    -0.354 N 
ATOM     56  C   UNL     1       5.283  -6.593  19.232  1.00  0.00     0.074 A 
ATOM     57  C   UNL     1       4.125  -5.852  18.784  1.00  0.00     0.031 C 
ATOM     58  C   UNL     1       8.895  -6.925  13.913  1.00  0.00     0.029 A 
ATOM     59  C   UNL     1       9.232  -7.418  15.248  1.00  0.00     0.049 A 
ATOM     60  H   UNL     1       8.045  -7.352  16.956  1.00  0.00     0.167 HD
ATOM     61  C   UNL     1       5.439  -7.071  20.488  1.00  0.00     0.037 A 
ATOM     62  C   UNL     1      10.384  -8.016  15.607  1.00  0.00     0.037 A 
ATOM     63  C   UNL     1       6.603  -7.781  20.941  1.00  0.00     0.049 A 
ATOM     64  C   UNL     1      10.566  -8.476  17.030  1.00  0.00     0.074 A 
ATOM     65  C   UNL     1       6.865  -8.305  22.194  1.00  0.00     0.029 A 
ATOM     66  N   UNL     1       7.711  -8.052  20.152  1.00  0.00    -0.354 N 
ATOM     67  N   UNL     1       9.733  -8.397  18.040  1.00  0.00    -0.248 NA
ATOM     68  C   UNL     1      11.849  -9.111  17.361  1.00  0.00     0.031 C 
ATOM     69  C   UNL     1       8.149  -8.861  22.173  1.00  0.00     0.029 A 
ATOM     70  C   UNL     1       8.669  -8.718  20.896  1.00  0.00     0.049 A 
ATOM     71  H   UNL     1       7.802  -7.807  19.203  1.00  0.00     0.167 HD
ATOM     72  C   UNL     1      10.379  -8.990  19.117  1.00  0.00     0.074 A 
ATOM     73  C   UNL     1      11.670  -9.436  18.634  1.00  0.00     0.031 C 
ATOM     74  C   UNL     1       9.946  -9.152  20.391  1.00  0.00     0.037 A 
BRANCH  61  75
ATOM     75  C   UNL     1       4.329  -6.814  21.459  1.00  0.00     0.064 A 
ATOM     76  C   UNL     1       3.117  -7.517  21.388  1.00  0.00     0.173 A 
ATOM     77  C   UNL     1       4.479  -5.858  22.474  1.00  0.00     0.173 A 
ATOM     78  F   UNL     1       2.920  -8.425  20.421  1.00  0.00    -0.203 F 
ATOM     79  C   UNL     1       2.087  -7.258  22.287  1.00  0.00     0.198 A 
ATOM     80  C   UNL     1       3.454  -5.617  23.385  1.00  0.00     0.198 A 
ATOM     81  F   UNL     1       5.617  -5.156  22.580  1.00  0.00    -0.203 F 
ATOM     82  F   UNL     1       0.922  -7.911  22.176  1.00  0.00    -0.200 F 
ATOM     83  C   UNL     1       2.257  -6.312  23.287  1.00  0.00     0.200 A 
ATOM     84  F   UNL     1       3.621  -4.705  24.353  1.00  0.00    -0.200 F 
ATOM     85  F   UNL     1       1.265  -6.063  24.153  1.00  0.00    -0.200 F 
ENDBRANCH  61  75
BRANCH  62  86
ATOM     86  C   UNL     1      11.461  -8.212  14.604  1.00  0.00     0.064 A 
ATOM     87  C   UNL     1      11.777  -9.490  14.125  1.00  0.00     0.173 A 
ATOM     88  C   UNL     1      12.208  -7.128  14.121  1.00  0.00     0.173 A 
ATOM     89  F   UNL     1      11.107 -10.559  14.578  1.00  0.00    -0.203 F 
ATOM     90  C   UNL     1      12.812  -9.678  13.210  1.00  0.00     0.198 A 
ATOM     91  C   UNL     1      13.227  -7.314  13.190  1.00  0.00     0.198 A 
ATOM     92  F   UNL     1      11.945  -5.886  14.554  1.00  0.00    -0.203 F 
ATOM     93  F   UNL     1      13.121 -10.915  12.799  1.00  0.00    -0.200 F 
ATOM     94  C   UNL     1      13.532  -8.590  12.741  1.00  0.00     0.200 A 
ATOM     95  F   UNL     1      13.917  -6.260  12.734  1.00  0.00    -0.200 F 
ATOM     96  F   UNL     1      14.528  -8.773  11.862  1.00  0.00    -0.200 F 
ENDBRANCH  62  86
BRANCH  74  97
ATOM     97  C   UNL     1      10.865  -9.860  21.341  1.00  0.00     0.064 A 
ATOM     98  C   UNL     1      12.008  -9.233  21.859  1.00  0.00     0.173 A 
ATOM     99  C   UNL     1      10.579 -11.166  21.765  1.00  0.00     0.173 A 
ATOM    100  F   UNL     1      12.329  -7.990  21.471  1.00  0.00    -0.203 F 
ATOM    101  C   UNL     1      12.846  -9.899  22.749  1.00  0.00     0.198 A 
ATOM    102  C   UNL     1      11.406 -11.819  22.675  1.00  0.00     0.198 A 
ATOM    103  F   UNL     1       9.493 -11.805  21.304  1.00  0.00    -0.203 F 
ATOM    104  F   UNL     1      13.957  -9.298  23.197  1.00  0.00    -0.200 F 
ATOM    105  C   UNL     1      12.541 -11.188  23.160  1.00  0.00     0.200 A 
ATOM    106  F   UNL     1      11.105 -13.061  23.079  1.00  0.00    -0.200 F 
ATOM    107  F   UNL     1      13.348 -11.827  24.018  1.00  0.00    -0.200 F 
ENDBRANCH  74  97
ENDBRANCH  48  49
ENDBRANCH  41  43
ENDBRANCH  40  41
ENDBRANCH  39  40
ENDBRANCH  38  39
ENDBRANCH  37  38
ENDBRANCH  36  37
ENDBRANCH   1  36
TORSDOF 21
