REMARK SMILES CNC(=O)[C@H](C)S(=O)(=O)c1cc(C(=O)OCCOCCOCCOC(=O)c2ccc(-c3c4nc(c(-c5c(F)c(F)c(F)c(F)c5F)c5ccc([nH]5)c(-c5c(F)c(F)c(F)c(F)c5F)c5nc(c(-c6c(F)c(F)c(F)c(F)c6F)c6ccc3[nH]6)C=C5)C=C4)cc2)c(C)cc1C
REMARK SMILES IDX 19 1 18 2 17 3 16 4 15 5 13 6 14 7 12 8 10 9 11 10 93 11
REMARK SMILES IDX 92 12 94 13 90 14 91 15 7 16 8 17 9 18 5 19 6 20 3 21 1 22
REMARK SMILES IDX 2 23 4 25 20 26 21 27 22 28 23 29 24 30 25 31 26 32 27 33
REMARK SMILES IDX 28 34 89 35 29 36 88 37 30 38 31 39 32 40 82 41 33 42 87 43
REMARK SMILES IDX 81 44 83 45 34 46 86 47 80 48 79 49 35 51 67 52 47 53 66 54
REMARK SMILES IDX 48 55 51 56 65 57 84 58 49 59 50 60 64 62 85 63 52 64 36 65
REMARK SMILES IDX 37 66 45 67 38 68 39 69 43 70 46 71 40 72 41 73 44 74 42 75
REMARK SMILES IDX 68 76 69 77 77 78 70 79 71 80 75 81 78 82 72 83 73 84 76 85
REMARK SMILES IDX 74 86 53 87 54 88 62 89 55 90 56 91 60 92 63 93 57 94 58 95
REMARK SMILES IDX 61 96 59 97
REMARK H PARENT 2 24 83 50 51 61
REMARK Flexibility Score: inf
ROOT
ATOM      1  C   UNL     1       1.331  -2.756   5.080  1.00  0.00     0.188 C 
ENDROOT
BRANCH   1   2
ATOM      2  O   UNL     1       2.438  -3.227   5.824  1.00  0.00    -0.376 OA
BRANCH   2   3
ATOM      3  C   UNL     1       3.573  -2.395   6.010  1.00  0.00     0.202 C 
BRANCH   3   4
ATOM      4  C   UNL     1       4.060  -1.423   4.926  1.00  0.00     0.261 C 
BRANCH   4   5
ATOM      5  O   UNL     1       3.033  -0.598   4.360  1.00  0.00    -0.460 OA
BRANCH   5   6
ATOM      6  C   UNL     1       2.865  -0.704   3.022  1.00  0.00     0.338 C 
ATOM      7  O   UNL     1       3.513  -1.422   2.274  1.00  0.00    -0.246 OA
BRANCH   6   8
ATOM      8  C   UNL     1       1.636  -0.009   2.557  1.00  0.00     0.064 A 
ATOM      9  C   UNL     1      -0.325  -0.226   1.099  1.00  0.00     0.071 A 
ATOM     10  C   UNL     1       0.808  -0.776   1.719  1.00  0.00     0.036 A 
ATOM     11  C   UNL     1      -0.605   1.135   1.255  1.00  0.00    -0.032 A 
ATOM     12  C   UNL     1       0.158   1.857   2.194  1.00  0.00     0.009 A 
ATOM     13  C   UNL     1      -1.686   1.881   0.525  1.00  0.00     0.046 C 
ATOM     14  C   UNL     1       1.245   1.292   2.893  1.00  0.00    -0.036 A 
ATOM     15  C   UNL     1       1.921   2.150   3.922  1.00  0.00     0.045 C 
BRANCH   9  16
ATOM     16  S   UNL     1      -1.442  -1.382   0.315  1.00  0.00     0.190 S 
ATOM     17  O   UNL     1      -2.677  -0.690  -0.012  1.00  0.00    -0.223 OA
ATOM     18  O   UNL     1      -1.533  -2.509   1.229  1.00  0.00    -0.223 OA
BRANCH  16  19
ATOM     19  C   UNL     1      -0.699  -1.899  -1.218  1.00  0.00     0.199 C 
ATOM     20  C   UNL     1      -0.524  -0.714  -2.169  1.00  0.00     0.036 C 
BRANCH  19  21
ATOM     21  C   UNL     1       0.628  -2.575  -0.973  1.00  0.00     0.238 C 
ATOM     22  C   UNL     1      -0.349  -4.767  -0.130  1.00  0.00     0.142 C 
ATOM     23  N   UNL     1       0.703  -3.859  -0.527  1.00  0.00    -0.358 N 
ATOM     24  H   UNL     1       1.615  -4.225  -0.465  1.00  0.00     0.163 HD
ATOM     25  O   UNL     1       1.694  -1.995  -1.193  1.00  0.00    -0.274 OA
ENDBRANCH  19  21
ENDBRANCH  16  19
ENDBRANCH   9  16
ENDBRANCH   6   8
ENDBRANCH   5   6
ENDBRANCH   4   5
ENDBRANCH   3   4
ENDBRANCH   2   3
ENDBRANCH   1   2
BRANCH   1  26
ATOM     26  C   UNL     1       0.526  -1.534   5.572  1.00  0.00     0.188 C 
BRANCH  26  27
ATOM     27  O   UNL     1       1.037  -0.742   6.618  1.00  0.00    -0.376 OA
BRANCH  27  28
ATOM     28  C   UNL     1       1.023  -1.214   7.955  1.00  0.00     0.202 C 
BRANCH  28  29
ATOM     29  C   UNL     1       0.152  -2.366   8.487  1.00  0.00     0.261 C 
BRANCH  29  30
ATOM     30  O   UNL     1      -0.253  -3.377   7.563  1.00  0.00    -0.460 OA
BRANCH  30  31
ATOM     31  C   UNL     1      -1.561  -3.355   7.213  1.00  0.00     0.338 C 
ATOM     32  O   UNL     1      -2.416  -2.556   7.567  1.00  0.00    -0.246 OA
BRANCH  31  33
ATOM     33  C   UNL     1      -1.788  -4.378   6.181  1.00  0.00     0.060 A 
ATOM     34  C   UNL     1      -2.101  -3.983   4.872  1.00  0.00     0.016 A 
ATOM     35  C   UNL     1      -1.715  -5.727   6.522  1.00  0.00     0.016 A 
ATOM     36  C   UNL     1      -2.350  -4.946   3.894  1.00  0.00     0.010 A 
ATOM     37  C   UNL     1      -1.997  -6.687   5.552  1.00  0.00     0.010 A 
ATOM     38  C   UNL     1      -2.338  -6.301   4.243  1.00  0.00    -0.014 A 
BRANCH  38  39
ATOM     39  C   UNL     1      -2.878  -7.328   3.323  1.00  0.00     0.031 A 
ATOM     40  C   UNL     1      -4.303  -7.759   3.515  1.00  0.00     0.074 A 
ATOM     41  C   UNL     1      -2.108  -7.911   2.390  1.00  0.00     0.049 A 
ATOM     42  N   UNL     1      -4.943  -8.773   2.994  1.00  0.00    -0.248 NA
ATOM     43  C   UNL     1      -5.105  -6.947   4.444  1.00  0.00     0.031 C 
ATOM     44  C   UNL     1      -0.726  -7.551   2.093  1.00  0.00     0.029 A 
ATOM     45  N   UNL     1      -2.378  -8.954   1.539  1.00  0.00    -0.354 N 
ATOM     46  C   UNL     1      -6.211  -8.740   3.557  1.00  0.00     0.074 A 
ATOM     47  C   UNL     1      -6.247  -7.616   4.466  1.00  0.00     0.031 C 
ATOM     48  C   UNL     1      -0.261  -8.368   1.131  1.00  0.00     0.029 A 
ATOM     49  C   UNL     1      -1.294  -9.347   0.793  1.00  0.00     0.049 A 
ATOM     50  H   UNL     1      -3.264  -9.379   1.470  1.00  0.00     0.167 HD
ATOM     51  C   UNL     1      -7.248  -9.582   3.340  1.00  0.00     0.037 A 
ATOM     52  C   UNL     1      -1.145 -10.404  -0.031  1.00  0.00     0.037 A 
ATOM     53  C   UNL     1      -7.197 -10.702   2.439  1.00  0.00     0.049 A 
ATOM     54  C   UNL     1      -2.295 -11.368  -0.208  1.00  0.00     0.074 A 
ATOM     55  C   UNL     1      -8.192 -11.616   2.142  1.00  0.00     0.029 A 
ATOM     56  N   UNL     1      -6.083 -11.065   1.696  1.00  0.00    -0.354 N 
ATOM     57  N   UNL     1      -3.494 -11.336   0.323  1.00  0.00    -0.248 NA
ATOM     58  C   UNL     1      -2.066 -12.523  -1.089  1.00  0.00     0.031 C 
ATOM     59  C   UNL     1      -7.661 -12.567   1.266  1.00  0.00     0.029 A 
ATOM     60  C   UNL     1      -6.360 -12.201   0.956  1.00  0.00     0.049 A 
ATOM     61  H   UNL     1      -5.223 -10.585   1.695  1.00  0.00     0.167 HD
ATOM     62  C   UNL     1      -4.171 -12.437  -0.188  1.00  0.00     0.074 A 
ATOM     63  C   UNL     1      -3.251 -13.118  -1.074  1.00  0.00     0.031 C 
ATOM     64  C   UNL     1      -5.442 -12.845   0.050  1.00  0.00     0.037 A 
BRANCH  51  65
ATOM     65  C   UNL     1      -8.505  -9.351   4.125  1.00  0.00     0.064 A 
ATOM     66  C   UNL     1      -9.326  -8.236   3.901  1.00  0.00     0.173 A 
ATOM     67  C   UNL     1      -8.906 -10.273   5.105  1.00  0.00     0.173 A 
ATOM     68  F   UNL     1      -8.982  -7.316   2.987  1.00  0.00    -0.203 F 
ATOM     69  C   UNL     1     -10.484  -8.036   4.650  1.00  0.00     0.198 A 
ATOM     70  C   UNL     1     -10.082 -10.089   5.826  1.00  0.00     0.198 A 
ATOM     71  F   UNL     1      -8.159 -11.358   5.359  1.00  0.00    -0.203 F 
ATOM     72  F   UNL     1     -11.223  -6.935   4.457  1.00  0.00    -0.200 F 
ATOM     73  C   UNL     1     -10.864  -8.966   5.605  1.00  0.00     0.200 A 
ATOM     74  F   UNL     1     -10.456 -10.997   6.738  1.00  0.00    -0.200 F 
ATOM     75  F   UNL     1     -11.983  -8.777   6.319  1.00  0.00    -0.200 F 
ENDBRANCH  51  65
BRANCH  52  76
ATOM     76  C   UNL     1       0.147 -10.632  -0.734  1.00  0.00     0.064 A 
ATOM     77  C   UNL     1       0.230 -10.547  -2.131  1.00  0.00     0.173 A 
ATOM     78  C   UNL     1       1.316 -10.964  -0.033  1.00  0.00     0.173 A 
ATOM     79  F   UNL     1      -0.864 -10.256  -2.850  1.00  0.00    -0.203 F 
ATOM     80  C   UNL     1       1.425 -10.807  -2.801  1.00  0.00     0.198 A 
ATOM     81  C   UNL     1       2.518 -11.189  -0.701  1.00  0.00     0.198 A 
ATOM     82  F   UNL     1       1.294 -11.060   1.304  1.00  0.00    -0.203 F 
ATOM     83  F   UNL     1       1.460 -10.773  -4.140  1.00  0.00    -0.200 F 
ATOM     84  C   UNL     1       2.569 -11.121  -2.085  1.00  0.00     0.200 A 
ATOM     85  F   UNL     1       3.626 -11.477  -0.003  1.00  0.00    -0.200 F 
ATOM     86  F   UNL     1       3.719 -11.368  -2.728  1.00  0.00    -0.200 F 
ENDBRANCH  52  76
BRANCH  64  87
ATOM     87  C   UNL     1      -5.956 -14.033  -0.713  1.00  0.00     0.064 A 
ATOM     88  C   UNL     1      -5.533 -15.340  -0.435  1.00  0.00     0.173 A 
ATOM     89  C   UNL     1      -6.959 -13.859  -1.681  1.00  0.00     0.173 A 
ATOM     90  F   UNL     1      -4.569 -15.560   0.471  1.00  0.00    -0.203 F 
ATOM     91  C   UNL     1      -6.086 -16.428  -1.107  1.00  0.00     0.198 A 
ATOM     92  C   UNL     1      -7.533 -14.950  -2.326  1.00  0.00     0.198 A 
ATOM     93  F   UNL     1      -7.405 -12.629  -1.978  1.00  0.00    -0.203 F 
ATOM     94  F   UNL     1      -5.643 -17.666  -0.852  1.00  0.00    -0.200 F 
ATOM     95  C   UNL     1      -7.093 -16.233  -2.042  1.00  0.00     0.200 A 
ATOM     96  F   UNL     1      -8.519 -14.760  -3.213  1.00  0.00    -0.200 F 
ATOM     97  F   UNL     1      -7.639 -17.284  -2.670  1.00  0.00    -0.200 F 
ENDBRANCH  64  87
ENDBRANCH  38  39
ENDBRANCH  31  33
ENDBRANCH  30  31
ENDBRANCH  29  30
ENDBRANCH  28  29
ENDBRANCH  27  28
ENDBRANCH  26  27
ENDBRANCH   1  26
TORSDOF 20
