REMARK SMILES CCCOc1ccc(NC(=O)CCC(=O)OCCOCCOCCOC(=O)c2ccc(-c3c4nc(c(-c5c(F)c(F)c(F)c(F)c5F)c5ccc([nH]5)c(-c5c(F)c(F)c(F)c(F)c5F)c5nc(c(-c6c(F)c(F)c(F)c(F)c6F)c6ccc3[nH]6)C=C5)C=C4)cc2)cc1
REMARK SMILES IDX 18 1 17 2 16 3 14 4 15 5 13 6 12 7 10 8 9 9 11 11 8 12 5 13
REMARK SMILES IDX 6 14 92 15 7 16 91 17 4 18 3 19 2 20 1 21 19 22 20 23 21 24
REMARK SMILES IDX 22 25 23 26 24 27 25 28 26 29 27 30 28 31 29 32 90 33 30 34
REMARK SMILES IDX 89 35 31 36 32 37 33 38 83 39 34 40 88 41 82 42 84 43 35 44
REMARK SMILES IDX 87 45 81 46 80 47 36 49 68 50 48 51 67 52 49 53 52 54 66 55
REMARK SMILES IDX 85 56 50 57 51 58 65 60 86 61 53 62 37 63 38 64 46 65 39 66
REMARK SMILES IDX 40 67 44 68 47 69 41 70 42 71 45 72 43 73 69 74 70 75 78 76
REMARK SMILES IDX 71 77 72 78 76 79 79 80 73 81 74 82 77 83 75 84 54 85 55 86
REMARK SMILES IDX 63 87 56 88 57 89 61 90 64 91 58 92 59 93 62 94 60 95
REMARK H PARENT 9 10 84 48 52 59
REMARK Flexibility Score: inf
ROOT
ATOM      1  C   UNL     1      -1.130   4.650  -0.746  1.00  0.00     0.202 C 
ENDROOT
BRANCH   1   2
ATOM      2  C   UNL     1      -1.611   4.072  -2.095  1.00  0.00     0.261 C 
BRANCH   2   3
ATOM      3  O   UNL     1      -0.761   4.353  -3.212  1.00  0.00    -0.463 OA
BRANCH   3   4
ATOM      4  C   UNL     1      -0.686   5.622  -3.651  1.00  0.00     0.306 C 
ATOM      5  O   UNL     1      -1.374   6.544  -3.235  1.00  0.00    -0.252 OA
BRANCH   4   6
ATOM      6  C   UNL     1       0.383   5.764  -4.710  1.00  0.00     0.132 C 
BRANCH   6   7
ATOM      7  C   UNL     1       1.535   4.751  -4.629  1.00  0.00     0.112 C 
BRANCH   7   8
ATOM      8  C   UNL     1       1.269   3.420  -5.323  1.00  0.00     0.224 C 
ATOM      9  N   UNL     1       0.976   2.212  -4.751  1.00  0.00    -0.326 N 
ATOM     10  H   UNL     1       0.833   1.520  -5.437  1.00  0.00     0.169 HD
ATOM     11  O   UNL     1       1.304   3.421  -6.564  1.00  0.00    -0.275 OA
BRANCH   9  12
ATOM     12  C   UNL     1       0.822   1.680  -3.453  1.00  0.00     0.041 A 
ATOM     13  C   UNL     1       0.319   0.643  -0.847  1.00  0.00     0.119 A 
ATOM     14  C   UNL     1       0.947   1.845  -1.011  1.00  0.00     0.048 A 
ATOM     15  C   UNL     1       0.010  -0.096  -1.981  1.00  0.00     0.048 A 
ATOM     16  C   UNL     1       1.120   2.361  -2.302  1.00  0.00     0.030 A 
ATOM     17  C   UNL     1       0.308   0.395  -3.272  1.00  0.00     0.030 A 
BRANCH  13  18
ATOM     18  O   UNL     1      -0.156   0.248   0.363  1.00  0.00    -0.494 OA
BRANCH  18  19
ATOM     19  C   UNL     1       0.796   0.212   1.436  1.00  0.00     0.229 C 
BRANCH  19  20
ATOM     20  C   UNL     1       0.913  -1.257   1.817  1.00  0.00     0.038 C 
ATOM     21  C   UNL     1       1.829  -2.002   0.854  1.00  0.00     0.007 C 
ENDBRANCH  19  20
ENDBRANCH  18  19
ENDBRANCH  13  18
ENDBRANCH   9  12
ENDBRANCH   7   8
ENDBRANCH   6   7
ENDBRANCH   4   6
ENDBRANCH   3   4
ENDBRANCH   2   3
ENDBRANCH   1   2
BRANCH   1  22
ATOM     22  O   UNL     1       0.241   4.437  -0.400  1.00  0.00    -0.376 OA
BRANCH  22  23
ATOM     23  C   UNL     1       1.214   5.385  -0.842  1.00  0.00     0.188 C 
BRANCH  23  24
ATOM     24  C   UNL     1       2.662   4.832  -0.614  1.00  0.00     0.188 C 
BRANCH  24  25
ATOM     25  O   UNL     1       3.266   4.194  -1.741  1.00  0.00    -0.376 OA
BRANCH  25  26
ATOM     26  C   UNL     1       4.135   3.049  -1.685  1.00  0.00     0.202 C 
BRANCH  26  27
ATOM     27  C   UNL     1       4.570   2.323  -0.399  1.00  0.00     0.261 C 
BRANCH  27  28
ATOM     28  O   UNL     1       4.805   3.172   0.713  1.00  0.00    -0.460 OA
BRANCH  28  29
ATOM     29  C   UNL     1       5.716   4.152   0.500  1.00  0.00     0.338 C 
ATOM     30  O   UNL     1       6.545   4.225  -0.369  1.00  0.00    -0.246 OA
BRANCH  29  31
ATOM     31  C   UNL     1       5.243   5.267   1.343  1.00  0.00     0.060 A 
ATOM     32  C   UNL     1       5.096   6.509   0.716  1.00  0.00     0.016 A 
ATOM     33  C   UNL     1       4.766   5.042   2.641  1.00  0.00     0.016 A 
ATOM     34  C   UNL     1       4.436   7.532   1.378  1.00  0.00     0.010 A 
ATOM     35  C   UNL     1       4.169   6.086   3.333  1.00  0.00     0.010 A 
ATOM     36  C   UNL     1       4.038   7.336   2.707  1.00  0.00    -0.014 A 
BRANCH  36  37
ATOM     37  C   UNL     1       3.877   8.539   3.536  1.00  0.00     0.031 A 
ATOM     38  C   UNL     1       5.144   9.106   4.107  1.00  0.00     0.074 A 
ATOM     39  C   UNL     1       2.683   9.121   3.713  1.00  0.00     0.049 A 
ATOM     40  N   UNL     1       5.322  10.153   4.862  1.00  0.00    -0.248 NA
ATOM     41  C   UNL     1       6.390   8.390   3.768  1.00  0.00     0.031 C 
ATOM     42  C   UNL     1       1.419   8.666   3.138  1.00  0.00     0.029 A 
ATOM     43  N   UNL     1       2.350  10.235   4.435  1.00  0.00    -0.354 N 
ATOM     44  C   UNL     1       6.692  10.223   5.074  1.00  0.00     0.074 A 
ATOM     45  C   UNL     1       7.302   9.104   4.401  1.00  0.00     0.031 C 
ATOM     46  C   UNL     1       0.438   9.493   3.545  1.00  0.00     0.029 A 
ATOM     47  C   UNL     1       1.007  10.508   4.430  1.00  0.00     0.049 A 
ATOM     48  H   UNL     1       3.012  10.786   4.911  1.00  0.00     0.167 HD
ATOM     49  C   UNL     1       7.381  11.150   5.772  1.00  0.00     0.037 A 
ATOM     50  C   UNL     1       0.331  11.463   5.096  1.00  0.00     0.037 A 
ATOM     51  C   UNL     1       6.749  12.235   6.464  1.00  0.00     0.049 A 
ATOM     52  C   UNL     1       1.114  12.426   5.956  1.00  0.00     0.074 A 
ATOM     53  C   UNL     1       7.330  13.227   7.227  1.00  0.00     0.029 A 
ATOM     54  N   UNL     1       5.378  12.453   6.484  1.00  0.00    -0.354 N 
ATOM     55  N   UNL     1       2.410  12.501   6.150  1.00  0.00    -0.248 NA
ATOM     56  C   UNL     1       0.340  13.436   6.688  1.00  0.00     0.031 C 
ATOM     57  C   UNL     1       6.303  14.012   7.760  1.00  0.00     0.029 A 
ATOM     58  C   UNL     1       5.088  13.551   7.272  1.00  0.00     0.049 A 
ATOM     59  H   UNL     1       4.711  11.907   6.008  1.00  0.00     0.167 HD
ATOM     60  C   UNL     1       2.611  13.583   6.998  1.00  0.00     0.074 A 
ATOM     61  C   UNL     1       1.301  14.140   7.270  1.00  0.00     0.031 C 
ATOM     62  C   UNL     1       3.767  14.076   7.510  1.00  0.00     0.037 A 
BRANCH  49  63
ATOM     63  C   UNL     1       8.867  10.980   5.859  1.00  0.00     0.064 A 
ATOM     64  C   UNL     1       9.701  11.159   4.744  1.00  0.00     0.173 A 
ATOM     65  C   UNL     1       9.465  10.613   7.073  1.00  0.00     0.173 A 
ATOM     66  F   UNL     1       9.176  11.473   3.550  1.00  0.00    -0.203 F 
ATOM     67  C   UNL     1      11.076  10.955   4.838  1.00  0.00     0.198 A 
ATOM     68  C   UNL     1      10.842  10.442   7.171  1.00  0.00     0.198 A 
ATOM     69  F   UNL     1       8.710  10.410   8.164  1.00  0.00    -0.203 F 
ATOM     70  F   UNL     1      11.846  11.075   3.747  1.00  0.00    -0.200 F 
ATOM     71  C   UNL     1      11.646  10.606   6.053  1.00  0.00     0.200 A 
ATOM     72  F   UNL     1      11.391  10.108   8.347  1.00  0.00    -0.200 F 
ATOM     73  F   UNL     1      12.969  10.415   6.144  1.00  0.00    -0.200 F 
ENDBRANCH  49  63
BRANCH  50  74
ATOM     74  C   UNL     1      -1.150  11.541   4.997  1.00  0.00     0.064 A 
ATOM     75  C   UNL     1      -1.784  12.639   4.400  1.00  0.00     0.173 A 
ATOM     76  C   UNL     1      -1.966  10.525   5.518  1.00  0.00     0.173 A 
ATOM     77  F   UNL     1      -1.051  13.649   3.907  1.00  0.00    -0.203 F 
ATOM     78  C   UNL     1      -3.174  12.729   4.348  1.00  0.00     0.198 A 
ATOM     79  C   UNL     1      -3.355  10.601   5.438  1.00  0.00     0.198 A 
ATOM     80  F   UNL     1      -1.413   9.453   6.103  1.00  0.00    -0.203 F 
ATOM     81  F   UNL     1      -3.753  13.815   3.817  1.00  0.00    -0.200 F 
ATOM     82  C   UNL     1      -3.958  11.708   4.861  1.00  0.00     0.200 A 
ATOM     83  F   UNL     1      -4.107   9.605   5.925  1.00  0.00    -0.200 F 
ATOM     84  F   UNL     1      -5.295  11.794   4.810  1.00  0.00    -0.200 F 
ENDBRANCH  50  74
BRANCH  62  85
ATOM     85  C   UNL     1       3.669  15.299   8.375  1.00  0.00     0.064 A 
ATOM     86  C   UNL     1       3.120  15.248   9.663  1.00  0.00     0.173 A 
ATOM     87  C   UNL     1       4.186  16.523   7.925  1.00  0.00     0.173 A 
ATOM     88  F   UNL     1       2.604  14.103  10.134  1.00  0.00    -0.203 F 
ATOM     89  C   UNL     1       3.065  16.389  10.459  1.00  0.00     0.198 A 
ATOM     90  C   UNL     1       4.164  17.651   8.738  1.00  0.00     0.198 A 
ATOM     91  F   UNL     1       4.736  16.619   6.704  1.00  0.00    -0.203 F 
ATOM     92  F   UNL     1       2.488  16.331  11.668  1.00  0.00    -0.200 F 
ATOM     93  C   UNL     1       3.595  17.586  10.000  1.00  0.00     0.200 A 
ATOM     94  F   UNL     1       4.696  18.801   8.300  1.00  0.00    -0.200 F 
ATOM     95  F   UNL     1       3.551  18.679  10.773  1.00  0.00    -0.200 F 
ENDBRANCH  62  85
ENDBRANCH  36  37
ENDBRANCH  29  31
ENDBRANCH  28  29
ENDBRANCH  27  28
ENDBRANCH  26  27
ENDBRANCH  25  26
ENDBRANCH  24  25
ENDBRANCH  23  24
ENDBRANCH  22  23
ENDBRANCH   1  22
TORSDOF 23
