REMARK SMILES C[C@H](C1CC1)n1c(SCC(=O)OCCOCCOCCOC(=O)c2ccc(-c3c4nc(c(-c5c(F)c(F)c(F)c(F)c5F)c5ccc([nH]5)c(-c5c(F)c(F)c(F)c(F)c5F)c5nc(c(-c6c(F)c(F)c(F)c(F)c6F)c6ccc3[nH]6)C=C5)C=C4)cc2)nc2cc(Cl)c(Cl)cc21
REMARK SMILES IDX 16 1 15 2 14 3 13 4 12 5 10 6 11 7 9 8 8 9 7 10 6 11 95 12
REMARK SMILES IDX 87 13 88 14 94 15 89 16 92 17 90 18 93 19 91 20 2 21 1 22
REMARK SMILES IDX 3 23 4 24 5 25 17 26 18 27 19 28 20 29 21 30 22 31 23 32
REMARK SMILES IDX 24 33 25 34 86 35 26 36 85 37 27 38 28 39 29 40 79 41 30 42
REMARK SMILES IDX 84 43 78 44 80 45 31 46 83 47 77 48 76 49 32 51 64 52 44 53
REMARK SMILES IDX 63 54 45 55 48 56 62 57 81 58 46 59 47 60 61 62 82 63 49 64
REMARK SMILES IDX 33 65 34 66 42 67 35 68 36 69 40 70 43 71 37 72 38 73 41 74
REMARK SMILES IDX 39 75 65 76 66 77 74 78 67 79 68 80 72 81 75 82 69 83 70 84
REMARK SMILES IDX 73 85 71 86 50 87 51 88 59 89 52 90 53 91 57 92 60 93 54 94
REMARK SMILES IDX 55 95 58 96 56 97
REMARK H PARENT 80 50 48 61
REMARK Flexibility Score: inf
ROOT
ATOM      1  C   UNL     1       1.347  -1.948  -3.630  1.00  0.00     0.188 C 
ENDROOT
BRANCH   1   2
ATOM      2  O   UNL     1       2.040  -2.448  -4.756  1.00  0.00    -0.376 OA
BRANCH   2   3
ATOM      3  C   UNL     1       1.557  -3.679  -5.274  1.00  0.00     0.202 C 
BRANCH   3   4
ATOM      4  C   UNL     1       1.583  -4.866  -4.299  1.00  0.00     0.261 C 
BRANCH   4   5
ATOM      5  O   UNL     1       0.449  -4.826  -3.402  1.00  0.00    -0.463 OA
BRANCH   5   6
ATOM      6  C   UNL     1       0.644  -5.125  -2.088  1.00  0.00     0.316 C 
ATOM      7  O   UNL     1       1.739  -5.394  -1.592  1.00  0.00    -0.251 OA
BRANCH   6   8
ATOM      8  C   UNL     1      -0.648  -5.165  -1.280  1.00  0.00     0.200 C 
BRANCH   8   9
ATOM      9  S   UNL     1      -1.940  -4.118  -1.994  1.00  0.00    -0.076 SA
BRANCH   9  10
ATOM     10  C   UNL     1      -2.479  -2.954  -0.813  1.00  0.00     0.169 A 
ATOM     11  N   UNL     1      -1.890  -1.686  -0.565  1.00  0.00    -0.316 N 
ATOM     12  C   UNL     1      -2.982  -0.878  -0.155  1.00  0.00     0.071 A 
ATOM     13  N   UNL     1      -3.709  -3.029  -0.378  1.00  0.00    -0.222 NA
ATOM     14  C   UNL     1      -4.072  -1.759  -0.074  1.00  0.00     0.091 A 
ATOM     15  C   UNL     1      -3.271   0.480   0.117  1.00  0.00     0.050 A 
ATOM     16  C   UNL     1      -5.375  -1.301   0.229  1.00  0.00     0.052 A 
ATOM     17  C   UNL     1      -4.566   0.939   0.428  1.00  0.00     0.061 A 
ATOM     18  C   UNL     1      -5.623   0.052   0.457  1.00  0.00     0.061 A 
ATOM     19  Cl  UNL     1      -4.759   2.631   0.753  1.00  0.00    -0.083 Cl
ATOM     20  Cl  UNL     1      -7.252   0.560   0.722  1.00  0.00    -0.083 Cl
BRANCH  11  21
ATOM     21  C   UNL     1      -0.381  -1.653  -0.288  1.00  0.00     0.090 C 
ATOM     22  C   UNL     1      -0.198  -2.356   1.006  1.00  0.00     0.032 C 
BRANCH  21  23
ATOM     23  C   UNL     1       0.731  -0.747  -0.889  1.00  0.00     0.012 C 
ATOM     24  C   UNL     1       1.942   0.224  -0.759  1.00  0.00     0.006 C 
ATOM     25  C   UNL     1       2.207  -1.209  -0.686  1.00  0.00     0.006 C 
ENDBRANCH  21  23
ENDBRANCH  11  21
ENDBRANCH   9  10
ENDBRANCH   8   9
ENDBRANCH   6   8
ENDBRANCH   5   6
ENDBRANCH   4   5
ENDBRANCH   3   4
ENDBRANCH   2   3
ENDBRANCH   1   2
BRANCH   1  26
ATOM     26  C   UNL     1      -0.152  -1.628  -3.808  1.00  0.00     0.188 C 
BRANCH  26  27
ATOM     27  O   UNL     1      -0.319  -0.213  -4.007  1.00  0.00    -0.376 OA
BRANCH  27  28
ATOM     28  C   UNL     1      -1.501   0.365  -3.414  1.00  0.00     0.202 C 
BRANCH  28  29
ATOM     29  C   UNL     1      -1.171   1.600  -2.481  1.00  0.00     0.261 C 
BRANCH  29  30
ATOM     30  O   UNL     1      -0.832   1.272  -1.078  1.00  0.00    -0.460 OA
BRANCH  30  31
ATOM     31  C   UNL     1      -0.421   2.239  -0.174  1.00  0.00     0.338 C 
ATOM     32  O   UNL     1      -0.297   3.419  -0.454  1.00  0.00    -0.246 OA
BRANCH  31  33
ATOM     33  C   UNL     1       0.005   1.642   1.188  1.00  0.00     0.060 A 
ATOM     34  C   UNL     1       1.319   1.818   1.615  1.00  0.00     0.016 A 
ATOM     35  C   UNL     1      -0.741   0.774   1.983  1.00  0.00     0.016 A 
ATOM     36  C   UNL     1       1.969   0.790   2.362  1.00  0.00     0.010 A 
ATOM     37  C   UNL     1      -0.108  -0.182   2.803  1.00  0.00     0.010 A 
ATOM     38  C   UNL     1       1.279  -0.356   2.771  1.00  0.00    -0.014 A 
BRANCH  38  39
ATOM     39  C   UNL     1       1.934  -1.565   3.431  1.00  0.00     0.031 A 
ATOM     40  C   UNL     1       2.287  -1.108   4.768  1.00  0.00     0.074 A 
ATOM     41  C   UNL     1       2.248  -2.885   3.152  1.00  0.00     0.049 A 
ATOM     42  N   UNL     1       3.474  -0.707   5.063  1.00  0.00    -0.248 NA
ATOM     43  C   UNL     1       1.238  -0.775   5.735  1.00  0.00     0.031 C 
ATOM     44  C   UNL     1       2.126  -3.699   1.925  1.00  0.00     0.029 A 
ATOM     45  N   UNL     1       2.702  -3.883   4.015  1.00  0.00    -0.354 N 
ATOM     46  C   UNL     1       3.367  -0.302   6.365  1.00  0.00     0.074 A 
ATOM     47  C   UNL     1       1.961  -0.104   6.633  1.00  0.00     0.031 C 
ATOM     48  C   UNL     1       2.108  -5.024   2.182  1.00  0.00     0.029 A 
ATOM     49  C   UNL     1       2.514  -5.200   3.555  1.00  0.00     0.049 A 
ATOM     50  H   UNL     1       3.123  -3.681   4.882  1.00  0.00     0.167 HD
ATOM     51  C   UNL     1       4.386  -0.568   7.214  1.00  0.00     0.037 A 
ATOM     52  C   UNL     1       2.874  -6.394   4.096  1.00  0.00     0.037 A 
ATOM     53  C   UNL     1       5.595  -0.954   6.532  1.00  0.00     0.049 A 
ATOM     54  C   UNL     1       4.117  -6.135   4.836  1.00  0.00     0.074 A 
ATOM     55  C   UNL     1       6.460  -0.332   5.654  1.00  0.00     0.029 A 
ATOM     56  N   UNL     1       5.782  -2.305   6.387  1.00  0.00    -0.354 N 
ATOM     57  N   UNL     1       5.250  -5.853   4.257  1.00  0.00    -0.248 NA
ATOM     58  C   UNL     1       4.055  -5.888   6.268  1.00  0.00     0.031 C 
ATOM     59  C   UNL     1       7.040  -1.359   4.854  1.00  0.00     0.029 A 
ATOM     60  C   UNL     1       6.538  -2.587   5.274  1.00  0.00     0.049 A 
ATOM     61  H   UNL     1       5.422  -2.986   7.001  1.00  0.00     0.167 HD
ATOM     62  C   UNL     1       5.832  -4.956   5.125  1.00  0.00     0.074 A 
ATOM     63  C   UNL     1       5.173  -5.173   6.404  1.00  0.00     0.031 C 
ATOM     64  C   UNL     1       6.523  -3.889   4.641  1.00  0.00     0.037 A 
BRANCH  51  65
ATOM     65  C   UNL     1       4.077  -0.922   8.624  1.00  0.00     0.064 A 
ATOM     66  C   UNL     1       4.978  -0.613   9.640  1.00  0.00     0.173 A 
ATOM     67  C   UNL     1       2.961  -1.716   8.976  1.00  0.00     0.173 A 
ATOM     68  F   UNL     1       6.111   0.047   9.361  1.00  0.00    -0.203 F 
ATOM     69  C   UNL     1       4.741  -1.023  10.951  1.00  0.00     0.198 A 
ATOM     70  C   UNL     1       2.683  -2.051  10.290  1.00  0.00     0.198 A 
ATOM     71  F   UNL     1       2.159  -2.250   8.041  1.00  0.00    -0.203 F 
ATOM     72  F   UNL     1       5.654  -0.775  11.898  1.00  0.00    -0.200 F 
ATOM     73  C   UNL     1       3.581  -1.712  11.280  1.00  0.00     0.200 A 
ATOM     74  F   UNL     1       1.572  -2.743  10.577  1.00  0.00    -0.200 F 
ATOM     75  F   UNL     1       3.352  -2.094  12.542  1.00  0.00    -0.200 F 
ENDBRANCH  51  65
BRANCH  52  76
ATOM     76  C   UNL     1       2.284  -7.761   4.012  1.00  0.00     0.064 A 
ATOM     77  C   UNL     1       2.994  -8.896   4.459  1.00  0.00     0.173 A 
ATOM     78  C   UNL     1       0.903  -7.942   3.811  1.00  0.00     0.173 A 
ATOM     79  F   UNL     1       4.314  -8.829   4.680  1.00  0.00    -0.203 F 
ATOM     80  C   UNL     1       2.350 -10.101   4.771  1.00  0.00     0.198 A 
ATOM     81  C   UNL     1       0.262  -9.149   4.121  1.00  0.00     0.198 A 
ATOM     82  F   UNL     1       0.138  -6.921   3.399  1.00  0.00    -0.203 F 
ATOM     83  F   UNL     1       3.054 -11.123   5.281  1.00  0.00    -0.200 F 
ATOM     84  C   UNL     1       0.980 -10.217   4.627  1.00  0.00     0.200 A 
ATOM     85  F   UNL     1      -1.070  -9.247   3.996  1.00  0.00    -0.200 F 
ATOM     86  F   UNL     1       0.351 -11.337   5.013  1.00  0.00    -0.200 F 
ENDBRANCH  52  76
BRANCH  64  87
ATOM     87  C   UNL     1       7.162  -4.040   3.289  1.00  0.00     0.064 A 
ATOM     88  C   UNL     1       6.466  -4.153   2.075  1.00  0.00     0.173 A 
ATOM     89  C   UNL     1       8.562  -4.001   3.227  1.00  0.00     0.173 A 
ATOM     90  F   UNL     1       5.128  -4.136   2.042  1.00  0.00    -0.203 F 
ATOM     91  C   UNL     1       7.146  -4.245   0.859  1.00  0.00     0.198 A 
ATOM     92  C   UNL     1       9.237  -4.061   2.011  1.00  0.00     0.198 A 
ATOM     93  F   UNL     1       9.280  -3.870   4.354  1.00  0.00    -0.203 F 
ATOM     94  F   UNL     1       6.460  -4.362  -0.288  1.00  0.00    -0.200 F 
ATOM     95  C   UNL     1       8.530  -4.190   0.828  1.00  0.00     0.200 A 
ATOM     96  F   UNL     1      10.574  -3.972   1.987  1.00  0.00    -0.200 F 
ATOM     97  F   UNL     1       9.182  -4.240  -0.343  1.00  0.00    -0.200 F 
ENDBRANCH  64  87
ENDBRANCH  38  39
ENDBRANCH  31  33
ENDBRANCH  30  31
ENDBRANCH  29  30
ENDBRANCH  28  29
ENDBRANCH  27  28
ENDBRANCH  26  27
ENDBRANCH   1  26
TORSDOF 21
