REMARK SMILES [NH3+][C@H]1CCCN(C(=O)NC[C@H]2CC[C@@H](C(=O)OCCOCCOCCOC(=O)c3ccc(-c4c5nc(c(-c6c(F)c(F)c(F)c(F)c6F)c6ccc([nH]6)c(-c6c(F)c(F)c(F)c(F)c6F)c6nc(c(-c7c(F)c(F)c(F)c(F)c7F)c7ccc4[nH]7)C=C6)C=C5)cc3)CC2)C1
REMARK SMILES IDX 21 1 20 2 19 3 18 4 17 5 15 6 16 7 14 8 11 9 12 10 93 11
REMARK SMILES IDX 13 12 92 13 10 14 9 15 7 16 8 17 6 19 2 20 3 21 94 22 4 23
REMARK SMILES IDX 5 24 1 25 22 29 23 30 24 31 25 32 26 33 27 34 28 35 29 36
REMARK SMILES IDX 30 37 91 38 31 39 90 40 32 41 33 42 34 43 84 44 35 45 89 46
REMARK SMILES IDX 83 47 85 48 36 49 88 50 82 51 81 52 37 54 69 55 49 56 68 57
REMARK SMILES IDX 50 58 53 59 67 60 86 61 51 62 52 63 66 65 87 66 54 67 38 68
REMARK SMILES IDX 39 69 47 70 40 71 41 72 45 73 48 74 42 75 43 76 46 77 44 78
REMARK SMILES IDX 70 79 71 80 79 81 72 82 73 83 77 84 80 85 74 86 75 87 78 88
REMARK SMILES IDX 76 89 55 90 56 91 64 92 57 93 58 94 62 95 65 96 59 97 60 98
REMARK SMILES IDX 63 99 61 100
REMARK H PARENT 9 18 1 26 1 27 1 28 85 53 53 64
REMARK Flexibility Score: inf
ROOT
ATOM      1  C   UNL     1      -6.095   2.996  -6.255  1.00  0.00     0.188 C 
ENDROOT
BRANCH   1   2
ATOM      2  O   UNL     1      -5.489   3.444  -7.454  1.00  0.00    -0.376 OA
BRANCH   2   3
ATOM      3  C   UNL     1      -4.076   3.381  -7.563  1.00  0.00     0.202 C 
BRANCH   3   4
ATOM      4  C   UNL     1      -3.237   4.168  -6.548  1.00  0.00     0.261 C 
BRANCH   4   5
ATOM      5  O   UNL     1      -3.680   4.096  -5.178  1.00  0.00    -0.463 OA
BRANCH   5   6
ATOM      6  C   UNL     1      -4.288   5.216  -4.693  1.00  0.00     0.309 C 
ATOM      7  O   UNL     1      -4.486   6.238  -5.339  1.00  0.00    -0.252 OA
BRANCH   6   8
ATOM      8  C   UNL     1      -4.656   5.114  -3.212  1.00  0.00     0.099 C 
ATOM      9  C   UNL     1      -3.650   4.137  -0.578  1.00  0.00     0.008 C 
ATOM     10  C   UNL     1      -3.627   5.632  -0.926  1.00  0.00     0.006 C 
ATOM     11  C   UNL     1      -4.920   3.539  -1.187  1.00  0.00     0.006 C 
ATOM     12  C   UNL     1      -3.580   5.877  -2.430  1.00  0.00     0.015 C 
ATOM     13  C   UNL     1      -4.928   3.687  -2.706  1.00  0.00     0.015 C 
BRANCH   9  14
ATOM     14  C   UNL     1      -2.394   3.382  -1.065  1.00  0.00     0.121 C 
BRANCH  14  15
ATOM     15  N   UNL     1      -1.195   3.854  -0.412  1.00  0.00    -0.338 N 
ATOM     16  C   UNL     1      -0.307   3.307   0.435  1.00  0.00     0.317 C 
ATOM     17  O   UNL     1       0.776   3.896   0.506  1.00  0.00    -0.249 OA
ATOM     18  H   UNL     1      -0.979   4.787  -0.639  1.00  0.00     0.165 HD
BRANCH  16  19
ATOM     19  N   UNL     1      -0.568   2.175   1.148  1.00  0.00    -0.319 N 
ATOM     20  C   UNL     1       0.686   0.056   1.422  1.00  0.00     0.200 C 
ATOM     21  C   UNL     1      -0.656  -0.686   1.549  1.00  0.00     0.068 C 
ATOM     22  C   UNL     1       0.548   1.534   1.849  1.00  0.00     0.186 C 
ATOM     23  C   UNL     1      -1.794   0.086   0.874  1.00  0.00     0.028 C 
ATOM     24  C   UNL     1      -1.845   1.518   1.402  1.00  0.00     0.122 C 
BRANCH  20  25
ATOM     25  N   UNL     1       1.701  -0.638   2.220  1.00  0.00    -0.354 N 
ATOM     26  H   UNL     1       1.768  -1.609   1.915  1.00  0.00     0.344 HD
ATOM     27  H   UNL     1       1.438  -0.608   3.205  1.00  0.00     0.344 HD
ATOM     28  H   UNL     1       2.604  -0.179   2.095  1.00  0.00     0.344 HD
ENDBRANCH  20  25
ENDBRANCH  16  19
ENDBRANCH  14  15
ENDBRANCH   9  14
ENDBRANCH   6   8
ENDBRANCH   5   6
ENDBRANCH   4   5
ENDBRANCH   3   4
ENDBRANCH   2   3
ENDBRANCH   1   2
BRANCH   1  29
ATOM     29  C   UNL     1      -5.590   1.722  -5.566  1.00  0.00     0.188 C 
BRANCH  29  30
ATOM     30  O   UNL     1      -4.626   0.967  -6.270  1.00  0.00    -0.376 OA
BRANCH  30  31
ATOM     31  C   UNL     1      -4.578  -0.412  -5.908  1.00  0.00     0.202 C 
BRANCH  31  32
ATOM     32  C   UNL     1      -5.627  -1.226  -6.685  1.00  0.00     0.261 C 
BRANCH  32  33
ATOM     33  O   UNL     1      -7.000  -0.818  -6.482  1.00  0.00    -0.460 OA
BRANCH  33  34
ATOM     34  C   UNL     1      -7.503  -0.918  -5.227  1.00  0.00     0.338 C 
ATOM     35  O   UNL     1      -6.958  -1.448  -4.271  1.00  0.00    -0.246 OA
BRANCH  34  36
ATOM     36  C   UNL     1      -8.688  -0.019  -5.114  1.00  0.00     0.060 A 
ATOM     37  C   UNL     1      -8.772   0.843  -4.006  1.00  0.00     0.016 A 
ATOM     38  C   UNL     1      -9.672   0.036  -6.103  1.00  0.00     0.016 A 
ATOM     39  C   UNL     1      -9.857   1.716  -3.860  1.00  0.00     0.010 A 
ATOM     40  C   UNL     1     -10.768   0.898  -5.947  1.00  0.00     0.010 A 
ATOM     41  C   UNL     1     -10.889   1.717  -4.808  1.00  0.00    -0.014 A 
BRANCH  41  42
ATOM     42  C   UNL     1     -12.185   2.390  -4.511  1.00  0.00     0.031 A 
ATOM     43  C   UNL     1     -13.318   1.547  -3.986  1.00  0.00     0.074 A 
ATOM     44  C   UNL     1     -12.381   3.709  -4.697  1.00  0.00     0.049 A 
ATOM     45  N   UNL     1     -14.561   1.874  -3.732  1.00  0.00    -0.248 NA
ATOM     46  C   UNL     1     -13.001   0.136  -3.717  1.00  0.00     0.031 C 
ATOM     47  C   UNL     1     -11.376   4.659  -5.162  1.00  0.00     0.029 A 
ATOM     48  N   UNL     1     -13.515   4.471  -4.532  1.00  0.00    -0.354 N 
ATOM     49  C   UNL     1     -15.175   0.708  -3.294  1.00  0.00     0.074 A 
ATOM     50  C   UNL     1     -14.177  -0.339  -3.340  1.00  0.00     0.031 C 
ATOM     51  C   UNL     1     -11.944   5.874  -5.272  1.00  0.00     0.029 A 
ATOM     52  C   UNL     1     -13.361   5.781  -4.917  1.00  0.00     0.049 A 
ATOM     53  H   UNL     1     -14.358   4.112  -4.171  1.00  0.00     0.167 HD
ATOM     54  C   UNL     1     -16.453   0.521  -2.885  1.00  0.00     0.037 A 
ATOM     55  C   UNL     1     -14.264   6.781  -5.004  1.00  0.00     0.037 A 
ATOM     56  C   UNL     1     -17.453   1.554  -2.834  1.00  0.00     0.049 A 
ATOM     57  C   UNL     1     -15.701   6.538  -4.606  1.00  0.00     0.074 A 
ATOM     58  C   UNL     1     -18.764   1.464  -2.397  1.00  0.00     0.029 A 
ATOM     59  N   UNL     1     -17.261   2.863  -3.250  1.00  0.00    -0.354 N 
ATOM     60  N   UNL     1     -16.265   5.443  -4.156  1.00  0.00    -0.248 NA
ATOM     61  C   UNL     1     -16.628   7.676  -4.727  1.00  0.00     0.031 C 
ATOM     62  C   UNL     1     -19.383   2.701  -2.609  1.00  0.00     0.029 A 
ATOM     63  C   UNL     1     -18.439   3.581  -3.113  1.00  0.00     0.049 A 
ATOM     64  H   UNL     1     -16.413   3.229  -3.591  1.00  0.00     0.167 HD
ATOM     65  C   UNL     1     -17.597   5.766  -3.916  1.00  0.00     0.074 A 
ATOM     66  C   UNL     1     -17.756   7.162  -4.257  1.00  0.00     0.031 C 
ATOM     67  C   UNL     1     -18.595   4.973  -3.451  1.00  0.00     0.037 A 
BRANCH  54  68
ATOM     68  C   UNL     1     -16.855  -0.874  -2.498  1.00  0.00     0.064 A 
ATOM     69  C   UNL     1     -16.365  -1.493  -1.338  1.00  0.00     0.173 A 
ATOM     70  C   UNL     1     -17.755  -1.596  -3.297  1.00  0.00     0.173 A 
ATOM     71  F   UNL     1     -15.490  -0.852  -0.548  1.00  0.00    -0.203 F 
ATOM     72  C   UNL     1     -16.732  -2.797  -1.013  1.00  0.00     0.198 A 
ATOM     73  C   UNL     1     -18.147  -2.886  -2.950  1.00  0.00     0.198 A 
ATOM     74  F   UNL     1     -18.257  -1.049  -4.414  1.00  0.00    -0.203 F 
ATOM     75  F   UNL     1     -16.203  -3.390   0.066  1.00  0.00    -0.200 F 
ATOM     76  C   UNL     1     -17.627  -3.489  -1.815  1.00  0.00     0.200 A 
ATOM     77  F   UNL     1     -19.022  -3.548  -3.719  1.00  0.00    -0.200 F 
ATOM     78  F   UNL     1     -17.980  -4.743  -1.500  1.00  0.00    -0.200 F 
ENDBRANCH  54  68
BRANCH  55  79
ATOM     79  C   UNL     1     -13.846   8.113  -5.522  1.00  0.00     0.064 A 
ATOM     80  C   UNL     1     -13.816   9.242  -4.692  1.00  0.00     0.173 A 
ATOM     81  C   UNL     1     -13.491   8.286  -6.869  1.00  0.00     0.173 A 
ATOM     82  F   UNL     1     -14.182   9.137  -3.406  1.00  0.00    -0.203 F 
ATOM     83  C   UNL     1     -13.460  10.494  -5.191  1.00  0.00     0.198 A 
ATOM     84  C   UNL     1     -13.105   9.532  -7.359  1.00  0.00     0.198 A 
ATOM     85  F   UNL     1     -13.514   7.241  -7.709  1.00  0.00    -0.203 F 
ATOM     86  F   UNL     1     -13.489  11.566  -4.387  1.00  0.00    -0.200 F 
ATOM     87  C   UNL     1     -13.096  10.636  -6.522  1.00  0.00     0.200 A 
ATOM     88  F   UNL     1     -12.749   9.663  -8.644  1.00  0.00    -0.200 F 
ATOM     89  F   UNL     1     -12.749  11.839  -6.999  1.00  0.00    -0.200 F 
ENDBRANCH  55  79
BRANCH  67  90
ATOM     90  C   UNL     1     -19.948   5.598  -3.244  1.00  0.00     0.064 A 
ATOM     91  C   UNL     1     -20.761   5.984  -4.321  1.00  0.00     0.173 A 
ATOM     92  C   UNL     1     -20.462   5.765  -1.947  1.00  0.00     0.173 A 
ATOM     93  F   UNL     1     -20.317   5.857  -5.580  1.00  0.00    -0.203 F 
ATOM     94  C   UNL     1     -22.022   6.536  -4.107  1.00  0.00     0.198 A 
ATOM     95  C   UNL     1     -21.736   6.286  -1.738  1.00  0.00     0.198 A 
ATOM     96  F   UNL     1     -19.733   5.404  -0.880  1.00  0.00    -0.203 F 
ATOM     97  F   UNL     1     -22.760   6.940  -5.150  1.00  0.00    -0.200 F 
ATOM     98  C   UNL     1     -22.512   6.679  -2.817  1.00  0.00     0.200 A 
ATOM     99  F   UNL     1     -22.213   6.407  -0.492  1.00  0.00    -0.200 F 
ATOM    100  F   UNL     1     -23.730   7.200  -2.614  1.00  0.00    -0.200 F 
ENDBRANCH  67  90
ENDBRANCH  41  42
ENDBRANCH  34  36
ENDBRANCH  33  34
ENDBRANCH  32  33
ENDBRANCH  31  32
ENDBRANCH  30  31
ENDBRANCH  29  30
ENDBRANCH   1  29
TORSDOF 21
