REMARK SMILES [NH3+][C@@H](CNc1ccc(C(=O)OCCOCCOCCOC(=O)c2ccc(-c3c4nc(c(-c5c(F)c(F)c(F)c(F)c5F)c5ccc([nH]5)c(-c5c(F)c(F)c(F)c(F)c5F)c5nc(c(-c6c(F)c(F)c(F)c(F)c6F)c6ccc3[nH]6)C=C5)C=C4)cc2)c(F)c1F)c1ccccc1
REMARK SMILES IDX 15 1 14 2 13 3 12 4 11 5 9 6 10 7 8 8 5 9 6 10 88 11 7 12
REMARK SMILES IDX 86 13 89 14 87 15 4 16 3 18 2 19 1 20 90 24 91 25 95 26
REMARK SMILES IDX 92 27 94 28 93 29 16 30 17 31 18 32 19 33 20 34 21 35 22 36
REMARK SMILES IDX 23 37 24 38 85 39 25 40 84 41 26 42 27 43 28 44 78 45 29 46
REMARK SMILES IDX 83 47 77 48 79 49 30 50 82 51 76 52 75 53 31 55 63 56 43 57
REMARK SMILES IDX 62 58 44 59 47 60 61 61 80 62 45 63 46 64 60 66 81 67 48 68
REMARK SMILES IDX 32 69 33 70 41 71 34 72 35 73 39 74 42 75 36 76 37 77 40 78
REMARK SMILES IDX 38 79 64 80 65 81 73 82 66 83 67 84 71 85 74 86 68 87 69 88
REMARK SMILES IDX 72 89 70 90 49 91 50 92 58 93 51 94 52 95 56 96 59 97 53 98
REMARK SMILES IDX 54 99 57 100 55 101
REMARK H PARENT 4 17 1 21 1 22 1 23 79 54 47 65
REMARK Flexibility Score: inf
ROOT
ATOM      1  C   UNL     1      -3.593   2.872   7.672  1.00  0.00     0.188 C 
ENDROOT
BRANCH   1   2
ATOM      2  O   UNL     1      -4.297   3.782   8.505  1.00  0.00    -0.376 OA
BRANCH   2   3
ATOM      3  C   UNL     1      -4.990   4.879   7.923  1.00  0.00     0.202 C 
BRANCH   3   4
ATOM      4  C   UNL     1      -4.234   5.851   7.008  1.00  0.00     0.261 C 
BRANCH   4   5
ATOM      5  O   UNL     1      -3.506   5.218   5.944  1.00  0.00    -0.460 OA
BRANCH   5   6
ATOM      6  C   UNL     1      -2.166   5.410   5.959  1.00  0.00     0.341 C 
ATOM      7  O   UNL     1      -1.518   6.056   6.768  1.00  0.00    -0.246 OA
BRANCH   6   8
ATOM      8  C   UNL     1      -1.517   4.544   4.966  1.00  0.00     0.099 A 
ATOM      9  C   UNL     1      -0.141   2.914   3.122  1.00  0.00     0.074 A 
ATOM     10  C   UNL     1       0.142   2.836   4.489  1.00  0.00     0.030 A 
ATOM     11  C   UNL     1      -1.142   3.819   2.712  1.00  0.00     0.182 A 
ATOM     12  C   UNL     1      -0.520   3.661   5.404  1.00  0.00     0.021 A 
ATOM     13  C   UNL     1      -1.838   4.613   3.620  1.00  0.00     0.175 A 
ATOM     14  F   UNL     1      -1.438   3.912   1.404  1.00  0.00    -0.201 F 
ATOM     15  F   UNL     1      -2.788   5.450   3.179  1.00  0.00    -0.203 F 
BRANCH   9  16
ATOM     16  N   UNL     1       0.501   2.116   2.185  1.00  0.00    -0.376 N 
ATOM     17  H   UNL     1       0.743   2.511   1.316  1.00  0.00     0.160 HD
BRANCH  16  18
ATOM     18  C   UNL     1       0.834   0.712   2.435  1.00  0.00     0.183 C 
BRANCH  18  19
ATOM     19  C   UNL     1       0.389  -0.231   1.265  1.00  0.00     0.231 C 
BRANCH  19  20
ATOM     20  N   UNL     1       0.906   0.177  -0.051  1.00  0.00    -0.350 N 
ATOM     21  H   UNL     1       1.917   0.304   0.005  1.00  0.00     0.345 HD
ATOM     22  H   UNL     1       0.468   1.055  -0.331  1.00  0.00     0.345 HD
ATOM     23  H   UNL     1       0.692  -0.544  -0.739  1.00  0.00     0.345 HD
ENDBRANCH  19  20
BRANCH  19  24
ATOM     24  C   UNL     1      -1.121  -0.434   1.233  1.00  0.00     0.011 A 
ATOM     25  C   UNL     1      -2.007   0.618   0.945  1.00  0.00     0.010 A 
ATOM     26  C   UNL     1      -1.669  -1.689   1.541  1.00  0.00     0.010 A 
ATOM     27  C   UNL     1      -3.389   0.444   1.026  1.00  0.00     0.001 A 
ATOM     28  C   UNL     1      -3.054  -1.869   1.604  1.00  0.00     0.001 A 
ATOM     29  C   UNL     1      -3.913  -0.799   1.363  1.00  0.00     0.000 A 
ENDBRANCH  19  24
ENDBRANCH  18  19
ENDBRANCH  16  18
ENDBRANCH   9  16
ENDBRANCH   6   8
ENDBRANCH   5   6
ENDBRANCH   4   5
ENDBRANCH   3   4
ENDBRANCH   2   3
ENDBRANCH   1   2
BRANCH   1  30
ATOM     30  C   UNL     1      -4.243   2.316   6.387  1.00  0.00     0.188 C 
BRANCH  30  31
ATOM     31  O   UNL     1      -5.565   2.719   6.136  1.00  0.00    -0.376 OA
BRANCH  31  32
ATOM     32  C   UNL     1      -6.673   2.011   6.657  1.00  0.00     0.202 C 
BRANCH  32  33
ATOM     33  C   UNL     1      -6.634   0.926   7.750  1.00  0.00     0.261 C 
BRANCH  33  34
ATOM     34  O   UNL     1      -5.367   0.542   8.281  1.00  0.00    -0.460 OA
BRANCH  34  35
ATOM     35  C   UNL     1      -4.854  -0.617   7.807  1.00  0.00     0.338 C 
ATOM     36  O   UNL     1      -5.310  -1.335   6.938  1.00  0.00    -0.246 OA
BRANCH  35  37
ATOM     37  C   UNL     1      -3.528  -0.815   8.420  1.00  0.00     0.060 A 
ATOM     38  C   UNL     1      -2.398  -0.791   7.594  1.00  0.00     0.016 A 
ATOM     39  C   UNL     1      -3.406  -1.053   9.791  1.00  0.00     0.016 A 
ATOM     40  C   UNL     1      -1.138  -1.032   8.138  1.00  0.00     0.010 A 
ATOM     41  C   UNL     1      -2.143  -1.311  10.331  1.00  0.00     0.010 A 
ATOM     42  C   UNL     1      -1.008  -1.329   9.502  1.00  0.00    -0.014 A 
BRANCH  42  43
ATOM     43  C   UNL     1       0.291  -1.808  10.031  1.00  0.00     0.031 A 
ATOM     44  C   UNL     1       0.520  -3.288  10.156  1.00  0.00     0.074 A 
ATOM     45  C   UNL     1       1.264  -0.943  10.369  1.00  0.00     0.049 A 
ATOM     46  N   UNL     1       1.564  -3.931  10.612  1.00  0.00    -0.248 NA
ATOM     47  C   UNL     1      -0.575  -4.160   9.700  1.00  0.00     0.031 C 
ATOM     48  C   UNL     1       1.178   0.510  10.251  1.00  0.00     0.029 A 
ATOM     49  N   UNL     1       2.517  -1.168  10.883  1.00  0.00    -0.354 N 
ATOM     50  C   UNL     1       1.256  -5.279  10.492  1.00  0.00     0.074 A 
ATOM     51  C   UNL     1      -0.084  -5.364   9.954  1.00  0.00     0.031 C 
ATOM     52  C   UNL     1       2.331   1.050  10.682  1.00  0.00     0.029 A 
ATOM     53  C   UNL     1       3.223  -0.018  11.136  1.00  0.00     0.049 A 
ATOM     54  H   UNL     1       2.876  -2.069  11.053  1.00  0.00     0.167 HD
ATOM     55  C   UNL     1       2.027  -6.350  10.793  1.00  0.00     0.037 A 
ATOM     56  C   UNL     1       4.441   0.151  11.686  1.00  0.00     0.037 A 
ATOM     57  C   UNL     1       3.356  -6.265  11.338  1.00  0.00     0.049 A 
ATOM     58  C   UNL     1       5.244  -1.055  12.102  1.00  0.00     0.074 A 
ATOM     59  C   UNL     1       4.214  -7.296  11.676  1.00  0.00     0.029 A 
ATOM     60  N   UNL     1       4.015  -5.081  11.632  1.00  0.00    -0.354 N 
ATOM     61  N   UNL     1       4.952  -2.327  11.974  1.00  0.00    -0.248 NA
ATOM     62  C   UNL     1       6.544  -0.803  12.742  1.00  0.00     0.031 C 
ATOM     63  C   UNL     1       5.374  -6.737  12.220  1.00  0.00     0.029 A 
ATOM     64  C   UNL     1       5.261  -5.357  12.169  1.00  0.00     0.049 A 
ATOM     65  H   UNL     1       3.651  -4.179  11.481  1.00  0.00     0.167 HD
ATOM     66  C   UNL     1       6.037  -3.024  12.489  1.00  0.00     0.074 A 
ATOM     67  C   UNL     1       7.000  -2.036  12.926  1.00  0.00     0.031 C 
ATOM     68  C   UNL     1       6.217  -4.364  12.589  1.00  0.00     0.037 A 
BRANCH  55  69
ATOM     69  C   UNL     1       1.453  -7.713  10.547  1.00  0.00     0.064 A 
ATOM     70  C   UNL     1       1.113  -8.547  11.623  1.00  0.00     0.173 A 
ATOM     71  C   UNL     1       1.301  -8.219   9.248  1.00  0.00     0.173 A 
ATOM     72  F   UNL     1       1.244  -8.112  12.884  1.00  0.00    -0.203 F 
ATOM     73  C   UNL     1       0.656  -9.844  11.405  1.00  0.00     0.198 A 
ATOM     74  C   UNL     1       0.818  -9.507   9.034  1.00  0.00     0.198 A 
ATOM     75  F   UNL     1       1.599  -7.454   8.187  1.00  0.00    -0.203 F 
ATOM     76  F   UNL     1       0.367 -10.634  12.448  1.00  0.00    -0.200 F 
ATOM     77  C   UNL     1       0.505 -10.322  10.112  1.00  0.00     0.200 A 
ATOM     78  F   UNL     1       0.650  -9.958   7.783  1.00  0.00    -0.200 F 
ATOM     79  F   UNL     1       0.056 -11.567   9.905  1.00  0.00    -0.200 F 
ENDBRANCH  55  69
BRANCH  56  80
ATOM     80  C   UNL     1       4.983   1.524  11.867  1.00  0.00     0.064 A 
ATOM     81  C   UNL     1       4.427   2.411  12.800  1.00  0.00     0.173 A 
ATOM     82  C   UNL     1       6.062   1.978  11.098  1.00  0.00     0.173 A 
ATOM     83  F   UNL     1       3.396   2.022  13.565  1.00  0.00    -0.203 F 
ATOM     84  C   UNL     1       4.916   3.708  12.941  1.00  0.00     0.198 A 
ATOM     85  C   UNL     1       6.568   3.267  11.257  1.00  0.00     0.198 A 
ATOM     86  F   UNL     1       6.644   1.157  10.211  1.00  0.00    -0.203 F 
ATOM     87  F   UNL     1       4.348   4.545  13.820  1.00  0.00    -0.200 F 
ATOM     88  C   UNL     1       5.989   4.133  12.172  1.00  0.00     0.200 A 
ATOM     89  F   UNL     1       7.621   3.665  10.531  1.00  0.00    -0.200 F 
ATOM     90  F   UNL     1       6.468   5.376  12.317  1.00  0.00    -0.200 F 
ENDBRANCH  56  80
BRANCH  68  91
ATOM     91  C   UNL     1       7.512  -4.861  13.164  1.00  0.00     0.064 A 
ATOM     92  C   UNL     1       8.447  -5.515  12.346  1.00  0.00     0.173 A 
ATOM     93  C   UNL     1       7.783  -4.782  14.537  1.00  0.00     0.173 A 
ATOM     94  F   UNL     1       8.229  -5.627  11.027  1.00  0.00    -0.203 F 
ATOM     95  C   UNL     1       9.593  -6.091  12.886  1.00  0.00     0.198 A 
ATOM     96  C   UNL     1       8.945  -5.335  15.070  1.00  0.00     0.198 A 
ATOM     97  F   UNL     1       6.926  -4.157  15.360  1.00  0.00    -0.203 F 
ATOM     98  F   UNL     1      10.450  -6.748  12.091  1.00  0.00    -0.200 F 
ATOM     99  C   UNL     1       9.842  -5.999  14.246  1.00  0.00     0.200 A 
ATOM    100  F   UNL     1       9.196  -5.227  16.382  1.00  0.00    -0.200 F 
ATOM    101  F   UNL     1      10.948  -6.551  14.765  1.00  0.00    -0.200 F 
ENDBRANCH  68  91
ENDBRANCH  42  43
ENDBRANCH  35  37
ENDBRANCH  34  35
ENDBRANCH  33  34
ENDBRANCH  32  33
ENDBRANCH  31  32
ENDBRANCH  30  31
ENDBRANCH   1  30
TORSDOF 22
