REMARK SMILES CSc1nc2ccccc2c(=O)n1CC(=O)OCCOCCOCCOC(=O)c1ccc(-c2c3nc(c(-c4c(F)c(F)c(F)c(F)c4F)c4ccc([nH]4)c(-c4c(F)c(F)c(F)c(F)c4F)c4nc(c(-c5c(F)c(F)c(F)c(F)c5F)c5ccc2[nH]5)C=C4)C=C3)cc1
REMARK SMILES IDX 21 1 20 2 19 3 18 4 17 5 15 6 16 7 14 8 13 9 3 10 4 11 5 12
REMARK SMILES IDX 11 13 6 14 10 15 12 16 7 17 9 18 8 19 2 20 1 21 22 22 23 23
REMARK SMILES IDX 24 24 25 25 26 26 27 27 28 28 29 29 30 30 91 31 31 32 90 33
REMARK SMILES IDX 32 34 33 35 34 36 84 37 35 38 89 39 83 40 85 41 36 42 88 43
REMARK SMILES IDX 82 44 81 45 37 47 69 48 49 49 68 50 50 51 53 52 67 53 86 54
REMARK SMILES IDX 51 55 52 56 66 58 87 59 54 60 38 61 39 62 47 63 40 64 41 65
REMARK SMILES IDX 45 66 48 67 42 68 43 69 46 70 44 71 70 72 71 73 79 74 72 75
REMARK SMILES IDX 73 76 77 77 80 78 74 79 75 80 78 81 76 82 55 83 56 84 64 85
REMARK SMILES IDX 57 86 58 87 62 88 65 89 59 90 60 91 63 92 61 93
REMARK H PARENT 85 46 53 57
REMARK Flexibility Score: inf
ROOT
ATOM      1  C   UNL     1       5.806   3.306   1.435  1.00  0.00     0.188 C 
ENDROOT
BRANCH   1   2
ATOM      2  O   UNL     1       6.813   2.454   0.888  1.00  0.00    -0.376 OA
BRANCH   2   3
ATOM      3  C   UNL     1       6.786   2.155  -0.500  1.00  0.00     0.202 C 
BRANCH   3   4
ATOM      4  C   UNL     1       5.685   1.187  -0.938  1.00  0.00     0.261 C 
BRANCH   4   5
ATOM      5  O   UNL     1       4.381   1.573  -0.459  1.00  0.00    -0.462 OA
BRANCH   5   6
ATOM      6  C   UNL     1       3.759   0.686   0.357  1.00  0.00     0.326 C 
ATOM      7  O   UNL     1       4.175  -0.440   0.611  1.00  0.00    -0.250 OA
BRANCH   6   8
ATOM      8  C   UNL     1       2.544   1.261   1.082  1.00  0.00     0.250 C 
BRANCH   8   9
ATOM      9  N   UNL     1       1.862   2.455   0.559  1.00  0.00    -0.276 N 
ATOM     10  C   UNL     1       1.106   2.463  -0.602  1.00  0.00     0.171 A 
ATOM     11  N   UNL     1       0.460   3.493  -1.045  1.00  0.00    -0.224 NA
ATOM     12  C   UNL     1       0.568   4.708  -0.358  1.00  0.00     0.079 A 
ATOM     13  C   UNL     1       1.854   3.578   1.384  1.00  0.00     0.262 A 
ATOM     14  C   UNL     1       0.032   5.872  -0.921  1.00  0.00     0.029 A 
ATOM     15  C   UNL     1       1.250   4.809   0.846  1.00  0.00     0.066 A 
ATOM     16  O   UNL     1       2.322   3.595   2.520  1.00  0.00    -0.269 OA
ATOM     17  C   UNL     1       0.212   7.117  -0.306  1.00  0.00     0.002 A 
ATOM     18  C   UNL     1       1.407   6.047   1.486  1.00  0.00     0.016 A 
ATOM     19  C   UNL     1       0.907   7.205   0.896  1.00  0.00     0.001 A 
BRANCH  10  20
ATOM     20  S   UNL     1       1.067   1.042  -1.627  1.00  0.00    -0.091 SA
ATOM     21  C   UNL     1       0.163  -0.146  -0.621  1.00  0.00     0.094 C 
ENDBRANCH  10  20
ENDBRANCH   8   9
ENDBRANCH   6   8
ENDBRANCH   5   6
ENDBRANCH   4   5
ENDBRANCH   3   4
ENDBRANCH   2   3
ENDBRANCH   1   2
BRANCH   1  22
ATOM     22  C   UNL     1       5.061   4.300   0.531  1.00  0.00     0.188 C 
BRANCH  22  23
ATOM     23  O   UNL     1       5.934   4.937  -0.390  1.00  0.00    -0.376 OA
BRANCH  23  24
ATOM     24  C   UNL     1       5.794   6.347  -0.458  1.00  0.00     0.202 C 
BRANCH  24  25
ATOM     25  C   UNL     1       6.735   7.021   0.542  1.00  0.00     0.261 C 
BRANCH  25  26
ATOM     26  O   UNL     1       6.608   6.548   1.897  1.00  0.00    -0.460 OA
BRANCH  26  27
ATOM     27  C   UNL     1       5.498   6.920   2.574  1.00  0.00     0.338 C 
ATOM     28  O   UNL     1       4.580   7.601   2.159  1.00  0.00    -0.246 OA
BRANCH  27  29
ATOM     29  C   UNL     1       5.502   6.222   3.879  1.00  0.00     0.060 A 
ATOM     30  C   UNL     1       6.585   6.326   4.750  1.00  0.00     0.016 A 
ATOM     31  C   UNL     1       4.387   5.461   4.242  1.00  0.00     0.016 A 
ATOM     32  C   UNL     1       6.529   5.690   5.995  1.00  0.00     0.010 A 
ATOM     33  C   UNL     1       4.328   4.825   5.483  1.00  0.00     0.010 A 
ATOM     34  C   UNL     1       5.393   4.952   6.379  1.00  0.00    -0.014 A 
BRANCH  34  35
ATOM     35  C   UNL     1       5.270   4.466   7.775  1.00  0.00     0.031 A 
ATOM     36  C   UNL     1       5.442   3.025   8.139  1.00  0.00     0.074 A 
ATOM     37  C   UNL     1       4.987   5.370   8.732  1.00  0.00     0.049 A 
ATOM     38  N   UNL     1       5.567   2.492   9.329  1.00  0.00    -0.248 NA
ATOM     39  C   UNL     1       5.457   2.053   7.038  1.00  0.00     0.031 C 
ATOM     40  C   UNL     1       4.696   6.782   8.484  1.00  0.00     0.029 A 
ATOM     41  N   UNL     1       4.915   5.245  10.096  1.00  0.00    -0.354 N 
ATOM     42  C   UNL     1       5.708   1.128   9.122  1.00  0.00     0.074 A 
ATOM     43  C   UNL     1       5.589   0.907   7.695  1.00  0.00     0.031 C 
ATOM     44  C   UNL     1       4.526   7.405   9.659  1.00  0.00     0.029 A 
ATOM     45  C   UNL     1       4.693   6.437  10.740  1.00  0.00     0.049 A 
ATOM     46  H   UNL     1       5.014   4.386  10.566  1.00  0.00     0.167 HD
ATOM     47  C   UNL     1       5.942   0.161  10.042  1.00  0.00     0.037 A 
ATOM     48  C   UNL     1       4.660   6.727  12.054  1.00  0.00     0.037 A 
ATOM     49  C   UNL     1       6.044   0.396  11.461  1.00  0.00     0.049 A 
ATOM     50  C   UNL     1       4.937   5.643  13.055  1.00  0.00     0.074 A 
ATOM     51  C   UNL     1       6.373  -0.501  12.462  1.00  0.00     0.029 A 
ATOM     52  N   UNL     1       5.794   1.612  12.082  1.00  0.00    -0.354 N 
ATOM     53  N   UNL     1       5.226   4.382  12.845  1.00  0.00    -0.248 NA
ATOM     54  C   UNL     1       4.897   6.022  14.474  1.00  0.00     0.031 C 
ATOM     55  C   UNL     1       6.264   0.156  13.693  1.00  0.00     0.029 A 
ATOM     56  C   UNL     1       5.920   1.477  13.456  1.00  0.00     0.049 A 
ATOM     57  H   UNL     1       5.562   2.447  11.615  1.00  0.00     0.167 HD
ATOM     58  C   UNL     1       5.415   3.819  14.098  1.00  0.00     0.074 A 
ATOM     59  C   UNL     1       5.226   4.880  15.066  1.00  0.00     0.031 C 
ATOM     60  C   UNL     1       5.716   2.535  14.414  1.00  0.00     0.037 A 
BRANCH  47  61
ATOM     61  C   UNL     1       6.131  -1.246   9.552  1.00  0.00     0.064 A 
ATOM     62  C   UNL     1       7.285  -1.621   8.846  1.00  0.00     0.173 A 
ATOM     63  C   UNL     1       5.202  -2.249   9.868  1.00  0.00     0.173 A 
ATOM     64  F   UNL     1       8.207  -0.702   8.522  1.00  0.00    -0.203 F 
ATOM     65  C   UNL     1       7.492  -2.943   8.460  1.00  0.00     0.198 A 
ATOM     66  C   UNL     1       5.426  -3.575   9.503  1.00  0.00     0.198 A 
ATOM     67  F   UNL     1       4.090  -1.949  10.555  1.00  0.00    -0.203 F 
ATOM     68  F   UNL     1       8.590  -3.272   7.764  1.00  0.00    -0.200 F 
ATOM     69  C   UNL     1       6.567  -3.920   8.796  1.00  0.00     0.200 A 
ATOM     70  F   UNL     1       4.540  -4.521   9.845  1.00  0.00    -0.200 F 
ATOM     71  F   UNL     1       6.778  -5.195   8.440  1.00  0.00    -0.200 F 
ENDBRANCH  47  61
BRANCH  48  72
ATOM     72  C   UNL     1       4.431   8.132  12.473  1.00  0.00     0.064 A 
ATOM     73  C   UNL     1       5.482   8.912  12.973  1.00  0.00     0.173 A 
ATOM     74  C   UNL     1       3.179   8.745  12.311  1.00  0.00     0.173 A 
ATOM     75  F   UNL     1       6.693   8.365  13.155  1.00  0.00    -0.203 F 
ATOM     76  C   UNL     1       5.291  10.254  13.294  1.00  0.00     0.198 A 
ATOM     77  C   UNL     1       2.996  10.092  12.610  1.00  0.00     0.198 A 
ATOM     78  F   UNL     1       2.146   8.041  11.825  1.00  0.00    -0.203 F 
ATOM     79  F   UNL     1       6.308  10.974  13.785  1.00  0.00    -0.200 F 
ATOM     80  C   UNL     1       4.051  10.845  13.102  1.00  0.00     0.200 A 
ATOM     81  F   UNL     1       1.802  10.665  12.405  1.00  0.00    -0.200 F 
ATOM     82  F   UNL     1       3.874  12.142  13.389  1.00  0.00    -0.200 F 
ENDBRANCH  48  72
BRANCH  60  83
ATOM     83  C   UNL     1       5.847   2.188  15.868  1.00  0.00     0.064 A 
ATOM     84  C   UNL     1       4.721   2.088  16.697  1.00  0.00     0.173 A 
ATOM     85  C   UNL     1       7.098   1.864  16.416  1.00  0.00     0.173 A 
ATOM     86  F   UNL     1       3.505   2.401  16.225  1.00  0.00    -0.203 F 
ATOM     87  C   UNL     1       4.842   1.681  18.023  1.00  0.00     0.198 A 
ATOM     88  C   UNL     1       7.212   1.432  17.734  1.00  0.00     0.198 A 
ATOM     89  F   UNL     1       8.206   1.938  15.663  1.00  0.00    -0.203 F 
ATOM     90  F   UNL     1       3.755   1.616  18.805  1.00  0.00    -0.200 F 
ATOM     91  C   UNL     1       6.085   1.342  18.537  1.00  0.00     0.200 A 
ATOM     92  F   UNL     1       8.412   1.091  18.225  1.00  0.00    -0.200 F 
ATOM     93  F   UNL     1       6.197   0.928  19.807  1.00  0.00    -0.200 F 
ENDBRANCH  60  83
ENDBRANCH  34  35
ENDBRANCH  27  29
ENDBRANCH  26  27
ENDBRANCH  25  26
ENDBRANCH  24  25
ENDBRANCH  23  24
ENDBRANCH  22  23
ENDBRANCH   1  22
TORSDOF 19
