REMARK SMILES Cc1cc(C)c(S(=O)(=O)Nc2ccc(N3CC[NH+](C)CC3)c(C(=O)OCCOCCOCCOC(=O)c3ccc(-c4c5nc(c(-c6c(F)c(F)c(F)c(F)c6F)c6ccc([nH]6)c(-c6c(F)c(F)c(F)c(F)c6F)c6nc(c(-c7c(F)c(F)c(F)c(F)c7F)c7ccc4[nH]7)C=C6)C=C5)cc3)c2)c(C)c1
REMARK SMILES IDX 29 1 28 2 27 3 26 4 25 5 23 6 24 7 22 8 11 9 12 10 100 11
REMARK SMILES IDX 13 12 14 13 10 14 7 16 8 17 9 18 6 19 1 20 2 21 3 22 103 23
REMARK SMILES IDX 4 24 101 25 5 26 102 27 15 28 16 29 21 30 17 31 20 32 18 33
REMARK SMILES IDX 19 34 30 36 31 37 32 38 33 39 34 40 35 41 36 42 37 43 38 44
REMARK SMILES IDX 99 45 39 46 98 47 40 48 41 49 42 50 92 51 43 52 97 53 91 54
REMARK SMILES IDX 93 55 44 56 96 57 90 58 89 59 45 61 77 62 57 63 76 64 58 65
REMARK SMILES IDX 61 66 75 67 94 68 59 69 60 70 74 72 95 73 62 74 46 75 47 76
REMARK SMILES IDX 55 77 48 78 49 79 53 80 56 81 50 82 51 83 54 84 52 85 78 86
REMARK SMILES IDX 79 87 87 88 80 89 81 90 85 91 88 92 82 93 83 94 86 95 84 96
REMARK SMILES IDX 63 97 64 98 72 99 65 100 66 101 70 102 73 103 67 104 68 105
REMARK SMILES IDX 71 106 69 107
REMARK H PARENT 10 15 18 35 93 60 61 71
REMARK Flexibility Score: inf
ROOT
ATOM      1  C   UNL     1       3.735  -3.477   4.098  1.00  0.00     0.188 C 
ENDROOT
BRANCH   1   2
ATOM      2  O   UNL     1       3.797  -2.316   4.904  1.00  0.00    -0.376 OA
BRANCH   2   3
ATOM      3  C   UNL     1       4.018  -1.079   4.253  1.00  0.00     0.202 C 
BRANCH   3   4
ATOM      4  C   UNL     1       2.998  -0.605   3.205  1.00  0.00     0.261 C 
BRANCH   4   5
ATOM      5  O   UNL     1       2.322  -1.648   2.494  1.00  0.00    -0.460 OA
BRANCH   5   6
ATOM      6  C   UNL     1       2.757  -1.969   1.254  1.00  0.00     0.340 C 
ATOM      7  O   UNL     1       3.689  -1.441   0.667  1.00  0.00    -0.246 OA
BRANCH   6   8
ATOM      8  C   UNL     1       1.931  -3.105   0.747  1.00  0.00     0.085 A 
ATOM      9  C   UNL     1      -0.276  -3.884   0.186  1.00  0.00     0.050 A 
ATOM     10  C   UNL     1       0.278  -5.013  -0.421  1.00  0.00     0.029 A 
ATOM     11  C   UNL     1       0.536  -3.019   0.904  1.00  0.00     0.044 A 
ATOM     12  C   UNL     1       1.660  -5.155  -0.496  1.00  0.00     0.029 A 
ATOM     13  C   UNL     1       2.509  -4.173   0.028  1.00  0.00     0.052 A 
BRANCH   9  14
ATOM     14  N   UNL     1      -1.622  -3.594  -0.151  1.00  0.00    -0.280 N 
ATOM     15  H   UNL     1      -2.180  -4.351  -0.443  1.00  0.00     0.180 HD
BRANCH  14  16
ATOM     16  S   UNL     1      -2.355  -2.089  -0.102  1.00  0.00     0.262 S 
ATOM     17  O   UNL     1      -2.704  -1.883   1.290  1.00  0.00    -0.201 OA
ATOM     18  O   UNL     1      -3.377  -2.134  -1.127  1.00  0.00    -0.201 OA
BRANCH  16  19
ATOM     19  C   UNL     1      -1.230  -0.748  -0.562  1.00  0.00     0.093 A 
ATOM     20  C   UNL     1       1.958   2.118  -0.019  1.00  0.00     0.044 C 
ATOM     21  C   UNL     1       0.836   1.153  -0.264  1.00  0.00    -0.051 A 
ATOM     22  C   UNL     1      -0.448   1.435   0.194  1.00  0.00     0.008 A 
ATOM     23  C   UNL     1       1.022   0.010  -1.045  1.00  0.00     0.008 A 
ATOM     24  C   UNL     1      -1.492   0.508   0.036  1.00  0.00    -0.030 A 
ATOM     25  C   UNL     1      -0.012  -0.934  -1.243  1.00  0.00    -0.030 A 
ATOM     26  C   UNL     1      -2.878   0.985   0.394  1.00  0.00     0.046 C 
ATOM     27  C   UNL     1       0.242  -1.990  -2.282  1.00  0.00     0.046 C 
ENDBRANCH  16  19
ENDBRANCH  14  16
ENDBRANCH   9  14
BRANCH  13  28
ATOM     28  N   UNL     1       3.862  -4.300  -0.147  1.00  0.00    -0.360 N 
ATOM     29  C   UNL     1       4.680  -4.915   0.882  1.00  0.00     0.178 C 
ATOM     30  C   UNL     1       4.513  -4.125  -1.445  1.00  0.00     0.178 C 
ATOM     31  C   UNL     1       5.939  -4.046   1.077  1.00  0.00     0.283 C 
ATOM     32  C   UNL     1       5.872  -3.391  -1.254  1.00  0.00     0.283 C 
ATOM     33  N   UNL     1       6.726  -3.955  -0.175  1.00  0.00    -0.334 N 
ATOM     34  C   UNL     1       7.908  -3.124   0.042  1.00  0.00     0.332 C 
ATOM     35  H   UNL     1       7.038  -4.885  -0.456  1.00  0.00     0.347 HD
ENDBRANCH  13  28
ENDBRANCH   6   8
ENDBRANCH   5   6
ENDBRANCH   4   5
ENDBRANCH   3   4
ENDBRANCH   2   3
ENDBRANCH   1   2
BRANCH   1  36
ATOM     36  C   UNL     1       2.338  -4.130   4.095  1.00  0.00     0.188 C 
BRANCH  36  37
ATOM     37  O   UNL     1       1.419  -3.853   5.141  1.00  0.00    -0.376 OA
BRANCH  37  38
ATOM     38  C   UNL     1       1.912  -3.702   6.460  1.00  0.00     0.202 C 
BRANCH  38  39
ATOM     39  C   UNL     1       2.603  -4.911   7.103  1.00  0.00     0.261 C 
BRANCH  39  40
ATOM     40  O   UNL     1       3.535  -5.616   6.260  1.00  0.00    -0.460 OA
BRANCH  40  41
ATOM     41  C   UNL     1       3.103  -6.812   5.784  1.00  0.00     0.338 C 
ATOM     42  O   UNL     1       2.039  -7.360   6.019  1.00  0.00    -0.246 OA
BRANCH  41  43
ATOM     43  C   UNL     1       4.055  -7.337   4.776  1.00  0.00     0.060 A 
ATOM     44  C   UNL     1       3.568  -7.664   3.502  1.00  0.00     0.016 A 
ATOM     45  C   UNL     1       5.395  -7.571   5.088  1.00  0.00     0.016 A 
ATOM     46  C   UNL     1       4.414  -8.233   2.543  1.00  0.00     0.010 A 
ATOM     47  C   UNL     1       6.235  -8.169   4.136  1.00  0.00     0.010 A 
ATOM     48  C   UNL     1       5.748  -8.520   2.864  1.00  0.00    -0.014 A 
BRANCH  48  49
ATOM     49  C   UNL     1       6.602  -9.289   1.917  1.00  0.00     0.031 A 
ATOM     50  C   UNL     1       6.626 -10.781   1.991  1.00  0.00     0.074 A 
ATOM     51  C   UNL     1       7.377  -8.676   1.005  1.00  0.00     0.049 A 
ATOM     52  N   UNL     1       7.358 -11.628   1.315  1.00  0.00    -0.248 NA
ATOM     53  C   UNL     1       5.725 -11.399   2.972  1.00  0.00     0.031 C 
ATOM     54  C   UNL     1       7.453  -7.239   0.844  1.00  0.00     0.029 A 
ATOM     55  N   UNL     1       8.245  -9.164   0.057  1.00  0.00    -0.354 N 
ATOM     56  C   UNL     1       7.029 -12.880   1.806  1.00  0.00     0.074 A 
ATOM     57  C   UNL     1       6.031 -12.681   2.838  1.00  0.00     0.031 C 
ATOM     58  C   UNL     1       8.287  -6.946  -0.163  1.00  0.00     0.029 A 
ATOM     59  C   UNL     1       8.879  -8.179  -0.662  1.00  0.00     0.049 A 
ATOM     60  H   UNL     1       8.397 -10.125  -0.092  1.00  0.00     0.167 HD
ATOM     61  C   UNL     1       7.529 -14.083   1.438  1.00  0.00     0.037 A 
ATOM     62  C   UNL     1       9.863  -8.243  -1.581  1.00  0.00     0.037 A 
ATOM     63  C   UNL     1       8.538 -14.276   0.428  1.00  0.00     0.049 A 
ATOM     64  C   UNL     1      10.434  -9.584  -1.941  1.00  0.00     0.074 A 
ATOM     65  C   UNL     1       9.075 -15.465  -0.034  1.00  0.00     0.029 A 
ATOM     66  N   UNL     1       9.182 -13.256  -0.260  1.00  0.00    -0.354 N 
ATOM     67  N   UNL     1      10.092 -10.768  -1.497  1.00  0.00    -0.248 NA
ATOM     68  C   UNL     1      11.541  -9.602  -2.907  1.00  0.00     0.031 C 
ATOM     69  C   UNL     1      10.087 -15.164  -0.952  1.00  0.00     0.029 A 
ATOM     70  C   UNL     1      10.140 -13.788  -1.112  1.00  0.00     0.049 A 
ATOM     71  H   UNL     1       8.988 -12.297  -0.158  1.00  0.00     0.167 HD
ATOM     72  C   UNL     1      10.938 -11.671  -2.123  1.00  0.00     0.074 A 
ATOM     73  C   UNL     1      11.793 -10.900  -3.004  1.00  0.00     0.031 C 
ATOM     74  C   UNL     1      11.003 -13.016  -1.971  1.00  0.00     0.037 A 
BRANCH  61  75
ATOM     75  C   UNL     1       7.029 -15.279   2.190  1.00  0.00     0.064 A 
ATOM     76  C   UNL     1       5.716 -15.752   2.045  1.00  0.00     0.173 A 
ATOM     77  C   UNL     1       7.877 -15.954   3.080  1.00  0.00     0.173 A 
ATOM     78  F   UNL     1       4.861 -15.129   1.220  1.00  0.00    -0.203 F 
ATOM     79  C   UNL     1       5.260 -16.832   2.795  1.00  0.00     0.198 A 
ATOM     80  C   UNL     1       7.427 -17.054   3.803  1.00  0.00     0.198 A 
ATOM     81  F   UNL     1       9.142 -15.541   3.255  1.00  0.00    -0.203 F 
ATOM     82  F   UNL     1       3.983 -17.227   2.689  1.00  0.00    -0.200 F 
ATOM     83  C   UNL     1       6.117 -17.485   3.669  1.00  0.00     0.200 A 
ATOM     84  F   UNL     1       8.259 -17.689   4.640  1.00  0.00    -0.200 F 
ATOM     85  F   UNL     1       5.675 -18.523   4.392  1.00  0.00    -0.200 F 
ENDBRANCH  61  75
BRANCH  62  86
ATOM     86  C   UNL     1      10.409  -6.991  -2.175  1.00  0.00     0.064 A 
ATOM     87  C   UNL     1      10.225  -6.688  -3.530  1.00  0.00     0.173 A 
ATOM     88  C   UNL     1      11.117  -6.064  -1.393  1.00  0.00     0.173 A 
ATOM     89  F   UNL     1       9.584  -7.553  -4.329  1.00  0.00    -0.203 F 
ATOM     90  C   UNL     1      10.732  -5.511  -4.082  1.00  0.00     0.198 A 
ATOM     91  C   UNL     1      11.592  -4.872  -1.936  1.00  0.00     0.198 A 
ATOM     92  F   UNL     1      11.329  -6.306  -0.090  1.00  0.00    -0.203 F 
ATOM     93  F   UNL     1      10.577  -5.265  -5.390  1.00  0.00    -0.200 F 
ATOM     94  C   UNL     1      11.405  -4.599  -3.282  1.00  0.00     0.200 A 
ATOM     95  F   UNL     1      12.227  -3.988  -1.155  1.00  0.00    -0.200 F 
ATOM     96  F   UNL     1      11.879  -3.462  -3.809  1.00  0.00    -0.200 F 
ENDBRANCH  62  86
BRANCH  74  97
ATOM     97  C   UNL     1      12.034 -13.749  -2.780  1.00  0.00     0.064 A 
ATOM     98  C   UNL     1      13.403 -13.653  -2.486  1.00  0.00     0.173 A 
ATOM     99  C   UNL     1      11.647 -14.588  -3.836  1.00  0.00     0.173 A 
ATOM    100  F   UNL     1      13.828 -12.849  -1.500  1.00  0.00    -0.203 F 
ATOM    101  C   UNL     1      14.347 -14.357  -3.231  1.00  0.00     0.198 A 
ATOM    102  C   UNL     1      12.590 -15.313  -4.559  1.00  0.00     0.198 A 
ATOM    103  F   UNL     1      10.351 -14.715  -4.158  1.00  0.00    -0.203 F 
ATOM    104  F   UNL     1      15.652 -14.216  -2.961  1.00  0.00    -0.200 F 
ATOM    105  C   UNL     1      13.939 -15.192  -4.261  1.00  0.00     0.200 A 
ATOM    106  F   UNL     1      12.193 -16.129  -5.545  1.00  0.00    -0.200 F 
ATOM    107  F   UNL     1      14.847 -15.876  -4.970  1.00  0.00    -0.200 F 
ENDBRANCH  74  97
ENDBRANCH  48  49
ENDBRANCH  41  43
ENDBRANCH  40  41
ENDBRANCH  39  40
ENDBRANCH  38  39
ENDBRANCH  37  38
ENDBRANCH  36  37
ENDBRANCH   1  36
TORSDOF 21
