REMARK SMILES COc1ccc(C(=O)Nc2cc(C(=O)OCCOCCOCCOC(=O)c3ccc(-c4c5nc(c(-c6c(F)c(F)c(F)c(F)c6F)c6ccc([nH]6)c(-c6c(F)c(F)c(F)c(F)c6F)c6nc(c(-c7c(F)c(F)c(F)c(F)c7F)c7ccc4[nH]7)C=C6)C=C5)cc3)c(Cl)cc2Cl)cc1Cl
REMARK SMILES IDX 19 1 18 2 17 3 16 4 15 5 13 6 14 7 12 8 10 9 11 10 93 11
REMARK SMILES IDX 92 12 94 13 90 14 91 15 9 16 7 17 8 18 6 20 3 21 4 22 96 23
REMARK SMILES IDX 5 24 95 25 97 26 2 27 1 28 20 29 21 30 22 31 23 32 24 33
REMARK SMILES IDX 25 34 26 35 27 36 28 37 89 38 29 39 88 40 30 41 31 42 32 43
REMARK SMILES IDX 82 44 33 45 87 46 81 47 83 48 34 49 86 50 80 51 79 52 35 54
REMARK SMILES IDX 67 55 47 56 66 57 48 58 51 59 65 60 84 61 49 62 50 63 64 65
REMARK SMILES IDX 85 66 52 67 36 68 37 69 45 70 38 71 39 72 43 73 46 74 40 75
REMARK SMILES IDX 41 76 44 77 42 78 68 79 69 80 77 81 70 82 71 83 75 84 78 85
REMARK SMILES IDX 72 86 73 87 76 88 74 89 53 90 54 91 62 92 55 93 56 94 60 95
REMARK SMILES IDX 63 96 57 97 58 98 61 99 59 100
REMARK H PARENT 9 19 83 53 51 64
REMARK Flexibility Score: inf
ROOT
ATOM      1  C   UNL     1       4.667  -2.758   0.323  1.00  0.00     0.188 C 
ENDROOT
BRANCH   1   2
ATOM      2  O   UNL     1       5.427  -3.487   1.275  1.00  0.00    -0.376 OA
BRANCH   2   3
ATOM      3  C   UNL     1       6.830  -3.275   1.322  1.00  0.00     0.202 C 
BRANCH   3   4
ATOM      4  C   UNL     1       7.609  -3.867   0.154  1.00  0.00     0.261 C 
BRANCH   4   5
ATOM      5  O   UNL     1       7.208  -3.272  -1.090  1.00  0.00    -0.460 OA
BRANCH   5   6
ATOM      6  C   UNL     1       6.723  -4.118  -2.024  1.00  0.00     0.339 C 
ATOM      7  O   UNL     1       6.555  -5.322  -1.910  1.00  0.00    -0.246 OA
BRANCH   6   8
ATOM      8  C   UNL     1       6.254  -3.377  -3.214  1.00  0.00     0.080 A 
ATOM      9  C   UNL     1       4.583  -3.251  -4.976  1.00  0.00     0.061 A 
ATOM     10  C   UNL     1       5.020  -3.784  -3.761  1.00  0.00     0.045 A 
ATOM     11  C   UNL     1       5.387  -2.325  -5.654  1.00  0.00     0.066 A 
ATOM     12  C   UNL     1       6.571  -1.865  -5.077  1.00  0.00     0.044 A 
ATOM     13  Cl  UNL     1       4.915  -1.686  -7.186  1.00  0.00    -0.082 Cl
ATOM     14  C   UNL     1       7.016  -2.396  -3.862  1.00  0.00     0.057 A 
ATOM     15  Cl  UNL     1       8.545  -1.836  -3.287  1.00  0.00    -0.083 Cl
BRANCH   9  16
ATOM     16  N   UNL     1       3.449  -3.788  -5.588  1.00  0.00    -0.321 N 
ATOM     17  C   UNL     1       2.107  -3.600  -5.353  1.00  0.00     0.255 C 
ATOM     18  O   UNL     1       1.328  -4.341  -5.957  1.00  0.00    -0.269 OA
ATOM     19  H   UNL     1       3.645  -4.415  -6.321  1.00  0.00     0.170 HD
BRANCH  17  20
ATOM     20  C   UNL     1       1.533  -2.516  -4.496  1.00  0.00     0.041 A 
ATOM     21  C   UNL     1       0.204  -0.454  -3.035  1.00  0.00     0.137 A 
ATOM     22  C   UNL     1      -0.493  -1.556  -3.545  1.00  0.00     0.049 A 
ATOM     23  C   UNL     1       1.572  -0.365  -3.317  1.00  0.00     0.083 A 
ATOM     24  C   UNL     1       0.154  -2.569  -4.259  1.00  0.00     0.018 A 
ATOM     25  C   UNL     1       2.224  -1.394  -4.032  1.00  0.00     0.038 A 
ATOM     26  Cl  UNL     1       2.564   1.002  -2.942  1.00  0.00    -0.080 Cl
BRANCH  21  27
ATOM     27  O   UNL     1      -0.627   0.404  -2.380  1.00  0.00    -0.495 OA
ATOM     28  C   UNL     1      -0.138   1.304  -1.397  1.00  0.00     0.278 C 
ENDBRANCH  21  27
ENDBRANCH  17  20
ENDBRANCH   9  16
ENDBRANCH   6   8
ENDBRANCH   5   6
ENDBRANCH   4   5
ENDBRANCH   3   4
ENDBRANCH   2   3
ENDBRANCH   1   2
BRANCH   1  29
ATOM     29  C   UNL     1       4.945  -1.259   0.099  1.00  0.00     0.188 C 
BRANCH  29  30
ATOM     30  O   UNL     1       5.448  -0.484   1.178  1.00  0.00    -0.376 OA
BRANCH  30  31
ATOM     31  C   UNL     1       4.824  -0.611   2.453  1.00  0.00     0.202 C 
BRANCH  31  32
ATOM     32  C   UNL     1       3.344  -0.248   2.477  1.00  0.00     0.261 C 
BRANCH  32  33
ATOM     33  O   UNL     1       2.552  -1.344   1.977  1.00  0.00    -0.460 OA
BRANCH  33  34
ATOM     34  C   UNL     1       1.417  -0.970   1.352  1.00  0.00     0.338 C 
ATOM     35  O   UNL     1       1.003   0.168   1.213  1.00  0.00    -0.246 OA
BRANCH  34  36
ATOM     36  C   UNL     1       0.668  -2.133   0.847  1.00  0.00     0.060 A 
ATOM     37  C   UNL     1       1.016  -2.735  -0.363  1.00  0.00     0.016 A 
ATOM     38  C   UNL     1      -0.530  -2.468   1.479  1.00  0.00     0.016 A 
ATOM     39  C   UNL     1       0.120  -3.619  -0.974  1.00  0.00     0.010 A 
ATOM     40  C   UNL     1      -1.418  -3.358   0.864  1.00  0.00     0.010 A 
ATOM     41  C   UNL     1      -1.131  -3.895  -0.401  1.00  0.00    -0.014 A 
BRANCH  41  42
ATOM     42  C   UNL     1      -2.177  -4.634  -1.169  1.00  0.00     0.031 A 
ATOM     43  C   UNL     1      -3.462  -3.942  -1.565  1.00  0.00     0.074 A 
ATOM     44  C   UNL     1      -1.975  -5.902  -1.576  1.00  0.00     0.049 A 
ATOM     45  N   UNL     1      -4.545  -4.444  -2.107  1.00  0.00    -0.248 NA
ATOM     46  C   UNL     1      -3.530  -2.490  -1.338  1.00  0.00     0.031 C 
ATOM     47  C   UNL     1      -0.750  -6.670  -1.366  1.00  0.00     0.029 A 
ATOM     48  N   UNL     1      -2.799  -6.766  -2.259  1.00  0.00    -0.354 N 
ATOM     49  C   UNL     1      -5.427  -3.380  -2.260  1.00  0.00     0.074 A 
ATOM     50  C   UNL     1      -4.754  -2.201  -1.758  1.00  0.00     0.031 C 
ATOM     51  C   UNL     1      -0.893  -7.882  -1.923  1.00  0.00     0.029 A 
ATOM     52  C   UNL     1      -2.252  -8.012  -2.443  1.00  0.00     0.049 A 
ATOM     53  H   UNL     1      -3.693  -6.516  -2.584  1.00  0.00     0.167 HD
ATOM     54  C   UNL     1      -6.684  -3.386  -2.767  1.00  0.00     0.037 A 
ATOM     55  C   UNL     1      -2.794  -9.152  -2.916  1.00  0.00     0.037 A 
ATOM     56  C   UNL     1      -7.356  -4.553  -3.282  1.00  0.00     0.049 A 
ATOM     57  C   UNL     1      -4.234  -9.168  -3.349  1.00  0.00     0.074 A 
ATOM     58  C   UNL     1      -8.640  -4.656  -3.791  1.00  0.00     0.029 A 
ATOM     59  N   UNL     1      -6.797  -5.819  -3.355  1.00  0.00    -0.354 N 
ATOM     60  N   UNL     1      -5.090  -8.178  -3.409  1.00  0.00    -0.248 NA
ATOM     61  C   UNL     1      -4.792 -10.467  -3.752  1.00  0.00     0.031 C 
ATOM     62  C   UNL     1      -8.875  -5.995  -4.124  1.00  0.00     0.029 A 
ATOM     63  C   UNL     1      -7.721  -6.715  -3.870  1.00  0.00     0.049 A 
ATOM     64  H   UNL     1      -5.880  -6.047  -3.081  1.00  0.00     0.167 HD
ATOM     65  C   UNL     1      -6.281  -8.729  -3.862  1.00  0.00     0.074 A 
ATOM     66  C   UNL     1      -6.034 -10.139  -4.079  1.00  0.00     0.031 C 
ATOM     67  C   UNL     1      -7.472  -8.119  -4.073  1.00  0.00     0.037 A 
BRANCH  54  68
ATOM     68  C   UNL     1      -7.453  -2.097  -2.747  1.00  0.00     0.064 A 
ATOM     69  C   UNL     1      -7.198  -1.065  -3.660  1.00  0.00     0.173 A 
ATOM     70  C   UNL     1      -8.508  -1.924  -1.837  1.00  0.00     0.173 A 
ATOM     71  F   UNL     1      -6.194  -1.177  -4.543  1.00  0.00    -0.203 F 
ATOM     72  C   UNL     1      -7.965   0.100  -3.656  1.00  0.00     0.198 A 
ATOM     73  C   UNL     1      -9.286  -0.769  -1.850  1.00  0.00     0.198 A 
ATOM     74  F   UNL     1      -8.797  -2.885  -0.947  1.00  0.00    -0.203 F 
ATOM     75  F   UNL     1      -7.689   1.086  -4.519  1.00  0.00    -0.200 F 
ATOM     76  C   UNL     1      -9.012   0.242  -2.757  1.00  0.00     0.200 A 
ATOM     77  F   UNL     1     -10.305  -0.640  -0.989  1.00  0.00    -0.200 F 
ATOM     78  F   UNL     1      -9.756   1.357  -2.763  1.00  0.00    -0.200 F 
ENDBRANCH  54  68
BRANCH  55  79
ATOM     79  C   UNL     1      -1.984 -10.399  -2.920  1.00  0.00     0.064 A 
ATOM     80  C   UNL     1      -1.592 -11.012  -4.117  1.00  0.00     0.173 A 
ATOM     81  C   UNL     1      -1.575 -10.995  -1.716  1.00  0.00     0.173 A 
ATOM     82  F   UNL     1      -1.990 -10.504  -5.292  1.00  0.00    -0.203 F 
ATOM     83  C   UNL     1      -0.816 -12.171  -4.109  1.00  0.00     0.198 A 
ATOM     84  C   UNL     1      -0.772 -12.132  -1.710  1.00  0.00     0.198 A 
ATOM     85  F   UNL     1      -1.936 -10.455  -0.543  1.00  0.00    -0.203 F 
ATOM     86  F   UNL     1      -0.483 -12.759  -5.266  1.00  0.00    -0.200 F 
ATOM     87  C   UNL     1      -0.397 -12.722  -2.906  1.00  0.00     0.200 A 
ATOM     88  F   UNL     1      -0.360 -12.652  -0.546  1.00  0.00    -0.200 F 
ATOM     89  F   UNL     1       0.364 -13.825  -2.901  1.00  0.00    -0.200 F 
ENDBRANCH  55  79
BRANCH  67  90
ATOM     90  C   UNL     1      -8.599  -8.970  -4.581  1.00  0.00     0.064 A 
ATOM     91  C   UNL     1      -9.259  -9.885  -3.747  1.00  0.00     0.173 A 
ATOM     92  C   UNL     1      -9.043  -8.849  -5.906  1.00  0.00     0.173 A 
ATOM     93  F   UNL     1      -8.862 -10.048  -2.476  1.00  0.00    -0.203 F 
ATOM     94  C   UNL     1     -10.306 -10.666  -4.230  1.00  0.00     0.198 A 
ATOM     95  C   UNL     1     -10.107  -9.613  -6.378  1.00  0.00     0.198 A 
ATOM     96  F   UNL     1      -8.450  -7.984  -6.742  1.00  0.00    -0.203 F 
ATOM     97  F   UNL     1     -10.893 -11.566  -3.428  1.00  0.00    -0.200 F 
ATOM     98  C   UNL     1     -10.733 -10.526  -5.542  1.00  0.00     0.200 A 
ATOM     99  F   UNL     1     -10.525  -9.469  -7.643  1.00  0.00    -0.200 F 
ATOM    100  F   UNL     1     -11.742 -11.277  -6.004  1.00  0.00    -0.200 F 
ENDBRANCH  67  90
ENDBRANCH  41  42
ENDBRANCH  34  36
ENDBRANCH  33  34
ENDBRANCH  32  33
ENDBRANCH  31  32
ENDBRANCH  30  31
ENDBRANCH  29  30
ENDBRANCH   1  29
TORSDOF 20
