REMARK SMILES Cc1nc2ccc(OCC(=O)OCCOCCOCCOC(=O)c3ccc(-c4c5nc(c(-c6c(F)c(F)c(F)c(F)c6F)c6ccc([nH]6)c(-c6c(F)c(F)c(F)c(F)c6F)c6nc(c(-c7c(F)c(F)c(F)c(F)c7F)c7ccc4[nH]7)C=C6)C=C5)cc3)cc2c(=O)n1-c1ccc2c(c1)OCO2
REMARK SMILES IDX 16 1 15 2 14 3 13 4 12 5 10 6 11 7 9 8 8 9 7 10 1 11 2 12
REMARK SMILES IDX 3 13 91 14 4 15 89 16 5 17 88 18 90 19 6 20 87 21 92 22
REMARK SMILES IDX 93 23 97 24 94 25 96 26 95 27 98 28 100 29 99 30 17 31 18 32
REMARK SMILES IDX 19 33 20 34 21 35 22 36 23 37 24 38 25 39 86 40 26 41 85 42
REMARK SMILES IDX 27 43 28 44 29 45 79 46 30 47 84 48 78 49 80 50 31 51 83 52
REMARK SMILES IDX 77 53 76 54 32 56 64 57 44 58 63 59 45 60 48 61 62 62 81 63
REMARK SMILES IDX 46 64 47 65 61 67 82 68 49 69 33 70 34 71 42 72 35 73 36 74
REMARK SMILES IDX 40 75 43 76 37 77 38 78 41 79 39 80 65 81 66 82 74 83 67 84
REMARK SMILES IDX 68 85 72 86 75 87 69 88 70 89 73 90 71 91 50 92 51 93 59 94
REMARK SMILES IDX 52 95 53 96 57 97 60 98 54 99 55 100 58 101 56 102
REMARK H PARENT 80 55 48 66
REMARK Flexibility Score: inf
ROOT
ATOM      1  C   UNL     1       0.319   7.516   0.962  1.00  0.00     0.188 C 
ENDROOT
BRANCH   1   2
ATOM      2  O   UNL     1      -0.049   8.733   1.605  1.00  0.00    -0.376 OA
BRANCH   2   3
ATOM      3  C   UNL     1      -1.343   9.268   1.375  1.00  0.00     0.202 C 
BRANCH   3   4
ATOM      4  C   UNL     1      -1.534   9.954   0.023  1.00  0.00     0.261 C 
BRANCH   4   5
ATOM      5  O   UNL     1      -1.385   9.084  -1.119  1.00  0.00    -0.461 OA
BRANCH   5   6
ATOM      6  C   UNL     1      -0.247   9.231  -1.852  1.00  0.00     0.344 C 
ATOM      7  O   UNL     1       0.685   9.973  -1.559  1.00  0.00    -0.248 OA
BRANCH   6   8
ATOM      8  C   UNL     1      -0.282   8.435  -3.163  1.00  0.00     0.351 C 
BRANCH   8   9
ATOM      9  O   UNL     1      -0.901   7.157  -3.205  1.00  0.00    -0.482 OA
BRANCH   9  10
ATOM     10  C   UNL     1      -0.168   6.031  -2.954  1.00  0.00     0.121 A 
ATOM     11  C   UNL     1       1.345   0.391  -0.348  1.00  0.00     0.088 C 
ATOM     12  C   UNL     1       0.906   1.478  -1.308  1.00  0.00     0.113 A 
ATOM     13  N   UNL     1       1.554   2.598  -1.326  1.00  0.00    -0.234 NA
ATOM     14  N   UNL     1      -0.230   1.249  -2.064  1.00  0.00    -0.264 N 
ATOM     15  C   UNL     1       1.020   3.644  -2.085  1.00  0.00     0.078 A 
ATOM     16  C   UNL     1      -0.971   2.316  -2.585  1.00  0.00     0.266 A 
ATOM     17  C   UNL     1       1.788   4.789  -2.275  1.00  0.00     0.033 A 
ATOM     18  C   UNL     1      -0.298   3.638  -2.523  1.00  0.00     0.070 A 
ATOM     19  O   UNL     1      -2.067   2.224  -3.130  1.00  0.00    -0.268 OA
ATOM     20  C   UNL     1       1.198   5.988  -2.683  1.00  0.00     0.049 A 
ATOM     21  C   UNL     1      -0.898   4.830  -2.952  1.00  0.00     0.062 A 
BRANCH  14  22
ATOM     22  C   UNL     1      -0.356  -0.019  -2.695  1.00  0.00     0.054 A 
ATOM     23  C   UNL     1      -1.433  -0.887  -2.448  1.00  0.00     0.031 A 
ATOM     24  C   UNL     1       0.680  -0.399  -3.570  1.00  0.00     0.077 A 
ATOM     25  C   UNL     1      -1.464  -2.152  -3.057  1.00  0.00     0.053 A 
ATOM     26  C   UNL     1       0.598  -1.626  -4.178  1.00  0.00     0.167 A 
ATOM     27  C   UNL     1      -0.442  -2.485  -3.926  1.00  0.00     0.165 A 
ATOM     28  O   UNL     1       1.493  -2.124  -5.071  1.00  0.00    -0.454 OA
ATOM     29  O   UNL     1      -0.323  -3.644  -4.629  1.00  0.00    -0.454 OA
ATOM     30  C   UNL     1       0.836  -3.352  -5.442  1.00  0.00     0.468 C 
ENDBRANCH  14  22
ENDBRANCH   9  10
ENDBRANCH   8   9
ENDBRANCH   6   8
ENDBRANCH   5   6
ENDBRANCH   4   5
ENDBRANCH   3   4
ENDBRANCH   2   3
ENDBRANCH   1   2
BRANCH   1  31
ATOM     31  C   UNL     1      -0.773   6.526   0.529  1.00  0.00     0.188 C 
BRANCH  31  32
ATOM     32  O   UNL     1      -1.760   6.380   1.546  1.00  0.00    -0.376 OA
BRANCH  32  33
ATOM     33  C   UNL     1      -2.075   5.040   1.881  1.00  0.00     0.202 C 
BRANCH  33  34
ATOM     34  C   UNL     1      -1.050   4.449   2.848  1.00  0.00     0.261 C 
BRANCH  34  35
ATOM     35  O   UNL     1       0.300   4.680   2.397  1.00  0.00    -0.460 OA
BRANCH  35  36
ATOM     36  C   UNL     1       1.115   3.617   2.297  1.00  0.00     0.338 C 
ATOM     37  O   UNL     1       0.818   2.440   2.474  1.00  0.00    -0.246 OA
BRANCH  36  38
ATOM     38  C   UNL     1       2.492   4.084   2.044  1.00  0.00     0.060 A 
ATOM     39  C   UNL     1       3.505   3.687   2.912  1.00  0.00     0.016 A 
ATOM     40  C   UNL     1       2.808   4.853   0.924  1.00  0.00     0.016 A 
ATOM     41  C   UNL     1       4.828   4.049   2.644  1.00  0.00     0.010 A 
ATOM     42  C   UNL     1       4.142   5.147   0.612  1.00  0.00     0.010 A 
ATOM     43  C   UNL     1       5.171   4.747   1.469  1.00  0.00    -0.014 A 
BRANCH  43  44
ATOM     44  C   UNL     1       6.607   4.966   1.135  1.00  0.00     0.031 A 
ATOM     45  C   UNL     1       7.209   6.342   1.047  1.00  0.00     0.074 A 
ATOM     46  C   UNL     1       7.391   3.890   0.915  1.00  0.00     0.049 A 
ATOM     47  N   UNL     1       8.473   6.682   0.982  1.00  0.00    -0.248 NA
ATOM     48  C   UNL     1       6.282   7.482   0.993  1.00  0.00     0.031 C 
ATOM     49  C   UNL     1       6.915   2.508   0.835  1.00  0.00     0.029 A 
ATOM     50  N   UNL     1       8.751   3.783   0.750  1.00  0.00    -0.354 N 
ATOM     51  C   UNL     1       8.493   8.068   0.903  1.00  0.00     0.074 A 
ATOM     52  C   UNL     1       7.115   8.504   0.844  1.00  0.00     0.031 C 
ATOM     53  C   UNL     1       7.969   1.686   0.718  1.00  0.00     0.029 A 
ATOM     54  C   UNL     1       9.193   2.482   0.704  1.00  0.00     0.049 A 
ATOM     55  H   UNL     1       9.350   4.560   0.672  1.00  0.00     0.167 HD
ATOM     56  C   UNL     1       9.561   8.902   0.921  1.00  0.00     0.037 A 
ATOM     57  C   UNL     1      10.444   1.981   0.699  1.00  0.00     0.037 A 
ATOM     58  C   UNL     1      10.931   8.464   0.996  1.00  0.00     0.049 A 
ATOM     59  C   UNL     1      11.615   2.920   0.779  1.00  0.00     0.074 A 
ATOM     60  C   UNL     1      12.078   9.231   1.109  1.00  0.00     0.029 A 
ATOM     61  N   UNL     1      11.339   7.139   0.957  1.00  0.00    -0.354 N 
ATOM     62  N   UNL     1      11.620   4.228   0.853  1.00  0.00    -0.248 NA
ATOM     63  C   UNL     1      12.954   2.313   0.795  1.00  0.00     0.031 C 
ATOM     64  C   UNL     1      13.182   8.372   1.097  1.00  0.00     0.029 A 
ATOM     65  C   UNL     1      12.721   7.068   1.023  1.00  0.00     0.049 A 
ATOM     66  H   UNL     1      10.735   6.364   0.893  1.00  0.00     0.167 HD
ATOM     67  C   UNL     1      12.954   4.601   0.939  1.00  0.00     0.074 A 
ATOM     68  C   UNL     1      13.731   3.379   0.932  1.00  0.00     0.031 C 
ATOM     69  C   UNL     1      13.485   5.846   1.013  1.00  0.00     0.037 A 
BRANCH  56  70
ATOM     70  C   UNL     1       9.298  10.382   0.913  1.00  0.00     0.064 A 
ATOM     71  C   UNL     1       8.735  11.024   2.027  1.00  0.00     0.173 A 
ATOM     72  C   UNL     1       9.685  11.179  -0.175  1.00  0.00     0.173 A 
ATOM     73  F   UNL     1       8.347  10.309   3.094  1.00  0.00    -0.203 F 
ATOM     74  C   UNL     1       8.550  12.404   2.044  1.00  0.00     0.198 A 
ATOM     75  C   UNL     1       9.525  12.563  -0.143  1.00  0.00     0.198 A 
ATOM     76  F   UNL     1      10.242  10.620  -1.260  1.00  0.00    -0.203 F 
ATOM     77  F   UNL     1       7.981  12.989   3.107  1.00  0.00    -0.200 F 
ATOM     78  C   UNL     1       8.954  13.173   0.964  1.00  0.00     0.200 A 
ATOM     79  F   UNL     1       9.934  13.308  -1.180  1.00  0.00    -0.200 F 
ATOM     80  F   UNL     1       8.794  14.504   0.990  1.00  0.00    -0.200 F 
ENDBRANCH  56  70
BRANCH  57  81
ATOM     81  C   UNL     1      10.640   0.508   0.719  1.00  0.00     0.064 A 
ATOM     82  C   UNL     1      11.086  -0.139   1.880  1.00  0.00     0.173 A 
ATOM     83  C   UNL     1      10.349  -0.285  -0.400  1.00  0.00     0.173 A 
ATOM     84  F   UNL     1      11.392   0.579   2.971  1.00  0.00    -0.203 F 
ATOM     85  C   UNL     1      11.239  -1.524   1.920  1.00  0.00     0.198 A 
ATOM     86  C   UNL     1      10.479  -1.672  -0.351  1.00  0.00     0.198 A 
ATOM     87  F   UNL     1       9.913   0.286  -1.532  1.00  0.00    -0.203 F 
ATOM     88  F   UNL     1      11.692  -2.114   3.034  1.00  0.00    -0.200 F 
ATOM     89  C   UNL     1      10.928  -2.289   0.807  1.00  0.00     0.200 A 
ATOM     90  F   UNL     1      10.163  -2.410  -1.424  1.00  0.00    -0.200 F 
ATOM     91  F   UNL     1      11.061  -3.622   0.850  1.00  0.00    -0.200 F 
ENDBRANCH  57  81
BRANCH  69  92
ATOM     92  C   UNL     1      14.978   5.962   1.090  1.00  0.00     0.064 A 
ATOM     93  C   UNL     1      15.787   5.716  -0.029  1.00  0.00     0.173 A 
ATOM     94  C   UNL     1      15.601   6.395   2.271  1.00  0.00     0.173 A 
ATOM     95  F   UNL     1      15.240   5.289  -1.177  1.00  0.00    -0.203 F 
ATOM     96  C   UNL     1      17.168   5.888   0.035  1.00  0.00     0.198 A 
ATOM     97  C   UNL     1      16.978   6.591   2.323  1.00  0.00     0.198 A 
ATOM     98  F   UNL     1      14.870   6.650   3.366  1.00  0.00    -0.203 F 
ATOM     99  F   UNL     1      17.925   5.619  -1.037  1.00  0.00    -0.200 F 
ATOM    100  C   UNL     1      17.760   6.335   1.207  1.00  0.00     0.200 A 
ATOM    101  F   UNL     1      17.548   7.036   3.452  1.00  0.00    -0.200 F 
ATOM    102  F   UNL     1      19.087   6.516   1.262  1.00  0.00    -0.200 F 
ENDBRANCH  69  92
ENDBRANCH  43  44
ENDBRANCH  36  38
ENDBRANCH  35  36
ENDBRANCH  34  35
ENDBRANCH  33  34
ENDBRANCH  32  33
ENDBRANCH  31  32
ENDBRANCH   1  31
TORSDOF 20
