REMARK SMILES O=C(Cn1nc(C(=O)OCCOCCOCCOC(=O)c2ccc(-c3c4nc(c(-c5c(F)c(F)c(F)c(F)c5F)c5ccc([nH]5)c(-c5c(F)c(F)c(F)c(F)c5F)c5nc(c(-c6c(F)c(F)c(F)c(F)c6F)c6ccc3[nH]6)C=C5)C=C4)cc2)c2ccccc2c1=O)Nc1ccc2c(c1)C(=O)c1ccccc1C2=O
REMARK SMILES IDX 13 1 12 2 11 3 10 4 9 5 7 6 8 7 6 8 4 9 5 10 90 11 89 12
REMARK SMILES IDX 91 13 84 14 88 15 85 16 87 17 86 18 3 19 2 20 1 21 92 22
REMARK SMILES IDX 93 24 94 25 98 26 95 27 97 28 96 29 99 30 107 31 100 32
REMARK SMILES IDX 101 33 106 34 108 35 102 36 105 37 103 38 104 39 14 40 15 41
REMARK SMILES IDX 16 42 17 43 18 44 19 45 20 46 21 47 22 48 83 49 23 50 82 51
REMARK SMILES IDX 24 52 25 53 26 54 76 55 27 56 81 57 75 58 77 59 28 60 80 61
REMARK SMILES IDX 74 62 73 63 29 65 61 66 41 67 60 68 42 69 45 70 59 71 78 72
REMARK SMILES IDX 43 73 44 74 58 76 79 77 46 78 30 79 31 80 39 81 32 82 33 83
REMARK SMILES IDX 37 84 40 85 34 86 35 87 38 88 36 89 62 90 63 91 71 92 64 93
REMARK SMILES IDX 65 94 69 95 72 96 66 97 67 98 70 99 68 100 47 101 48 102
REMARK SMILES IDX 56 103 49 104 50 105 54 106 57 107 51 108 52 109 55 110
REMARK SMILES IDX 53 111
REMARK H PARENT 92 23 77 64 45 75
REMARK Flexibility Score: inf
ROOT
ATOM      1  C   UNL     1       5.895  -1.338  -6.581  1.00  0.00     0.188 C 
ENDROOT
BRANCH   1   2
ATOM      2  O   UNL     1       6.995  -2.220  -6.790  1.00  0.00    -0.376 OA
BRANCH   2   3
ATOM      3  C   UNL     1       7.304  -3.167  -5.767  1.00  0.00     0.202 C 
BRANCH   3   4
ATOM      4  C   UNL     1       7.847  -2.534  -4.487  1.00  0.00     0.261 C 
BRANCH   4   5
ATOM      5  O   UNL     1       6.748  -1.950  -3.777  1.00  0.00    -0.458 OA
BRANCH   5   6
ATOM      6  C   UNL     1       7.061  -1.041  -2.836  1.00  0.00     0.359 C 
ATOM      7  O   UNL     1       8.157  -0.691  -2.447  1.00  0.00    -0.244 OA
BRANCH   6   8
ATOM      8  C   UNL     1       5.768  -0.339  -2.466  1.00  0.00     0.176 A 
ATOM      9  N   UNL     1       3.663  -0.450  -1.518  1.00  0.00    -0.219 N 
ATOM     10  N   UNL     1       4.921  -0.986  -1.716  1.00  0.00    -0.161 NA
ATOM     11  C   UNL     1       3.211   0.687  -2.190  1.00  0.00     0.275 A 
ATOM     12  C   UNL     1       4.229   1.499  -2.882  1.00  0.00     0.051 A 
ATOM     13  O   UNL     1       2.043   1.058  -2.191  1.00  0.00    -0.267 OA
ATOM     14  C   UNL     1       5.510   0.988  -3.045  1.00  0.00     0.022 A 
ATOM     15  C   UNL     1       3.912   2.774  -3.369  1.00  0.00     0.014 A 
ATOM     16  C   UNL     1       6.479   1.734  -3.730  1.00  0.00     0.011 A 
ATOM     17  C   UNL     1       4.881   3.525  -4.035  1.00  0.00     0.001 A 
ATOM     18  C   UNL     1       6.159   3.002  -4.223  1.00  0.00     0.001 A 
BRANCH   9  19
ATOM     19  C   UNL     1       2.676  -1.321  -0.845  1.00  0.00     0.248 C 
BRANCH  19  20
ATOM     20  C   UNL     1       1.924  -0.667   0.330  1.00  0.00     0.246 C 
ATOM     21  O   UNL     1       0.878  -1.129   0.779  1.00  0.00    -0.273 OA
ATOM     22  N   UNL     1       2.607   0.384   0.903  1.00  0.00    -0.324 N 
ATOM     23  H   UNL     1       3.590   0.394   0.838  1.00  0.00     0.169 HD
BRANCH  22  24
ATOM     24  C   UNL     1       1.972   1.440   1.575  1.00  0.00     0.042 A 
ATOM     25  C   UNL     1       2.155   1.554   2.956  1.00  0.00     0.027 A 
ATOM     26  C   UNL     1       1.668   2.563   0.805  1.00  0.00     0.039 A 
ATOM     27  C   UNL     1       2.196   2.820   3.550  1.00  0.00     0.015 A 
ATOM     28  C   UNL     1       1.778   3.821   1.383  1.00  0.00     0.036 A 
ATOM     29  C   UNL     1       2.117   3.949   2.730  1.00  0.00     0.034 A 
ATOM     30  C   UNL     1       1.915   4.978   0.481  1.00  0.00     0.194 C 
ATOM     31  C   UNL     1       2.738   5.216   3.179  1.00  0.00     0.194 C 
ATOM     32  O   UNL     1       1.269   5.086  -0.549  1.00  0.00    -0.289 OA
ATOM     33  C   UNL     1       3.028   5.885   0.804  1.00  0.00     0.034 A 
ATOM     34  C   UNL     1       3.456   5.980   2.130  1.00  0.00     0.034 A 
ATOM     35  O   UNL     1       2.793   5.528   4.358  1.00  0.00    -0.289 OA
ATOM     36  C   UNL     1       3.758   6.470  -0.232  1.00  0.00     0.013 A 
ATOM     37  C   UNL     1       4.643   6.648   2.429  1.00  0.00     0.013 A 
ATOM     38  C   UNL     1       4.960   7.109   0.064  1.00  0.00     0.001 A 
ATOM     39  C   UNL     1       5.404   7.191   1.388  1.00  0.00     0.001 A 
ENDBRANCH  22  24
ENDBRANCH  19  20
ENDBRANCH   9  19
ENDBRANCH   6   8
ENDBRANCH   5   6
ENDBRANCH   4   5
ENDBRANCH   3   4
ENDBRANCH   2   3
ENDBRANCH   1   2
BRANCH   1  40
ATOM     40  C   UNL     1       4.563  -1.930  -6.086  1.00  0.00     0.188 C 
BRANCH  40  41
ATOM     41  O   UNL     1       4.246  -3.261  -6.473  1.00  0.00    -0.376 OA
BRANCH  41  42
ATOM     42  C   UNL     1       4.334  -3.595  -7.856  1.00  0.00     0.202 C 
BRANCH  42  43
ATOM     43  C   UNL     1       3.264  -2.941  -8.727  1.00  0.00     0.261 C 
BRANCH  43  44
ATOM     44  O   UNL     1       3.677  -1.603  -9.059  1.00  0.00    -0.460 OA
BRANCH  44  45
ATOM     45  C   UNL     1       2.774  -0.627  -8.814  1.00  0.00     0.338 C 
ATOM     46  O   UNL     1       1.632  -0.755  -8.414  1.00  0.00    -0.246 OA
BRANCH  45  47
ATOM     47  C   UNL     1       3.450   0.680  -8.940  1.00  0.00     0.060 A 
ATOM     48  C   UNL     1       4.305   0.966 -10.009  1.00  0.00     0.016 A 
ATOM     49  C   UNL     1       3.197   1.642  -7.955  1.00  0.00     0.016 A 
ATOM     50  C   UNL     1       4.879   2.235 -10.112  1.00  0.00     0.010 A 
ATOM     51  C   UNL     1       3.781   2.903  -8.052  1.00  0.00     0.010 A 
ATOM     52  C   UNL     1       4.608   3.213  -9.142  1.00  0.00    -0.014 A 
BRANCH  52  53
ATOM     53  C   UNL     1       5.081   4.602  -9.328  1.00  0.00     0.031 A 
ATOM     54  C   UNL     1       6.374   5.069  -8.738  1.00  0.00     0.074 A 
ATOM     55  C   UNL     1       4.305   5.452 -10.025  1.00  0.00     0.049 A 
ATOM     56  N   UNL     1       6.938   6.246  -8.822  1.00  0.00    -0.248 NA
ATOM     57  C   UNL     1       7.130   4.090  -7.944  1.00  0.00     0.031 C 
ATOM     58  C   UNL     1       3.017   5.108 -10.629  1.00  0.00     0.029 A 
ATOM     59  N   UNL     1       4.482   6.774 -10.339  1.00  0.00    -0.354 N 
ATOM     60  C   UNL     1       8.123   6.151  -8.108  1.00  0.00     0.074 A 
ATOM     61  C   UNL     1       8.182   4.808  -7.566  1.00  0.00     0.031 C 
ATOM     62  C   UNL     1       2.520   6.192 -11.245  1.00  0.00     0.029 A 
ATOM     63  C   UNL     1       3.451   7.304 -11.073  1.00  0.00     0.049 A 
ATOM     64  H   UNL     1       5.272   7.294 -10.064  1.00  0.00     0.167 HD
ATOM     65  C   UNL     1       9.076   7.098  -7.937  1.00  0.00     0.037 A 
ATOM     66  C   UNL     1       3.280   8.546 -11.560  1.00  0.00     0.037 A 
ATOM     67  C   UNL     1       9.013   8.431  -8.481  1.00  0.00     0.049 A 
ATOM     68  C   UNL     1       4.343   9.581 -11.335  1.00  0.00     0.074 A 
ATOM     69  C   UNL     1       9.956   9.441  -8.398  1.00  0.00     0.029 A 
ATOM     70  N   UNL     1       7.945   8.941  -9.204  1.00  0.00    -0.354 N 
ATOM     71  N   UNL     1       5.485   9.465 -10.702  1.00  0.00    -0.248 NA
ATOM     72  C   UNL     1       4.098  10.916 -11.897  1.00  0.00     0.031 C 
ATOM     73  C   UNL     1       9.445  10.573  -9.043  1.00  0.00     0.029 A 
ATOM     74  C   UNL     1       8.198  10.258  -9.555  1.00  0.00     0.049 A 
ATOM     75  H   UNL     1       7.129   8.441  -9.435  1.00  0.00     0.167 HD
ATOM     76  C   UNL     1       6.102  10.703 -10.803  1.00  0.00     0.074 A 
ATOM     77  C   UNL     1       5.213  11.554 -11.567  1.00  0.00     0.031 C 
ATOM     78  C   UNL     1       7.300  11.095 -10.307  1.00  0.00     0.037 A 
BRANCH  65  79
ATOM     79  C   UNL     1      10.286   6.731  -7.134  1.00  0.00     0.064 A 
ATOM     80  C   UNL     1      11.301   5.929  -7.676  1.00  0.00     0.173 A 
ATOM     81  C   UNL     1      10.470   7.248  -5.844  1.00  0.00     0.173 A 
ATOM     82  F   UNL     1      11.162   5.402  -8.901  1.00  0.00    -0.203 F 
ATOM     83  C   UNL     1      12.456   5.653  -6.950  1.00  0.00     0.198 A 
ATOM     84  C   UNL     1      11.635   6.984  -5.128  1.00  0.00     0.198 A 
ATOM     85  F   UNL     1       9.526   8.018  -5.283  1.00  0.00    -0.203 F 
ATOM     86  F   UNL     1      13.404   4.865  -7.477  1.00  0.00    -0.200 F 
ATOM     87  C   UNL     1      12.626   6.187  -5.681  1.00  0.00     0.200 A 
ATOM     88  F   UNL     1      11.799   7.504  -3.904  1.00  0.00    -0.200 F 
ATOM     89  F   UNL     1      13.743   5.928  -4.988  1.00  0.00    -0.200 F 
ENDBRANCH  65  79
BRANCH  66  90
ATOM     90  C   UNL     1       2.065   8.857 -12.349  1.00  0.00     0.064 A 
ATOM     91  C   UNL     1       2.130   8.964 -13.744  1.00  0.00     0.173 A 
ATOM     92  C   UNL     1       0.818   9.021 -11.732  1.00  0.00     0.173 A 
ATOM     93  F   UNL     1       3.308   8.831 -14.371  1.00  0.00    -0.203 F 
ATOM     94  C   UNL     1       0.989   9.229 -14.496  1.00  0.00     0.198 A 
ATOM     95  C   UNL     1      -0.326   9.269 -12.487  1.00  0.00     0.198 A 
ATOM     96  F   UNL     1       0.711   8.923 -10.399  1.00  0.00    -0.203 F 
ATOM     97  F   UNL     1       1.079   9.348 -15.827  1.00  0.00    -0.200 F 
ATOM     98  C   UNL     1      -0.240   9.375 -13.867  1.00  0.00     0.200 A 
ATOM     99  F   UNL     1      -1.512   9.402 -11.878  1.00  0.00    -0.200 F 
ATOM    100  F   UNL     1      -1.339   9.622 -14.592  1.00  0.00    -0.200 F 
ENDBRANCH  66  90
BRANCH  78 101
ATOM    101  C   UNL     1       7.721  12.507 -10.577  1.00  0.00     0.064 A 
ATOM    102  C   UNL     1       7.170  13.580  -9.863  1.00  0.00     0.173 A 
ATOM    103  C   UNL     1       8.717  12.786 -11.525  1.00  0.00     0.173 A 
ATOM    104  F   UNL     1       6.205  13.362  -8.957  1.00  0.00    -0.203 F 
ATOM    105  C   UNL     1       7.591  14.886 -10.098  1.00  0.00     0.198 A 
ATOM    106  C   UNL     1       9.149  14.091 -11.744  1.00  0.00     0.198 A 
ATOM    107  F   UNL     1       9.276  11.791 -12.230  1.00  0.00    -0.203 F 
ATOM    108  F   UNL     1       7.029  15.900  -9.426  1.00  0.00    -0.200 F 
ATOM    109  C   UNL     1       8.584  15.139 -11.033  1.00  0.00     0.200 A 
ATOM    110  F   UNL     1      10.113  14.334 -12.642  1.00  0.00    -0.200 F 
ATOM    111  F   UNL     1       8.992  16.397 -11.253  1.00  0.00    -0.200 F 
ENDBRANCH  78 101
ENDBRANCH  52  53
ENDBRANCH  45  47
ENDBRANCH  44  45
ENDBRANCH  43  44
ENDBRANCH  42  43
ENDBRANCH  41  42
ENDBRANCH  40  41
ENDBRANCH   1  40
TORSDOF 20
