REMARK SMILES CC1(C)[C@H](C(=O)OCCOCCOCCOC(=O)c2ccc(-c3c4nc(c(-c5c(F)c(F)c(F)c(F)c5F)c5ccc([nH]5)c(-c5c(F)c(F)c(F)c(F)c5F)c5nc(c(-c6c(F)c(F)c(F)c(F)c6F)c6ccc3[nH]6)C=C5)C=C4)cc2)[C@@H]1C(=O)Nc1ccc(Cl)c(Br)c1
REMARK SMILES IDX 11 1 10 2 9 3 8 4 7 5 5 6 6 7 4 8 1 9 2 10 3 11 82 12 83 13
REMARK SMILES IDX 84 14 85 15 86 17 87 18 93 19 88 20 91 21 89 22 92 23 90 24
REMARK SMILES IDX 12 25 13 26 14 27 15 28 16 29 17 30 18 31 19 32 20 33 81 34
REMARK SMILES IDX 21 35 80 36 22 37 23 38 24 39 74 40 25 41 79 42 73 43 75 44
REMARK SMILES IDX 26 45 78 46 72 47 71 48 27 50 59 51 39 52 58 53 40 54 43 55
REMARK SMILES IDX 57 56 76 57 41 58 42 59 56 61 77 62 44 63 28 64 29 65 37 66
REMARK SMILES IDX 30 67 31 68 35 69 38 70 32 71 33 72 36 73 34 74 60 75 61 76
REMARK SMILES IDX 69 77 62 78 63 79 67 80 70 81 64 82 65 83 68 84 66 85 45 86
REMARK SMILES IDX 46 87 54 88 47 89 48 90 52 91 55 92 49 93 50 94 53 95 51 96
REMARK H PARENT 85 16 75 49 43 60
REMARK Flexibility Score: inf
ROOT
ATOM      1  C   UNL     1      -0.940   1.404  -4.347  1.00  0.00     0.188 C 
ENDROOT
BRANCH   1   2
ATOM      2  O   UNL     1      -1.624   2.642  -4.464  1.00  0.00    -0.376 OA
BRANCH   2   3
ATOM      3  C   UNL     1      -2.704   2.858  -3.570  1.00  0.00     0.202 C 
BRANCH   3   4
ATOM      4  C   UNL     1      -2.278   3.225  -2.143  1.00  0.00     0.261 C 
BRANCH   4   5
ATOM      5  O   UNL     1      -1.688   2.212  -1.302  1.00  0.00    -0.463 OA
BRANCH   5   6
ATOM      6  C   UNL     1      -2.156   0.948  -1.331  1.00  0.00     0.310 C 
ATOM      7  O   UNL     1      -3.050   0.537  -2.054  1.00  0.00    -0.252 OA
BRANCH   6   8
ATOM      8  C   UNL     1      -1.453  -0.014  -0.451  1.00  0.00     0.118 C 
ATOM      9  C   UNL     1       0.776  -0.992   0.320  1.00  0.00     0.013 C 
ATOM     10  C   UNL     1      -0.178   0.185   0.341  1.00  0.00    -0.009 C 
ATOM     11  C   UNL     1       0.555   1.507   0.393  1.00  0.00     0.013 C 
ATOM     12  C   UNL     1      -1.534   0.028   1.060  1.00  0.00     0.100 C 
BRANCH  12  13
ATOM     13  C   UNL     1      -2.075   1.158   1.865  1.00  0.00     0.228 C 
ATOM     14  O   UNL     1      -1.387   1.624   2.769  1.00  0.00    -0.274 OA
ATOM     15  N   UNL     1      -3.299   1.724   1.594  1.00  0.00    -0.326 N 
ATOM     16  H   UNL     1      -3.477   2.561   2.081  1.00  0.00     0.169 HD
BRANCH  15  17
ATOM     17  C   UNL     1      -4.335   1.314   0.746  1.00  0.00     0.042 A 
ATOM     18  C   UNL     1      -5.074   2.322   0.119  1.00  0.00     0.028 A 
ATOM     19  C   UNL     1      -4.603  -0.023   0.446  1.00  0.00     0.043 A 
ATOM     20  C   UNL     1      -5.961   2.004  -0.913  1.00  0.00     0.024 A 
ATOM     21  C   UNL     1      -5.508  -0.346  -0.577  1.00  0.00     0.038 A 
ATOM     22  C   UNL     1      -6.161   0.672  -1.283  1.00  0.00     0.055 A 
ATOM     23  Br  UNL     1      -5.717  -2.185  -1.007  1.00  0.00    -0.049 Br
ATOM     24  Cl  UNL     1      -7.186   0.366  -2.638  1.00  0.00    -0.083 Cl
ENDBRANCH  15  17
ENDBRANCH  12  13
ENDBRANCH   6   8
ENDBRANCH   5   6
ENDBRANCH   4   5
ENDBRANCH   3   4
ENDBRANCH   2   3
ENDBRANCH   1   2
BRANCH   1  25
ATOM     25  C   UNL     1       0.313   1.443  -3.454  1.00  0.00     0.188 C 
BRANCH  25  26
ATOM     26  O   UNL     1       1.055   2.645  -3.302  1.00  0.00    -0.376 OA
BRANCH  26  27
ATOM     27  C   UNL     1       1.169   3.525  -4.409  1.00  0.00     0.202 C 
BRANCH  27  28
ATOM     28  C   UNL     1       1.954   3.034  -5.631  1.00  0.00     0.261 C 
BRANCH  28  29
ATOM     29  O   UNL     1       1.534   1.751  -6.124  1.00  0.00    -0.460 OA
BRANCH  29  30
ATOM     30  C   UNL     1       2.345   0.710  -5.814  1.00  0.00     0.338 C 
ATOM     31  O   UNL     1       3.420   0.754  -5.240  1.00  0.00    -0.246 OA
BRANCH  30  32
ATOM     32  C   UNL     1       1.642  -0.563  -6.097  1.00  0.00     0.060 A 
ATOM     33  C   UNL     1       1.611  -1.542  -5.090  1.00  0.00     0.016 A 
ATOM     34  C   UNL     1       1.047  -0.808  -7.335  1.00  0.00     0.016 A 
ATOM     35  C   UNL     1       1.018  -2.782  -5.328  1.00  0.00     0.010 A 
ATOM     36  C   UNL     1       0.488  -2.064  -7.588  1.00  0.00     0.010 A 
ATOM     37  C   UNL     1       0.508  -3.067  -6.600  1.00  0.00    -0.014 A 
BRANCH  37  38
ATOM     38  C   UNL     1       0.261  -4.474  -6.994  1.00  0.00     0.031 A 
ATOM     39  C   UNL     1       1.401  -5.225  -7.627  1.00  0.00     0.074 A 
ATOM     40  C   UNL     1      -0.929  -5.071  -6.819  1.00  0.00     0.049 A 
ATOM     41  N   UNL     1       1.413  -6.404  -8.194  1.00  0.00    -0.248 NA
ATOM     42  C   UNL     1       2.708  -4.545  -7.622  1.00  0.00     0.031 C 
ATOM     43  C   UNL     1      -2.088  -4.479  -6.158  1.00  0.00     0.029 A 
ATOM     44  N   UNL     1      -1.360  -6.316  -7.210  1.00  0.00    -0.354 N 
ATOM     45  C   UNL     1       2.718  -6.595  -8.628  1.00  0.00     0.074 A 
ATOM     46  C   UNL     1       3.468  -5.412  -8.271  1.00  0.00     0.031 C 
ATOM     47  C   UNL     1      -3.112  -5.351  -6.215  1.00  0.00     0.029 A 
ATOM     48  C   UNL     1      -2.689  -6.542  -6.952  1.00  0.00     0.049 A 
ATOM     49  H   UNL     1      -0.771  -6.982  -7.634  1.00  0.00     0.167 HD
ATOM     50  C   UNL     1       3.245  -7.662  -9.272  1.00  0.00     0.037 A 
ATOM     51  C   UNL     1      -3.476  -7.577  -7.308  1.00  0.00     0.037 A 
ATOM     52  C   UNL     1       2.498  -8.834  -9.635  1.00  0.00     0.049 A 
ATOM     53  C   UNL     1      -2.889  -8.719  -8.102  1.00  0.00     0.074 A 
ATOM     54  C   UNL     1       2.936  -9.967 -10.295  1.00  0.00     0.029 A 
ATOM     55  N   UNL     1       1.149  -9.017  -9.371  1.00  0.00    -0.354 N 
ATOM     56  N   UNL     1      -1.656  -8.896  -8.514  1.00  0.00    -0.248 NA
ATOM     57  C   UNL     1      -3.806  -9.803  -8.487  1.00  0.00     0.031 C 
ATOM     58  C   UNL     1       1.841 -10.819 -10.470  1.00  0.00     0.029 A 
ATOM     59  C   UNL     1       0.734 -10.239  -9.871  1.00  0.00     0.049 A 
ATOM     60  H   UNL     1       0.572  -8.374  -8.898  1.00  0.00     0.167 HD
ATOM     61  C   UNL     1      -1.642 -10.122  -9.169  1.00  0.00     0.074 A 
ATOM     62  C   UNL     1      -2.989 -10.647  -9.102  1.00  0.00     0.031 C 
ATOM     63  C   UNL     1      -0.606 -10.758  -9.768  1.00  0.00     0.037 A 
BRANCH  50  64
ATOM     64  C   UNL     1       4.690  -7.586  -9.660  1.00  0.00     0.064 A 
ATOM     65  C   UNL     1       5.715  -7.677  -8.708  1.00  0.00     0.173 A 
ATOM     66  C   UNL     1       5.053  -7.432 -11.007  1.00  0.00     0.173 A 
ATOM     67  F   UNL     1       5.418  -7.801  -7.405  1.00  0.00    -0.203 F 
ATOM     68  C   UNL     1       7.053  -7.595  -9.087  1.00  0.00     0.198 A 
ATOM     69  C   UNL     1       6.391  -7.379 -11.385  1.00  0.00     0.198 A 
ATOM     70  F   UNL     1       4.109  -7.337 -11.955  1.00  0.00    -0.203 F 
ATOM     71  F   UNL     1       8.015  -7.636  -8.156  1.00  0.00    -0.200 F 
ATOM     72  C   UNL     1       7.389  -7.453 -10.426  1.00  0.00     0.200 A 
ATOM     73  F   UNL     1       6.714  -7.250 -12.680  1.00  0.00    -0.200 F 
ATOM     74  F   UNL     1       8.677  -7.379 -10.790  1.00  0.00    -0.200 F 
ENDBRANCH  50  64
BRANCH  51  75
ATOM     75  C   UNL     1      -4.919  -7.577  -6.946  1.00  0.00     0.064 A 
ATOM     76  C   UNL     1      -5.432  -8.496  -6.021  1.00  0.00     0.173 A 
ATOM     77  C   UNL     1      -5.819  -6.682  -7.544  1.00  0.00     0.173 A 
ATOM     78  F   UNL     1      -4.617  -9.393  -5.447  1.00  0.00    -0.203 F 
ATOM     79  C   UNL     1      -6.792  -8.532  -5.720  1.00  0.00     0.198 A 
ATOM     80  C   UNL     1      -7.175  -6.701  -7.222  1.00  0.00     0.198 A 
ATOM     81  F   UNL     1      -5.381  -5.789  -8.444  1.00  0.00    -0.203 F 
ATOM     82  F   UNL     1      -7.264  -9.455  -4.871  1.00  0.00    -0.200 F 
ATOM     83  C   UNL     1      -7.662  -7.631  -6.316  1.00  0.00     0.200 A 
ATOM     84  F   UNL     1      -8.010  -5.826  -7.798  1.00  0.00    -0.200 F 
ATOM     85  F   UNL     1      -8.970  -7.668  -6.029  1.00  0.00    -0.200 F 
ENDBRANCH  51  75
BRANCH  63  86
ATOM     86  C   UNL     1      -0.859 -12.121 -10.344  1.00  0.00     0.064 A 
ATOM     87  C   UNL     1      -1.571 -12.299 -11.537  1.00  0.00     0.173 A 
ATOM     88  C   UNL     1      -0.309 -13.256  -9.728  1.00  0.00     0.173 A 
ATOM     89  F   UNL     1      -2.125 -11.246 -12.157  1.00  0.00    -0.203 F 
ATOM     90  C   UNL     1      -1.738 -13.568 -12.086  1.00  0.00     0.198 A 
ATOM     91  C   UNL     1      -0.453 -14.519 -10.294  1.00  0.00     0.198 A 
ATOM     92  F   UNL     1       0.391 -13.136  -8.590  1.00  0.00    -0.203 F 
ATOM     93  F   UNL     1      -2.450 -13.722 -13.211  1.00  0.00    -0.200 F 
ATOM     94  C   UNL     1      -1.171 -14.675 -11.470  1.00  0.00     0.200 A 
ATOM     95  F   UNL     1       0.108 -15.584  -9.706  1.00  0.00    -0.200 F 
ATOM     96  F   UNL     1      -1.318 -15.893 -12.010  1.00  0.00    -0.200 F 
ENDBRANCH  63  86
ENDBRANCH  37  38
ENDBRANCH  30  32
ENDBRANCH  29  30
ENDBRANCH  28  29
ENDBRANCH  27  28
ENDBRANCH  26  27
ENDBRANCH  25  26
ENDBRANCH   1  25
TORSDOF 19
