REMARK SMILES COc1cccc(N2CCN(c3ccc(NC(=O)c4ccc(F)cc4)c(C(=O)OCCOCCOCCOC(=O)c4ccc(-c5c6nc(c(-c7c(F)c(F)c(F)c(F)c7F)c7ccc([nH]7)c(-c7c(F)c(F)c(F)c(F)c7F)c7nc(c(-c8c(F)c(F)c(F)c(F)c8F)c8ccc5[nH]8)C=C7)C=C6)cc4)c3)CC2)c1
REMARK SMILES IDX 33 1 32 2 31 3 30 4 29 5 27 6 28 7 26 8 12 9 13 10 104 11
REMARK SMILES IDX 14 12 15 13 11 14 8 15 9 16 106 17 10 18 105 19 7 20 3 21
REMARK SMILES IDX 4 22 107 23 5 24 6 25 2 26 1 27 16 28 17 29 18 31 19 32
REMARK SMILES IDX 20 33 25 34 21 35 24 36 22 37 23 38 34 39 35 40 36 41 37 42
REMARK SMILES IDX 38 43 39 44 40 45 41 46 42 47 103 48 43 49 102 50 44 51
REMARK SMILES IDX 45 52 46 53 96 54 47 55 101 56 95 57 97 58 48 59 100 60
REMARK SMILES IDX 94 61 93 62 49 64 81 65 61 66 80 67 62 68 65 69 79 70 98 71
REMARK SMILES IDX 63 72 64 73 78 75 99 76 66 77 50 78 51 79 59 80 52 81 53 82
REMARK SMILES IDX 57 83 60 84 54 85 55 86 58 87 56 88 82 89 83 90 91 91 84 92
REMARK SMILES IDX 85 93 89 94 92 95 86 96 87 97 90 98 88 99 67 100 68 101
REMARK SMILES IDX 76 102 69 103 70 104 74 105 77 106 71 107 72 108 75 109
REMARK SMILES IDX 73 110
REMARK H PARENT 16 30 97 63 65 74
REMARK Flexibility Score: inf
ROOT
ATOM      1  C   UNL     1      11.306  -1.631   7.909  1.00  0.00     0.188 C 
ENDROOT
BRANCH   1   2
ATOM      2  O   UNL     1      12.001  -0.528   8.461  1.00  0.00    -0.376 OA
BRANCH   2   3
ATOM      3  C   UNL     1      11.585   0.794   8.157  1.00  0.00     0.202 C 
BRANCH   3   4
ATOM      4  C   UNL     1      11.293   1.224   6.709  1.00  0.00     0.261 C 
BRANCH   4   5
ATOM      5  O   UNL     1      10.405   0.360   5.981  1.00  0.00    -0.460 OA
BRANCH   5   6
ATOM      6  C   UNL     1      10.936  -0.287   4.911  1.00  0.00     0.340 C 
ATOM      7  O   UNL     1      12.078  -0.188   4.489  1.00  0.00    -0.246 OA
BRANCH   6   8
ATOM      8  C   UNL     1      10.002  -1.352   4.475  1.00  0.00     0.085 A 
ATOM      9  C   UNL     1       7.695  -2.027   3.993  1.00  0.00     0.038 A 
ATOM     10  C   UNL     1       8.147  -3.347   3.996  1.00  0.00     0.028 A 
ATOM     11  C   UNL     1       8.644  -1.038   4.285  1.00  0.00     0.043 A 
ATOM     12  C   UNL     1       9.488  -3.669   4.206  1.00  0.00     0.029 A 
ATOM     13  C   UNL     1      10.455  -2.677   4.343  1.00  0.00     0.056 A 
BRANCH   9  14
ATOM     14  N   UNL     1       6.378  -1.730   3.749  1.00  0.00    -0.368 N 
ATOM     15  N   UNL     1       3.809  -0.676   4.298  1.00  0.00    -0.368 N 
ATOM     16  C   UNL     1       4.210  -1.927   4.949  1.00  0.00     0.138 C 
ATOM     17  C   UNL     1       4.889   0.241   3.913  1.00  0.00     0.138 C 
ATOM     18  C   UNL     1       5.273  -2.653   4.089  1.00  0.00     0.138 C 
ATOM     19  C   UNL     1       5.947  -0.494   3.068  1.00  0.00     0.138 C 
BRANCH  15  20
ATOM     20  C   UNL     1       2.490  -0.398   4.034  1.00  0.00     0.040 A 
ATOM     21  C   UNL     1       0.735   0.245   2.468  1.00  0.00     0.120 A 
ATOM     22  C   UNL     1      -0.195   0.235   3.506  1.00  0.00     0.046 A 
ATOM     23  C   UNL     1       2.072  -0.050   2.741  1.00  0.00     0.072 A 
ATOM     24  C   UNL     1       0.197  -0.122   4.794  1.00  0.00     0.006 A 
ATOM     25  C   UNL     1       1.528  -0.450   5.048  1.00  0.00     0.026 A 
BRANCH  21  26
ATOM     26  O   UNL     1       0.248   0.607   1.241  1.00  0.00    -0.497 OA
ATOM     27  C   UNL     1       0.898   0.005   0.126  1.00  0.00     0.278 C 
ENDBRANCH  21  26
ENDBRANCH  15  20
ENDBRANCH   9  14
BRANCH  13  28
ATOM     28  N   UNL     1      11.839  -2.977   4.389  1.00  0.00    -0.321 N 
ATOM     29  C   UNL     1      12.546  -4.095   3.994  1.00  0.00     0.255 C 
ATOM     30  H   UNL     1      12.395  -2.261   4.771  1.00  0.00     0.170 HD
ATOM     31  O   UNL     1      13.733  -4.215   4.285  1.00  0.00    -0.269 OA
BRANCH  29  32
ATOM     32  C   UNL     1      11.916  -5.133   3.151  1.00  0.00     0.040 A 
ATOM     33  C   UNL     1      11.907  -6.464   3.588  1.00  0.00     0.017 A 
ATOM     34  C   UNL     1      11.275  -4.770   1.957  1.00  0.00     0.017 A 
ATOM     35  C   UNL     1      11.172  -7.413   2.874  1.00  0.00     0.040 A 
ATOM     36  C   UNL     1      10.536  -5.721   1.254  1.00  0.00     0.040 A 
ATOM     37  C   UNL     1      10.480  -7.029   1.727  1.00  0.00     0.123 A 
ATOM     38  F   UNL     1       9.736  -7.930   1.073  1.00  0.00    -0.207 F 
ENDBRANCH  29  32
ENDBRANCH  13  28
ENDBRANCH   6   8
ENDBRANCH   5   6
ENDBRANCH   4   5
ENDBRANCH   3   4
ENDBRANCH   2   3
ENDBRANCH   1   2
BRANCH   1  39
ATOM     39  C   UNL     1       9.772  -1.738   8.039  1.00  0.00     0.188 C 
BRANCH  39  40
ATOM     40  O   UNL     1       9.098  -0.696   8.696  1.00  0.00    -0.376 OA
BRANCH  40  41
ATOM     41  C   UNL     1       9.063  -0.629  10.109  1.00  0.00     0.202 C 
BRANCH  41  42
ATOM     42  C   UNL     1       9.660  -1.660  11.089  1.00  0.00     0.261 C 
BRANCH  42  43
ATOM     43  O   UNL     1      10.537  -2.667  10.578  1.00  0.00    -0.460 OA
BRANCH  43  44
ATOM     44  C   UNL     1      10.013  -3.910  10.473  1.00  0.00     0.338 C 
ATOM     45  O   UNL     1       8.865  -4.257  10.715  1.00  0.00    -0.246 OA
BRANCH  44  46
ATOM     46  C   UNL     1      11.008  -4.795   9.844  1.00  0.00     0.060 A 
ATOM     47  C   UNL     1      10.770  -5.265   8.546  1.00  0.00     0.016 A 
ATOM     48  C   UNL     1      12.153  -5.182  10.541  1.00  0.00     0.016 A 
ATOM     49  C   UNL     1      11.677  -6.137   7.944  1.00  0.00     0.010 A 
ATOM     50  C   UNL     1      13.050  -6.072   9.943  1.00  0.00     0.010 A 
ATOM     51  C   UNL     1      12.806  -6.570   8.650  1.00  0.00    -0.014 A 
BRANCH  51  52
ATOM     52  C   UNL     1      13.669  -7.638   8.088  1.00  0.00     0.031 A 
ATOM     53  C   UNL     1      13.485  -9.051   8.556  1.00  0.00     0.074 A 
ATOM     54  C   UNL     1      14.612  -7.356   7.174  1.00  0.00     0.049 A 
ATOM     55  N   UNL     1      14.158 -10.127   8.238  1.00  0.00    -0.248 NA
ATOM     56  C   UNL     1      12.398  -9.279   9.518  1.00  0.00     0.031 C 
ATOM     57  C   UNL     1      14.873  -6.031   6.627  1.00  0.00     0.029 A 
ATOM     58  N   UNL     1      15.527  -8.168   6.551  1.00  0.00    -0.354 N 
ATOM     59  C   UNL     1      13.596 -11.155   8.980  1.00  0.00     0.074 A 
ATOM     60  C   UNL     1      12.534 -10.572   9.774  1.00  0.00     0.031 C 
ATOM     61  C   UNL     1      15.885  -6.115   5.748  1.00  0.00     0.029 A 
ATOM     62  C   UNL     1      16.373  -7.491   5.707  1.00  0.00     0.049 A 
ATOM     63  H   UNL     1      15.572  -9.141   6.694  1.00  0.00     0.167 HD
ATOM     64  C   UNL     1      13.940 -12.466   9.002  1.00  0.00     0.037 A 
ATOM     65  C   UNL     1      17.438  -7.924   5.004  1.00  0.00     0.037 A 
ATOM     66  C   UNL     1      15.002 -13.039   8.215  1.00  0.00     0.049 A 
ATOM     67  C   UNL     1      17.829  -9.376   5.073  1.00  0.00     0.074 A 
ATOM     68  C   UNL     1      15.394 -14.364   8.134  1.00  0.00     0.029 A 
ATOM     69  N   UNL     1      15.856 -12.320   7.391  1.00  0.00    -0.354 N 
ATOM     70  N   UNL     1      17.266 -10.354   5.742  1.00  0.00    -0.248 NA
ATOM     71  C   UNL     1      19.006  -9.785   4.294  1.00  0.00     0.031 C 
ATOM     72  C   UNL     1      16.529 -14.436   7.318  1.00  0.00     0.029 A 
ATOM     73  C   UNL     1      16.802 -13.167   6.831  1.00  0.00     0.049 A 
ATOM     74  H   UNL     1      15.799 -11.351   7.227  1.00  0.00     0.167 HD
ATOM     75  C   UNL     1      18.011 -11.492   5.460  1.00  0.00     0.074 A 
ATOM     76  C   UNL     1      19.052 -11.088   4.537  1.00  0.00     0.031 C 
ATOM     77  C   UNL     1      17.847 -12.755   5.926  1.00  0.00     0.037 A 
BRANCH  64  78
ATOM     78  C   UNL     1      13.194 -13.355   9.954  1.00  0.00     0.064 A 
ATOM     79  C   UNL     1      11.840 -13.675   9.772  1.00  0.00     0.173 A 
ATOM     80  C   UNL     1      13.850 -13.898  11.070  1.00  0.00     0.173 A 
ATOM     81  F   UNL     1      11.161 -13.172   8.730  1.00  0.00    -0.203 F 
ATOM     82  C   UNL     1      11.161 -14.470  10.694  1.00  0.00     0.198 A 
ATOM     83  C   UNL     1      13.178 -14.720  11.969  1.00  0.00     0.198 A 
ATOM     84  F   UNL     1      15.146 -13.629  11.290  1.00  0.00    -0.203 F 
ATOM     85  F   UNL     1       9.852 -14.707  10.534  1.00  0.00    -0.200 F 
ATOM     86  C   UNL     1      11.832 -14.995  11.788  1.00  0.00     0.200 A 
ATOM     87  F   UNL     1      13.832 -15.239  13.018  1.00  0.00    -0.200 F 
ATOM     88  F   UNL     1      11.177 -15.758  12.674  1.00  0.00    -0.200 F 
ENDBRANCH  64  78
BRANCH  65  89
ATOM     89  C   UNL     1      18.223  -6.954   4.196  1.00  0.00     0.064 A 
ATOM     90  C   UNL     1      18.224  -7.005   2.796  1.00  0.00     0.173 A 
ATOM     91  C   UNL     1      18.980  -5.945   4.812  1.00  0.00     0.173 A 
ATOM     92  F   UNL     1      17.547  -7.973   2.160  1.00  0.00    -0.203 F 
ATOM     93  C   UNL     1      18.955  -6.087   2.042  1.00  0.00     0.198 A 
ATOM     94  C   UNL     1      19.685  -5.010   4.058  1.00  0.00     0.198 A 
ATOM     95  F   UNL     1      19.026  -5.862   6.149  1.00  0.00    -0.203 F 
ATOM     96  F   UNL     1      18.976  -6.186   0.706  1.00  0.00    -0.200 F 
ATOM     97  C   UNL     1      19.675  -5.084   2.674  1.00  0.00     0.200 A 
ATOM     98  F   UNL     1      20.377  -4.040   4.672  1.00  0.00    -0.200 F 
ATOM     99  F   UNL     1      20.372  -4.199   1.948  1.00  0.00    -0.200 F 
ENDBRANCH  65  89
BRANCH  77 100
ATOM    100  C   UNL     1      18.809 -13.803   5.440  1.00  0.00     0.064 A 
ATOM    101  C   UNL     1      20.154 -13.814   5.841  1.00  0.00     0.173 A 
ATOM    102  C   UNL     1      18.372 -14.836   4.596  1.00  0.00     0.173 A 
ATOM    103  F   UNL     1      20.629 -12.844   6.637  1.00  0.00    -0.203 F 
ATOM    104  C   UNL     1      21.028 -14.803   5.396  1.00  0.00     0.198 A 
ATOM    105  C   UNL     1      19.240 -15.842   4.180  1.00  0.00     0.198 A 
ATOM    106  F   UNL     1      17.095 -14.880   4.187  1.00  0.00    -0.203 F 
ATOM    107  F   UNL     1      22.320 -14.764   5.753  1.00  0.00    -0.200 F 
ATOM    108  C   UNL     1      20.569 -15.820   4.573  1.00  0.00     0.200 A 
ATOM    109  F   UNL     1      18.789 -16.833   3.399  1.00  0.00    -0.200 F 
ATOM    110  F   UNL     1      21.409 -16.776   4.153  1.00  0.00    -0.200 F 
ENDBRANCH  77 100
ENDBRANCH  51  52
ENDBRANCH  44  46
ENDBRANCH  43  44
ENDBRANCH  42  43
ENDBRANCH  41  42
ENDBRANCH  40  41
ENDBRANCH  39  40
ENDBRANCH   1  39
TORSDOF 22
