REMARK SMILES CN1C(=O)C[C@H](C(=O)OCCOCCOCCOC(=O)c2ccc(-c3c4nc(c(-c5c(F)c(F)c(F)c(F)c5F)c5ccc([nH]5)c(-c5c(F)c(F)c(F)c(F)c5F)c5nc(c(-c6c(F)c(F)c(F)c(F)c6F)c6ccc3[nH]6)C=C5)C=C4)cc2)c2cccc(Cl)c21
REMARK SMILES IDX 14 1 13 2 12 3 11 4 10 5 9 6 7 7 8 8 6 9 1 10 2 11 3 12
REMARK SMILES IDX 90 13 4 14 5 15 84 16 88 17 85 18 87 19 89 20 86 21 15 22
REMARK SMILES IDX 16 23 17 24 18 25 19 26 20 27 21 28 22 29 83 30 23 31 82 32
REMARK SMILES IDX 24 33 25 34 26 35 76 36 27 37 81 38 75 39 77 40 28 41 80 42
REMARK SMILES IDX 74 43 73 44 29 46 61 47 41 48 60 49 42 50 45 51 59 52 78 53
REMARK SMILES IDX 43 54 44 55 58 57 79 58 46 59 30 60 31 61 39 62 32 63 33 64
REMARK SMILES IDX 37 65 40 66 34 67 35 68 38 69 36 70 62 71 63 72 71 73 64 74
REMARK SMILES IDX 65 75 69 76 72 77 66 78 67 79 70 80 68 81 47 82 48 83 56 84
REMARK SMILES IDX 49 85 50 86 54 87 57 88 51 89 52 90 55 91 53 92
REMARK H PARENT 77 45 45 56
REMARK Flexibility Score: inf
ROOT
ATOM      1  C   UNL     1      -2.659  -4.841   2.369  1.00  0.00     0.188 C 
ENDROOT
BRANCH   1   2
ATOM      2  C   UNL     1      -2.724  -6.269   1.803  1.00  0.00     0.188 C 
BRANCH   2   3
ATOM      3  O   UNL     1      -2.019  -7.327   2.441  1.00  0.00    -0.376 OA
BRANCH   3   4
ATOM      4  C   UNL     1      -0.902  -7.049   3.268  1.00  0.00     0.202 C 
BRANCH   4   5
ATOM      5  C   UNL     1       0.357  -6.447   2.623  1.00  0.00     0.261 C 
BRANCH   5   6
ATOM      6  O   UNL     1       0.206  -5.252   1.825  1.00  0.00    -0.463 OA
BRANCH   6   7
ATOM      7  C   UNL     1       0.125  -5.430   0.477  1.00  0.00     0.314 C 
ATOM      8  O   UNL     1       0.077  -6.532  -0.061  1.00  0.00    -0.252 OA
BRANCH   7   9
ATOM      9  C   UNL     1       0.177  -4.125  -0.344  1.00  0.00     0.140 C 
ATOM     10  C   UNL     1       1.370   0.060  -0.251  1.00  0.00     0.153 C 
ATOM     11  N   UNL     1       1.044  -1.349  -0.365  1.00  0.00    -0.314 N 
ATOM     12  C   UNL     1      -0.305  -1.644  -0.234  1.00  0.00     0.227 C 
ATOM     13  C   UNL     1       2.025  -2.365  -0.661  1.00  0.00     0.066 A 
ATOM     14  O   UNL     1      -1.207  -0.813  -0.354  1.00  0.00    -0.274 OA
ATOM     15  C   UNL     1      -0.629  -3.008   0.272  1.00  0.00     0.120 C 
ATOM     16  C   UNL     1       1.599  -3.718  -0.671  1.00  0.00    -0.008 A 
ATOM     17  C   UNL     1       3.378  -2.119  -1.019  1.00  0.00     0.065 A 
ATOM     18  C   UNL     1       2.481  -4.747  -1.075  1.00  0.00     0.007 A 
ATOM     19  C   UNL     1       4.246  -3.175  -1.351  1.00  0.00     0.023 A 
ATOM     20  Cl  UNL     1       4.121  -0.563  -1.198  1.00  0.00    -0.082 Cl
ATOM     21  C   UNL     1       3.800  -4.484  -1.390  1.00  0.00     0.002 A 
ENDBRANCH   7   9
ENDBRANCH   6   7
ENDBRANCH   5   6
ENDBRANCH   4   5
ENDBRANCH   3   4
ENDBRANCH   2   3
ENDBRANCH   1   2
BRANCH   1  22
ATOM     22  O   UNL     1      -2.282  -4.766   3.719  1.00  0.00    -0.376 OA
BRANCH  22  23
ATOM     23  C   UNL     1      -3.236  -4.338   4.664  1.00  0.00     0.202 C 
BRANCH  23  24
ATOM     24  C   UNL     1      -4.630  -4.987   4.682  1.00  0.00     0.261 C 
BRANCH  24  25
ATOM     25  O   UNL     1      -5.192  -5.385   3.419  1.00  0.00    -0.460 OA
BRANCH  25  26
ATOM     26  C   UNL     1      -5.825  -4.446   2.682  1.00  0.00     0.338 C 
ATOM     27  O   UNL     1      -5.972  -3.265   2.962  1.00  0.00    -0.246 OA
BRANCH  26  28
ATOM     28  C   UNL     1      -6.148  -5.042   1.365  1.00  0.00     0.060 A 
ATOM     29  C   UNL     1      -5.482  -4.590   0.215  1.00  0.00     0.016 A 
ATOM     30  C   UNL     1      -7.111  -6.048   1.268  1.00  0.00     0.016 A 
ATOM     31  C   UNL     1      -5.789  -5.133  -1.036  1.00  0.00     0.010 A 
ATOM     32  C   UNL     1      -7.447  -6.560   0.011  1.00  0.00     0.010 A 
ATOM     33  C   UNL     1      -6.809  -6.085  -1.150  1.00  0.00    -0.014 A 
BRANCH  33  34
ATOM     34  C   UNL     1      -7.389  -6.404  -2.479  1.00  0.00     0.031 A 
ATOM     35  C   UNL     1      -8.547  -5.571  -2.956  1.00  0.00     0.074 A 
ATOM     36  C   UNL     1      -6.925  -7.409  -3.242  1.00  0.00     0.049 A 
ATOM     37  N   UNL     1      -9.299  -5.715  -4.017  1.00  0.00    -0.248 NA
ATOM     38  C   UNL     1      -8.907  -4.416  -2.116  1.00  0.00     0.031 C 
ATOM     39  C   UNL     1      -5.775  -8.250  -2.928  1.00  0.00     0.029 A 
ATOM     40  N   UNL     1      -7.388  -7.900  -4.440  1.00  0.00    -0.354 N 
ATOM     41  C   UNL     1     -10.216  -4.675  -3.970  1.00  0.00     0.074 A 
ATOM     42  C   UNL     1      -9.949  -3.922  -2.765  1.00  0.00     0.031 C 
ATOM     43  C   UNL     1      -5.632  -9.170  -3.900  1.00  0.00     0.029 A 
ATOM     44  C   UNL     1      -6.704  -9.005  -4.883  1.00  0.00     0.049 A 
ATOM     45  H   UNL     1      -8.138  -7.497  -4.934  1.00  0.00     0.167 HD
ATOM     46  C   UNL     1     -11.193  -4.370  -4.856  1.00  0.00     0.037 A 
ATOM     47  C   UNL     1      -6.937  -9.806  -5.944  1.00  0.00     0.037 A 
ATOM     48  C   UNL     1     -11.471  -5.128  -6.046  1.00  0.00     0.049 A 
ATOM     49  C   UNL     1      -8.100  -9.510  -6.860  1.00  0.00     0.074 A 
ATOM     50  C   UNL     1     -12.442  -4.897  -7.005  1.00  0.00     0.029 A 
ATOM     51  N   UNL     1     -10.786  -6.269  -6.435  1.00  0.00    -0.354 N 
ATOM     52  N   UNL     1      -8.959  -8.520  -6.818  1.00  0.00    -0.248 NA
ATOM     53  C   UNL     1      -8.327 -10.447  -7.972  1.00  0.00     0.031 C 
ATOM     54  C   UNL     1     -12.383  -5.931  -7.942  1.00  0.00     0.029 A 
ATOM     55  C   UNL     1     -11.333  -6.770  -7.605  1.00  0.00     0.049 A 
ATOM     56  H   UNL     1     -10.024  -6.663  -5.953  1.00  0.00     0.167 HD
ATOM     57  C   UNL     1      -9.805  -8.698  -7.907  1.00  0.00     0.074 A 
ATOM     58  C   UNL     1      -9.348  -9.882  -8.602  1.00  0.00     0.031 C 
ATOM     59  C   UNL     1     -10.866  -7.947  -8.295  1.00  0.00     0.037 A 
BRANCH  46  60
ATOM     60  C   UNL     1     -12.052  -3.176  -4.563  1.00  0.00     0.064 A 
ATOM     61  C   UNL     1     -11.554  -1.869  -4.672  1.00  0.00     0.173 A 
ATOM     62  C   UNL     1     -13.405  -3.339  -4.231  1.00  0.00     0.173 A 
ATOM     63  F   UNL     1     -10.262  -1.661  -4.968  1.00  0.00    -0.203 F 
ATOM     64  C   UNL     1     -12.378  -0.769  -4.448  1.00  0.00     0.198 A 
ATOM     65  C   UNL     1     -14.233  -2.237  -4.039  1.00  0.00     0.198 A 
ATOM     66  F   UNL     1     -13.930  -4.568  -4.114  1.00  0.00    -0.203 F 
ATOM     67  F   UNL     1     -11.873   0.470  -4.523  1.00  0.00    -0.200 F 
ATOM     68  C   UNL     1     -13.718  -0.954  -4.144  1.00  0.00     0.200 A 
ATOM     69  F   UNL     1     -15.531  -2.417  -3.760  1.00  0.00    -0.200 F 
ATOM     70  F   UNL     1     -14.515   0.107  -3.951  1.00  0.00    -0.200 F 
ENDBRANCH  46  60
BRANCH  47  71
ATOM     71  C   UNL     1      -6.053 -10.976  -6.199  1.00  0.00     0.064 A 
ATOM     72  C   UNL     1      -5.217 -11.016  -7.323  1.00  0.00     0.173 A 
ATOM     73  C   UNL     1      -6.032 -12.081  -5.334  1.00  0.00     0.173 A 
ATOM     74  F   UNL     1      -5.225 -10.001  -8.200  1.00  0.00    -0.203 F 
ATOM     75  C   UNL     1      -4.400 -12.116  -7.576  1.00  0.00     0.198 A 
ATOM     76  C   UNL     1      -5.193 -13.167  -5.572  1.00  0.00     0.198 A 
ATOM     77  F   UNL     1      -6.822 -12.101  -4.250  1.00  0.00    -0.203 F 
ATOM     78  F   UNL     1      -3.643 -12.146  -8.682  1.00  0.00    -0.200 F 
ATOM     79  C   UNL     1      -4.381 -13.187  -6.695  1.00  0.00     0.200 A 
ATOM     80  F   UNL     1      -5.172 -14.197  -4.713  1.00  0.00    -0.200 F 
ATOM     81  F   UNL     1      -3.588 -14.240  -6.934  1.00  0.00    -0.200 F 
ENDBRANCH  47  71
BRANCH  59  82
ATOM     82  C   UNL     1     -11.602  -8.354  -9.541  1.00  0.00     0.064 A 
ATOM     83  C   UNL     1     -12.408  -9.501  -9.579  1.00  0.00     0.173 A 
ATOM     84  C   UNL     1     -11.565  -7.542 -10.686  1.00  0.00     0.173 A 
ATOM     85  F   UNL     1     -12.473 -10.316  -8.516  1.00  0.00    -0.203 F 
ATOM     86  C   UNL     1     -13.134  -9.829 -10.722  1.00  0.00     0.198 A 
ATOM     87  C   UNL     1     -12.319  -7.854 -11.814  1.00  0.00     0.198 A 
ATOM     88  F   UNL     1     -10.820  -6.426 -10.701  1.00  0.00    -0.203 F 
ATOM     89  F   UNL     1     -13.866 -10.951 -10.748  1.00  0.00    -0.200 F 
ATOM     90  C   UNL     1     -13.098  -9.001 -11.834  1.00  0.00     0.200 A 
ATOM     91  F   UNL     1     -12.299  -7.041 -12.879  1.00  0.00    -0.200 F 
ATOM     92  F   UNL     1     -13.812  -9.309 -12.925  1.00  0.00    -0.200 F 
ENDBRANCH  59  82
ENDBRANCH  33  34
ENDBRANCH  26  28
ENDBRANCH  25  26
ENDBRANCH  24  25
ENDBRANCH  23  24
ENDBRANCH  22  23
ENDBRANCH   1  22
TORSDOF 17
