REMARK SMILES CC1(C)[C@H](C#N)C(SCC(=O)OCCOCCOCCOC(=O)c2ccc(-c3c4nc(c(-c5c(F)c(F)c(F)c(F)c5F)c5ccc([nH]5)c(-c5c(F)c(F)c(F)c(F)c5F)c5nc(c(-c6c(F)c(F)c(F)c(F)c6F)c6ccc3[nH]6)C=C5)C=C4)cc2)=NC(=O)[C@@H]1C#N
REMARK SMILES IDX 16 1 15 2 14 3 13 4 12 5 10 6 11 7 9 8 8 9 7 10 1 11 2 12
REMARK SMILES IDX 3 13 4 14 90 15 88 16 87 17 89 18 5 19 6 20 91 21 92 22
REMARK SMILES IDX 17 23 18 24 19 25 20 26 21 27 22 28 23 29 24 30 25 31 86 32
REMARK SMILES IDX 26 33 85 34 27 35 28 36 29 37 79 38 30 39 84 40 78 41 80 42
REMARK SMILES IDX 31 43 83 44 77 45 76 46 32 48 64 49 44 50 63 51 45 52 48 53
REMARK SMILES IDX 62 54 81 55 46 56 47 57 61 59 82 60 49 61 33 62 34 63 42 64
REMARK SMILES IDX 35 65 36 66 40 67 43 68 37 69 38 70 41 71 39 72 65 73 66 74
REMARK SMILES IDX 74 75 67 76 68 77 72 78 75 79 69 80 70 81 73 82 71 83 50 84
REMARK SMILES IDX 51 85 59 86 52 87 53 88 57 89 60 90 54 91 55 92 58 93 56 94
REMARK H PARENT 80 47 48 58
REMARK Flexibility Score: inf
ROOT
ATOM      1  C   UNL     1      -3.029  -4.240   0.055  1.00  0.00     0.188 C 
ENDROOT
BRANCH   1   2
ATOM      2  O   UNL     1      -3.641  -4.784  -1.093  1.00  0.00    -0.376 OA
BRANCH   2   3
ATOM      3  C   UNL     1      -4.575  -3.974  -1.797  1.00  0.00     0.202 C 
BRANCH   3   4
ATOM      4  C   UNL     1      -5.582  -3.107  -1.012  1.00  0.00     0.261 C 
BRANCH   4   5
ATOM      5  O   UNL     1      -4.971  -2.119  -0.138  1.00  0.00    -0.463 OA
BRANCH   5   6
ATOM      6  C   UNL     1      -5.398  -2.065   1.155  1.00  0.00     0.316 C 
ATOM      7  O   UNL     1      -6.345  -2.727   1.574  1.00  0.00    -0.251 OA
BRANCH   6   8
ATOM      8  C   UNL     1      -4.503  -1.271   2.122  1.00  0.00     0.198 C 
BRANCH   8   9
ATOM      9  S   UNL     1      -3.519   0.098   1.415  1.00  0.00    -0.097 SA
BRANCH   9  10
ATOM     10  C   UNL     1      -1.863  -0.114   2.053  1.00  0.00     0.095 C 
ATOM     11  C   UNL     1       1.116   0.884   0.264  1.00  0.00     0.015 C 
ATOM     12  C   UNL     1       0.631   0.661   1.721  1.00  0.00     0.012 C 
ATOM     13  C   UNL     1       1.534   1.551   2.619  1.00  0.00     0.015 C 
ATOM     14  C   UNL     1      -0.908   1.066   1.808  1.00  0.00     0.156 C 
ATOM     15  C   UNL     1       0.821  -0.846   2.058  1.00  0.00     0.191 C 
ATOM     16  C   UNL     1      -0.194  -1.221   3.119  1.00  0.00     0.264 C 
ATOM     17  N   UNL     1      -1.509  -1.189   2.683  1.00  0.00    -0.209 NA
ATOM     18  O   UNL     1       0.105  -1.553   4.256  1.00  0.00    -0.271 OA
BRANCH  14  19
ATOM     19  C   UNL     1      -1.197   2.035   2.888  1.00  0.00     0.073 C 
ATOM     20  N   UNL     1      -1.419   2.778   3.741  1.00  0.00    -0.198 NA
ENDBRANCH  14  19
BRANCH  15  21
ATOM     21  C   UNL     1       2.191  -1.230   2.445  1.00  0.00     0.076 C 
ATOM     22  N   UNL     1       3.288  -1.505   2.708  1.00  0.00    -0.197 NA
ENDBRANCH  15  21
ENDBRANCH   9  10
ENDBRANCH   8   9
ENDBRANCH   6   8
ENDBRANCH   5   6
ENDBRANCH   4   5
ENDBRANCH   3   4
ENDBRANCH   2   3
ENDBRANCH   1   2
BRANCH   1  23
ATOM     23  C   UNL     1      -2.310  -2.885  -0.065  1.00  0.00     0.188 C 
BRANCH  23  24
ATOM     24  O   UNL     1      -2.382  -2.132  -1.243  1.00  0.00    -0.376 OA
BRANCH  24  25
ATOM     25  C   UNL     1      -1.494  -2.458  -2.296  1.00  0.00     0.202 C 
BRANCH  25  26
ATOM     26  C   UNL     1      -0.299  -3.430  -2.148  1.00  0.00     0.261 C 
BRANCH  26  27
ATOM     27  O   UNL     1      -0.257  -4.295  -0.990  1.00  0.00    -0.460 OA
BRANCH  27  28
ATOM     28  C   UNL     1       0.761  -4.047  -0.127  1.00  0.00     0.338 C 
ATOM     29  O   UNL     1       1.632  -3.200  -0.276  1.00  0.00    -0.246 OA
BRANCH  28  30
ATOM     30  C   UNL     1       0.673  -4.773   1.166  1.00  0.00     0.060 A 
ATOM     31  C   UNL     1      -0.207  -4.346   2.165  1.00  0.00     0.016 A 
ATOM     32  C   UNL     1       1.735  -5.600   1.523  1.00  0.00     0.016 A 
ATOM     33  C   UNL     1       0.043  -4.618   3.506  1.00  0.00     0.010 A 
ATOM     34  C   UNL     1       1.941  -5.940   2.870  1.00  0.00     0.010 A 
ATOM     35  C   UNL     1       1.130  -5.405   3.884  1.00  0.00    -0.014 A 
BRANCH  35  36
ATOM     36  C   UNL     1       1.435  -5.603   5.329  1.00  0.00     0.031 A 
ATOM     37  C   UNL     1       2.770  -5.189   5.897  1.00  0.00     0.074 A 
ATOM     38  C   UNL     1       0.500  -6.118   6.153  1.00  0.00     0.049 A 
ATOM     39  N   UNL     1       3.292  -5.457   7.069  1.00  0.00    -0.248 NA
ATOM     40  C   UNL     1       3.634  -4.373   5.032  1.00  0.00     0.031 C 
ATOM     41  C   UNL     1      -0.867  -6.475   5.769  1.00  0.00     0.029 A 
ATOM     42  N   UNL     1       0.560  -6.436   7.488  1.00  0.00    -0.354 N 
ATOM     43  C   UNL     1       4.559  -4.883   7.064  1.00  0.00     0.074 A 
ATOM     44  C   UNL     1       4.729  -4.256   5.771  1.00  0.00     0.031 C 
ATOM     45  C   UNL     1      -1.520  -6.938   6.842  1.00  0.00     0.029 A 
ATOM     46  C   UNL     1      -0.587  -7.029   7.956  1.00  0.00     0.049 A 
ATOM     47  H   UNL     1       1.346  -6.256   8.053  1.00  0.00     0.167 HD
ATOM     48  C   UNL     1       5.493  -4.893   8.047  1.00  0.00     0.037 A 
ATOM     49  C   UNL     1      -0.845  -7.651   9.122  1.00  0.00     0.037 A 
ATOM     50  C   UNL     1       5.300  -5.501   9.343  1.00  0.00     0.049 A 
ATOM     51  C   UNL     1       0.239  -7.742  10.155  1.00  0.00     0.074 A 
ATOM     52  C   UNL     1       6.184  -5.568  10.407  1.00  0.00     0.029 A 
ATOM     53  N   UNL     1       4.141  -6.148   9.751  1.00  0.00    -0.354 N 
ATOM     54  N   UNL     1       1.458  -7.263  10.121  1.00  0.00    -0.248 NA
ATOM     55  C   UNL     1      -0.087  -8.472  11.385  1.00  0.00     0.031 C 
ATOM     56  C   UNL     1       5.592  -6.322  11.425  1.00  0.00     0.029 A 
ATOM     57  C   UNL     1       4.304  -6.650  11.035  1.00  0.00     0.049 A 
ATOM     58  H   UNL     1       3.324  -6.238   9.210  1.00  0.00     0.167 HD
ATOM     59  C   UNL     1       2.038  -7.609  11.333  1.00  0.00     0.074 A 
ATOM     60  C   UNL     1       1.024  -8.318  12.088  1.00  0.00     0.031 C 
ATOM     61  C   UNL     1       3.295  -7.362  11.778  1.00  0.00     0.037 A 
BRANCH  48  62
ATOM     62  C   UNL     1       6.840  -4.287   7.752  1.00  0.00     0.064 A 
ATOM     63  C   UNL     1       7.030  -2.906   7.599  1.00  0.00     0.173 A 
ATOM     64  C   UNL     1       7.977  -5.111   7.684  1.00  0.00     0.173 A 
ATOM     65  F   UNL     1       5.983  -2.069   7.653  1.00  0.00    -0.203 F 
ATOM     66  C   UNL     1       8.299  -2.376   7.367  1.00  0.00     0.198 A 
ATOM     67  C   UNL     1       9.248  -4.575   7.489  1.00  0.00     0.198 A 
ATOM     68  F   UNL     1       7.861  -6.439   7.835  1.00  0.00    -0.203 F 
ATOM     69  F   UNL     1       8.452  -1.057   7.185  1.00  0.00    -0.200 F 
ATOM     70  C   UNL     1       9.407  -3.209   7.322  1.00  0.00     0.200 A 
ATOM     71  F   UNL     1      10.318  -5.382   7.472  1.00  0.00    -0.200 F 
ATOM     72  F   UNL     1      10.629  -2.696   7.118  1.00  0.00    -0.200 F 
ENDBRANCH  48  62
BRANCH  49  73
ATOM     73  C   UNL     1      -2.169  -8.295   9.333  1.00  0.00     0.064 A 
ATOM     74  C   UNL     1      -3.054  -7.833  10.316  1.00  0.00     0.173 A 
ATOM     75  C   UNL     1      -2.583  -9.380   8.541  1.00  0.00     0.173 A 
ATOM     76  F   UNL     1      -2.696  -6.819  11.116  1.00  0.00    -0.203 F 
ATOM     77  C   UNL     1      -4.296  -8.436  10.505  1.00  0.00     0.198 A 
ATOM     78  C   UNL     1      -3.841  -9.952   8.702  1.00  0.00     0.198 A 
ATOM     79  F   UNL     1      -1.775  -9.864   7.587  1.00  0.00    -0.203 F 
ATOM     80  F   UNL     1      -5.103  -8.007  11.484  1.00  0.00    -0.200 F 
ATOM     81  C   UNL     1      -4.694  -9.486   9.690  1.00  0.00     0.200 A 
ATOM     82  F   UNL     1      -4.229 -10.949   7.895  1.00  0.00    -0.200 F 
ATOM     83  F   UNL     1      -5.896 -10.051   9.860  1.00  0.00    -0.200 F 
ENDBRANCH  49  73
BRANCH  61  84
ATOM     84  C   UNL     1       3.620  -7.822  13.173  1.00  0.00     0.064 A 
ATOM     85  C   UNL     1       3.687  -9.182  13.513  1.00  0.00     0.173 A 
ATOM     86  C   UNL     1       3.843  -6.883  14.193  1.00  0.00     0.173 A 
ATOM     87  F   UNL     1       3.468 -10.123  12.581  1.00  0.00    -0.203 F 
ATOM     88  C   UNL     1       3.902  -9.583  14.829  1.00  0.00     0.198 A 
ATOM     89  C   UNL     1       4.103  -7.288  15.499  1.00  0.00     0.198 A 
ATOM     90  F   UNL     1       3.803  -5.569  13.925  1.00  0.00    -0.203 F 
ATOM     91  F   UNL     1       3.870 -10.885  15.144  1.00  0.00    -0.200 F 
ATOM     92  C   UNL     1       4.114  -8.636  15.820  1.00  0.00     0.200 A 
ATOM     93  F   UNL     1       4.326  -6.371  16.451  1.00  0.00    -0.200 F 
ATOM     94  F   UNL     1       4.312  -9.023  17.087  1.00  0.00    -0.200 F 
ENDBRANCH  61  84
ENDBRANCH  35  36
ENDBRANCH  28  30
ENDBRANCH  27  28
ENDBRANCH  26  27
ENDBRANCH  25  26
ENDBRANCH  24  25
ENDBRANCH  23  24
ENDBRANCH   1  23
TORSDOF 21
