REMARK SMILES O=C(CCCNC(=O)N1CC[C@@H](C(=O)OCCOCCOCCOC(=O)c2ccc(-c3c4nc(c(-c5c(F)c(F)c(F)c(F)c5F)c5ccc([nH]5)c(-c5c(F)c(F)c(F)c(F)c5F)c5nc(c(-c6c(F)c(F)c(F)c(F)c6F)c6ccc3[nH]6)C=C5)C=C4)cc2)C1)NC1CC1
REMARK SMILES IDX 17 1 16 2 15 3 13 4 14 5 12 6 9 7 10 8 90 9 11 10 7 11 6 12
REMARK SMILES IDX 8 14 5 15 4 16 3 17 2 18 1 19 91 20 92 22 93 23 94 24 18 25
REMARK SMILES IDX 19 26 20 27 21 28 22 29 23 30 24 31 25 32 26 33 27 34 28 35
REMARK SMILES IDX 89 36 29 37 88 38 30 39 31 40 32 41 82 42 33 43 87 44 81 45
REMARK SMILES IDX 83 46 34 47 86 48 80 49 79 50 35 52 67 53 47 54 66 55 48 56
REMARK SMILES IDX 51 57 65 58 84 59 49 60 50 61 64 63 85 64 52 65 36 66 37 67
REMARK SMILES IDX 45 68 38 69 39 70 43 71 46 72 40 73 41 74 44 75 42 76 68 77
REMARK SMILES IDX 69 78 77 79 70 80 71 81 75 82 78 83 72 84 73 85 76 86 74 87
REMARK SMILES IDX 53 88 54 89 62 90 55 91 56 92 60 93 63 94 57 95 58 96 61 97
REMARK SMILES IDX 59 98
REMARK H PARENT 6 13 91 21 83 51 51 62
REMARK Flexibility Score: inf
ROOT
ATOM      1  C   UNL     1      12.534   0.529   5.260  1.00  0.00     0.202 C 
ENDROOT
BRANCH   1   2
ATOM      2  C   UNL     1      12.617   1.137   3.852  1.00  0.00     0.261 C 
BRANCH   2   3
ATOM      3  O   UNL     1      11.389   1.699   3.364  1.00  0.00    -0.463 OA
BRANCH   3   4
ATOM      4  C   UNL     1      10.521   0.886   2.708  1.00  0.00     0.310 C 
ATOM      5  O   UNL     1      10.693  -0.307   2.513  1.00  0.00    -0.252 OA
BRANCH   4   6
ATOM      6  C   UNL     1       9.263   1.664   2.368  1.00  0.00     0.120 C 
ATOM      7  N   UNL     1       7.603   0.703   0.995  1.00  0.00    -0.324 N 
ATOM      8  C   UNL     1       7.468   0.099   2.304  1.00  0.00     0.122 C 
ATOM      9  C   UNL     1       8.839   1.462   0.917  1.00  0.00     0.136 C 
ATOM     10  C   UNL     1       8.066   1.165   3.196  1.00  0.00     0.039 C 
BRANCH   7  11
ATOM     11  C   UNL     1       6.840   0.504  -0.106  1.00  0.00     0.317 C 
ATOM     12  N   UNL     1       5.519   0.246   0.043  1.00  0.00    -0.338 N 
ATOM     13  H   UNL     1       5.108  -0.323  -0.648  1.00  0.00     0.165 HD
ATOM     14  O   UNL     1       7.283   0.598  -1.249  1.00  0.00    -0.249 OA
BRANCH  12  15
ATOM     15  C   UNL     1       4.635   0.709   1.101  1.00  0.00     0.118 C 
BRANCH  15  16
ATOM     16  C   UNL     1       3.562   1.670   0.591  1.00  0.00     0.031 C 
BRANCH  16  17
ATOM     17  C   UNL     1       2.664   1.115  -0.509  1.00  0.00     0.102 C 
BRANCH  17  18
ATOM     18  C   UNL     1       1.796  -0.020  -0.016  1.00  0.00     0.220 C 
ATOM     19  O   UNL     1       0.660   0.171   0.408  1.00  0.00    -0.275 OA
ATOM     20  N   UNL     1       2.404  -1.257  -0.066  1.00  0.00    -0.353 N 
ATOM     21  H   UNL     1       3.339  -1.318  -0.369  1.00  0.00     0.163 HD
BRANCH  20  22
ATOM     22  C   UNL     1       1.721  -2.451   0.309  1.00  0.00     0.082 C 
ATOM     23  C   UNL     1       1.068  -3.291  -0.753  1.00  0.00     0.027 C 
ATOM     24  C   UNL     1       2.278  -3.806  -0.030  1.00  0.00     0.027 C 
ENDBRANCH  20  22
ENDBRANCH  17  18
ENDBRANCH  16  17
ENDBRANCH  15  16
ENDBRANCH  12  15
ENDBRANCH   7  11
ENDBRANCH   4   6
ENDBRANCH   3   4
ENDBRANCH   2   3
ENDBRANCH   1   2
BRANCH   1  25
ATOM     25  O   UNL     1      11.867   1.306   6.245  1.00  0.00    -0.376 OA
BRANCH  25  26
ATOM     26  C   UNL     1      10.468   1.458   6.075  1.00  0.00     0.188 C 
BRANCH  26  27
ATOM     27  C   UNL     1      10.030   2.900   5.742  1.00  0.00     0.188 C 
BRANCH  27  28
ATOM     28  O   UNL     1      10.950   3.978   5.823  1.00  0.00    -0.376 OA
BRANCH  28  29
ATOM     29  C   UNL     1      11.875   4.016   6.899  1.00  0.00     0.202 C 
BRANCH  29  30
ATOM     30  C   UNL     1      11.339   4.009   8.339  1.00  0.00     0.261 C 
BRANCH  30  31
ATOM     31  O   UNL     1      10.290   3.060   8.603  1.00  0.00    -0.460 OA
BRANCH  31  32
ATOM     32  C   UNL     1       9.062   3.599   8.812  1.00  0.00     0.338 C 
ATOM     33  O   UNL     1       8.765   4.778   8.839  1.00  0.00    -0.246 OA
BRANCH  32  34
ATOM     34  C   UNL     1       8.040   2.530   8.834  1.00  0.00     0.060 A 
ATOM     35  C   UNL     1       7.001   2.594   7.894  1.00  0.00     0.016 A 
ATOM     36  C   UNL     1       8.050   1.527   9.805  1.00  0.00     0.016 A 
ATOM     37  C   UNL     1       5.957   1.671   7.935  1.00  0.00     0.010 A 
ATOM     38  C   UNL     1       6.987   0.617   9.862  1.00  0.00     0.010 A 
ATOM     39  C   UNL     1       5.922   0.703   8.946  1.00  0.00    -0.014 A 
BRANCH  39  40
ATOM     40  C   UNL     1       4.689  -0.100   9.144  1.00  0.00     0.031 A 
ATOM     41  C   UNL     1       3.673   0.367  10.149  1.00  0.00     0.074 A 
ATOM     42  C   UNL     1       4.461  -1.214   8.428  1.00  0.00     0.049 A 
ATOM     43  N   UNL     1       2.540  -0.182  10.505  1.00  0.00    -0.248 NA
ATOM     44  C   UNL     1       3.981   1.624  10.848  1.00  0.00     0.031 C 
ATOM     45  C   UNL     1       5.348  -1.755   7.402  1.00  0.00     0.029 A 
ATOM     46  N   UNL     1       3.410  -2.097   8.468  1.00  0.00    -0.354 N 
ATOM     47  C   UNL     1       2.002   0.657  11.471  1.00  0.00     0.074 A 
ATOM     48  C   UNL     1       2.946   1.738  11.666  1.00  0.00     0.031 C 
ATOM     49  C   UNL     1       4.813  -2.892   6.921  1.00  0.00     0.029 A 
ATOM     50  C   UNL     1       3.561  -3.169   7.624  1.00  0.00     0.049 A 
ATOM     51  H   UNL     1       2.623  -1.973   9.047  1.00  0.00     0.167 HD
ATOM     52  C   UNL     1       0.826   0.542  12.133  1.00  0.00     0.037 A 
ATOM     53  C   UNL     1       2.787  -4.260   7.457  1.00  0.00     0.037 A 
ATOM     54  C   UNL     1      -0.111  -0.534  11.946  1.00  0.00     0.049 A 
ATOM     55  C   UNL     1       1.515  -4.402   8.253  1.00  0.00     0.074 A 
ATOM     56  C   UNL     1      -1.345  -0.719  12.545  1.00  0.00     0.029 A 
ATOM     57  N   UNL     1       0.090  -1.619  11.105  1.00  0.00    -0.354 N 
ATOM     58  N   UNL     1       0.994  -3.585   9.136  1.00  0.00    -0.248 NA
ATOM     59  C   UNL     1       0.721  -5.618   8.023  1.00  0.00     0.031 C 
ATOM     60  C   UNL     1      -1.864  -1.944  12.110  1.00  0.00     0.029 A 
ATOM     61  C   UNL     1      -0.980  -2.494  11.195  1.00  0.00     0.049 A 
ATOM     62  H   UNL     1       0.878  -1.747  10.528  1.00  0.00     0.167 HD
ATOM     63  C   UNL     1      -0.195  -4.174   9.550  1.00  0.00     0.074 A 
ATOM     64  C   UNL     1      -0.325  -5.412   8.811  1.00  0.00     0.031 C 
ATOM     65  C   UNL     1      -1.097  -3.728  10.460  1.00  0.00     0.037 A 
BRANCH  52  66
ATOM     66  C   UNL     1       0.505   1.596  13.153  1.00  0.00     0.064 A 
ATOM     67  C   UNL     1       0.176   2.909  12.783  1.00  0.00     0.173 A 
ATOM     68  C   UNL     1       0.517   1.283  14.521  1.00  0.00     0.173 A 
ATOM     69  F   UNL     1       0.167   3.263  11.489  1.00  0.00    -0.203 F 
ATOM     70  C   UNL     1      -0.097   3.877  13.746  1.00  0.00     0.198 A 
ATOM     71  C   UNL     1       0.214   2.246  15.479  1.00  0.00     0.198 A 
ATOM     72  F   UNL     1       0.822   0.042  14.928  1.00  0.00    -0.203 F 
ATOM     73  F   UNL     1      -0.355   5.138  13.371  1.00  0.00    -0.200 F 
ATOM     74  C   UNL     1      -0.083   3.544  15.092  1.00  0.00     0.200 A 
ATOM     75  F   UNL     1       0.218   1.919  16.779  1.00  0.00    -0.200 F 
ATOM     76  F   UNL     1      -0.346   4.476  16.017  1.00  0.00    -0.200 F 
ENDBRANCH  52  66
BRANCH  53  77
ATOM     77  C   UNL     1       3.204  -5.317   6.501  1.00  0.00     0.064 A 
ATOM     78  C   UNL     1       2.508  -5.529   5.304  1.00  0.00     0.173 A 
ATOM     79  C   UNL     1       4.309  -6.140   6.769  1.00  0.00     0.173 A 
ATOM     80  F   UNL     1       1.430  -4.785   5.017  1.00  0.00    -0.203 F 
ATOM     81  C   UNL     1       2.894  -6.530   4.415  1.00  0.00     0.198 A 
ATOM     82  C   UNL     1       4.710  -7.123   5.868  1.00  0.00     0.198 A 
ATOM     83  F   UNL     1       5.008  -5.977   7.902  1.00  0.00    -0.203 F 
ATOM     84  F   UNL     1       2.191  -6.733   3.292  1.00  0.00    -0.200 F 
ATOM     85  C   UNL     1       3.998  -7.321   4.694  1.00  0.00     0.200 A 
ATOM     86  F   UNL     1       5.785  -7.877   6.135  1.00  0.00    -0.200 F 
ATOM     87  F   UNL     1       4.375  -8.277   3.834  1.00  0.00    -0.200 F 
ENDBRANCH  53  77
BRANCH  65  88
ATOM     88  C   UNL     1      -2.319  -4.571  10.693  1.00  0.00     0.064 A 
ATOM     89  C   UNL     1      -2.252  -5.796  11.373  1.00  0.00     0.173 A 
ATOM     90  C   UNL     1      -3.581  -4.128  10.266  1.00  0.00     0.173 A 
ATOM     91  F   UNL     1      -1.068  -6.271  11.791  1.00  0.00    -0.203 F 
ATOM     92  C   UNL     1      -3.397  -6.557  11.595  1.00  0.00     0.198 A 
ATOM     93  C   UNL     1      -4.728  -4.877  10.515  1.00  0.00     0.198 A 
ATOM     94  F   UNL     1      -3.704  -2.960   9.617  1.00  0.00    -0.203 F 
ATOM     95  F   UNL     1      -3.301  -7.747  12.205  1.00  0.00    -0.200 F 
ATOM     96  C   UNL     1      -4.634  -6.095  11.172  1.00  0.00     0.200 A 
ATOM     97  F   UNL     1      -5.924  -4.421  10.119  1.00  0.00    -0.200 F 
ATOM     98  F   UNL     1      -5.736  -6.826  11.392  1.00  0.00    -0.200 F 
ENDBRANCH  65  88
ENDBRANCH  39  40
ENDBRANCH  32  34
ENDBRANCH  31  32
ENDBRANCH  30  31
ENDBRANCH  29  30
ENDBRANCH  28  29
ENDBRANCH  27  28
ENDBRANCH  26  27
ENDBRANCH  25  26
ENDBRANCH   1  25
TORSDOF 23
