REMARK SMILES CNC(=O)c1ccc(-n2nc(C)c(C(=O)OCCOCCOCCOC(=O)c3ccc(-c4c5nc(c(-c6c(F)c(F)c(F)c(F)c6F)c6ccc([nH]6)c(-c6c(F)c(F)c(F)c(F)c6F)c6nc(c(-c7c(F)c(F)c(F)c(F)c7F)c7ccc4[nH]7)C=C6)C=C5)cc3)c2C)nn1
REMARK SMILES IDX 20 1 19 2 18 3 17 4 16 5 14 6 15 7 13 8 9 9 10 10 91 11
REMARK SMILES IDX 11 12 92 13 12 14 8 15 5 16 6 17 94 18 7 19 93 20 3 21 1 22
REMARK SMILES IDX 2 23 4 25 21 26 22 27 23 28 24 29 25 30 26 31 27 32 28 33
REMARK SMILES IDX 29 34 90 35 30 36 89 37 31 38 32 39 33 40 83 41 34 42 88 43
REMARK SMILES IDX 82 44 84 45 35 46 87 47 81 48 80 49 36 51 68 52 48 53 67 54
REMARK SMILES IDX 49 55 52 56 66 57 85 58 50 59 51 60 65 62 86 63 53 64 37 65
REMARK SMILES IDX 38 66 46 67 39 68 40 69 44 70 47 71 41 72 42 73 45 74 43 75
REMARK SMILES IDX 69 76 70 77 78 78 71 79 72 80 76 81 79 82 73 83 74 84 77 85
REMARK SMILES IDX 75 86 54 87 55 88 63 89 56 90 57 91 61 92 64 93 58 94 59 95
REMARK SMILES IDX 62 96 60 97
REMARK H PARENT 2 24 84 50 52 61
REMARK Flexibility Score: inf
ROOT
ATOM      1  C   UNL     1      -5.242   4.605  -8.265  1.00  0.00     0.188 C 
ENDROOT
BRANCH   1   2
ATOM      2  O   UNL     1      -6.327   4.106  -9.039  1.00  0.00    -0.376 OA
BRANCH   2   3
ATOM      3  C   UNL     1      -6.945   2.869  -8.688  1.00  0.00     0.202 C 
BRANCH   3   4
ATOM      4  C   UNL     1      -6.088   1.612  -8.446  1.00  0.00     0.261 C 
BRANCH   4   5
ATOM      5  O   UNL     1      -5.113   1.748  -7.401  1.00  0.00    -0.460 OA
BRANCH   5   6
ATOM      6  C   UNL     1      -3.804   1.730  -7.774  1.00  0.00     0.341 C 
ATOM      7  O   UNL     1      -3.406   1.463  -8.905  1.00  0.00    -0.246 OA
BRANCH   6   8
ATOM      8  C   UNL     1      -2.911   2.196  -6.725  1.00  0.00     0.104 A 
ATOM      9  N   UNL     1      -1.890   2.612  -4.797  1.00  0.00    -0.217 N 
ATOM     10  N   UNL     1      -1.226   3.363  -5.708  1.00  0.00    -0.171 NA
ATOM     11  C   UNL     1      -3.044   2.063  -5.348  1.00  0.00     0.058 A 
ATOM     12  C   UNL     1      -1.789   3.057  -6.882  1.00  0.00     0.075 A 
ATOM     13  C   UNL     1      -4.197   1.558  -4.548  1.00  0.00     0.068 C 
ATOM     14  C   UNL     1      -1.290   3.711  -8.121  1.00  0.00     0.070 C 
BRANCH   9  15
ATOM     15  C   UNL     1      -1.374   2.436  -3.481  1.00  0.00     0.175 A 
ATOM     16  C   UNL     1      -0.503   2.158  -0.921  1.00  0.00     0.150 A 
ATOM     17  C   UNL     1      -1.171   1.095  -1.505  1.00  0.00     0.040 A 
ATOM     18  N   UNL     1      -0.249   3.304  -1.591  1.00  0.00    -0.143 NA
ATOM     19  C   UNL     1      -1.603   1.234  -2.817  1.00  0.00     0.053 A 
ATOM     20  N   UNL     1      -0.664   3.432  -2.900  1.00  0.00    -0.130 NA
BRANCH  16  21
ATOM     21  C   UNL     1      -0.098   2.096   0.504  1.00  0.00     0.271 C 
ATOM     22  C   UNL     1       1.314   0.002   0.196  1.00  0.00     0.143 C 
ATOM     23  N   UNL     1       0.645   1.029   0.961  1.00  0.00    -0.354 N 
ATOM     24  H   UNL     1       0.732   0.958   1.938  1.00  0.00     0.163 HD
ATOM     25  O   UNL     1      -0.466   2.961   1.295  1.00  0.00    -0.267 OA
ENDBRANCH  16  21
ENDBRANCH   9  15
ENDBRANCH   6   8
ENDBRANCH   5   6
ENDBRANCH   4   5
ENDBRANCH   3   4
ENDBRANCH   2   3
ENDBRANCH   1   2
BRANCH   1  26
ATOM     26  C   UNL     1      -5.362   4.688  -6.729  1.00  0.00     0.188 C 
BRANCH  26  27
ATOM     27  O   UNL     1      -6.403   3.894  -6.202  1.00  0.00    -0.376 OA
BRANCH  27  28
ATOM     28  C   UNL     1      -7.540   4.513  -5.626  1.00  0.00     0.202 C 
BRANCH  28  29
ATOM     29  C   UNL     1      -8.254   5.689  -6.295  1.00  0.00     0.261 C 
BRANCH  29  30
ATOM     30  O   UNL     1      -7.509   6.440  -7.237  1.00  0.00    -0.460 OA
BRANCH  30  31
ATOM     31  C   UNL     1      -6.816   7.468  -6.710  1.00  0.00     0.338 C 
ATOM     32  O   UNL     1      -6.517   7.627  -5.538  1.00  0.00    -0.246 OA
BRANCH  31  33
ATOM     33  C   UNL     1      -6.567   8.456  -7.763  1.00  0.00     0.060 A 
ATOM     34  C   UNL     1      -5.670   9.482  -7.468  1.00  0.00     0.016 A 
ATOM     35  C   UNL     1      -7.424   8.512  -8.875  1.00  0.00     0.016 A 
ATOM     36  C   UNL     1      -5.777  10.660  -8.173  1.00  0.00     0.010 A 
ATOM     37  C   UNL     1      -7.539   9.696  -9.570  1.00  0.00     0.010 A 
ATOM     38  C   UNL     1      -6.773  10.778  -9.153  1.00  0.00    -0.014 A 
BRANCH  38  39
ATOM     39  C   UNL     1      -6.972  12.090  -9.724  1.00  0.00     0.031 A 
ATOM     40  C   UNL     1      -5.926  12.511 -10.670  1.00  0.00     0.074 A 
ATOM     41  C   UNL     1      -8.024  12.871  -9.423  1.00  0.00     0.049 A 
ATOM     42  N   UNL     1      -5.056  13.449 -10.503  1.00  0.00    -0.248 NA
ATOM     43  C   UNL     1      -5.761  11.730 -11.901  1.00  0.00     0.031 C 
ATOM     44  C   UNL     1      -9.257  12.501  -8.728  1.00  0.00     0.029 A 
ATOM     45  N   UNL     1      -8.228  14.173  -9.765  1.00  0.00    -0.354 N 
ATOM     46  C   UNL     1      -4.330  13.496 -11.683  1.00  0.00     0.074 A 
ATOM     47  C   UNL     1      -4.710  12.337 -12.451  1.00  0.00     0.031 C 
ATOM     48  C   UNL     1     -10.160  13.497  -8.878  1.00  0.00     0.029 A 
ATOM     49  C   UNL     1      -9.524  14.614  -9.560  1.00  0.00     0.049 A 
ATOM     50  H   UNL     1      -7.517  14.750 -10.127  1.00  0.00     0.167 HD
ATOM     51  C   UNL     1      -3.649  14.617 -12.034  1.00  0.00     0.037 A 
ATOM     52  C   UNL     1     -10.044  15.789  -9.987  1.00  0.00     0.037 A 
ATOM     53  C   UNL     1      -3.412  15.477 -10.903  1.00  0.00     0.049 A 
ATOM     54  C   UNL     1      -8.918  16.725 -10.228  1.00  0.00     0.074 A 
ATOM     55  C   UNL     1      -2.749  15.344  -9.699  1.00  0.00     0.029 A 
ATOM     56  N   UNL     1      -4.186  16.602 -10.780  1.00  0.00    -0.354 N 
ATOM     57  N   UNL     1      -8.197  17.266  -9.288  1.00  0.00    -0.248 NA
ATOM     58  C   UNL     1      -8.348  16.798 -11.566  1.00  0.00     0.031 C 
ATOM     59  C   UNL     1      -3.486  16.137  -8.770  1.00  0.00     0.029 A 
ATOM     60  C   UNL     1      -4.543  16.727  -9.463  1.00  0.00     0.049 A 
ATOM     61  H   UNL     1      -4.441  17.213 -11.509  1.00  0.00     0.167 HD
ATOM     62  C   UNL     1      -6.922  17.344  -9.825  1.00  0.00     0.074 A 
ATOM     63  C   UNL     1      -7.107  17.184 -11.261  1.00  0.00     0.031 C 
ATOM     64  C   UNL     1      -5.820  17.241  -9.026  1.00  0.00     0.037 A 
BRANCH  51  65
ATOM     65  C   UNL     1      -3.547  15.108 -13.454  1.00  0.00     0.064 A 
ATOM     66  C   UNL     1      -2.677  16.174 -13.748  1.00  0.00     0.173 A 
ATOM     67  C   UNL     1      -4.489  14.789 -14.456  1.00  0.00     0.173 A 
ATOM     68  F   UNL     1      -1.762  16.576 -12.852  1.00  0.00    -0.203 F 
ATOM     69  C   UNL     1      -2.797  16.916 -14.925  1.00  0.00     0.198 A 
ATOM     70  C   UNL     1      -4.567  15.494 -15.654  1.00  0.00     0.198 A 
ATOM     71  F   UNL     1      -5.445  13.870 -14.271  1.00  0.00    -0.203 F 
ATOM     72  F   UNL     1      -2.039  18.006 -15.103  1.00  0.00    -0.200 F 
ATOM     73  C   UNL     1      -3.745  16.578 -15.874  1.00  0.00     0.200 A 
ATOM     74  F   UNL     1      -5.508  15.166 -16.551  1.00  0.00    -0.200 F 
ATOM     75  F   UNL     1      -3.906  17.328 -16.972  1.00  0.00    -0.200 F 
ENDBRANCH  51  65
BRANCH  52  76
ATOM     76  C   UNL     1     -11.425  16.080 -10.431  1.00  0.00     0.064 A 
ATOM     77  C   UNL     1     -11.872  17.404 -10.570  1.00  0.00     0.173 A 
ATOM     78  C   UNL     1     -12.242  15.079 -10.993  1.00  0.00     0.173 A 
ATOM     79  F   UNL     1     -11.134  18.420 -10.101  1.00  0.00    -0.203 F 
ATOM     80  C   UNL     1     -13.048  17.710 -11.261  1.00  0.00     0.198 A 
ATOM     81  C   UNL     1     -13.422  15.386 -11.670  1.00  0.00     0.198 A 
ATOM     82  F   UNL     1     -11.865  13.793 -10.983  1.00  0.00    -0.203 F 
ATOM     83  F   UNL     1     -13.404  18.990 -11.437  1.00  0.00    -0.200 F 
ATOM     84  C   UNL     1     -13.816  16.702 -11.819  1.00  0.00     0.200 A 
ATOM     85  F   UNL     1     -14.138  14.402 -12.233  1.00  0.00    -0.200 F 
ATOM     86  F   UNL     1     -14.909  16.999 -12.535  1.00  0.00    -0.200 F 
ENDBRANCH  52  76
BRANCH  64  87
ATOM     87  C   UNL     1      -6.016  17.439  -7.551  1.00  0.00     0.064 A 
ATOM     88  C   UNL     1      -6.830  16.625  -6.745  1.00  0.00     0.173 A 
ATOM     89  C   UNL     1      -5.274  18.444  -6.914  1.00  0.00     0.173 A 
ATOM     90  F   UNL     1      -7.487  15.577  -7.261  1.00  0.00    -0.203 F 
ATOM     91  C   UNL     1      -6.946  16.856  -5.375  1.00  0.00     0.198 A 
ATOM     92  C   UNL     1      -5.359  18.644  -5.540  1.00  0.00     0.198 A 
ATOM     93  F   UNL     1      -4.436  19.215  -7.625  1.00  0.00    -0.203 F 
ATOM     94  F   UNL     1      -7.756  16.089  -4.630  1.00  0.00    -0.200 F 
ATOM     95  C   UNL     1      -6.208  17.862  -4.774  1.00  0.00     0.200 A 
ATOM     96  F   UNL     1      -4.606  19.587  -4.955  1.00  0.00    -0.200 F 
ATOM     97  F   UNL     1      -6.297  18.065  -3.451  1.00  0.00    -0.200 F 
ENDBRANCH  64  87
ENDBRANCH  38  39
ENDBRANCH  31  33
ENDBRANCH  30  31
ENDBRANCH  29  30
ENDBRANCH  28  29
ENDBRANCH  27  28
ENDBRANCH  26  27
ENDBRANCH   1  26
TORSDOF 19
