REMARK SMILES O=C(OCCOCCOCCOC(=O)[C@H]1CC2=c3ccccc3=N[C@H]2[C@H](c2ccccc2F)[NH2+]1)c1ccc(-c2c3nc(c(-c4c(F)c(F)c(F)c(F)c4F)c4ccc([nH]4)c(-c4c(F)c(F)c(F)c(F)c4F)c4nc(c(-c5c(F)c(F)c(F)c(F)c5F)c5ccc2[nH]5)C=C4)C=C3)cc1
REMARK SMILES IDX 7 1 6 2 5 3 4 4 3 5 2 6 1 7 35 8 36 9 97 10 37 11 96 12
REMARK SMILES IDX 38 13 39 14 40 15 90 16 41 17 95 18 89 19 91 20 42 21 94 22
REMARK SMILES IDX 88 23 87 24 43 26 75 27 55 28 74 29 56 30 59 31 73 32 92 33
REMARK SMILES IDX 57 34 58 35 72 37 93 38 60 39 44 40 45 41 53 42 46 43 47 44
REMARK SMILES IDX 51 45 54 46 48 47 49 48 52 49 50 50 76 51 77 52 85 53 78 54
REMARK SMILES IDX 79 55 83 56 86 57 80 58 81 59 84 60 82 61 61 62 62 63 70 64
REMARK SMILES IDX 63 65 64 66 68 67 71 68 65 69 66 70 69 71 67 72 8 73 9 74
REMARK SMILES IDX 10 75 11 76 12 77 13 78 14 79 15 80 16 81 34 82 17 83 26 84
REMARK SMILES IDX 18 87 25 88 19 89 23 90 24 91 20 92 22 93 21 94 27 95 28 96
REMARK SMILES IDX 32 97 29 98 31 99 33 100 30 101
REMARK H PARENT 91 25 59 36 34 85 34 86
REMARK Flexibility Score: inf
ROOT
ATOM      1  C   UNL     1       2.571  -0.355  -1.827  1.00  0.00     0.188 C 
ENDROOT
BRANCH   1   2
ATOM      2  O   UNL     1       3.924   0.027  -1.539  1.00  0.00    -0.376 OA
BRANCH   2   3
ATOM      3  C   UNL     1       4.654  -0.978  -0.830  1.00  0.00     0.202 C 
BRANCH   3   4
ATOM      4  C   UNL     1       4.335  -1.120   0.666  1.00  0.00     0.261 C 
BRANCH   4   5
ATOM      5  O   UNL     1       3.002  -0.742   1.040  1.00  0.00    -0.460 OA
BRANCH   5   6
ATOM      6  C   UNL     1       2.537   0.477   1.413  1.00  0.00     0.338 C 
ATOM      7  O   UNL     1       1.457   0.525   2.001  1.00  0.00    -0.246 OA
BRANCH   6   8
ATOM      8  C   UNL     1       3.194   1.780   1.047  1.00  0.00     0.060 A 
ATOM      9  C   UNL     1       2.405   2.943   1.122  1.00  0.00     0.016 A 
ATOM     10  C   UNL     1       4.521   1.943   0.652  1.00  0.00     0.016 A 
ATOM     11  C   UNL     1       2.927   4.204   0.779  1.00  0.00     0.010 A 
ATOM     12  C   UNL     1       5.046   3.190   0.308  1.00  0.00     0.010 A 
ATOM     13  C   UNL     1       4.262   4.337   0.358  1.00  0.00    -0.014 A 
BRANCH  13  14
ATOM     14  C   UNL     1       4.928   5.654   0.256  1.00  0.00     0.031 A 
ATOM     15  C   UNL     1       5.539   6.227  -0.994  1.00  0.00     0.074 A 
ATOM     16  C   UNL     1       5.225   6.280   1.406  1.00  0.00     0.049 A 
ATOM     17  N   UNL     1       5.677   7.488  -1.323  1.00  0.00    -0.248 NA
ATOM     18  C   UNL     1       6.096   5.316  -2.002  1.00  0.00     0.031 C 
ATOM     19  C   UNL     1       5.044   5.736   2.754  1.00  0.00     0.029 A 
ATOM     20  N   UNL     1       5.848   7.476   1.603  1.00  0.00    -0.354 N 
ATOM     21  C   UNL     1       6.041   7.495  -2.671  1.00  0.00     0.074 A 
ATOM     22  C   UNL     1       6.388   6.146  -3.007  1.00  0.00     0.031 C 
ATOM     23  C   UNL     1       5.632   6.563   3.633  1.00  0.00     0.029 A 
ATOM     24  C   UNL     1       6.160   7.715   2.909  1.00  0.00     0.049 A 
ATOM     25  H   UNL     1       6.053   8.105   0.873  1.00  0.00     0.167 HD
ATOM     26  C   UNL     1       5.877   8.553  -3.507  1.00  0.00     0.037 A 
ATOM     27  C   UNL     1       6.805   8.768   3.437  1.00  0.00     0.037 A 
ATOM     28  C   UNL     1       5.946   9.891  -2.978  1.00  0.00     0.049 A 
ATOM     29  C   UNL     1       7.103   9.932   2.534  1.00  0.00     0.074 A 
ATOM     30  C   UNL     1       5.894  11.110  -3.622  1.00  0.00     0.029 A 
ATOM     31  N   UNL     1       6.245  10.149  -1.647  1.00  0.00    -0.354 N 
ATOM     32  N   UNL     1       6.812  10.089   1.261  1.00  0.00    -0.248 NA
ATOM     33  C   UNL     1       7.777  11.082   3.141  1.00  0.00     0.031 C 
ATOM     34  C   UNL     1       6.334  12.083  -2.707  1.00  0.00     0.029 A 
ATOM     35  C   UNL     1       6.587  11.471  -1.486  1.00  0.00     0.049 A 
ATOM     36  H   UNL     1       6.217   9.481  -0.923  1.00  0.00     0.167 HD
ATOM     37  C   UNL     1       7.235  11.366   0.921  1.00  0.00     0.074 A 
ATOM     38  C   UNL     1       7.799  11.941   2.129  1.00  0.00     0.031 C 
ATOM     39  C   UNL     1       7.156  12.009  -0.274  1.00  0.00     0.037 A 
BRANCH  26  40
ATOM     40  C   UNL     1       5.569   8.381  -4.977  1.00  0.00     0.064 A 
ATOM     41  C   UNL     1       4.237   8.450  -5.452  1.00  0.00     0.173 A 
ATOM     42  C   UNL     1       6.567   8.363  -5.950  1.00  0.00     0.173 A 
ATOM     43  F   UNL     1       3.203   8.548  -4.613  1.00  0.00    -0.203 F 
ATOM     44  C   UNL     1       3.921   8.473  -6.810  1.00  0.00     0.198 A 
ATOM     45  C   UNL     1       6.252   8.412  -7.316  1.00  0.00     0.198 A 
ATOM     46  F   UNL     1       7.856   8.348  -5.582  1.00  0.00    -0.203 F 
ATOM     47  F   UNL     1       2.639   8.537  -7.198  1.00  0.00    -0.200 F 
ATOM     48  C   UNL     1       4.933   8.465  -7.745  1.00  0.00     0.200 A 
ATOM     49  F   UNL     1       7.237   8.443  -8.224  1.00  0.00    -0.200 F 
ATOM     50  F   UNL     1       4.638   8.535  -9.050  1.00  0.00    -0.200 F 
ENDBRANCH  26  40
BRANCH  27  51
ATOM     51  C   UNL     1       7.114   8.754   4.883  1.00  0.00     0.064 A 
ATOM     52  C   UNL     1       6.403   9.559   5.779  1.00  0.00     0.173 A 
ATOM     53  C   UNL     1       8.053   7.852   5.412  1.00  0.00     0.173 A 
ATOM     54  F   UNL     1       5.495  10.430   5.317  1.00  0.00    -0.203 F 
ATOM     55  C   UNL     1       6.619   9.466   7.151  1.00  0.00     0.198 A 
ATOM     56  C   UNL     1       8.253   7.746   6.786  1.00  0.00     0.198 A 
ATOM     57  F   UNL     1       8.745   7.044   4.595  1.00  0.00    -0.203 F 
ATOM     58  F   UNL     1       5.929  10.253   7.988  1.00  0.00    -0.200 F 
ATOM     59  C   UNL     1       7.535   8.554   7.655  1.00  0.00     0.200 A 
ATOM     60  F   UNL     1       9.122   6.847   7.269  1.00  0.00    -0.200 F 
ATOM     61  F   UNL     1       7.722   8.450   8.977  1.00  0.00    -0.200 F 
ENDBRANCH  27  51
BRANCH  39  62
ATOM     62  C   UNL     1       7.729  13.388  -0.350  1.00  0.00     0.064 A 
ATOM     63  C   UNL     1       9.114  13.599  -0.296  1.00  0.00     0.173 A 
ATOM     64  C   UNL     1       6.897  14.496  -0.565  1.00  0.00     0.173 A 
ATOM     65  F   UNL     1       9.947  12.569  -0.084  1.00  0.00    -0.203 F 
ATOM     66  C   UNL     1       9.645  14.876  -0.436  1.00  0.00     0.198 A 
ATOM     67  C   UNL     1       7.434  15.765  -0.744  1.00  0.00     0.198 A 
ATOM     68  F   UNL     1       5.567  14.339  -0.638  1.00  0.00    -0.203 F 
ATOM     69  F   UNL     1      10.968  15.062  -0.339  1.00  0.00    -0.200 F 
ATOM     70  C   UNL     1       8.806  15.955  -0.673  1.00  0.00     0.200 A 
ATOM     71  F   UNL     1       6.625  16.802  -0.999  1.00  0.00    -0.200 F 
ATOM     72  F   UNL     1       9.322  17.182  -0.831  1.00  0.00    -0.200 F 
ENDBRANCH  39  62
ENDBRANCH  13  14
ENDBRANCH   6   8
ENDBRANCH   5   6
ENDBRANCH   4   5
ENDBRANCH   3   4
ENDBRANCH   2   3
ENDBRANCH   1   2
BRANCH   1  73
ATOM     73  C   UNL     1       2.161  -0.066  -3.276  1.00  0.00     0.188 C 
BRANCH  73  74
ATOM     74  O   UNL     1       2.770  -0.888  -4.275  1.00  0.00    -0.376 OA
BRANCH  74  75
ATOM     75  C   UNL     1       4.186  -0.806  -4.417  1.00  0.00     0.202 C 
BRANCH  75  76
ATOM     76  C   UNL     1       4.754   0.485  -5.041  1.00  0.00     0.261 C 
BRANCH  76  77
ATOM     77  O   UNL     1       4.314   1.663  -4.346  1.00  0.00    -0.459 OA
BRANCH  77  78
ATOM     78  C   UNL     1       4.118   2.811  -5.079  1.00  0.00     0.365 C 
ATOM     79  O   UNL     1       4.617   3.054  -6.161  1.00  0.00    -0.245 OA
BRANCH  78  80
ATOM     80  C   UNL     1       3.077   3.686  -4.348  1.00  0.00     0.298 C 
ATOM     81  C   UNL     1       3.433   5.176  -4.004  1.00  0.00     0.111 C 
ATOM     82  N   UNL     1       1.730   3.589  -5.016  1.00  0.00    -0.326 N 
ATOM     83  C   UNL     1       2.420   5.731  -2.978  1.00  0.00    -0.024 C 
ATOM     84  C   UNL     1       0.868   4.669  -4.454  1.00  0.00     0.246 C 
ATOM     85  H   UNL     1       1.313   2.677  -4.827  1.00  0.00     0.347 HD
ATOM     86  H   UNL     1       1.823   3.694  -6.026  1.00  0.00     0.347 HD
ATOM     87  C   UNL     1       2.159   6.841  -2.267  1.00  0.00     0.002 A 
ATOM     88  C   UNL     1       1.203   4.836  -2.936  1.00  0.00     0.196 C 
ATOM     89  C   UNL     1       2.700   8.143  -2.026  1.00  0.00     0.010 A 
ATOM     90  C   UNL     1       0.813   6.564  -1.706  1.00  0.00     0.066 A 
ATOM     91  N   UNL     1       0.202   5.491  -2.085  1.00  0.00    -0.270 NA
ATOM     92  C   UNL     1       2.061   9.039  -1.254  1.00  0.00     0.001 A 
ATOM     93  C   UNL     1       0.217   7.534  -0.770  1.00  0.00     0.028 A 
ATOM     94  C   UNL     1       0.832   8.707  -0.573  1.00  0.00     0.002 A 
BRANCH  84  95
ATOM     95  C   UNL     1      -0.606   4.665  -4.685  1.00  0.00     0.048 A 
ATOM     96  C   UNL     1      -1.236   5.933  -4.699  1.00  0.00     0.013 A 
ATOM     97  C   UNL     1      -1.386   3.524  -4.617  1.00  0.00     0.132 A 
ATOM     98  C   UNL     1      -2.609   6.047  -4.544  1.00  0.00     0.001 A 
ATOM     99  C   UNL     1      -2.767   3.633  -4.498  1.00  0.00     0.040 A 
ATOM    100  F   UNL     1      -0.824   2.308  -4.590  1.00  0.00    -0.206 F 
ATOM    101  C   UNL     1      -3.373   4.892  -4.430  1.00  0.00     0.003 A 
ENDBRANCH  84  95
ENDBRANCH  78  80
ENDBRANCH  77  78
ENDBRANCH  76  77
ENDBRANCH  75  76
ENDBRANCH  74  75
ENDBRANCH  73  74
ENDBRANCH   1  73
TORSDOF 18
