REMARK SMILES CCOc1ccccc1[C@@H](C(=O)OCCOCCOCCOC(=O)c1ccc(-c2c3nc(c(-c4c(F)c(F)c(F)c(F)c4F)c4ccc([nH]4)c(-c4c(F)c(F)c(F)c(F)c4F)c4nc(c(-c5c(F)c(F)c(F)c(F)c5F)c5ccc2[nH]5)C=C4)C=C3)cc1)[NH+]1CCC(C(=O)N2CCCC2)CC1
REMARK SMILES IDX 17 1 16 2 15 3 14 4 13 5 11 6 12 7 10 8 9 9 4 10 5 11 6 12
REMARK SMILES IDX 8 13 7 14 3 15 2 16 1 17 88 18 89 19 100 20 90 22 99 23
REMARK SMILES IDX 91 24 92 25 93 26 94 27 95 28 98 29 96 30 97 31 18 32 19 33
REMARK SMILES IDX 20 34 21 35 22 36 23 37 24 38 25 39 26 40 87 41 27 42 86 43
REMARK SMILES IDX 28 44 29 45 30 46 80 47 31 48 85 49 79 50 81 51 32 52 84 53
REMARK SMILES IDX 78 54 77 55 33 57 65 58 45 59 64 60 46 61 49 62 63 63 82 64
REMARK SMILES IDX 47 65 48 66 62 68 83 69 50 70 34 71 35 72 43 73 36 74 37 75
REMARK SMILES IDX 41 76 44 77 38 78 39 79 42 80 40 81 66 82 67 83 75 84 68 85
REMARK SMILES IDX 69 86 73 87 76 88 70 89 71 90 74 91 72 92 51 93 52 94 60 95
REMARK SMILES IDX 53 96 54 97 58 98 61 99 55 100 56 101 59 102 57 103
REMARK H PARENT 88 21 81 56 49 67
REMARK Flexibility Score: inf
ROOT
ATOM      1  C   UNL     1       4.830  -3.692  -0.432  1.00  0.00     0.188 C 
ENDROOT
BRANCH   1   2
ATOM      2  O   UNL     1       4.078  -4.897  -0.418  1.00  0.00    -0.376 OA
BRANCH   2   3
ATOM      3  C   UNL     1       2.839  -4.958  -1.117  1.00  0.00     0.202 C 
BRANCH   3   4
ATOM      4  C   UNL     1       1.731  -3.947  -0.777  1.00  0.00     0.261 C 
BRANCH   4   5
ATOM      5  O   UNL     1       2.012  -2.558  -1.075  1.00  0.00    -0.459 OA
BRANCH   5   6
ATOM      6  C   UNL     1       2.169  -1.735   0.001  1.00  0.00     0.370 C 
ATOM      7  O   UNL     1       2.087  -2.145   1.161  1.00  0.00    -0.245 OA
BRANCH   6   8
ATOM      8  C   UNL     1       2.412  -0.234  -0.320  1.00  0.00     0.330 C 
BRANCH   8   9
ATOM      9  C   UNL     1       2.691   0.270  -1.737  1.00  0.00     0.063 A 
ATOM     10  C   UNL     1       1.634   0.706  -2.557  1.00  0.00     0.129 A 
ATOM     11  C   UNL     1       1.871   1.313  -3.797  1.00  0.00     0.047 A 
ATOM     12  C   UNL     1       3.175   1.507  -4.249  1.00  0.00     0.004 A 
ATOM     13  C   UNL     1       3.994   0.451  -2.243  1.00  0.00     0.014 A 
ATOM     14  C   UNL     1       4.239   1.062  -3.476  1.00  0.00     0.001 A 
BRANCH  10  15
ATOM     15  O   UNL     1       0.333   0.444  -2.213  1.00  0.00    -0.493 OA
BRANCH  15  16
ATOM     16  C   UNL     1      -0.269   1.478  -1.421  1.00  0.00     0.226 C 
ATOM     17  C   UNL     1      -0.966   0.819  -0.232  1.00  0.00     0.049 C 
ENDBRANCH  15  16
ENDBRANCH  10  15
ENDBRANCH   8   9
BRANCH   8  18
ATOM     18  N   UNL     1       3.204   0.415   0.761  1.00  0.00    -0.319 N 
ATOM     19  C   UNL     1       4.576  -0.020   0.946  1.00  0.00     0.264 C 
ATOM     20  C   UNL     1       3.059   1.865   0.850  1.00  0.00     0.264 C 
ATOM     21  H   UNL     1       2.728   0.026   1.575  1.00  0.00     0.349 HD
ATOM     22  C   UNL     1       4.972   0.317   2.373  1.00  0.00     0.075 C 
ATOM     23  C   UNL     1       3.536   2.357   2.217  1.00  0.00     0.075 C 
ATOM     24  C   UNL     1       4.932   1.822   2.584  1.00  0.00     0.090 C 
BRANCH  24  25
ATOM     25  C   UNL     1       5.306   2.385   3.954  1.00  0.00     0.226 C 
ATOM     26  O   UNL     1       5.853   3.494   4.001  1.00  0.00    -0.275 OA
ATOM     27  N   UNL     1       4.756   1.843   5.088  1.00  0.00    -0.342 N 
ATOM     28  C   UNL     1       4.599   0.467   5.503  1.00  0.00     0.119 C 
ATOM     29  C   UNL     1       4.003   2.706   5.977  1.00  0.00     0.119 C 
ATOM     30  C   UNL     1       3.164   0.432   5.973  1.00  0.00     0.023 C 
ATOM     31  C   UNL     1       3.068   1.757   6.734  1.00  0.00     0.023 C 
ENDBRANCH  24  25
ENDBRANCH   8  18
ENDBRANCH   6   8
ENDBRANCH   5   6
ENDBRANCH   4   5
ENDBRANCH   3   4
ENDBRANCH   2   3
ENDBRANCH   1   2
BRANCH   1  32
ATOM     32  C   UNL     1       4.838  -2.842  -1.707  1.00  0.00     0.188 C 
BRANCH  32  33
ATOM     33  O   UNL     1       4.482  -3.548  -2.864  1.00  0.00    -0.376 OA
BRANCH  33  34
ATOM     34  C   UNL     1       5.463  -3.985  -3.774  1.00  0.00     0.202 C 
BRANCH  34  35
ATOM     35  C   UNL     1       6.869  -4.423  -3.331  1.00  0.00     0.261 C 
BRANCH  35  36
ATOM     36  O   UNL     1       7.448  -3.794  -2.176  1.00  0.00    -0.460 OA
BRANCH  36  37
ATOM     37  C   UNL     1       7.999  -2.575  -2.344  1.00  0.00     0.338 C 
ATOM     38  O   UNL     1       8.035  -1.924  -3.384  1.00  0.00    -0.246 OA
BRANCH  37  39
ATOM     39  C   UNL     1       8.371  -2.028  -1.017  1.00  0.00     0.060 A 
ATOM     40  C   UNL     1       7.903  -0.757  -0.661  1.00  0.00     0.016 A 
ATOM     41  C   UNL     1       9.198  -2.736  -0.138  1.00  0.00     0.016 A 
ATOM     42  C   UNL     1       8.288  -0.176   0.551  1.00  0.00     0.010 A 
ATOM     43  C   UNL     1       9.607  -2.140   1.065  1.00  0.00     0.010 A 
ATOM     44  C   UNL     1       9.180  -0.844   1.402  1.00  0.00    -0.014 A 
BRANCH  44  45
ATOM     45  C   UNL     1       9.828  -0.089   2.509  1.00  0.00     0.031 A 
ATOM     46  C   UNL     1      11.093   0.664   2.209  1.00  0.00     0.074 A 
ATOM     47  C   UNL     1       9.319  -0.053   3.753  1.00  0.00     0.049 A 
ATOM     48  N   UNL     1      11.846   1.381   3.003  1.00  0.00    -0.248 NA
ATOM     49  C   UNL     1      11.593   0.566   0.829  1.00  0.00     0.031 C 
ATOM     50  C   UNL     1       8.136  -0.778   4.193  1.00  0.00     0.029 A 
ATOM     51  N   UNL     1       9.736   0.625   4.876  1.00  0.00    -0.354 N 
ATOM     52  C   UNL     1      12.924   1.790   2.232  1.00  0.00     0.074 A 
ATOM     53  C   UNL     1      12.729   1.242   0.906  1.00  0.00     0.031 C 
ATOM     54  C   UNL     1       7.895  -0.472   5.479  1.00  0.00     0.029 A 
ATOM     55  C   UNL     1       8.908   0.463   5.961  1.00  0.00     0.049 A 
ATOM     56  H   UNL     1      10.552   1.175   4.899  1.00  0.00     0.167 HD
ATOM     57  C   UNL     1      13.992   2.536   2.599  1.00  0.00     0.037 A 
ATOM     58  C   UNL     1       8.964   1.006   7.196  1.00  0.00     0.037 A 
ATOM     59  C   UNL     1      14.201   3.068   3.921  1.00  0.00     0.049 A 
ATOM     60  C   UNL     1      10.147   1.871   7.566  1.00  0.00     0.074 A 
ATOM     61  C   UNL     1      15.268   3.813   4.391  1.00  0.00     0.029 A 
ATOM     62  N   UNL     1      13.326   2.907   4.985  1.00  0.00    -0.354 N 
ATOM     63  N   UNL     1      11.166   2.247   6.832  1.00  0.00    -0.248 NA
ATOM     64  C   UNL     1      10.207   2.353   8.956  1.00  0.00     0.031 C 
ATOM     65  C   UNL     1      15.065   4.059   5.753  1.00  0.00     0.029 A 
ATOM     66  C   UNL     1      13.837   3.529   6.114  1.00  0.00     0.049 A 
ATOM     67  H   UNL     1      12.470   2.423   4.945  1.00  0.00     0.167 HD
ATOM     68  C   UNL     1      11.975   3.015   7.662  1.00  0.00     0.074 A 
ATOM     69  C   UNL     1      11.313   3.083   8.946  1.00  0.00     0.031 C 
ATOM     70  C   UNL     1      13.169   3.596   7.389  1.00  0.00     0.037 A 
BRANCH  57  71
ATOM     71  C   UNL     1      15.053   2.764   1.563  1.00  0.00     0.064 A 
ATOM     72  C   UNL     1      14.838   3.588   0.449  1.00  0.00     0.173 A 
ATOM     73  C   UNL     1      16.306   2.144   1.690  1.00  0.00     0.173 A 
ATOM     74  F   UNL     1      13.650   4.183   0.267  1.00  0.00    -0.203 F 
ATOM     75  C   UNL     1      15.828   3.758  -0.516  1.00  0.00     0.198 A 
ATOM     76  C   UNL     1      17.305   2.345   0.743  1.00  0.00     0.198 A 
ATOM     77  F   UNL     1      16.562   1.344   2.736  1.00  0.00    -0.203 F 
ATOM     78  F   UNL     1      15.580   4.500  -1.604  1.00  0.00    -0.200 F 
ATOM     79  C   UNL     1      17.062   3.143  -0.364  1.00  0.00     0.200 A 
ATOM     80  F   UNL     1      18.500   1.758   0.897  1.00  0.00    -0.200 F 
ATOM     81  F   UNL     1      18.014   3.310  -1.292  1.00  0.00    -0.200 F 
ENDBRANCH  57  71
BRANCH  58  82
ATOM     82  C   UNL     1       7.881   0.764   8.195  1.00  0.00     0.064 A 
ATOM     83  C   UNL     1       7.109   1.828   8.691  1.00  0.00     0.173 A 
ATOM     84  C   UNL     1       7.623  -0.512   8.714  1.00  0.00     0.173 A 
ATOM     85  F   UNL     1       7.332   3.078   8.260  1.00  0.00    -0.203 F 
ATOM     86  C   UNL     1       6.145   1.628   9.680  1.00  0.00     0.198 A 
ATOM     87  C   UNL     1       6.630  -0.718   9.672  1.00  0.00     0.198 A 
ATOM     88  F   UNL     1       8.331  -1.568   8.288  1.00  0.00    -0.203 F 
ATOM     89  F   UNL     1       5.470   2.673  10.178  1.00  0.00    -0.200 F 
ATOM     90  C   UNL     1       5.901   0.353  10.163  1.00  0.00     0.200 A 
ATOM     91  F   UNL     1       6.384  -1.956  10.122  1.00  0.00    -0.200 F 
ATOM     92  F   UNL     1       4.971   0.159  11.108  1.00  0.00    -0.200 F 
ENDBRANCH  58  82
BRANCH  70  93
ATOM     93  C   UNL     1      13.825   4.387   8.488  1.00  0.00     0.064 A 
ATOM     94  C   UNL     1      14.349   3.772   9.636  1.00  0.00     0.173 A 
ATOM     95  C   UNL     1      13.957   5.780   8.376  1.00  0.00     0.173 A 
ATOM     96  F   UNL     1      14.243   2.445   9.800  1.00  0.00    -0.203 F 
ATOM     97  C   UNL     1      14.943   4.526  10.646  1.00  0.00     0.198 A 
ATOM     98  C   UNL     1      14.584   6.526   9.371  1.00  0.00     0.198 A 
ATOM     99  F   UNL     1      13.486   6.420   7.295  1.00  0.00    -0.203 F 
ATOM    100  F   UNL     1      15.382   3.923  11.760  1.00  0.00    -0.200 F 
ATOM    101  C   UNL     1      15.066   5.900  10.510  1.00  0.00     0.200 A 
ATOM    102  F   UNL     1      14.717   7.852   9.229  1.00  0.00    -0.200 F 
ATOM    103  F   UNL     1      15.641   6.623  11.481  1.00  0.00    -0.200 F 
ENDBRANCH  70  93
ENDBRANCH  44  45
ENDBRANCH  37  39
ENDBRANCH  36  37
ENDBRANCH  35  36
ENDBRANCH  34  35
ENDBRANCH  33  34
ENDBRANCH  32  33
ENDBRANCH   1  32
TORSDOF 22
