REMARK SMILES O=C(C[C@@H]1CSCC[NH2+]1)NC[C@@H](C(=O)OCCOCCOCCOC(=O)c1ccc(-c2c3nc(c(-c4c(F)c(F)c(F)c(F)c4F)c4ccc([nH]4)c(-c4c(F)c(F)c(F)c(F)c4F)c4nc(c(-c5c(F)c(F)c(F)c(F)c5F)c5ccc2[nH]5)C=C4)C=C3)cc1)c1ccccc1
REMARK SMILES IDX 19 1 18 2 17 3 16 4 15 5 13 6 14 7 12 8 11 9 10 10 1 11 2 12
REMARK SMILES IDX 3 14 4 15 5 16 9 17 6 18 8 19 7 22 90 23 91 24 95 25 92 26
REMARK SMILES IDX 94 27 93 28 20 29 21 30 22 31 23 32 24 33 25 34 26 35 27 36
REMARK SMILES IDX 28 37 89 38 29 39 88 40 30 41 31 42 32 43 82 44 33 45 87 46
REMARK SMILES IDX 81 47 83 48 34 49 86 50 80 51 79 52 35 54 67 55 47 56 66 57
REMARK SMILES IDX 48 58 51 59 65 60 84 61 49 62 50 63 64 65 85 66 52 67 36 68
REMARK SMILES IDX 37 69 45 70 38 71 39 72 43 73 46 74 40 75 41 76 44 77 42 78
REMARK SMILES IDX 68 79 69 80 77 81 70 82 71 83 75 84 78 85 72 86 73 87 76 88
REMARK SMILES IDX 74 89 53 90 54 91 62 92 55 93 56 94 60 95 63 96 57 97 58 98
REMARK SMILES IDX 61 99 59 100
REMARK H PARENT 10 13 9 20 9 21 83 53 51 64
REMARK Flexibility Score: inf
ROOT
ATOM      1  C   UNL     1       5.225   4.186   2.816  1.00  0.00     0.188 C 
ENDROOT
BRANCH   1   2
ATOM      2  O   UNL     1       6.536   3.880   3.264  1.00  0.00    -0.376 OA
BRANCH   2   3
ATOM      3  C   UNL     1       7.034   2.562   3.073  1.00  0.00     0.202 C 
BRANCH   3   4
ATOM      4  C   UNL     1       6.173   1.351   3.486  1.00  0.00     0.261 C 
BRANCH   4   5
ATOM      5  O   UNL     1       4.796   1.347   3.030  1.00  0.00    -0.463 OA
BRANCH   5   6
ATOM      6  C   UNL     1       3.849   1.240   4.004  1.00  0.00     0.315 C 
ATOM      7  O   UNL     1       4.128   1.093   5.192  1.00  0.00    -0.251 OA
BRANCH   6   8
ATOM      8  C   UNL     1       2.385   1.315   3.530  1.00  0.00     0.148 C 
BRANCH   8   9
ATOM      9  C   UNL     1       2.008   1.369   2.037  1.00  0.00     0.136 C 
BRANCH   9  10
ATOM     10  N   UNL     1       2.763   0.492   1.168  1.00  0.00    -0.355 N 
ATOM     11  O   UNL     1       1.023   0.054  -0.272  1.00  0.00    -0.275 OA
ATOM     12  C   UNL     1       2.179  -0.134   0.085  1.00  0.00     0.226 C 
ATOM     13  H   UNL     1       3.717   0.338   1.353  1.00  0.00     0.163 HD
BRANCH  12  14
ATOM     14  C   UNL     1       3.097  -1.113  -0.606  1.00  0.00     0.165 C 
BRANCH  14  15
ATOM     15  C   UNL     1       3.971  -0.439  -1.678  1.00  0.00     0.201 C 
ATOM     16  C   UNL     1       3.293  -0.380  -3.066  1.00  0.00     0.135 C 
ATOM     17  N   UNL     1       5.314  -1.065  -1.755  1.00  0.00    -0.342 N 
ATOM     18  S   UNL     1       3.049  -2.016  -3.844  1.00  0.00    -0.150 SA
ATOM     19  C   UNL     1       5.262  -2.468  -2.194  1.00  0.00     0.271 C 
ATOM     20  H   UNL     1       5.744  -1.029  -0.831  1.00  0.00     0.346 HD
ATOM     21  H   UNL     1       5.856  -0.546  -2.445  1.00  0.00     0.346 HD
ATOM     22  C   UNL     1       4.737  -2.659  -3.620  1.00  0.00     0.131 C 
ENDBRANCH  14  15
ENDBRANCH  12  14
ENDBRANCH   9  10
ENDBRANCH   8   9
BRANCH   8  23
ATOM     23  C   UNL     1       1.666   2.425   4.300  1.00  0.00    -0.032 A 
ATOM     24  C   UNL     1       1.752   3.773   3.916  1.00  0.00     0.004 A 
ATOM     25  C   UNL     1       0.960   2.112   5.470  1.00  0.00     0.004 A 
ATOM     26  C   UNL     1       1.164   4.774   4.688  1.00  0.00     0.000 A 
ATOM     27  C   UNL     1       0.372   3.118   6.240  1.00  0.00     0.000 A 
ATOM     28  C   UNL     1       0.481   4.450   5.854  1.00  0.00     0.000 A 
ENDBRANCH   8  23
ENDBRANCH   6   8
ENDBRANCH   5   6
ENDBRANCH   4   5
ENDBRANCH   3   4
ENDBRANCH   2   3
ENDBRANCH   1   2
BRANCH   1  29
ATOM     29  C   UNL     1       4.775   3.684   1.431  1.00  0.00     0.188 C 
BRANCH  29  30
ATOM     30  O   UNL     1       5.774   3.013   0.697  1.00  0.00    -0.376 OA
BRANCH  30  31
ATOM     31  C   UNL     1       6.275   3.679  -0.450  1.00  0.00     0.202 C 
BRANCH  31  32
ATOM     32  C   UNL     1       6.820   5.111  -0.289  1.00  0.00     0.261 C 
BRANCH  32  33
ATOM     33  O   UNL     1       6.014   6.039   0.466  1.00  0.00    -0.460 OA
BRANCH  33  34
ATOM     34  C   UNL     1       4.912   6.545  -0.131  1.00  0.00     0.338 C 
ATOM     35  O   UNL     1       4.513   6.289  -1.258  1.00  0.00    -0.246 OA
BRANCH  34  36
ATOM     36  C   UNL     1       4.123   7.293   0.880  1.00  0.00     0.060 A 
ATOM     37  C   UNL     1       2.814   6.877   1.155  1.00  0.00     0.016 A 
ATOM     38  C   UNL     1       4.654   8.399   1.551  1.00  0.00     0.016 A 
ATOM     39  C   UNL     1       2.032   7.574   2.083  1.00  0.00     0.010 A 
ATOM     40  C   UNL     1       3.860   9.109   2.468  1.00  0.00     0.010 A 
ATOM     41  C   UNL     1       2.538   8.712   2.730  1.00  0.00    -0.014 A 
BRANCH  41  42
ATOM     42  C   UNL     1       1.621   9.549   3.555  1.00  0.00     0.031 A 
ATOM     43  C   UNL     1       0.897  10.697   2.903  1.00  0.00     0.074 A 
ATOM     44  C   UNL     1       1.377   9.265   4.848  1.00  0.00     0.049 A 
ATOM     45  N   UNL     1       0.036  11.539   3.417  1.00  0.00    -0.248 NA
ATOM     46  C   UNL     1       1.191  10.929   1.481  1.00  0.00     0.031 C 
ATOM     47  C   UNL     1       2.005   8.189   5.606  1.00  0.00     0.029 A 
ATOM     48  N   UNL     1       0.518   9.852   5.751  1.00  0.00    -0.354 N 
ATOM     49  C   UNL     1      -0.313  12.401   2.385  1.00  0.00     0.074 A 
ATOM     50  C   UNL     1       0.447  11.994   1.222  1.00  0.00     0.031 C 
ATOM     51  C   UNL     1       1.482   8.161   6.845  1.00  0.00     0.029 A 
ATOM     52  C   UNL     1       0.523   9.256   6.990  1.00  0.00     0.049 A 
ATOM     53  H   UNL     1      -0.047  10.627   5.529  1.00  0.00     0.167 HD
ATOM     54  C   UNL     1      -1.185  13.438   2.403  1.00  0.00     0.037 A 
ATOM     55  C   UNL     1      -0.149   9.571   8.118  1.00  0.00     0.037 A 
ATOM     56  C   UNL     1      -1.927  13.865   3.562  1.00  0.00     0.049 A 
ATOM     57  C   UNL     1      -1.079  10.764   8.119  1.00  0.00     0.074 A 
ATOM     58  C   UNL     1      -2.811  14.924   3.678  1.00  0.00     0.029 A 
ATOM     59  N   UNL     1      -1.869  13.258   4.807  1.00  0.00    -0.354 N 
ATOM     60  N   UNL     1      -1.404  11.567   7.136  1.00  0.00    -0.248 NA
ATOM     61  C   UNL     1      -1.724  11.101   9.398  1.00  0.00     0.031 C 
ATOM     62  C   UNL     1      -3.249  14.990   5.005  1.00  0.00     0.029 A 
ATOM     63  C   UNL     1      -2.689  13.932   5.701  1.00  0.00     0.049 A 
ATOM     64  H   UNL     1      -1.327  12.466   5.025  1.00  0.00     0.167 HD
ATOM     65  C   UNL     1      -2.295  12.490   7.672  1.00  0.00     0.074 A 
ATOM     66  C   UNL     1      -2.494  12.123   9.057  1.00  0.00     0.031 C 
ATOM     67  C   UNL     1      -2.884  13.558   7.078  1.00  0.00     0.037 A 
BRANCH  54  68
ATOM     68  C   UNL     1      -1.366  14.210   1.129  1.00  0.00     0.064 A 
ATOM     69  C   UNL     1      -2.044  13.665   0.029  1.00  0.00     0.173 A 
ATOM     70  C   UNL     1      -0.895  15.528   1.023  1.00  0.00     0.173 A 
ATOM     71  F   UNL     1      -2.499  12.404   0.074  1.00  0.00    -0.203 F 
ATOM     72  C   UNL     1      -2.227  14.404  -1.137  1.00  0.00     0.198 A 
ATOM     73  C   UNL     1      -1.107  16.274  -0.133  1.00  0.00     0.198 A 
ATOM     74  F   UNL     1      -0.242  16.098   2.047  1.00  0.00    -0.203 F 
ATOM     75  F   UNL     1      -2.841  13.848  -2.192  1.00  0.00    -0.200 F 
ATOM     76  C   UNL     1      -1.767  15.710  -1.214  1.00  0.00     0.200 A 
ATOM     77  F   UNL     1      -0.673  17.541  -0.199  1.00  0.00    -0.200 F 
ATOM     78  F   UNL     1      -1.954  16.424  -2.332  1.00  0.00    -0.200 F 
ENDBRANCH  54  68
BRANCH  55  79
ATOM     79  C   UNL     1       0.053   8.786   9.371  1.00  0.00     0.064 A 
ATOM     80  C   UNL     1      -1.007   8.093   9.978  1.00  0.00     0.173 A 
ATOM     81  C   UNL     1       1.291   8.777  10.031  1.00  0.00     0.173 A 
ATOM     82  F   UNL     1      -2.222   8.095   9.409  1.00  0.00    -0.203 F 
ATOM     83  C   UNL     1      -0.845   7.459  11.210  1.00  0.00     0.198 A 
ATOM     84  C   UNL     1       1.463   8.105  11.239  1.00  0.00     0.198 A 
ATOM     85  F   UNL     1       2.338   9.429   9.505  1.00  0.00    -0.203 F 
ATOM     86  F   UNL     1      -1.896   6.877  11.804  1.00  0.00    -0.200 F 
ATOM     87  C   UNL     1       0.391   7.460  11.836  1.00  0.00     0.200 A 
ATOM     88  F   UNL     1       2.664   8.100  11.834  1.00  0.00    -0.200 F 
ATOM     89  F   UNL     1       0.545   6.857  13.023  1.00  0.00    -0.200 F 
ENDBRANCH  55  79
BRANCH  67  90
ATOM     90  C   UNL     1      -3.821  14.388   7.914  1.00  0.00     0.064 A 
ATOM     91  C   UNL     1      -3.360  15.180   8.977  1.00  0.00     0.173 A 
ATOM     92  C   UNL     1      -5.197  14.406   7.637  1.00  0.00     0.173 A 
ATOM     93  F   UNL     1      -2.056  15.193   9.293  1.00  0.00    -0.203 F 
ATOM     94  C   UNL     1      -4.244  15.922   9.757  1.00  0.00     0.198 A 
ATOM     95  C   UNL     1      -6.074  15.179   8.396  1.00  0.00     0.198 A 
ATOM     96  F   UNL     1      -5.694  13.679   6.626  1.00  0.00    -0.203 F 
ATOM     97  F   UNL     1      -3.787  16.617  10.808  1.00  0.00    -0.200 F 
ATOM     98  C   UNL     1      -5.599  15.925   9.463  1.00  0.00     0.200 A 
ATOM     99  F   UNL     1      -7.380  15.194   8.098  1.00  0.00    -0.200 F 
ATOM    100  F   UNL     1      -6.448  16.640  10.213  1.00  0.00    -0.200 F 
ENDBRANCH  67  90
ENDBRANCH  41  42
ENDBRANCH  34  36
ENDBRANCH  33  34
ENDBRANCH  32  33
ENDBRANCH  31  32
ENDBRANCH  30  31
ENDBRANCH  29  30
ENDBRANCH   1  29
TORSDOF 22
