REMARK SMILES O=C(CN(CC(F)(F)F)C(=O)[C@H]1C[C@H]2CC[C@@H]1[NH2+]2)OCCOCCOCCOC(=O)c1ccc(-c2c3nc(c(-c4c(F)c(F)c(F)c(F)c4F)c4ccc([nH]4)c(-c4c(F)c(F)c(F)c(F)c4F)c4nc(c(-c5c(F)c(F)c(F)c(F)c5F)c5ccc2[nH]5)C=C4)C=C3)cc1
REMARK SMILES IDX 23 1 22 2 21 3 20 4 19 5 2 6 1 7 3 8 4 9 5 10 6 11 7 12 8 13
REMARK SMILES IDX 9 14 10 15 11 16 12 17 13 18 17 19 14 20 16 21 18 22 15 23
REMARK SMILES IDX 24 26 25 27 26 28 27 29 28 30 29 31 30 32 31 33 32 34 93 35
REMARK SMILES IDX 33 36 92 37 34 38 35 39 36 40 86 41 37 42 91 43 85 44 87 45
REMARK SMILES IDX 38 46 90 47 84 48 83 49 39 51 71 52 51 53 70 54 52 55 55 56
REMARK SMILES IDX 69 57 88 58 53 59 54 60 68 62 89 63 56 64 40 65 41 66 49 67
REMARK SMILES IDX 42 68 43 69 47 70 50 71 44 72 45 73 48 74 46 75 72 76 73 77
REMARK SMILES IDX 81 78 74 79 75 80 79 81 82 82 76 83 77 84 80 85 78 86 57 87
REMARK SMILES IDX 58 88 66 89 59 90 60 91 64 92 67 93 61 94 62 95 65 96 63 97
REMARK H PARENT 18 24 18 25 87 50 55 61
REMARK Flexibility Score: inf
ROOT
ATOM      1  C   UNL     1       2.075   2.410   7.094  1.00  0.00     0.188 C 
ENDROOT
BRANCH   1   2
ATOM      2  O   UNL     1       1.448   3.213   6.102  1.00  0.00    -0.376 OA
BRANCH   2   3
ATOM      3  C   UNL     1       0.620   2.582   5.138  1.00  0.00     0.202 C 
BRANCH   3   4
ATOM      4  C   UNL     1       1.358   2.075   3.901  1.00  0.00     0.261 C 
BRANCH   4   5
ATOM      5  O   UNL     1       2.375   1.111   4.208  1.00  0.00    -0.462 OA
BRANCH   5   6
ATOM      6  C   UNL     1       3.668   1.340   4.528  1.00  0.00     0.325 C 
ATOM      7  O   UNL     1       4.296   0.430   5.078  1.00  0.00    -0.250 OA
BRANCH   6   8
ATOM      8  C   UNL     1       4.297   2.744   4.453  1.00  0.00     0.242 C 
BRANCH   8   9
ATOM      9  N   UNL     1       3.926   3.673   3.383  1.00  0.00    -0.322 N 
BRANCH   9  10
ATOM     10  C   UNL     1       3.238   4.920   3.784  1.00  0.00     0.235 C 
BRANCH  10  11
ATOM     11  C   UNL     1       4.122   6.049   4.327  1.00  0.00     0.406 C 
ATOM     12  F   UNL     1       5.391   5.964   3.876  1.00  0.00    -0.169 F 
ATOM     13  F   UNL     1       3.636   7.255   3.957  1.00  0.00    -0.169 F 
ATOM     14  F   UNL     1       4.174   6.022   5.678  1.00  0.00    -0.169 F 
ENDBRANCH  10  11
ENDBRANCH   9  10
BRANCH   9  15
ATOM     15  C   UNL     1       4.407   3.310   2.145  1.00  0.00     0.232 C 
ATOM     16  O   UNL     1       4.913   2.183   2.026  1.00  0.00    -0.274 OA
BRANCH  15  17
ATOM     17  C   UNL     1       4.340   4.156   0.884  1.00  0.00     0.142 C 
ATOM     18  C   UNL     1       3.968   5.637   0.770  1.00  0.00     0.084 C 
ATOM     19  C   UNL     1       5.755   4.154   0.260  1.00  0.00     0.195 C 
ATOM     20  C   UNL     1       5.145   6.243  -0.007  1.00  0.00     0.183 C 
ATOM     21  C   UNL     1       6.756   4.921   1.145  1.00  0.00     0.072 C 
ATOM     22  N   UNL     1       5.545   5.107  -0.846  1.00  0.00    -0.341 N 
ATOM     23  C   UNL     1       6.352   6.381   0.921  1.00  0.00     0.071 C 
ATOM     24  H   UNL     1       6.398   5.290  -1.375  1.00  0.00     0.346 HD
ATOM     25  H   UNL     1       4.897   4.825  -1.582  1.00  0.00     0.346 HD
ENDBRANCH  15  17
ENDBRANCH   9  15
ENDBRANCH   8   9
ENDBRANCH   6   8
ENDBRANCH   5   6
ENDBRANCH   4   5
ENDBRANCH   3   4
ENDBRANCH   2   3
ENDBRANCH   1   2
BRANCH   1  26
ATOM     26  C   UNL     1       1.337   1.246   7.762  1.00  0.00     0.188 C 
BRANCH  26  27
ATOM     27  O   UNL     1      -0.045   1.358   8.055  1.00  0.00    -0.376 OA
BRANCH  27  28
ATOM     28  C   UNL     1      -0.583   2.614   8.436  1.00  0.00     0.202 C 
BRANCH  28  29
ATOM     29  C   UNL     1      -0.122   3.192   9.776  1.00  0.00     0.261 C 
BRANCH  29  30
ATOM     30  O   UNL     1       1.221   3.712   9.735  1.00  0.00    -0.460 OA
BRANCH  30  31
ATOM     31  C   UNL     1       2.117   3.116  10.560  1.00  0.00     0.338 C 
ATOM     32  O   UNL     1       1.916   2.192  11.325  1.00  0.00    -0.246 OA
BRANCH  31  33
ATOM     33  C   UNL     1       3.467   3.673  10.325  1.00  0.00     0.060 A 
ATOM     34  C   UNL     1       4.488   2.809   9.904  1.00  0.00     0.016 A 
ATOM     35  C   UNL     1       3.748   5.012  10.598  1.00  0.00     0.016 A 
ATOM     36  C   UNL     1       5.800   3.279   9.779  1.00  0.00     0.010 A 
ATOM     37  C   UNL     1       5.065   5.475  10.491  1.00  0.00     0.010 A 
ATOM     38  C   UNL     1       6.104   4.608  10.104  1.00  0.00    -0.014 A 
BRANCH  38  39
ATOM     39  C   UNL     1       7.512   5.086  10.146  1.00  0.00     0.031 A 
ATOM     40  C   UNL     1       8.226   5.160  11.469  1.00  0.00     0.074 A 
ATOM     41  C   UNL     1       8.136   5.500   9.028  1.00  0.00     0.049 A 
ATOM     42  N   UNL     1       9.388   5.689  11.758  1.00  0.00    -0.248 NA
ATOM     43  C   UNL     1       7.536   4.559  12.621  1.00  0.00     0.031 C 
ATOM     44  C   UNL     1       7.577   5.447   7.679  1.00  0.00     0.029 A 
ATOM     45  N   UNL     1       9.373   6.077   8.859  1.00  0.00    -0.354 N 
ATOM     46  C   UNL     1       9.560   5.504  13.123  1.00  0.00     0.074 A 
ATOM     47  C   UNL     1       8.382   4.818  13.609  1.00  0.00     0.031 C 
ATOM     48  C   UNL     1       8.452   6.005   6.824  1.00  0.00     0.029 A 
ATOM     49  C   UNL     1       9.611   6.494   7.571  1.00  0.00     0.049 A 
ATOM     50  H   UNL     1      10.024   6.183   9.589  1.00  0.00     0.167 HD
ATOM     51  C   UNL     1      10.606   5.876  13.900  1.00  0.00     0.037 A 
ATOM     52  C   UNL     1      10.622   7.228   7.064  1.00  0.00     0.037 A 
ATOM     53  C   UNL     1      11.787   6.543  13.419  1.00  0.00     0.049 A 
ATOM     54  C   UNL     1      11.733   7.701   7.970  1.00  0.00     0.074 A 
ATOM     55  C   UNL     1      12.923   6.899  14.127  1.00  0.00     0.029 A 
ATOM     56  N   UNL     1      11.980   6.968  12.115  1.00  0.00    -0.354 N 
ATOM     57  N   UNL     1      11.911   7.483   9.250  1.00  0.00    -0.248 NA
ATOM     58  C   UNL     1      12.782   8.535   7.359  1.00  0.00     0.031 C 
ATOM     59  C   UNL     1      13.776   7.594  13.265  1.00  0.00     0.029 A 
ATOM     60  C   UNL     1      13.196   7.624  12.008  1.00  0.00     0.049 A 
ATOM     61  H   UNL     1      11.347   6.824  11.374  1.00  0.00     0.167 HD
ATOM     62  C   UNL     1      13.093   8.130   9.589  1.00  0.00     0.074 A 
ATOM     63  C   UNL     1      13.604   8.734   8.379  1.00  0.00     0.031 C 
ATOM     64  C   UNL     1      13.699   8.220  10.799  1.00  0.00     0.037 A 
BRANCH  51  65
ATOM     65  C   UNL     1      10.524   5.600  15.372  1.00  0.00     0.064 A 
ATOM     66  C   UNL     1      10.706   4.312  15.892  1.00  0.00     0.173 A 
ATOM     67  C   UNL     1      10.361   6.661  16.277  1.00  0.00     0.173 A 
ATOM     68  F   UNL     1      10.859   3.266  15.067  1.00  0.00    -0.203 F 
ATOM     69  C   UNL     1      10.721   4.093  17.267  1.00  0.00     0.198 A 
ATOM     70  C   UNL     1      10.400   6.442  17.651  1.00  0.00     0.198 A 
ATOM     71  F   UNL     1      10.191   7.913  15.827  1.00  0.00    -0.203 F 
ATOM     72  F   UNL     1      10.878   2.851  17.745  1.00  0.00    -0.200 F 
ATOM     73  C   UNL     1      10.579   5.159  18.145  1.00  0.00     0.200 A 
ATOM     74  F   UNL     1      10.277   7.475  18.496  1.00  0.00    -0.200 F 
ATOM     75  F   UNL     1      10.616   4.950  19.468  1.00  0.00    -0.200 F 
ENDBRANCH  51  65
BRANCH  52  76
ATOM     76  C   UNL     1      10.611   7.626   5.630  1.00  0.00     0.064 A 
ATOM     77  C   UNL     1      11.587   7.159   4.738  1.00  0.00     0.173 A 
ATOM     78  C   UNL     1       9.660   8.533   5.137  1.00  0.00     0.173 A 
ATOM     79  F   UNL     1      12.539   6.318   5.169  1.00  0.00    -0.203 F 
ATOM     80  C   UNL     1      11.628   7.603   3.418  1.00  0.00     0.198 A 
ATOM     81  C   UNL     1       9.681   8.950   3.808  1.00  0.00     0.198 A 
ATOM     82  F   UNL     1       8.710   9.019   5.950  1.00  0.00    -0.203 F 
ATOM     83  F   UNL     1      12.610   7.192   2.605  1.00  0.00    -0.200 F 
ATOM     84  C   UNL     1      10.672   8.494   2.953  1.00  0.00     0.200 A 
ATOM     85  F   UNL     1       8.750   9.803   3.361  1.00  0.00    -0.200 F 
ATOM     86  F   UNL     1      10.715   8.926   1.685  1.00  0.00    -0.200 F 
ENDBRANCH  52  76
BRANCH  64  87
ATOM     87  C   UNL     1      14.991   8.982  10.878  1.00  0.00     0.064 A 
ATOM     88  C   UNL     1      15.024  10.381  10.789  1.00  0.00     0.173 A 
ATOM     89  C   UNL     1      16.204   8.311  11.102  1.00  0.00     0.173 A 
ATOM     90  F   UNL     1      13.895  11.069  10.560  1.00  0.00    -0.203 F 
ATOM     91  C   UNL     1      16.223  11.079  10.903  1.00  0.00     0.198 A 
ATOM     92  C   UNL     1      17.397   9.014  11.245  1.00  0.00     0.198 A 
ATOM     93  F   UNL     1      16.228   6.973  11.203  1.00  0.00    -0.203 F 
ATOM     94  F   UNL     1      16.235  12.413  10.775  1.00  0.00    -0.200 F 
ATOM     95  C   UNL     1      17.407  10.396  11.140  1.00  0.00     0.200 A 
ATOM     96  F   UNL     1      18.538   8.353  11.488  1.00  0.00    -0.200 F 
ATOM     97  F   UNL     1      18.559  11.070  11.262  1.00  0.00    -0.200 F 
ENDBRANCH  64  87
ENDBRANCH  38  39
ENDBRANCH  31  33
ENDBRANCH  30  31
ENDBRANCH  29  30
ENDBRANCH  28  29
ENDBRANCH  27  28
ENDBRANCH  26  27
ENDBRANCH   1  26
TORSDOF 22
