REMARK SMILES CCc1cc(OC(F)(F)F)cc2c1O[C@@H](C(F)(F)F)C(C(=O)OCCOCCOCCOC(=O)c1ccc(-c3c4nc(c(-c5c(F)c(F)c(F)c(F)c5F)c5ccc([nH]5)c(-c5c(F)c(F)c(F)c(F)c5F)c5nc(c(-c6c(F)c(F)c(F)c(F)c6F)c6ccc3[nH]6)C=C5)C=C4)cc1)=C2
REMARK SMILES IDX 27 1 26 2 25 3 24 4 23 5 21 6 22 7 20 8 3 9 4 10 13 11 5 12
REMARK SMILES IDX 12 13 14 14 11 15 98 16 15 17 2 18 1 19 6 20 7 21 8 22 9 23
REMARK SMILES IDX 10 24 16 25 17 26 18 27 19 28 28 29 29 30 30 31 31 32 32 33
REMARK SMILES IDX 33 34 34 35 35 36 36 37 97 38 37 39 96 40 38 41 39 42 40 43
REMARK SMILES IDX 90 44 41 45 95 46 89 47 91 48 42 49 94 50 88 51 87 52 43 54
REMARK SMILES IDX 75 55 55 56 74 57 56 58 59 59 73 60 92 61 57 62 58 63 72 65
REMARK SMILES IDX 93 66 60 67 44 68 45 69 53 70 46 71 47 72 51 73 54 74 48 75
REMARK SMILES IDX 49 76 52 77 50 78 76 79 77 80 85 81 78 82 79 83 83 84 86 85
REMARK SMILES IDX 80 86 81 87 84 88 82 89 61 90 62 91 70 92 63 93 64 94 68 95
REMARK SMILES IDX 71 96 65 97 66 98 69 99 67 100
REMARK H PARENT 91 53 59 64
REMARK Flexibility Score: inf
ROOT
ATOM      1  C   UNL     1       8.164  -3.024  -1.049  1.00  0.00     0.188 C 
ENDROOT
BRANCH   1   2
ATOM      2  O   UNL     1       9.162  -3.709  -0.313  1.00  0.00    -0.376 OA
BRANCH   2   3
ATOM      3  C   UNL     1       9.043  -3.725   1.098  1.00  0.00     0.202 C 
BRANCH   3   4
ATOM      4  C   UNL     1       7.845  -4.483   1.685  1.00  0.00     0.261 C 
BRANCH   4   5
ATOM      5  O   UNL     1       6.580  -4.201   1.067  1.00  0.00    -0.460 OA
BRANCH   5   6
ATOM      6  C   UNL     1       5.905  -3.112   1.489  1.00  0.00     0.338 C 
ATOM      7  O   UNL     1       6.276  -2.318   2.337  1.00  0.00    -0.246 OA
BRANCH   6   8
ATOM      8  C   UNL     1       4.677  -2.952   0.683  1.00  0.00     0.087 C 
ATOM      9  C   UNL     1       0.902  -2.184  -0.957  1.00  0.00    -0.002 A 
ATOM     10  C   UNL     1       0.087  -3.271  -1.328  1.00  0.00     0.054 A 
ATOM     11  C   UNL     1       2.176  -2.452  -0.434  1.00  0.00     0.131 A 
ATOM     12  C   UNL     1       0.515  -4.589  -1.148  1.00  0.00     0.130 A 
ATOM     13  C   UNL     1       2.603  -3.769  -0.213  1.00  0.00     0.021 A 
ATOM     14  O   UNL     1       2.957  -1.383  -0.085  1.00  0.00    -0.475 OA
ATOM     15  C   UNL     1       1.776  -4.831  -0.592  1.00  0.00     0.058 A 
ATOM     16  C   UNL     1       3.851  -3.999   0.516  1.00  0.00     0.027 C 
ATOM     17  C   UNL     1       4.381  -1.634   0.011  1.00  0.00     0.316 C 
BRANCH   9  18
ATOM     18  C   UNL     1       0.383  -0.775  -1.166  1.00  0.00     0.036 C 
ATOM     19  C   UNL     1       0.458   0.129   0.060  1.00  0.00     0.009 C 
ENDBRANCH   9  18
BRANCH  12  20
ATOM     20  O   UNL     1      -0.195  -5.715  -1.460  1.00  0.00    -0.406 OA
BRANCH  20  21
ATOM     21  C   UNL     1      -1.576  -5.565  -1.750  1.00  0.00     0.573 C 
ATOM     22  F   UNL     1      -2.221  -4.931  -0.747  1.00  0.00    -0.132 F 
ATOM     23  F   UNL     1      -1.759  -4.888  -2.903  1.00  0.00    -0.132 F 
ATOM     24  F   UNL     1      -2.126  -6.792  -1.892  1.00  0.00    -0.132 F 
ENDBRANCH  20  21
ENDBRANCH  12  20
BRANCH  17  25
ATOM     25  C   UNL     1       5.043  -0.366   0.572  1.00  0.00     0.430 C 
ATOM     26  F   UNL     1       6.393  -0.429   0.473  1.00  0.00    -0.167 F 
ATOM     27  F   UNL     1       4.675   0.719  -0.161  1.00  0.00    -0.167 F 
ATOM     28  F   UNL     1       4.710  -0.112   1.852  1.00  0.00    -0.167 F 
ENDBRANCH  17  25
ENDBRANCH   6   8
ENDBRANCH   5   6
ENDBRANCH   4   5
ENDBRANCH   3   4
ENDBRANCH   2   3
ENDBRANCH   1   2
BRANCH   1  29
ATOM     29  C   UNL     1       7.271  -3.970  -1.877  1.00  0.00     0.188 C 
BRANCH  29  30
ATOM     30  O   UNL     1       7.698  -5.304  -2.129  1.00  0.00    -0.376 OA
BRANCH  30  31
ATOM     31  C   UNL     1       9.063  -5.553  -2.441  1.00  0.00     0.202 C 
BRANCH  31  32
ATOM     32  C   UNL     1       9.637  -4.916  -3.710  1.00  0.00     0.261 C 
BRANCH  32  33
ATOM     33  O   UNL     1       9.466  -3.490  -3.786  1.00  0.00    -0.460 OA
BRANCH  33  34
ATOM     34  C   UNL     1       8.649  -3.057  -4.776  1.00  0.00     0.338 C 
ATOM     35  O   UNL     1       8.073  -3.730  -5.614  1.00  0.00    -0.246 OA
BRANCH  34  36
ATOM     36  C   UNL     1       8.397  -1.611  -4.622  1.00  0.00     0.060 A 
ATOM     37  C   UNL     1       7.069  -1.186  -4.479  1.00  0.00     0.016 A 
ATOM     38  C   UNL     1       9.435  -0.681  -4.693  1.00  0.00     0.016 A 
ATOM     39  C   UNL     1       6.771   0.175  -4.426  1.00  0.00     0.010 A 
ATOM     40  C   UNL     1       9.132   0.685  -4.665  1.00  0.00     0.010 A 
ATOM     41  C   UNL     1       7.799   1.119  -4.555  1.00  0.00    -0.014 A 
BRANCH  41  42
ATOM     42  C   UNL     1       7.468   2.555  -4.713  1.00  0.00     0.031 A 
ATOM     43  C   UNL     1       7.345   3.129  -6.096  1.00  0.00     0.074 A 
ATOM     44  C   UNL     1       7.277   3.340  -3.639  1.00  0.00     0.049 A 
ATOM     45  N   UNL     1       7.128   4.365  -6.468  1.00  0.00    -0.248 NA
ATOM     46  C   UNL     1       7.483   2.178  -7.211  1.00  0.00     0.031 C 
ATOM     47  C   UNL     1       7.322   2.895  -2.248  1.00  0.00     0.029 A 
ATOM     48  N   UNL     1       7.019   4.686  -3.556  1.00  0.00    -0.354 N 
ATOM     49  C   UNL     1       7.104   4.342  -7.856  1.00  0.00     0.074 A 
ATOM     50  C   UNL     1       7.350   2.974  -8.262  1.00  0.00     0.031 C 
ATOM     51  C   UNL     1       7.123   3.956  -1.446  1.00  0.00     0.029 A 
ATOM     52  C   UNL     1       6.967   5.156  -2.268  1.00  0.00     0.049 A 
ATOM     53  H   UNL     1       6.884   5.259  -4.345  1.00  0.00     0.167 HD
ATOM     54  C   UNL     1       6.892   5.368  -8.714  1.00  0.00     0.037 A 
ATOM     55  C   UNL     1       6.839   6.415  -1.807  1.00  0.00     0.037 A 
ATOM     56  C   UNL     1       6.658   6.730  -8.313  1.00  0.00     0.049 A 
ATOM     57  C   UNL     1       6.695   7.554  -2.784  1.00  0.00     0.074 A 
ATOM     58  C   UNL     1       6.413   7.835  -9.109  1.00  0.00     0.029 A 
ATOM     59  N   UNL     1       6.652   7.174  -6.999  1.00  0.00    -0.354 N 
ATOM     60  N   UNL     1       6.647   7.522  -4.094  1.00  0.00    -0.248 NA
ATOM     61  C   UNL     1       6.589   8.906  -2.216  1.00  0.00     0.031 C 
ATOM     62  C   UNL     1       6.308   8.957  -8.280  1.00  0.00     0.029 A 
ATOM     63  C   UNL     1       6.439   8.543  -6.964  1.00  0.00     0.049 A 
ATOM     64  H   UNL     1       6.781   6.602  -6.208  1.00  0.00     0.167 HD
ATOM     65  C   UNL     1       6.481   8.839  -4.504  1.00  0.00     0.074 A 
ATOM     66  C   UNL     1       6.425   9.646  -3.304  1.00  0.00     0.031 C 
ATOM     67  C   UNL     1       6.383   9.335  -5.762  1.00  0.00     0.037 A 
BRANCH  54  68
ATOM     68  C   UNL     1       6.930   5.060 -10.181  1.00  0.00     0.064 A 
ATOM     69  C   UNL     1       5.890   4.364 -10.813  1.00  0.00     0.173 A 
ATOM     70  C   UNL     1       8.005   5.497 -10.969  1.00  0.00     0.173 A 
ATOM     71  F   UNL     1       4.848   3.912 -10.098  1.00  0.00    -0.203 F 
ATOM     72  C   UNL     1       5.934   4.098 -12.179  1.00  0.00     0.198 A 
ATOM     73  C   UNL     1       8.033   5.251 -12.339  1.00  0.00     0.198 A 
ATOM     74  F   UNL     1       9.023   6.169 -10.412  1.00  0.00    -0.203 F 
ATOM     75  F   UNL     1       4.948   3.397 -12.756  1.00  0.00    -0.200 F 
ATOM     76  C   UNL     1       7.002   4.548 -12.942  1.00  0.00     0.200 A 
ATOM     77  F   UNL     1       9.061   5.694 -13.076  1.00  0.00    -0.200 F 
ATOM     78  F   UNL     1       7.040   4.296 -14.258  1.00  0.00    -0.200 F 
ENDBRANCH  54  68
BRANCH  55  79
ATOM     79  C   UNL     1       6.867   6.676  -0.345  1.00  0.00     0.064 A 
ATOM     80  C   UNL     1       5.719   7.104   0.336  1.00  0.00     0.173 A 
ATOM     81  C   UNL     1       8.050   6.530   0.394  1.00  0.00     0.173 A 
ATOM     82  F   UNL     1       4.574   7.291  -0.336  1.00  0.00    -0.203 F 
ATOM     83  C   UNL     1       5.758   7.391   1.699  1.00  0.00     0.198 A 
ATOM     84  C   UNL     1       8.081   6.792   1.762  1.00  0.00     0.198 A 
ATOM     85  F   UNL     1       9.177   6.132  -0.214  1.00  0.00    -0.203 F 
ATOM     86  F   UNL     1       4.659   7.846   2.316  1.00  0.00    -0.200 F 
ATOM     87  C   UNL     1       6.936   7.229   2.412  1.00  0.00     0.200 A 
ATOM     88  F   UNL     1       9.221   6.631   2.447  1.00  0.00    -0.200 F 
ATOM     89  F   UNL     1       6.973   7.509   3.721  1.00  0.00    -0.200 F 
ENDBRANCH  55  79
BRANCH  67  90
ATOM     90  C   UNL     1       6.177  10.814  -5.908  1.00  0.00     0.064 A 
ATOM     91  C   UNL     1       7.213  11.728  -5.666  1.00  0.00     0.173 A 
ATOM     92  C   UNL     1       4.941  11.321  -6.337  1.00  0.00     0.173 A 
ATOM     93  F   UNL     1       8.409  11.295  -5.240  1.00  0.00    -0.203 F 
ATOM     94  C   UNL     1       7.012  13.097  -5.828  1.00  0.00     0.198 A 
ATOM     95  C   UNL     1       4.752  12.687  -6.524  1.00  0.00     0.198 A 
ATOM     96  F   UNL     1       3.919  10.489  -6.589  1.00  0.00    -0.203 F 
ATOM     97  F   UNL     1       8.004  13.955  -5.552  1.00  0.00    -0.200 F 
ATOM     98  C   UNL     1       5.785  13.574  -6.264  1.00  0.00     0.200 A 
ATOM     99  F   UNL     1       3.569  13.146  -6.957  1.00  0.00    -0.200 F 
ATOM    100  F   UNL     1       5.596  14.891  -6.426  1.00  0.00    -0.200 F 
ENDBRANCH  67  90
ENDBRANCH  41  42
ENDBRANCH  34  36
ENDBRANCH  33  34
ENDBRANCH  32  33
ENDBRANCH  31  32
ENDBRANCH  30  31
ENDBRANCH  29  30
ENDBRANCH   1  29
TORSDOF 21
