REMARK SMILES CCOc1cc(C(=O)OCCOCCOCCOC(=O)c2ccc(-c3c4nc(c(-c5c(F)c(F)c(F)c(F)c5F)c5ccc([nH]5)c(-c5c(F)c(F)c(F)c(F)c5F)c5nc(c(-c6c(F)c(F)c(F)c(F)c6F)c6ccc3[nH]6)C=C5)C=C4)cc2)ccc1OCc1ccc(Cl)c(Cl)c1
REMARK SMILES IDX 13 1 12 2 11 3 10 4 9 5 7 6 8 7 6 8 4 9 5 10 86 11 85 12
REMARK SMILES IDX 84 13 3 14 2 15 1 16 87 17 88 18 89 19 90 20 96 21 91 22
REMARK SMILES IDX 94 23 92 24 95 25 93 26 14 27 15 28 16 29 17 30 18 31 19 32
REMARK SMILES IDX 20 33 21 34 22 35 83 36 23 37 82 38 24 39 25 40 26 41 76 42
REMARK SMILES IDX 27 43 81 44 75 45 77 46 28 47 80 48 74 49 73 50 29 52 61 53
REMARK SMILES IDX 41 54 60 55 42 56 45 57 59 58 78 59 43 60 44 61 58 63 79 64
REMARK SMILES IDX 46 65 30 66 31 67 39 68 32 69 33 70 37 71 40 72 34 73 35 74
REMARK SMILES IDX 38 75 36 76 62 77 63 78 71 79 64 80 65 81 69 82 72 83 66 84
REMARK SMILES IDX 67 85 70 86 68 87 47 88 48 89 56 90 49 91 50 92 54 93 57 94
REMARK SMILES IDX 51 95 52 96 55 97 53 98
REMARK H PARENT 77 51 45 62
REMARK Flexibility Score: inf
ROOT
ATOM      1  C   UNL     1       3.661   1.196   7.220  1.00  0.00     0.188 C 
ENDROOT
BRANCH   1   2
ATOM      2  O   UNL     1       4.400   0.653   8.310  1.00  0.00    -0.376 OA
BRANCH   2   3
ATOM      3  C   UNL     1       5.757   0.269   8.126  1.00  0.00     0.202 C 
BRANCH   3   4
ATOM      4  C   UNL     1       6.041  -0.839   7.109  1.00  0.00     0.261 C 
BRANCH   4   5
ATOM      5  O   UNL     1       5.685  -0.481   5.764  1.00  0.00    -0.460 OA
BRANCH   5   6
ATOM      6  C   UNL     1       4.593  -1.088   5.240  1.00  0.00     0.338 C 
ATOM      7  O   UNL     1       3.875  -1.921   5.769  1.00  0.00    -0.246 OA
BRANCH   6   8
ATOM      8  C   UNL     1       4.298  -0.498   3.917  1.00  0.00     0.064 A 
ATOM      9  C   UNL     1       2.708   0.319   2.281  1.00  0.00     0.162 A 
ATOM     10  C   UNL     1       2.985  -0.092   3.586  1.00  0.00     0.066 A 
ATOM     11  C   UNL     1       3.714   0.176   1.312  1.00  0.00     0.161 A 
ATOM     12  C   UNL     1       5.040  -0.046   1.685  1.00  0.00     0.051 A 
ATOM     13  C   UNL     1       5.340  -0.376   2.996  1.00  0.00     0.020 A 
BRANCH   9  14
ATOM     14  O   UNL     1       1.543   0.885   1.854  1.00  0.00    -0.490 OA
BRANCH  14  15
ATOM     15  C   UNL     1       0.285   0.458   2.367  1.00  0.00     0.226 C 
ATOM     16  C   UNL     1      -0.758   0.788   1.302  1.00  0.00     0.049 C 
ENDBRANCH  14  15
ENDBRANCH   9  14
BRANCH  11  17
ATOM     17  O   UNL     1       3.518   0.138  -0.041  1.00  0.00    -0.485 OA
BRANCH  17  18
ATOM     18  C   UNL     1       2.340  -0.521  -0.529  1.00  0.00     0.265 C 
BRANCH  18  19
ATOM     19  C   UNL     1       2.092  -2.006  -0.234  1.00  0.00    -0.009 A 
ATOM     20  C   UNL     1       1.791  -2.505   1.042  1.00  0.00     0.009 A 
ATOM     21  C   UNL     1       1.997  -2.913  -1.301  1.00  0.00     0.029 A 
ATOM     22  C   UNL     1       1.361  -3.819   1.253  1.00  0.00     0.022 A 
ATOM     23  C   UNL     1       1.573  -4.239  -1.101  1.00  0.00     0.060 A 
ATOM     24  C   UNL     1       1.236  -4.688   0.178  1.00  0.00     0.059 A 
ATOM     25  Cl  UNL     1       1.452  -5.259  -2.490  1.00  0.00    -0.083 Cl
ATOM     26  Cl  UNL     1       0.638  -6.275   0.495  1.00  0.00    -0.083 Cl
ENDBRANCH  18  19
ENDBRANCH  17  18
ENDBRANCH  11  17
ENDBRANCH   6   8
ENDBRANCH   5   6
ENDBRANCH   4   5
ENDBRANCH   3   4
ENDBRANCH   2   3
ENDBRANCH   1   2
BRANCH   1  27
ATOM     27  C   UNL     1       4.336   2.214   6.275  1.00  0.00     0.188 C 
BRANCH  27  28
ATOM     28  O   UNL     1       5.513   2.757   6.824  1.00  0.00    -0.376 OA
BRANCH  28  29
ATOM     29  C   UNL     1       5.503   4.072   7.334  1.00  0.00     0.202 C 
BRANCH  29  30
ATOM     30  C   UNL     1       4.382   4.578   8.259  1.00  0.00     0.261 C 
BRANCH  30  31
ATOM     31  O   UNL     1       3.087   3.977   8.141  1.00  0.00    -0.460 OA
BRANCH  31  32
ATOM     32  C   UNL     1       2.222   4.513   7.251  1.00  0.00     0.338 C 
ATOM     33  O   UNL     1       2.431   5.434   6.485  1.00  0.00    -0.246 OA
BRANCH  32  34
ATOM     34  C   UNL     1       1.002   3.671   7.233  1.00  0.00     0.060 A 
ATOM     35  C   UNL     1       0.625   3.049   6.037  1.00  0.00     0.016 A 
ATOM     36  C   UNL     1       0.233   3.496   8.389  1.00  0.00     0.016 A 
ATOM     37  C   UNL     1      -0.542   2.280   5.989  1.00  0.00     0.010 A 
ATOM     38  C   UNL     1      -0.941   2.734   8.333  1.00  0.00     0.010 A 
ATOM     39  C   UNL     1      -1.349   2.143   7.125  1.00  0.00    -0.014 A 
BRANCH  39  40
ATOM     40  C   UNL     1      -2.705   1.549   7.001  1.00  0.00     0.031 A 
ATOM     41  C   UNL     1      -3.876   2.475   6.812  1.00  0.00     0.074 A 
ATOM     42  C   UNL     1      -2.904   0.219   7.038  1.00  0.00     0.049 A 
ATOM     43  N   UNL     1      -5.154   2.202   6.745  1.00  0.00    -0.248 NA
ATOM     44  C   UNL     1      -3.557   3.905   6.678  1.00  0.00     0.031 C 
ATOM     45  C   UNL     1      -1.857  -0.791   7.167  1.00  0.00     0.029 A 
ATOM     46  N   UNL     1      -4.069  -0.507   6.984  1.00  0.00    -0.354 N 
ATOM     47  C   UNL     1      -5.791   3.424   6.573  1.00  0.00     0.074 A 
ATOM     48  C   UNL     1      -4.763   4.442   6.567  1.00  0.00     0.031 C 
ATOM     49  C   UNL     1      -2.429  -2.008   7.205  1.00  0.00     0.029 A 
ATOM     50  C   UNL     1      -3.883  -1.860   7.136  1.00  0.00     0.049 A 
ATOM     51  H   UNL     1      -4.954  -0.098   6.848  1.00  0.00     0.167 HD
ATOM     52  C   UNL     1      -7.114   3.677   6.427  1.00  0.00     0.037 A 
ATOM     53  C   UNL     1      -4.785  -2.857   7.239  1.00  0.00     0.037 A 
ATOM     54  C   UNL     1      -8.140   2.669   6.440  1.00  0.00     0.049 A 
ATOM     55  C   UNL     1      -6.259  -2.541   7.161  1.00  0.00     0.074 A 
ATOM     56  C   UNL     1      -9.507   2.828   6.287  1.00  0.00     0.029 A 
ATOM     57  N   UNL     1      -7.914   1.315   6.629  1.00  0.00    -0.354 N 
ATOM     58  N   UNL     1      -6.853  -1.387   6.974  1.00  0.00    -0.248 NA
ATOM     59  C   UNL     1      -7.190  -3.671   7.308  1.00  0.00     0.031 C 
ATOM     60  C   UNL     1     -10.112   1.576   6.434  1.00  0.00     0.029 A 
ATOM     61  C   UNL     1      -9.118   0.629   6.622  1.00  0.00     0.049 A 
ATOM     62  H   UNL     1      -7.029   0.901   6.750  1.00  0.00     0.167 HD
ATOM     63  C   UNL     1      -8.216  -1.655   6.949  1.00  0.00     0.074 A 
ATOM     64  C   UNL     1      -8.364  -3.084   7.130  1.00  0.00     0.031 C 
ATOM     65  C   UNL     1      -9.253  -0.796   6.789  1.00  0.00     0.037 A 
BRANCH  52  66
ATOM     66  C   UNL     1      -7.528   5.110   6.270  1.00  0.00     0.064 A 
ATOM     67  C   UNL     1      -7.265   5.828   5.094  1.00  0.00     0.173 A 
ATOM     68  C   UNL     1      -8.221   5.765   7.299  1.00  0.00     0.173 A 
ATOM     69  F   UNL     1      -6.590   5.252   4.087  1.00  0.00    -0.203 F 
ATOM     70  C   UNL     1      -7.659   7.158   4.964  1.00  0.00     0.198 A 
ATOM     71  C   UNL     1      -8.639   7.084   7.154  1.00  0.00     0.198 A 
ATOM     72  F   UNL     1      -8.499   5.121   8.443  1.00  0.00    -0.203 F 
ATOM     73  F   UNL     1      -7.355   7.839   3.851  1.00  0.00    -0.200 F 
ATOM     74  C   UNL     1      -8.351   7.782   5.991  1.00  0.00     0.200 A 
ATOM     75  F   UNL     1      -9.318   7.683   8.143  1.00  0.00    -0.200 F 
ATOM     76  F   UNL     1      -8.735   9.059   5.862  1.00  0.00    -0.200 F 
ENDBRANCH  52  66
BRANCH  53  77
ATOM     77  C   UNL     1      -4.330  -4.257   7.450  1.00  0.00     0.064 A 
ATOM     78  C   UNL     1      -4.509  -5.233   6.459  1.00  0.00     0.173 A 
ATOM     79  C   UNL     1      -3.743  -4.658   8.659  1.00  0.00     0.173 A 
ATOM     80  F   UNL     1      -5.096  -4.907   5.298  1.00  0.00    -0.203 F 
ATOM     81  C   UNL     1      -4.137  -6.558   6.677  1.00  0.00     0.198 A 
ATOM     82  C   UNL     1      -3.344  -5.977   8.865  1.00  0.00     0.198 A 
ATOM     83  F   UNL     1      -3.558  -3.766   9.643  1.00  0.00    -0.203 F 
ATOM     84  F   UNL     1      -4.369  -7.481   5.733  1.00  0.00    -0.200 F 
ATOM     85  C   UNL     1      -3.549  -6.928   7.877  1.00  0.00     0.200 A 
ATOM     86  F   UNL     1      -2.772  -6.328  10.025  1.00  0.00    -0.200 F 
ATOM     87  F   UNL     1      -3.193  -8.203   8.087  1.00  0.00    -0.200 F 
ENDBRANCH  53  77
BRANCH  65  88
ATOM     88  C   UNL     1     -10.639  -1.374   6.754  1.00  0.00     0.064 A 
ATOM     89  C   UNL     1     -11.260  -1.877   7.907  1.00  0.00     0.173 A 
ATOM     90  C   UNL     1     -11.375  -1.379   5.558  1.00  0.00     0.173 A 
ATOM     91  F   UNL     1     -10.597  -1.908   9.072  1.00  0.00    -0.203 F 
ATOM     92  C   UNL     1     -12.556  -2.386   7.858  1.00  0.00     0.198 A 
ATOM     93  C   UNL     1     -12.681  -1.859   5.520  1.00  0.00     0.198 A 
ATOM     94  F   UNL     1     -10.832  -0.901   4.428  1.00  0.00    -0.203 F 
ATOM     95  F   UNL     1     -13.113  -2.903   8.962  1.00  0.00    -0.200 F 
ATOM     96  C   UNL     1     -13.268  -2.369   6.667  1.00  0.00     0.200 A 
ATOM     97  F   UNL     1     -13.372  -1.827   4.372  1.00  0.00    -0.200 F 
ATOM     98  F   UNL     1     -14.518  -2.850   6.625  1.00  0.00    -0.200 F 
ENDBRANCH  65  88
ENDBRANCH  39  40
ENDBRANCH  32  34
ENDBRANCH  31  32
ENDBRANCH  30  31
ENDBRANCH  29  30
ENDBRANCH  28  29
ENDBRANCH  27  28
ENDBRANCH   1  27
TORSDOF 22
