REMARK SMILES CC(C)(C(=O)OCCOCCOCCOC(=O)c1ccc(-c2c3nc(c(-c4c(F)c(F)c(F)c(F)c4F)c4ccc([nH]4)c(-c4c(F)c(F)c(F)c(F)c4F)c4nc(c(-c5c(F)c(F)c(F)c(F)c5F)c5ccc2[nH]5)C=C4)C=C3)cc1)n1nnnc1C(F)(F)C(F)F
REMARK SMILES IDX 10 1 9 2 8 3 7 4 6 5 4 6 5 7 2 8 1 9 3 10 81 11 82 12 85 13
REMARK SMILES IDX 83 14 84 15 86 16 87 17 88 18 89 19 90 20 91 21 11 22 12 23
REMARK SMILES IDX 13 24 14 25 15 26 16 27 17 28 18 29 19 30 80 31 20 32 79 33
REMARK SMILES IDX 21 34 22 35 23 36 73 37 24 38 78 39 72 40 74 41 25 42 77 43
REMARK SMILES IDX 71 44 70 45 26 47 58 48 38 49 57 50 39 51 42 52 56 53 75 54
REMARK SMILES IDX 40 55 41 56 55 58 76 59 43 60 27 61 28 62 36 63 29 64 30 65
REMARK SMILES IDX 34 66 37 67 31 68 32 69 35 70 33 71 59 72 60 73 68 74 61 75
REMARK SMILES IDX 62 76 66 77 69 78 63 79 64 80 67 81 65 82 44 83 45 84 53 85
REMARK SMILES IDX 46 86 47 87 51 88 54 89 48 90 49 91 52 92 50 93
REMARK H PARENT 74 46 42 57
REMARK Flexibility Score: inf
ROOT
ATOM      1  C   UNL     1      -2.297   0.782   1.794  1.00  0.00     0.188 C 
ENDROOT
BRANCH   1   2
ATOM      2  O   UNL     1      -3.410   1.567   1.386  1.00  0.00    -0.376 OA
BRANCH   2   3
ATOM      3  C   UNL     1      -3.849   1.388   0.043  1.00  0.00     0.202 C 
BRANCH   3   4
ATOM      4  C   UNL     1      -2.899   1.898  -1.050  1.00  0.00     0.261 C 
BRANCH   4   5
ATOM      5  O   UNL     1      -1.521   1.495  -0.881  1.00  0.00    -0.461 OA
BRANCH   5   6
ATOM      6  C   UNL     1      -0.630   2.491  -0.577  1.00  0.00     0.333 C 
ATOM      7  O   UNL     1      -0.947   3.674  -0.514  1.00  0.00    -0.249 OA
BRANCH   6   8
ATOM      8  C   UNL     1       0.823   1.962  -0.341  1.00  0.00     0.158 C 
ATOM      9  C   UNL     1       1.000   0.646  -1.092  1.00  0.00     0.049 C 
ATOM     10  C   UNL     1       1.744   2.989  -1.042  1.00  0.00     0.049 C 
BRANCH   8  11
ATOM     11  N   UNL     1       1.139   1.956   1.101  1.00  0.00    -0.207 N 
ATOM     12  N   UNL     1       0.723   3.075   1.755  1.00  0.00    -0.044 NA
ATOM     13  C   UNL     1       1.843   1.181   2.025  1.00  0.00     0.228 A 
ATOM     14  N   UNL     1       1.110   2.977   3.003  1.00  0.00    -0.024 NA
ATOM     15  N   UNL     1       1.778   1.825   3.190  1.00  0.00    -0.107 NA
BRANCH  13  16
ATOM     16  C   UNL     1       2.666  -0.076   1.992  1.00  0.00     0.367 C 
ATOM     17  F   UNL     1       3.982   0.218   1.763  1.00  0.00    -0.191 F 
ATOM     18  F   UNL     1       2.667  -0.573   3.289  1.00  0.00    -0.191 F 
BRANCH  16  19
ATOM     19  C   UNL     1       2.276  -1.280   1.161  1.00  0.00     0.419 C 
ATOM     20  F   UNL     1       0.929  -1.417   1.092  1.00  0.00    -0.203 F 
ATOM     21  F   UNL     1       2.744  -1.202  -0.105  1.00  0.00    -0.203 F 
ENDBRANCH  16  19
ENDBRANCH  13  16
ENDBRANCH   8  11
ENDBRANCH   6   8
ENDBRANCH   5   6
ENDBRANCH   4   5
ENDBRANCH   3   4
ENDBRANCH   2   3
ENDBRANCH   1   2
BRANCH   1  22
ATOM     22  C   UNL     1      -2.446  -0.721   1.610  1.00  0.00     0.188 C 
BRANCH  22  23
ATOM     23  O   UNL     1      -2.688  -1.184   0.297  1.00  0.00    -0.376 OA
BRANCH  23  24
ATOM     24  C   UNL     1      -2.999  -2.574   0.156  1.00  0.00     0.202 C 
BRANCH  24  25
ATOM     25  C   UNL     1      -3.545  -3.449   1.323  1.00  0.00     0.261 C 
BRANCH  25  26
ATOM     26  O   UNL     1      -3.149  -3.137   2.677  1.00  0.00    -0.460 OA
BRANCH  26  27
ATOM     27  C   UNL     1      -1.858  -3.363   3.017  1.00  0.00     0.338 C 
ATOM     28  O   UNL     1      -1.029  -3.931   2.334  1.00  0.00    -0.246 OA
BRANCH  27  29
ATOM     29  C   UNL     1      -1.515  -2.562   4.235  1.00  0.00     0.060 A 
ATOM     30  C   UNL     1      -0.345  -1.792   4.179  1.00  0.00     0.016 A 
ATOM     31  C   UNL     1      -2.282  -2.542   5.401  1.00  0.00     0.016 A 
ATOM     32  C   UNL     1       0.097  -1.055   5.277  1.00  0.00     0.010 A 
ATOM     33  C   UNL     1      -1.819  -1.827   6.525  1.00  0.00     0.010 A 
ATOM     34  C   UNL     1      -0.601  -1.115   6.485  1.00  0.00    -0.014 A 
BRANCH  34  35
ATOM     35  C   UNL     1       0.086  -0.652   7.728  1.00  0.00     0.031 A 
ATOM     36  C   UNL     1       0.673  -1.695   8.649  1.00  0.00     0.074 A 
ATOM     37  C   UNL     1       0.315   0.648   7.994  1.00  0.00     0.049 A 
ATOM     38  N   UNL     1       1.265  -1.557   9.810  1.00  0.00    -0.248 NA
ATOM     39  C   UNL     1       0.587  -3.088   8.185  1.00  0.00     0.031 C 
ATOM     40  C   UNL     1      -0.063   1.770   7.138  1.00  0.00     0.029 A 
ATOM     41  N   UNL     1       0.943   1.242   9.066  1.00  0.00    -0.354 N 
ATOM     42  C   UNL     1       1.591  -2.843  10.225  1.00  0.00     0.074 A 
ATOM     43  C   UNL     1       1.116  -3.749   9.203  1.00  0.00     0.031 C 
ATOM     44  C   UNL     1       0.340   2.915   7.717  1.00  0.00     0.029 A 
ATOM     45  C   UNL     1       0.957   2.615   9.009  1.00  0.00     0.049 A 
ATOM     46  H   UNL     1       1.344   0.730   9.806  1.00  0.00     0.167 HD
ATOM     47  C   UNL     1       2.230  -3.237  11.353  1.00  0.00     0.037 A 
ATOM     48  C   UNL     1       1.390   3.525   9.906  1.00  0.00     0.037 A 
ATOM     49  C   UNL     1       2.736  -2.341  12.360  1.00  0.00     0.049 A 
ATOM     50  C   UNL     1       1.995   3.061  11.210  1.00  0.00     0.074 A 
ATOM     51  C   UNL     1       3.391  -2.651  13.539  1.00  0.00     0.029 A 
ATOM     52  N   UNL     1       2.646  -0.958  12.306  1.00  0.00    -0.354 N 
ATOM     53  N   UNL     1       2.254   1.843  11.622  1.00  0.00    -0.248 NA
ATOM     54  C   UNL     1       2.363   4.106  12.179  1.00  0.00     0.031 C 
ATOM     55  C   UNL     1       3.640  -1.460  14.229  1.00  0.00     0.029 A 
ATOM     56  C   UNL     1       3.206  -0.403  13.447  1.00  0.00     0.049 A 
ATOM     57  H   UNL     1       2.244  -0.447  11.567  1.00  0.00     0.167 HD
ATOM     58  C   UNL     1       2.846   1.978  12.874  1.00  0.00     0.074 A 
ATOM     59  C   UNL     1       2.919   3.396  13.150  1.00  0.00     0.031 C 
ATOM     60  C   UNL     1       3.291   1.011  13.715  1.00  0.00     0.037 A 
BRANCH  47  61
ATOM     61  C   UNL     1       2.366  -4.716  11.587  1.00  0.00     0.064 A 
ATOM     62  C   UNL     1       3.211  -5.525  10.813  1.00  0.00     0.173 A 
ATOM     63  C   UNL     1       1.637  -5.329  12.619  1.00  0.00     0.173 A 
ATOM     64  F   UNL     1       3.917  -4.994   9.804  1.00  0.00    -0.203 F 
ATOM     65  C   UNL     1       3.292  -6.897  11.039  1.00  0.00     0.198 A 
ATOM     66  C   UNL     1       1.750  -6.694  12.866  1.00  0.00     0.198 A 
ATOM     67  F   UNL     1       0.817  -4.603  13.393  1.00  0.00    -0.203 F 
ATOM     68  F   UNL     1       4.056  -7.661  10.246  1.00  0.00    -0.200 F 
ATOM     69  C   UNL     1       2.568  -7.479  12.068  1.00  0.00     0.200 A 
ATOM     70  F   UNL     1       1.060  -7.251  13.871  1.00  0.00    -0.200 F 
ATOM     71  F   UNL     1       2.649  -8.799  12.285  1.00  0.00    -0.200 F 
ENDBRANCH  47  61
BRANCH  48  72
ATOM     72  C   UNL     1       1.235   4.981   9.633  1.00  0.00     0.064 A 
ATOM     73  C   UNL     1       2.351   5.819   9.489  1.00  0.00     0.173 A 
ATOM     74  C   UNL     1      -0.035   5.575   9.565  1.00  0.00     0.173 A 
ATOM     75  F   UNL     1       3.588   5.311   9.591  1.00  0.00    -0.203 F 
ATOM     76  C   UNL     1       2.202   7.194   9.306  1.00  0.00     0.198 A 
ATOM     77  C   UNL     1      -0.182   6.944   9.348  1.00  0.00     0.198 A 
ATOM     78  F   UNL     1      -1.136   4.826   9.719  1.00  0.00    -0.203 F 
ATOM     79  F   UNL     1       3.286   7.980   9.238  1.00  0.00    -0.200 F 
ATOM     80  C   UNL     1       0.936   7.754   9.228  1.00  0.00     0.200 A 
ATOM     81  F   UNL     1      -1.408   7.480   9.273  1.00  0.00    -0.200 F 
ATOM     82  F   UNL     1       0.794   9.075   9.058  1.00  0.00    -0.200 F 
ENDBRANCH  48  72
BRANCH  60  83
ATOM     83  C   UNL     1       3.951   1.447  14.994  1.00  0.00     0.064 A 
ATOM     84  C   UNL     1       3.231   2.048  16.037  1.00  0.00     0.173 A 
ATOM     85  C   UNL     1       5.325   1.231  15.191  1.00  0.00     0.173 A 
ATOM     86  F   UNL     1       1.918   2.288  15.901  1.00  0.00    -0.203 F 
ATOM     87  C   UNL     1       3.866   2.448  17.212  1.00  0.00     0.198 A 
ATOM     88  C   UNL     1       5.949   1.598  16.381  1.00  0.00     0.198 A 
ATOM     89  F   UNL     1       6.063   0.649  14.233  1.00  0.00    -0.203 F 
ATOM     90  F   UNL     1       3.167   3.072  18.170  1.00  0.00    -0.200 F 
ATOM     91  C   UNL     1       5.222   2.216  17.385  1.00  0.00     0.200 A 
ATOM     92  F   UNL     1       7.256   1.355  16.553  1.00  0.00    -0.200 F 
ATOM     93  F   UNL     1       5.829   2.595  18.518  1.00  0.00    -0.200 F 
ENDBRANCH  60  83
ENDBRANCH  34  35
ENDBRANCH  27  29
ENDBRANCH  26  27
ENDBRANCH  25  26
ENDBRANCH  24  25
ENDBRANCH  23  24
ENDBRANCH  22  23
ENDBRANCH   1  22
TORSDOF 20
