REMARK SMILES CN(CC(C)(C)O)C(=O)NC[C@@H](C(=O)OCCOCCOCCOC(=O)c1ccc(-c2c3nc(c(-c4c(F)c(F)c(F)c(F)c4F)c4ccc([nH]4)c(-c4c(F)c(F)c(F)c(F)c4F)c4nc(c(-c5c(F)c(F)c(F)c(F)c5F)c5ccc2[nH]5)C=C4)C=C3)cc1)c1ccccc1
REMARK SMILES IDX 17 1 16 2 15 3 13 4 14 5 12 6 11 7 10 8 8 9 9 10 2 12 1 13
REMARK SMILES IDX 3 14 4 15 5 16 6 17 7 18 90 20 91 21 95 22 92 23 94 24 93 25
REMARK SMILES IDX 18 26 19 27 20 28 21 29 22 30 23 31 24 32 25 33 26 34 27 35
REMARK SMILES IDX 28 36 89 37 29 38 88 39 30 40 31 41 32 42 82 43 33 44 87 45
REMARK SMILES IDX 81 46 83 47 34 48 86 49 80 50 79 51 35 53 67 54 47 55 66 56
REMARK SMILES IDX 48 57 51 58 65 59 84 60 49 61 50 62 64 64 85 65 52 66 36 67
REMARK SMILES IDX 37 68 45 69 38 70 39 71 43 72 46 73 40 74 41 75 44 76 42 77
REMARK SMILES IDX 68 78 69 79 77 80 70 81 71 82 75 83 78 84 72 85 73 86 76 87
REMARK SMILES IDX 74 88 53 89 54 90 62 91 55 92 56 93 60 94 63 95 57 96 58 97
REMARK SMILES IDX 61 98 59 99
REMARK H PARENT 10 11 7 19 83 52 51 63
REMARK Flexibility Score: inf
ROOT
ATOM      1  C   UNL     1      -0.673   6.793  -6.104  1.00  0.00     0.202 C 
ENDROOT
BRANCH   1   2
ATOM      2  C   UNL     1      -1.087   6.341  -4.691  1.00  0.00     0.261 C 
BRANCH   2   3
ATOM      3  O   UNL     1      -0.887   4.930  -4.445  1.00  0.00    -0.463 OA
BRANCH   3   4
ATOM      4  C   UNL     1      -1.984   4.213  -4.079  1.00  0.00     0.315 C 
ATOM      5  O   UNL     1      -3.080   4.722  -3.858  1.00  0.00    -0.251 OA
BRANCH   4   6
ATOM      6  C   UNL     1      -1.749   2.693  -4.000  1.00  0.00     0.148 C 
BRANCH   6   7
ATOM      7  C   UNL     1      -0.264   2.300  -3.825  1.00  0.00     0.137 C 
BRANCH   7   8
ATOM      8  N   UNL     1       0.277   2.636  -2.514  1.00  0.00    -0.337 N 
ATOM      9  C   UNL     1       0.651   2.005  -1.391  1.00  0.00     0.317 C 
ATOM     10  O   UNL     1       1.303   2.722  -0.620  1.00  0.00    -0.249 OA
ATOM     11  H   UNL     1       0.406   3.609  -2.428  1.00  0.00     0.165 HD
BRANCH   9  12
ATOM     12  N   UNL     1       0.369   0.706  -1.075  1.00  0.00    -0.325 N 
ATOM     13  C   UNL     1       0.965   0.255   0.183  1.00  0.00     0.148 C 
BRANCH  12  14
ATOM     14  C   UNL     1      -0.463  -0.306  -1.748  1.00  0.00     0.155 C 
BRANCH  14  15
ATOM     15  C   UNL     1      -1.912  -0.484  -1.200  1.00  0.00     0.077 C 
ATOM     16  C   UNL     1      -2.756   0.783  -1.286  1.00  0.00     0.043 C 
ATOM     17  C   UNL     1      -2.613  -1.602  -1.992  1.00  0.00     0.043 C 
BRANCH  15  18
ATOM     18  O   UNL     1      -1.864  -0.896   0.171  1.00  0.00    -0.389 OA
ATOM     19  H   UNL     1      -1.426  -0.211   0.700  1.00  0.00     0.211 HD
ENDBRANCH  15  18
ENDBRANCH  14  15
ENDBRANCH  12  14
ENDBRANCH   9  12
ENDBRANCH   7   8
ENDBRANCH   6   7
BRANCH   6  20
ATOM     20  C   UNL     1      -2.545   1.843  -5.025  1.00  0.00    -0.032 A 
ATOM     21  C   UNL     1      -3.781   2.279  -5.541  1.00  0.00     0.004 A 
ATOM     22  C   UNL     1      -2.167   0.526  -5.357  1.00  0.00     0.004 A 
ATOM     23  C   UNL     1      -4.581   1.455  -6.347  1.00  0.00     0.000 A 
ATOM     24  C   UNL     1      -2.974  -0.305  -6.146  1.00  0.00     0.000 A 
ATOM     25  C   UNL     1      -4.181   0.160  -6.645  1.00  0.00     0.000 A 
ENDBRANCH   6  20
ENDBRANCH   4   6
ENDBRANCH   3   4
ENDBRANCH   2   3
ENDBRANCH   1   2
BRANCH   1  26
ATOM     26  O   UNL     1      -1.336   6.166  -7.204  1.00  0.00    -0.376 OA
BRANCH  26  27
ATOM     27  C   UNL     1      -1.226   4.751  -7.297  1.00  0.00     0.188 C 
BRANCH  27  28
ATOM     28  C   UNL     1       0.192   4.172  -7.357  1.00  0.00     0.188 C 
BRANCH  28  29
ATOM     29  O   UNL     1       1.090   4.691  -6.384  1.00  0.00    -0.376 OA
BRANCH  29  30
ATOM     30  C   UNL     1       2.413   4.152  -6.354  1.00  0.00     0.202 C 
BRANCH  30  31
ATOM     31  C   UNL     1       3.149   4.098  -7.703  1.00  0.00     0.261 C 
BRANCH  31  32
ATOM     32  O   UNL     1       2.541   3.222  -8.675  1.00  0.00    -0.460 OA
BRANCH  32  33
ATOM     33  C   UNL     1       2.283   1.948  -8.296  1.00  0.00     0.338 C 
ATOM     34  O   UNL     1       2.734   1.366  -7.334  1.00  0.00    -0.246 OA
BRANCH  33  35
ATOM     35  C   UNL     1       1.134   1.452  -9.107  1.00  0.00     0.060 A 
ATOM     36  C   UNL     1       0.217   0.589  -8.491  1.00  0.00     0.016 A 
ATOM     37  C   UNL     1       0.908   1.888 -10.416  1.00  0.00     0.016 A 
ATOM     38  C   UNL     1      -0.893   0.121  -9.197  1.00  0.00     0.010 A 
ATOM     39  C   UNL     1      -0.201   1.416 -11.124  1.00  0.00     0.010 A 
ATOM     40  C   UNL     1      -1.087   0.501 -10.530  1.00  0.00    -0.014 A 
BRANCH  40  41
ATOM     41  C   UNL     1      -2.043  -0.243 -11.386  1.00  0.00     0.031 A 
ATOM     42  C   UNL     1      -1.493  -1.365 -12.225  1.00  0.00     0.074 A 
ATOM     43  C   UNL     1      -3.356   0.044 -11.430  1.00  0.00     0.049 A 
ATOM     44  N   UNL     1      -2.076  -2.082 -13.150  1.00  0.00    -0.248 NA
ATOM     45  C   UNL     1      -0.085  -1.722 -11.982  1.00  0.00     0.031 C 
ATOM     46  C   UNL     1      -4.037   1.046 -10.616  1.00  0.00     0.029 A 
ATOM     47  N   UNL     1      -4.351  -0.485 -12.219  1.00  0.00    -0.354 N 
ATOM     48  C   UNL     1      -1.104  -2.962 -13.607  1.00  0.00     0.074 A 
ATOM     49  C   UNL     1       0.111  -2.677 -12.876  1.00  0.00     0.031 C 
ATOM     50  C   UNL     1      -5.337   1.077 -10.964  1.00  0.00     0.029 A 
ATOM     51  C   UNL     1      -5.569   0.128 -12.055  1.00  0.00     0.049 A 
ATOM     52  H   UNL     1      -4.204  -1.232 -12.842  1.00  0.00     0.167 HD
ATOM     53  C   UNL     1      -1.212  -3.924 -14.552  1.00  0.00     0.037 A 
ATOM     54  C   UNL     1      -6.723  -0.036 -12.734  1.00  0.00     0.037 A 
ATOM     55  C   UNL     1      -2.415  -4.209 -15.284  1.00  0.00     0.049 A 
ATOM     56  C   UNL     1      -6.790  -1.041 -13.862  1.00  0.00     0.074 A 
ATOM     57  C   UNL     1      -2.620  -5.160 -16.267  1.00  0.00     0.029 A 
ATOM     58  N   UNL     1      -3.616  -3.539 -15.115  1.00  0.00    -0.354 N 
ATOM     59  N   UNL     1      -5.869  -1.867 -14.295  1.00  0.00    -0.248 NA
ATOM     60  C   UNL     1      -8.061  -1.129 -14.601  1.00  0.00     0.031 C 
ATOM     61  C   UNL     1      -3.932  -5.031 -16.730  1.00  0.00     0.029 A 
ATOM     62  C   UNL     1      -4.561  -4.041 -15.993  1.00  0.00     0.049 A 
ATOM     63  H   UNL     1      -3.774  -2.815 -14.467  1.00  0.00     0.167 HD
ATOM     64  C   UNL     1      -6.459  -2.597 -15.322  1.00  0.00     0.074 A 
ATOM     65  C   UNL     1      -7.817  -2.118 -15.450  1.00  0.00     0.031 C 
ATOM     66  C   UNL     1      -5.922  -3.579 -16.087  1.00  0.00     0.037 A 
BRANCH  53  67
ATOM     67  C   UNL     1       0.021  -4.714 -14.872  1.00  0.00     0.064 A 
ATOM     68  C   UNL     1       0.545  -5.659 -13.979  1.00  0.00     0.173 A 
ATOM     69  C   UNL     1       0.675  -4.533 -16.099  1.00  0.00     0.173 A 
ATOM     70  F   UNL     1      -0.033  -5.851 -12.783  1.00  0.00    -0.203 F 
ATOM     71  C   UNL     1       1.696  -6.377 -14.292  1.00  0.00     0.198 A 
ATOM     72  C   UNL     1       1.807  -5.274 -16.423  1.00  0.00     0.198 A 
ATOM     73  F   UNL     1       0.214  -3.639 -16.987  1.00  0.00    -0.203 F 
ATOM     74  F   UNL     1       2.209  -7.237 -13.403  1.00  0.00    -0.200 F 
ATOM     75  C   UNL     1       2.321  -6.190 -15.516  1.00  0.00     0.200 A 
ATOM     76  F   UNL     1       2.404  -5.099 -17.610  1.00  0.00    -0.200 F 
ATOM     77  F   UNL     1       3.425  -6.886 -15.819  1.00  0.00    -0.200 F 
ENDBRANCH  53  67
BRANCH  54  78
ATOM     78  C   UNL     1      -7.915   0.788 -12.400  1.00  0.00     0.064 A 
ATOM     79  C   UNL     1      -9.073   0.204 -11.867  1.00  0.00     0.173 A 
ATOM     80  C   UNL     1      -7.943   2.167 -12.659  1.00  0.00     0.173 A 
ATOM     81  F   UNL     1      -9.109  -1.116 -11.633  1.00  0.00    -0.203 F 
ATOM     82  C   UNL     1     -10.218   0.962 -11.626  1.00  0.00     0.198 A 
ATOM     83  C   UNL     1      -9.078   2.929 -12.390  1.00  0.00     0.198 A 
ATOM     84  F   UNL     1      -6.867   2.774 -13.181  1.00  0.00    -0.203 F 
ATOM     85  F   UNL     1     -11.329   0.366 -11.171  1.00  0.00    -0.200 F 
ATOM     86  C   UNL     1     -10.218   2.324 -11.884  1.00  0.00     0.200 A 
ATOM     87  F   UNL     1      -9.072   4.246 -12.636  1.00  0.00    -0.200 F 
ATOM     88  F   UNL     1     -11.321   3.051 -11.657  1.00  0.00    -0.200 F 
ENDBRANCH  54  78
BRANCH  66  89
ATOM     89  C   UNL     1      -6.809  -4.261 -17.090  1.00  0.00     0.064 A 
ATOM     90  C   UNL     1      -7.203  -3.633 -18.279  1.00  0.00     0.173 A 
ATOM     91  C   UNL     1      -7.196  -5.597 -16.893  1.00  0.00     0.173 A 
ATOM     92  F   UNL     1      -6.870  -2.354 -18.511  1.00  0.00    -0.203 F 
ATOM     93  C   UNL     1      -7.959  -4.314 -19.231  1.00  0.00     0.198 A 
ATOM     94  C   UNL     1      -7.926  -6.283 -17.858  1.00  0.00     0.198 A 
ATOM     95  F   UNL     1      -6.837  -6.246 -15.775  1.00  0.00    -0.203 F 
ATOM     96  F   UNL     1      -8.349  -3.686 -20.349  1.00  0.00    -0.200 F 
ATOM     97  C   UNL     1      -8.310  -5.640 -19.025  1.00  0.00     0.200 A 
ATOM     98  F   UNL     1      -8.249  -7.569 -17.664  1.00  0.00    -0.200 F 
ATOM     99  F   UNL     1      -9.020  -6.299 -19.951  1.00  0.00    -0.200 F 
ENDBRANCH  66  89
ENDBRANCH  40  41
ENDBRANCH  33  35
ENDBRANCH  32  33
ENDBRANCH  31  32
ENDBRANCH  30  31
ENDBRANCH  29  30
ENDBRANCH  28  29
ENDBRANCH  27  28
ENDBRANCH  26  27
ENDBRANCH   1  26
TORSDOF 24
