REMARK SMILES COc1cccc([C@@H]2CN(C(=O)CCSC)C[C@H]2C(=O)OCCOCCOCCOC(=O)c2ccc(-c3c4nc(c(-c5c(F)c(F)c(F)c(F)c5F)c5ccc([nH]5)c(-c5c(F)c(F)c(F)c(F)c5F)c5nc(c(-c6c(F)c(F)c(F)c(F)c6F)c6ccc3[nH]6)C=C5)C=C4)cc2)c1OC
REMARK SMILES IDX 25 1 24 2 23 3 22 4 21 5 19 6 20 7 18 8 8 9 9 10 10 11 17 12
REMARK SMILES IDX 7 13 3 14 4 15 96 16 5 17 6 18 2 19 1 20 97 21 98 22 11 23
REMARK SMILES IDX 12 24 13 25 14 26 15 27 16 28 26 29 27 30 28 31 29 32 30 33
REMARK SMILES IDX 31 34 32 35 33 36 34 37 95 38 35 39 94 40 36 41 37 42 38 43
REMARK SMILES IDX 88 44 39 45 93 46 87 47 89 48 40 49 92 50 86 51 85 52 41 54
REMARK SMILES IDX 73 55 53 56 72 57 54 58 57 59 71 60 90 61 55 62 56 63 70 65
REMARK SMILES IDX 91 66 58 67 42 68 43 69 51 70 44 71 45 72 49 73 52 74 46 75
REMARK SMILES IDX 47 76 50 77 48 78 74 79 75 80 83 81 76 82 77 83 81 84 84 85
REMARK SMILES IDX 78 86 79 87 82 88 80 89 59 90 60 91 68 92 61 93 62 94 66 95
REMARK SMILES IDX 69 96 63 97 64 98 67 99 65 100
REMARK H PARENT 89 53 57 64
REMARK Flexibility Score: inf
ROOT
ATOM      1  C   UNL     1       2.295  -5.344  -3.398  1.00  0.00     0.188 C 
ENDROOT
BRANCH   1   2
ATOM      2  O   UNL     1       3.045  -5.966  -4.433  1.00  0.00    -0.376 OA
BRANCH   2   3
ATOM      3  C   UNL     1       4.112  -6.841  -4.101  1.00  0.00     0.202 C 
BRANCH   3   4
ATOM      4  C   UNL     1       5.367  -6.198  -3.506  1.00  0.00     0.261 C 
BRANCH   4   5
ATOM      5  O   UNL     1       5.196  -5.613  -2.194  1.00  0.00    -0.463 OA
BRANCH   5   6
ATOM      6  C   UNL     1       5.236  -4.256  -2.135  1.00  0.00     0.311 C 
ATOM      7  O   UNL     1       5.326  -3.527  -3.118  1.00  0.00    -0.252 OA
BRANCH   6   8
ATOM      8  C   UNL     1       5.278  -3.691  -0.730  1.00  0.00     0.128 C 
ATOM      9  C   UNL     1       4.405  -4.297   0.399  1.00  0.00     0.059 C 
ATOM     10  C   UNL     1       5.288  -4.215   1.657  1.00  0.00     0.129 C 
ATOM     11  N   UNL     1       6.629  -3.910   1.208  1.00  0.00    -0.341 N 
ATOM     12  C   UNL     1       6.711  -3.826  -0.232  1.00  0.00     0.135 C 
BRANCH   9  13
ATOM     13  C   UNL     1       3.042  -3.679   0.760  1.00  0.00     0.004 A 
ATOM     14  C   UNL     1       1.562  -1.809   1.346  1.00  0.00     0.161 A 
ATOM     15  C   UNL     1       0.591  -2.708   1.797  1.00  0.00     0.050 A 
ATOM     16  C   UNL     1       2.790  -2.283   0.835  1.00  0.00     0.164 A 
ATOM     17  C   UNL     1       0.836  -4.079   1.750  1.00  0.00     0.004 A 
ATOM     18  C   UNL     1       2.047  -4.557   1.244  1.00  0.00     0.008 A 
BRANCH  14  19
ATOM     19  O   UNL     1       1.382  -0.482   1.648  1.00  0.00    -0.493 OA
ATOM     20  C   UNL     1       0.488   0.190   0.764  1.00  0.00     0.278 C 
ENDBRANCH  14  19
BRANCH  16  21
ATOM     21  O   UNL     1       3.856  -1.480   0.532  1.00  0.00    -0.493 OA
ATOM     22  C   UNL     1       3.609  -0.181   0.014  1.00  0.00     0.278 C 
ENDBRANCH  16  21
ENDBRANCH   9  13
BRANCH  11  23
ATOM     23  C   UNL     1       7.726  -3.667   1.998  1.00  0.00     0.223 C 
ATOM     24  O   UNL     1       8.829  -3.410   1.512  1.00  0.00    -0.275 OA
BRANCH  23  25
ATOM     25  C   UNL     1       7.546  -3.696   3.501  1.00  0.00     0.111 C 
BRANCH  25  26
ATOM     26  C   UNL     1       7.663  -2.299   4.102  1.00  0.00     0.079 C 
BRANCH  26  27
ATOM     27  S   UNL     1       6.080  -1.388   4.157  1.00  0.00    -0.165 SA
ATOM     28  C   UNL     1       6.149  -0.555   2.553  1.00  0.00     0.085 C 
ENDBRANCH  26  27
ENDBRANCH  25  26
ENDBRANCH  23  25
ENDBRANCH  11  23
ENDBRANCH   6   8
ENDBRANCH   5   6
ENDBRANCH   4   5
ENDBRANCH   3   4
ENDBRANCH   2   3
ENDBRANCH   1   2
BRANCH   1  29
ATOM     29  C   UNL     1       2.208  -6.004  -2.020  1.00  0.00     0.188 C 
BRANCH  29  30
ATOM     30  O   UNL     1       2.155  -7.419  -2.046  1.00  0.00    -0.376 OA
BRANCH  30  31
ATOM     31  C   UNL     1       1.087  -7.981  -1.295  1.00  0.00     0.202 C 
BRANCH  31  32
ATOM     32  C   UNL     1      -0.192  -7.998  -2.135  1.00  0.00     0.261 C 
BRANCH  32  33
ATOM     33  O   UNL     1      -0.677  -6.679  -2.463  1.00  0.00    -0.460 OA
BRANCH  33  34
ATOM     34  C   UNL     1      -1.222  -5.978  -1.452  1.00  0.00     0.338 C 
ATOM     35  O   UNL     1      -1.383  -6.351  -0.291  1.00  0.00    -0.246 OA
BRANCH  34  36
ATOM     36  C   UNL     1      -1.435  -4.595  -1.903  1.00  0.00     0.060 A 
ATOM     37  C   UNL     1      -0.526  -3.618  -1.497  1.00  0.00     0.016 A 
ATOM     38  C   UNL     1      -2.534  -4.240  -2.681  1.00  0.00     0.016 A 
ATOM     39  C   UNL     1      -0.725  -2.285  -1.831  1.00  0.00     0.010 A 
ATOM     40  C   UNL     1      -2.740  -2.890  -3.006  1.00  0.00     0.010 A 
ATOM     41  C   UNL     1      -1.852  -1.895  -2.554  1.00  0.00    -0.014 A 
BRANCH  41  42
ATOM     42  C   UNL     1      -2.171  -0.450  -2.697  1.00  0.00     0.031 A 
ATOM     43  C   UNL     1      -3.349   0.114  -1.949  1.00  0.00     0.074 A 
ATOM     44  C   UNL     1      -1.395   0.384  -3.415  1.00  0.00     0.049 A 
ATOM     45  N   UNL     1      -3.925   1.284  -2.059  1.00  0.00    -0.248 NA
ATOM     46  C   UNL     1      -3.948  -0.758  -0.927  1.00  0.00     0.031 C 
ATOM     47  C   UNL     1      -0.148   0.021  -4.085  1.00  0.00     0.029 A 
ATOM     48  N   UNL     1      -1.553   1.720  -3.702  1.00  0.00    -0.354 N 
ATOM     49  C   UNL     1      -4.986   1.268  -1.163  1.00  0.00     0.074 A 
ATOM     50  C   UNL     1      -4.966  -0.022  -0.506  1.00  0.00     0.031 C 
ATOM     51  C   UNL     1       0.341   1.103  -4.715  1.00  0.00     0.029 A 
ATOM     52  C   UNL     1      -0.597   2.213  -4.556  1.00  0.00     0.049 A 
ATOM     53  H   UNL     1      -2.280   2.270  -3.331  1.00  0.00     0.167 HD
ATOM     54  C   UNL     1      -5.899   2.237  -0.918  1.00  0.00     0.037 A 
ATOM     55  C   UNL     1      -0.517   3.402  -5.188  1.00  0.00     0.037 A 
ATOM     56  C   UNL     1      -5.899   3.534  -1.541  1.00  0.00     0.049 A 
ATOM     57  C   UNL     1      -1.604   4.427  -4.987  1.00  0.00     0.074 A 
ATOM     58  C   UNL     1      -6.787   4.581  -1.359  1.00  0.00     0.029 A 
ATOM     59  N   UNL     1      -4.957   3.967  -2.462  1.00  0.00    -0.354 N 
ATOM     60  N   UNL     1      -2.653   4.380  -4.203  1.00  0.00    -0.248 NA
ATOM     61  C   UNL     1      -1.506   5.662  -5.780  1.00  0.00     0.031 C 
ATOM     62  C   UNL     1      -6.407   5.630  -2.203  1.00  0.00     0.029 A 
ATOM     63  C   UNL     1      -5.255   5.256  -2.874  1.00  0.00     0.049 A 
ATOM     64  H   UNL     1      -4.189   3.436  -2.776  1.00  0.00     0.167 HD
ATOM     65  C   UNL     1      -3.328   5.580  -4.395  1.00  0.00     0.074 A 
ATOM     66  C   UNL     1      -2.561   6.343  -5.356  1.00  0.00     0.031 C 
ATOM     67  C   UNL     1      -4.483   6.008  -3.829  1.00  0.00     0.037 A 
BRANCH  54  68
ATOM     68  C   UNL     1      -7.016   1.912   0.029  1.00  0.00     0.064 A 
ATOM     69  C   UNL     1      -6.818   1.826   1.413  1.00  0.00     0.173 A 
ATOM     70  C   UNL     1      -8.315   1.713  -0.465  1.00  0.00     0.173 A 
ATOM     71  F   UNL     1      -5.592   1.989   1.931  1.00  0.00    -0.203 F 
ATOM     72  C   UNL     1      -7.877   1.531   2.269  1.00  0.00     0.198 A 
ATOM     73  C   UNL     1      -9.376   1.445   0.395  1.00  0.00     0.198 A 
ATOM     74  F   UNL     1      -8.556   1.786  -1.782  1.00  0.00    -0.203 F 
ATOM     75  F   UNL     1      -7.659   1.409   3.585  1.00  0.00    -0.200 F 
ATOM     76  C   UNL     1      -9.155   1.348   1.760  1.00  0.00     0.200 A 
ATOM     77  F   UNL     1     -10.611   1.279  -0.098  1.00  0.00    -0.200 F 
ATOM     78  F   UNL     1     -10.174   1.069   2.586  1.00  0.00    -0.200 F 
ENDBRANCH  54  68
BRANCH  55  79
ATOM     79  C   UNL     1       0.598   3.668  -6.136  1.00  0.00     0.064 A 
ATOM     80  C   UNL     1       1.564   4.646  -5.863  1.00  0.00     0.173 A 
ATOM     81  C   UNL     1       0.698   2.972  -7.350  1.00  0.00     0.173 A 
ATOM     82  F   UNL     1       1.489   5.362  -4.732  1.00  0.00    -0.203 F 
ATOM     83  C   UNL     1       2.581   4.926  -6.774  1.00  0.00     0.198 A 
ATOM     84  C   UNL     1       1.732   3.231  -8.246  1.00  0.00     0.198 A 
ATOM     85  F   UNL     1      -0.209   2.036  -7.665  1.00  0.00    -0.203 F 
ATOM     86  F   UNL     1       3.462   5.900  -6.512  1.00  0.00    -0.200 F 
ATOM     87  C   UNL     1       2.668   4.213  -7.961  1.00  0.00     0.200 A 
ATOM     88  F   UNL     1       1.816   2.536  -9.388  1.00  0.00    -0.200 F 
ATOM     89  F   UNL     1       3.647   4.482  -8.836  1.00  0.00    -0.200 F 
ENDBRANCH  55  79
BRANCH  67  90
ATOM     90  C   UNL     1      -4.976   7.375  -4.208  1.00  0.00     0.064 A 
ATOM     91  C   UNL     1      -5.537   7.631  -5.468  1.00  0.00     0.173 A 
ATOM     92  C   UNL     1      -4.924   8.431  -3.285  1.00  0.00     0.173 A 
ATOM     93  F   UNL     1      -5.595   6.659  -6.390  1.00  0.00    -0.203 F 
ATOM     94  C   UNL     1      -6.007   8.900  -5.797  1.00  0.00     0.198 A 
ATOM     95  C   UNL     1      -5.421   9.691  -3.608  1.00  0.00     0.198 A 
ATOM     96  F   UNL     1      -4.404   8.238  -2.064  1.00  0.00    -0.203 F 
ATOM     97  F   UNL     1      -6.500   9.133  -7.022  1.00  0.00    -0.200 F 
ATOM     98  C   UNL     1      -5.956   9.926  -4.866  1.00  0.00     0.200 A 
ATOM     99  F   UNL     1      -5.382  10.678  -2.703  1.00  0.00    -0.200 F 
ATOM    100  F   UNL     1      -6.416  11.145  -5.183  1.00  0.00    -0.200 F 
ENDBRANCH  67  90
ENDBRANCH  41  42
ENDBRANCH  34  36
ENDBRANCH  33  34
ENDBRANCH  32  33
ENDBRANCH  31  32
ENDBRANCH  30  31
ENDBRANCH  29  30
ENDBRANCH   1  29
TORSDOF 24
