REMARK SMILES CC(C)c1cc2c(cc1Cl)C=C(C(=O)OCCOCCOCCOC(=O)c1ccc(-c3c4nc(c(-c5c(F)c(F)c(F)c(F)c5F)c5ccc([nH]5)c(-c5c(F)c(F)c(F)c(F)c5F)c5nc(c(-c6c(F)c(F)c(F)c(F)c6F)c6ccc3[nH]6)C=C5)C=C4)cc1)[C@@H](C(F)(F)F)O2
REMARK SMILES IDX 20 1 19 2 18 3 17 4 16 5 15 6 13 7 14 8 12 9 4 10 5 11 9 12
REMARK SMILES IDX 6 13 8 14 10 15 7 16 95 17 11 18 90 19 2 20 1 21 3 22 91 23
REMARK SMILES IDX 92 24 93 25 94 26 21 27 22 28 23 29 24 30 25 31 26 32 27 33
REMARK SMILES IDX 28 34 89 35 29 36 88 37 30 38 31 39 32 40 82 41 33 42 87 43
REMARK SMILES IDX 81 44 83 45 34 46 86 47 80 48 79 49 35 51 67 52 47 53 66 54
REMARK SMILES IDX 48 55 51 56 65 57 84 58 49 59 50 60 64 62 85 63 52 64 36 65
REMARK SMILES IDX 37 66 45 67 38 68 39 69 43 70 46 71 40 72 41 73 44 74 42 75
REMARK SMILES IDX 68 76 69 77 77 78 70 79 71 80 75 81 78 82 72 83 73 84 76 85
REMARK SMILES IDX 74 86 53 87 54 88 62 89 55 90 56 91 60 92 63 93 57 94 58 95
REMARK SMILES IDX 61 96 59 97
REMARK H PARENT 83 50 51 61
REMARK Flexibility Score: inf
ROOT
ATOM      1  C   UNL     1      -7.863  -0.376   3.385  1.00  0.00     0.188 C 
ENDROOT
BRANCH   1   2
ATOM      2  C   UNL     1      -8.676   0.694   2.627  1.00  0.00     0.188 C 
BRANCH   2   3
ATOM      3  O   UNL     1      -9.995   0.444   2.175  1.00  0.00    -0.376 OA
BRANCH   3   4
ATOM      4  C   UNL     1     -10.298  -0.726   1.429  1.00  0.00     0.202 C 
BRANCH   4   5
ATOM      5  C   UNL     1      -9.495  -1.037   0.168  1.00  0.00     0.261 C 
BRANCH   5   6
ATOM      6  O   UNL     1      -8.087  -1.128   0.424  1.00  0.00    -0.460 OA
BRANCH   6   7
ATOM      7  C   UNL     1      -7.320  -0.308  -0.328  1.00  0.00     0.338 C 
ATOM      8  O   UNL     1      -7.696   0.435  -1.222  1.00  0.00    -0.246 OA
BRANCH   7   9
ATOM      9  C   UNL     1      -5.940  -0.315   0.182  1.00  0.00     0.087 C 
ATOM     10  C   UNL     1      -1.177   1.034   1.133  1.00  0.00    -0.023 A 
ATOM     11  C   UNL     1      -1.905  -0.186   1.148  1.00  0.00     0.052 A 
ATOM     12  C   UNL     1      -1.932   2.215   1.019  1.00  0.00     0.045 A 
ATOM     13  C   UNL     1      -3.282  -0.239   0.924  1.00  0.00     0.128 A 
ATOM     14  C   UNL     1      -3.321   2.159   0.818  1.00  0.00     0.032 A 
ATOM     15  Cl  UNL     1      -1.297   3.819   1.089  1.00  0.00    -0.084 Cl
ATOM     16  C   UNL     1      -3.986   0.937   0.724  1.00  0.00     0.019 A 
ATOM     17  O   UNL     1      -3.849  -1.481   0.890  1.00  0.00    -0.475 OA
ATOM     18  C   UNL     1      -5.383   0.891   0.344  1.00  0.00     0.027 C 
ATOM     19  C   UNL     1      -5.234  -1.615   0.456  1.00  0.00     0.316 C 
BRANCH  10  20
ATOM     20  C   UNL     1       0.348   0.893   1.195  1.00  0.00     0.014 C 
ATOM     21  C   UNL     1       0.849   0.084  -0.020  1.00  0.00     0.012 C 
ATOM     22  C   UNL     1       1.222   2.145   1.295  1.00  0.00     0.012 C 
ENDBRANCH  10  20
BRANCH  19  23
ATOM     23  C   UNL     1      -5.280  -2.573  -0.744  1.00  0.00     0.430 C 
ATOM     24  F   UNL     1      -4.617  -3.724  -0.481  1.00  0.00    -0.167 F 
ATOM     25  F   UNL     1      -6.551  -2.921  -1.057  1.00  0.00    -0.167 F 
ATOM     26  F   UNL     1      -4.727  -2.026  -1.849  1.00  0.00    -0.167 F 
ENDBRANCH  19  23
ENDBRANCH   7   9
ENDBRANCH   6   7
ENDBRANCH   5   6
ENDBRANCH   4   5
ENDBRANCH   3   4
ENDBRANCH   2   3
ENDBRANCH   1   2
BRANCH   1  27
ATOM     27  O   UNL     1      -8.478  -1.561   3.853  1.00  0.00    -0.376 OA
BRANCH  27  28
ATOM     28  C   UNL     1      -9.630  -1.466   4.682  1.00  0.00     0.202 C 
BRANCH  28  29
ATOM     29  C   UNL     1      -9.536  -0.673   5.984  1.00  0.00     0.261 C 
BRANCH  29  30
ATOM     30  O   UNL     1      -9.263   0.718   5.753  1.00  0.00    -0.460 OA
BRANCH  30  31
ATOM     31  C   UNL     1      -8.146   1.196   6.353  1.00  0.00     0.338 C 
ATOM     32  O   UNL     1      -7.385   0.597   7.091  1.00  0.00    -0.246 OA
BRANCH  31  33
ATOM     33  C   UNL     1      -7.854   2.538   5.818  1.00  0.00     0.060 A 
ATOM     34  C   UNL     1      -8.804   3.560   5.864  1.00  0.00     0.016 A 
ATOM     35  C   UNL     1      -6.584   2.767   5.274  1.00  0.00     0.016 A 
ATOM     36  C   UNL     1      -8.465   4.830   5.393  1.00  0.00     0.010 A 
ATOM     37  C   UNL     1      -6.252   4.032   4.790  1.00  0.00     0.010 A 
ATOM     38  C   UNL     1      -7.184   5.077   4.868  1.00  0.00    -0.014 A 
BRANCH  38  39
ATOM     39  C   UNL     1      -6.772   6.460   4.536  1.00  0.00     0.031 A 
ATOM     40  C   UNL     1      -6.808   6.975   3.132  1.00  0.00     0.074 A 
ATOM     41  C   UNL     1      -6.346   7.251   5.537  1.00  0.00     0.049 A 
ATOM     42  N   UNL     1      -6.556   8.183   2.695  1.00  0.00    -0.248 NA
ATOM     43  C   UNL     1      -7.168   6.013   2.082  1.00  0.00     0.031 C 
ATOM     44  C   UNL     1      -6.238   6.843   6.938  1.00  0.00     0.029 A 
ATOM     45  N   UNL     1      -5.931   8.557   5.534  1.00  0.00    -0.354 N 
ATOM     46  C   UNL     1      -6.755   8.139   1.323  1.00  0.00     0.074 A 
ATOM     47  C   UNL     1      -7.098   6.769   0.993  1.00  0.00     0.031 C 
ATOM     48  C   UNL     1      -5.804   7.884   7.664  1.00  0.00     0.029 A 
ATOM     49  C   UNL     1      -5.591   9.026   6.778  1.00  0.00     0.049 A 
ATOM     50  H   UNL     1      -5.881   9.106   4.718  1.00  0.00     0.167 HD
ATOM     51  C   UNL     1      -6.679   9.156   0.432  1.00  0.00     0.037 A 
ATOM     52  C   UNL     1      -5.167  10.243   7.164  1.00  0.00     0.037 A 
ATOM     53  C   UNL     1      -6.316  10.511   0.766  1.00  0.00     0.049 A 
ATOM     54  C   UNL     1      -5.039  11.338   6.144  1.00  0.00     0.074 A 
ATOM     55  C   UNL     1      -6.260  11.618  -0.064  1.00  0.00     0.029 A 
ATOM     56  N   UNL     1      -5.930  10.941   2.027  1.00  0.00    -0.354 N 
ATOM     57  N   UNL     1      -5.311  11.309   4.863  1.00  0.00    -0.248 NA
ATOM     58  C   UNL     1      -4.552  12.637   6.627  1.00  0.00     0.031 C 
ATOM     59  C   UNL     1      -5.792  12.705   0.683  1.00  0.00     0.029 A 
ATOM     60  C   UNL     1      -5.601  12.288   1.990  1.00  0.00     0.049 A 
ATOM     61  H   UNL     1      -5.893  10.373   2.830  1.00  0.00     0.167 HD
ATOM     62  C   UNL     1      -5.042  12.584   4.387  1.00  0.00     0.074 A 
ATOM     63  C   UNL     1      -4.605  13.370   5.523  1.00  0.00     0.031 C 
ATOM     64  C   UNL     1      -5.148  13.058   3.122  1.00  0.00     0.037 A 
BRANCH  51  65
ATOM     65  C   UNL     1      -7.012   8.854  -1.000  1.00  0.00     0.064 A 
ATOM     66  C   UNL     1      -8.336   8.624  -1.403  1.00  0.00     0.173 A 
ATOM     67  C   UNL     1      -6.018   8.876  -1.989  1.00  0.00     0.173 A 
ATOM     68  F   UNL     1      -9.322   8.589  -0.495  1.00  0.00    -0.203 F 
ATOM     69  C   UNL     1      -8.650   8.413  -2.744  1.00  0.00     0.198 A 
ATOM     70  C   UNL     1      -6.339   8.689  -3.331  1.00  0.00     0.198 A 
ATOM     71  F   UNL     1      -4.738   9.102  -1.656  1.00  0.00    -0.203 F 
ATOM     72  F   UNL     1      -9.918   8.171  -3.103  1.00  0.00    -0.200 F 
ATOM     73  C   UNL     1      -7.653   8.455  -3.707  1.00  0.00     0.200 A 
ATOM     74  F   UNL     1      -5.377   8.744  -4.263  1.00  0.00    -0.200 F 
ATOM     75  F   UNL     1      -7.960   8.269  -4.998  1.00  0.00    -0.200 F 
ENDBRANCH  51  65
BRANCH  52  76
ATOM     76  C   UNL     1      -4.881  10.491   8.598  1.00  0.00     0.064 A 
ATOM     77  C   UNL     1      -5.747  11.271   9.375  1.00  0.00     0.173 A 
ATOM     78  C   UNL     1      -3.763   9.925   9.227  1.00  0.00     0.173 A 
ATOM     79  F   UNL     1      -6.819  11.845   8.809  1.00  0.00    -0.203 F 
ATOM     80  C   UNL     1      -5.504  11.479  10.730  1.00  0.00     0.198 A 
ATOM     81  C   UNL     1      -3.533  10.116  10.587  1.00  0.00     0.198 A 
ATOM     82  F   UNL     1      -2.909   9.168   8.524  1.00  0.00    -0.203 F 
ATOM     83  F   UNL     1      -6.334  12.249  11.446  1.00  0.00    -0.200 F 
ATOM     84  C   UNL     1      -4.402  10.895  11.336  1.00  0.00     0.200 A 
ATOM     85  F   UNL     1      -2.475   9.539  11.173  1.00  0.00    -0.200 F 
ATOM     86  F   UNL     1      -4.176  11.085  12.643  1.00  0.00    -0.200 F 
ENDBRANCH  52  76
BRANCH  64  87
ATOM     87  C   UNL     1      -4.776  14.494   2.893  1.00  0.00     0.064 A 
ATOM     88  C   UNL     1      -3.439  14.915   2.924  1.00  0.00     0.173 A 
ATOM     89  C   UNL     1      -5.760  15.451   2.599  1.00  0.00     0.173 A 
ATOM     90  F   UNL     1      -2.463  14.042   3.217  1.00  0.00    -0.203 F 
ATOM     91  C   UNL     1      -3.101  16.245   2.688  1.00  0.00     0.198 A 
ATOM     92  C   UNL     1      -5.416  16.774   2.336  1.00  0.00     0.198 A 
ATOM     93  F   UNL     1      -7.053  15.099   2.553  1.00  0.00    -0.203 F 
ATOM     94  F   UNL     1      -1.820  16.633   2.764  1.00  0.00    -0.200 F 
ATOM     95  C   UNL     1      -4.088  17.172   2.387  1.00  0.00     0.200 A 
ATOM     96  F   UNL     1      -6.370  17.666   2.034  1.00  0.00    -0.200 F 
ATOM     97  F   UNL     1      -3.760  18.450   2.152  1.00  0.00    -0.200 F 
ENDBRANCH  64  87
ENDBRANCH  38  39
ENDBRANCH  31  33
ENDBRANCH  30  31
ENDBRANCH  29  30
ENDBRANCH  28  29
ENDBRANCH  27  28
ENDBRANCH   1  27
TORSDOF 19
