REMARK SMILES Cc1cc(C)c2c(=O)n(CCCC(=O)OCCOCCOCCOC(=O)c3ccc(-c4c5nc(c(-c6c(F)c(F)c(F)c(F)c6F)c6ccc([nH]6)c(-c6c(F)c(F)c(F)c(F)c6F)c6nc(c(-c7c(F)c(F)c(F)c(F)c7F)c7ccc4[nH]7)C=C6)C=C5)cc3)sc2n1
REMARK SMILES IDX 19 1 18 2 17 3 16 4 15 5 13 6 14 7 12 8 11 9 10 10 9 11 1 12
REMARK SMILES IDX 2 13 3 14 92 15 4 16 91 17 5 18 6 19 90 20 7 21 8 22 20 23
REMARK SMILES IDX 21 24 22 25 23 26 24 27 25 28 26 29 27 30 28 31 89 32 29 33
REMARK SMILES IDX 88 34 30 35 31 36 32 37 82 38 33 39 87 40 81 41 83 42 34 43
REMARK SMILES IDX 86 44 80 45 79 46 35 48 67 49 47 50 66 51 48 52 51 53 65 54
REMARK SMILES IDX 84 55 49 56 50 57 64 59 85 60 52 61 36 62 37 63 45 64 38 65
REMARK SMILES IDX 39 66 43 67 46 68 40 69 41 70 44 71 42 72 68 73 69 74 77 75
REMARK SMILES IDX 70 76 71 77 75 78 78 79 72 80 73 81 76 82 74 83 53 84 54 85
REMARK SMILES IDX 62 86 55 87 56 88 60 89 63 90 57 91 58 92 61 93 59 94
REMARK H PARENT 83 47 51 58
REMARK Flexibility Score: inf
ROOT
ATOM      1  C   UNL     1       4.836   9.489  -0.480  1.00  0.00     0.188 C 
ENDROOT
BRANCH   1   2
ATOM      2  O   UNL     1       5.410   9.472  -1.766  1.00  0.00    -0.376 OA
BRANCH   2   3
ATOM      3  C   UNL     1       4.898   8.547  -2.711  1.00  0.00     0.202 C 
BRANCH   3   4
ATOM      4  C   UNL     1       4.397   7.157  -2.275  1.00  0.00     0.261 C 
BRANCH   4   5
ATOM      5  O   UNL     1       3.494   7.166  -1.152  1.00  0.00    -0.463 OA
BRANCH   5   6
ATOM      6  C   UNL     1       3.849   6.435  -0.068  1.00  0.00     0.305 C 
ATOM      7  O   UNL     1       4.872   5.760   0.000  1.00  0.00    -0.252 OA
BRANCH   6   8
ATOM      8  C   UNL     1       2.936   6.596   1.139  1.00  0.00     0.124 C 
BRANCH   8   9
ATOM      9  C   UNL     1       1.527   7.205   1.081  1.00  0.00     0.035 C 
BRANCH   9  10
ATOM     10  C   UNL     1       0.662   7.038  -0.171  1.00  0.00     0.139 C 
BRANCH  10  11
ATOM     11  N   UNL     1       0.322   5.665  -0.457  1.00  0.00    -0.262 N 
ATOM     12  C   UNL     1       0.687  -0.360  -0.048  1.00  0.00     0.067 C 
ATOM     13  C   UNL     1       0.134   1.027  -0.149  1.00  0.00     0.039 A 
ATOM     14  C   UNL     1      -1.216   1.297   0.128  1.00  0.00     0.027 A 
ATOM     15  N   UNL     1       1.003   1.977  -0.548  1.00  0.00    -0.241 NA
ATOM     16  C   UNL     1      -1.690   2.619   0.091  1.00  0.00    -0.033 A 
ATOM     17  C   UNL     1       0.521   3.225  -0.566  1.00  0.00     0.146 A 
ATOM     18  C   UNL     1      -3.130   2.946   0.328  1.00  0.00     0.045 C 
ATOM     19  C   UNL     1      -0.757   3.601  -0.197  1.00  0.00     0.081 A 
ATOM     20  S   UNL     1       1.486   4.594  -1.095  1.00  0.00    -0.035 S 
ATOM     21  C   UNL     1      -0.877   5.070  -0.095  1.00  0.00     0.270 A 
ATOM     22  O   UNL     1      -1.872   5.632   0.336  1.00  0.00    -0.268 OA
ENDBRANCH  10  11
ENDBRANCH   9  10
ENDBRANCH   8   9
ENDBRANCH   6   8
ENDBRANCH   5   6
ENDBRANCH   4   5
ENDBRANCH   3   4
ENDBRANCH   2   3
ENDBRANCH   1   2
BRANCH   1  23
ATOM     23  C   UNL     1       3.382   9.944  -0.303  1.00  0.00     0.188 C 
BRANCH  23  24
ATOM     24  O   UNL     1       2.292   9.539  -1.106  1.00  0.00    -0.376 OA
BRANCH  24  25
ATOM     25  C   UNL     1       1.903  10.046  -2.376  1.00  0.00     0.202 C 
BRANCH  25  26
ATOM     26  C   UNL     1       2.042  11.502  -2.818  1.00  0.00     0.261 C 
BRANCH  26  27
ATOM     27  O   UNL     1       2.812  12.292  -1.956  1.00  0.00    -0.460 OA
BRANCH  27  28
ATOM     28  C   UNL     1       2.173  12.676  -0.836  1.00  0.00     0.338 C 
ATOM     29  O   UNL     1       1.017  12.446  -0.505  1.00  0.00    -0.246 OA
BRANCH  28  30
ATOM     30  C   UNL     1       3.161  13.390  -0.027  1.00  0.00     0.060 A 
ATOM     31  C   UNL     1       2.825  13.695   1.292  1.00  0.00     0.016 A 
ATOM     32  C   UNL     1       4.309  13.896  -0.655  1.00  0.00     0.016 A 
ATOM     33  C   UNL     1       3.433  14.786   1.854  1.00  0.00     0.010 A 
ATOM     34  C   UNL     1       4.901  14.990  -0.106  1.00  0.00     0.010 A 
ATOM     35  C   UNL     1       4.340  15.491   1.061  1.00  0.00    -0.014 A 
BRANCH  35  36
ATOM     36  C   UNL     1       4.652  16.849   1.407  1.00  0.00     0.031 A 
ATOM     37  C   UNL     1       5.718  16.941   2.411  1.00  0.00     0.074 A 
ATOM     38  C   UNL     1       4.055  17.861   0.749  1.00  0.00     0.049 A 
ATOM     39  N   UNL     1       5.590  17.324   3.634  1.00  0.00    -0.248 NA
ATOM     40  C   UNL     1       7.021  16.332   2.097  1.00  0.00     0.031 C 
ATOM     41  C   UNL     1       3.151  17.802  -0.406  1.00  0.00     0.029 A 
ATOM     42  N   UNL     1       4.223  19.196   0.933  1.00  0.00    -0.354 N 
ATOM     43  C   UNL     1       6.858  17.211   4.181  1.00  0.00     0.074 A 
ATOM     44  C   UNL     1       7.622  16.386   3.285  1.00  0.00     0.031 C 
ATOM     45  C   UNL     1       3.040  19.035  -0.953  1.00  0.00     0.029 A 
ATOM     46  C   UNL     1       3.761  19.980  -0.123  1.00  0.00     0.049 A 
ATOM     47  H   UNL     1       4.636  19.577   1.741  1.00  0.00     0.167 HD
ATOM     48  C   UNL     1       7.258  18.057   5.165  1.00  0.00     0.037 A 
ATOM     49  C   UNL     1       4.074  21.290  -0.299  1.00  0.00     0.037 A 
ATOM     50  C   UNL     1       6.128  18.703   5.784  1.00  0.00     0.049 A 
ATOM     51  C   UNL     1       4.516  21.803   1.031  1.00  0.00     0.074 A 
ATOM     52  C   UNL     1       5.024  18.239   6.473  1.00  0.00     0.029 A 
ATOM     53  N   UNL     1       5.811  19.976   5.371  1.00  0.00    -0.354 N 
ATOM     54  N   UNL     1       3.709  21.928   2.051  1.00  0.00    -0.248 NA
ATOM     55  C   UNL     1       5.929  21.665   1.367  1.00  0.00     0.031 C 
ATOM     56  C   UNL     1       3.943  19.059   6.039  1.00  0.00     0.029 A 
ATOM     57  C   UNL     1       4.453  20.029   5.176  1.00  0.00     0.049 A 
ATOM     58  H   UNL     1       6.444  20.718   5.238  1.00  0.00     0.167 HD
ATOM     59  C   UNL     1       4.437  21.461   3.138  1.00  0.00     0.074 A 
ATOM     60  C   UNL     1       5.817  21.364   2.664  1.00  0.00     0.031 C 
ATOM     61  C   UNL     1       3.814  20.898   4.215  1.00  0.00     0.037 A 
BRANCH  48  62
ATOM     62  C   UNL     1       8.663  18.573   5.288  1.00  0.00     0.064 A 
ATOM     63  C   UNL     1       9.026  19.278   6.447  1.00  0.00     0.173 A 
ATOM     64  C   UNL     1       9.577  18.645   4.212  1.00  0.00     0.173 A 
ATOM     65  F   UNL     1       8.215  19.299   7.515  1.00  0.00    -0.203 F 
ATOM     66  C   UNL     1      10.189  20.048   6.502  1.00  0.00     0.198 A 
ATOM     67  C   UNL     1      10.765  19.363   4.292  1.00  0.00     0.198 A 
ATOM     68  F   UNL     1       9.313  18.129   3.006  1.00  0.00    -0.203 F 
ATOM     69  F   UNL     1      10.435  20.801   7.581  1.00  0.00    -0.200 F 
ATOM     70  C   UNL     1      11.057  20.090   5.425  1.00  0.00     0.200 A 
ATOM     71  F   UNL     1      11.580  19.407   3.228  1.00  0.00    -0.200 F 
ATOM     72  F   UNL     1      12.145  20.870   5.456  1.00  0.00    -0.200 F 
ENDBRANCH  48  62
BRANCH  49  73
ATOM     73  C   UNL     1       4.356  22.005  -1.571  1.00  0.00     0.064 A 
ATOM     74  C   UNL     1       4.471  23.406  -1.605  1.00  0.00     0.173 A 
ATOM     75  C   UNL     1       4.790  21.321  -2.724  1.00  0.00     0.173 A 
ATOM     76  F   UNL     1       4.122  24.137  -0.537  1.00  0.00    -0.203 F 
ATOM     77  C   UNL     1       5.015  24.075  -2.709  1.00  0.00     0.198 A 
ATOM     78  C   UNL     1       5.325  21.989  -3.827  1.00  0.00     0.198 A 
ATOM     79  F   UNL     1       4.793  19.982  -2.773  1.00  0.00    -0.203 F 
ATOM     80  F   UNL     1       5.166  25.406  -2.677  1.00  0.00    -0.200 F 
ATOM     81  C   UNL     1       5.452  23.364  -3.814  1.00  0.00     0.200 A 
ATOM     82  F   UNL     1       5.777  21.284  -4.875  1.00  0.00    -0.200 F 
ATOM     83  F   UNL     1       6.031  23.997  -4.845  1.00  0.00    -0.200 F 
ENDBRANCH  49  73
BRANCH  61  84
ATOM     84  C   UNL     1       2.313  20.983   4.290  1.00  0.00     0.064 A 
ATOM     85  C   UNL     1       1.447  20.354   3.377  1.00  0.00     0.173 A 
ATOM     86  C   UNL     1       1.737  21.553   5.432  1.00  0.00     0.173 A 
ATOM     87  F   UNL     1       1.926  19.698   2.314  1.00  0.00    -0.203 F 
ATOM     88  C   UNL     1       0.068  20.324   3.588  1.00  0.00     0.198 A 
ATOM     89  C   UNL     1       0.365  21.490   5.659  1.00  0.00     0.198 A 
ATOM     90  F   UNL     1       2.519  22.116   6.366  1.00  0.00    -0.203 F 
ATOM     91  F   UNL     1      -0.735  19.713   2.703  1.00  0.00    -0.200 F 
ATOM     92  C   UNL     1      -0.469  20.882   4.735  1.00  0.00     0.200 A 
ATOM     93  F   UNL     1      -0.143  21.983   6.796  1.00  0.00    -0.200 F 
ATOM     94  F   UNL     1      -1.788  20.806   4.967  1.00  0.00    -0.200 F 
ENDBRANCH  61  84
ENDBRANCH  35  36
ENDBRANCH  28  30
ENDBRANCH  27  28
ENDBRANCH  26  27
ENDBRANCH  25  26
ENDBRANCH  24  25
ENDBRANCH  23  24
ENDBRANCH   1  23
TORSDOF 20
