REMARK SMILES O=C(CCN1C(=O)S/C(=C\c2ccccc2F)C1=O)Nc1ccc(C(=O)OCCOCCOCCOC(=O)c2ccc(-c3c4nc(c(-c5c(F)c(F)c(F)c(F)c5F)c5ccc([nH]5)c(-c5c(F)c(F)c(F)c(F)c5F)c5nc(c(-c6c(F)c(F)c(F)c(F)c6F)c6ccc3[nH]6)C=C5)C=C4)cc2)c(O)c1
REMARK SMILES IDX 30 1 29 2 28 3 27 4 25 5 26 6 24 7 21 8 22 9 104 10 23 11
REMARK SMILES IDX 102 12 20 13 1 14 2 15 3 17 4 18 5 19 6 20 18 21 7 22 8 23
REMARK SMILES IDX 9 24 19 25 10 26 11 27 12 28 16 29 13 30 15 31 17 32 14 33
REMARK SMILES IDX 103 34 31 36 32 37 33 38 34 39 35 40 36 41 37 42 38 43 39 44
REMARK SMILES IDX 40 45 101 46 41 47 100 48 42 49 43 50 44 51 94 52 45 53
REMARK SMILES IDX 99 54 93 55 95 56 46 57 98 58 92 59 91 60 47 62 79 63 59 64
REMARK SMILES IDX 78 65 60 66 63 67 77 68 96 69 61 70 62 71 76 73 97 74 64 75
REMARK SMILES IDX 48 76 49 77 57 78 50 79 51 80 55 81 58 82 52 83 53 84 56 85
REMARK SMILES IDX 54 86 80 87 81 88 89 89 82 90 83 91 87 92 90 93 84 94 85 95
REMARK SMILES IDX 88 96 86 97 65 98 66 99 74 100 67 101 68 102 72 103 75 104
REMARK SMILES IDX 69 105 70 106 73 107 71 108
REMARK H PARENT 20 16 103 35 95 61 63 72
REMARK Flexibility Score: inf
ROOT
ATOM      1  O   UNL     1      -2.180   0.755  -7.576  1.00  0.00    -0.376 OA
ENDROOT
BRANCH   1   2
ATOM      2  C   UNL     1      -1.309   0.561  -8.683  1.00  0.00     0.202 C 
BRANCH   2   3
ATOM      3  C   UNL     1       0.178   0.962  -8.615  1.00  0.00     0.261 C 
BRANCH   3   4
ATOM      4  O   UNL     1       0.882   0.592  -7.416  1.00  0.00    -0.460 OA
BRANCH   4   5
ATOM      5  C   UNL     1       1.197   1.622  -6.585  1.00  0.00     0.341 C 
ATOM      6  O   UNL     1       1.016   2.809  -6.794  1.00  0.00    -0.246 OA
BRANCH   5   7
ATOM      7  C   UNL     1       1.600   1.088  -5.263  1.00  0.00     0.101 A 
ATOM      8  C   UNL     1       2.223   0.172  -2.675  1.00  0.00     0.044 A 
ATOM      9  C   UNL     1       1.318   1.221  -2.851  1.00  0.00     0.027 A 
ATOM     10  C   UNL     1       2.805  -0.422  -3.802  1.00  0.00     0.073 A 
ATOM     11  C   UNL     1       1.031   1.694  -4.135  1.00  0.00     0.022 A 
ATOM     12  C   UNL     1       2.457  -0.000  -5.088  1.00  0.00     0.132 A 
BRANCH   8  13
ATOM     13  N   UNL     1       2.628  -0.288  -1.405  1.00  0.00    -0.326 N 
ATOM     14  O   UNL     1       0.866   0.398  -0.080  1.00  0.00    -0.275 OA
ATOM     15  C   UNL     1       2.015  -0.027  -0.198  1.00  0.00     0.226 C 
ATOM     16  H   UNL     1       3.433  -0.854  -1.377  1.00  0.00     0.169 HD
BRANCH  15  17
ATOM     17  C   UNL     1       2.885  -0.199   1.041  1.00  0.00     0.122 C 
BRANCH  17  18
ATOM     18  C   UNL     1       3.934  -1.310   1.047  1.00  0.00     0.140 C 
BRANCH  18  19
ATOM     19  N   UNL     1       5.014  -1.193   0.071  1.00  0.00    -0.268 N 
ATOM     20  C   UNL     1       5.694  -0.024  -0.143  1.00  0.00     0.293 C 
ATOM     21  C   UNL     1       5.551  -2.319  -0.522  1.00  0.00     0.268 C 
ATOM     22  O   UNL     1       5.564   1.033   0.459  1.00  0.00    -0.261 OA
ATOM     23  S   UNL     1       6.823  -0.223  -1.459  1.00  0.00    -0.022 SA
ATOM     24  C   UNL     1       6.636  -1.934  -1.464  1.00  0.00     0.083 C 
ATOM     25  O   UNL     1       5.183  -3.470  -0.341  1.00  0.00    -0.268 OA
ATOM     26  C   UNL     1       7.295  -2.834  -2.208  1.00  0.00     0.032 C 
BRANCH  26  27
ATOM     27  C   UNL     1       8.303  -2.504  -3.224  1.00  0.00     0.012 A 
ATOM     28  C   UNL     1       8.078  -2.893  -4.551  1.00  0.00     0.011 A 
ATOM     29  C   UNL     1       9.466  -1.781  -2.927  1.00  0.00     0.130 A 
ATOM     30  C   UNL     1       8.967  -2.511  -5.559  1.00  0.00     0.001 A 
ATOM     31  C   UNL     1      10.345  -1.384  -3.929  1.00  0.00     0.040 A 
ATOM     32  F   UNL     1       9.747  -1.442  -1.659  1.00  0.00    -0.206 F 
ATOM     33  C   UNL     1      10.090  -1.741  -5.252  1.00  0.00     0.003 A 
ENDBRANCH  26  27
ENDBRANCH  18  19
ENDBRANCH  17  18
ENDBRANCH  15  17
ENDBRANCH   8  13
BRANCH  12  34
ATOM     34  O   UNL     1       2.965  -0.730  -6.127  1.00  0.00    -0.507 OA
ATOM     35  H   UNL     1       2.763  -0.491  -7.010  1.00  0.00     0.293 HD
ENDBRANCH  12  34
ENDBRANCH   5   7
ENDBRANCH   4   5
ENDBRANCH   3   4
ENDBRANCH   2   3
ENDBRANCH   1   2
BRANCH   1  36
ATOM     36  C   UNL     1      -1.781   0.358  -6.271  1.00  0.00     0.188 C 
BRANCH  36  37
ATOM     37  C   UNL     1      -1.146  -1.030  -6.045  1.00  0.00     0.188 C 
BRANCH  37  38
ATOM     38  O   UNL     1      -0.912  -1.743  -7.237  1.00  0.00    -0.376 OA
BRANCH  38  39
ATOM     39  C   UNL     1      -1.827  -2.770  -7.589  1.00  0.00     0.202 C 
BRANCH  39  40
ATOM     40  C   UNL     1      -3.352  -2.664  -7.356  1.00  0.00     0.261 C 
BRANCH  40  41
ATOM     41  O   UNL     1      -3.825  -1.790  -6.318  1.00  0.00    -0.460 OA
BRANCH  41  42
ATOM     42  C   UNL     1      -3.998  -2.331  -5.090  1.00  0.00     0.338 C 
ATOM     43  O   UNL     1      -3.764  -3.478  -4.754  1.00  0.00    -0.246 OA
BRANCH  42  44
ATOM     44  C   UNL     1      -4.348  -1.254  -4.138  1.00  0.00     0.060 A 
ATOM     45  C   UNL     1      -3.421  -0.910  -3.145  1.00  0.00     0.016 A 
ATOM     46  C   UNL     1      -5.592  -0.619  -4.189  1.00  0.00     0.016 A 
ATOM     47  C   UNL     1      -3.752   0.038  -2.176  1.00  0.00     0.010 A 
ATOM     48  C   UNL     1      -5.927   0.322  -3.205  1.00  0.00     0.010 A 
ATOM     49  C   UNL     1      -5.023   0.628  -2.172  1.00  0.00    -0.014 A 
BRANCH  49  50
ATOM     50  C   UNL     1      -5.435   1.449  -1.003  1.00  0.00     0.031 A 
ATOM     51  C   UNL     1      -6.322   0.841   0.050  1.00  0.00     0.074 A 
ATOM     52  C   UNL     1      -4.975   2.703  -0.844  1.00  0.00     0.049 A 
ATOM     53  N   UNL     1      -6.759   1.359   1.171  1.00  0.00    -0.248 NA
ATOM     54  C   UNL     1      -6.778  -0.536  -0.192  1.00  0.00     0.031 C 
ATOM     55  C   UNL     1      -4.092   3.398  -1.777  1.00  0.00     0.029 A 
ATOM     56  N   UNL     1      -5.182   3.611   0.166  1.00  0.00    -0.354 N 
ATOM     57  C   UNL     1      -7.540   0.375   1.763  1.00  0.00     0.074 A 
ATOM     58  C   UNL     1      -7.549  -0.757   0.862  1.00  0.00     0.031 C 
ATOM     59  C   UNL     1      -3.826   4.623  -1.294  1.00  0.00     0.029 A 
ATOM     60  C   UNL     1      -4.542   4.809  -0.031  1.00  0.00     0.049 A 
ATOM     61  H   UNL     1      -5.737   3.420   0.956  1.00  0.00     0.167 HD
ATOM     62  C   UNL     1      -8.179   0.409   2.957  1.00  0.00     0.037 A 
ATOM     63  C   UNL     1      -4.538   5.931   0.715  1.00  0.00     0.037 A 
ATOM     64  C   UNL     1      -8.161   1.533   3.858  1.00  0.00     0.049 A 
ATOM     65  C   UNL     1      -5.290   5.961   2.019  1.00  0.00     0.074 A 
ATOM     66  C   UNL     1      -8.745   1.643   5.108  1.00  0.00     0.029 A 
ATOM     67  N   UNL     1      -7.535   2.745   3.603  1.00  0.00    -0.354 N 
ATOM     68  N   UNL     1      -5.996   5.014   2.590  1.00  0.00    -0.248 NA
ATOM     69  C   UNL     1      -5.238   7.212   2.789  1.00  0.00     0.031 C 
ATOM     70  C   UNL     1      -8.538   2.943   5.576  1.00  0.00     0.029 A 
ATOM     71  C   UNL     1      -7.756   3.622   4.655  1.00  0.00     0.049 A 
ATOM     72  H   UNL     1      -7.013   2.953   2.795  1.00  0.00     0.167 HD
ATOM     73  C   UNL     1      -6.455   5.545   3.788  1.00  0.00     0.074 A 
ATOM     74  C   UNL     1      -5.928   6.891   3.875  1.00  0.00     0.031 C 
ATOM     75  C   UNL     1      -7.244   4.968   4.730  1.00  0.00     0.037 A 
BRANCH  62  76
ATOM     76  C   UNL     1      -8.980  -0.797   3.361  1.00  0.00     0.064 A 
ATOM     77  C   UNL     1     -10.378  -0.715   3.460  1.00  0.00     0.173 A 
ATOM     78  C   UNL     1      -8.369  -2.008   3.720  1.00  0.00     0.173 A 
ATOM     79  F   UNL     1     -11.014   0.420   3.133  1.00  0.00    -0.203 F 
ATOM     80  C   UNL     1     -11.130  -1.792   3.921  1.00  0.00     0.198 A 
ATOM     81  C   UNL     1      -9.128  -3.095   4.149  1.00  0.00     0.198 A 
ATOM     82  F   UNL     1      -7.037  -2.146   3.632  1.00  0.00    -0.203 F 
ATOM     83  F   UNL     1     -12.460  -1.675   4.045  1.00  0.00    -0.200 F 
ATOM     84  C   UNL     1     -10.506  -2.982   4.261  1.00  0.00     0.200 A 
ATOM     85  F   UNL     1      -8.526  -4.253   4.452  1.00  0.00    -0.200 F 
ATOM     86  F   UNL     1     -11.232  -4.021   4.695  1.00  0.00    -0.200 F 
ENDBRANCH  62  76
BRANCH  63  87
ATOM     87  C   UNL     1      -3.780   7.118   0.236  1.00  0.00     0.064 A 
ATOM     88  C   UNL     1      -4.187   7.822  -0.908  1.00  0.00     0.173 A 
ATOM     89  C   UNL     1      -2.617   7.551   0.887  1.00  0.00     0.173 A 
ATOM     90  F   UNL     1      -5.298   7.453  -1.563  1.00  0.00    -0.203 F 
ATOM     91  C   UNL     1      -3.441   8.890  -1.401  1.00  0.00     0.198 A 
ATOM     92  C   UNL     1      -1.888   8.639   0.410  1.00  0.00     0.198 A 
ATOM     93  F   UNL     1      -2.204   6.931   2.003  1.00  0.00    -0.203 F 
ATOM     94  F   UNL     1      -3.830   9.516  -2.520  1.00  0.00    -0.200 F 
ATOM     95  C   UNL     1      -2.293   9.299  -0.740  1.00  0.00     0.200 A 
ATOM     96  F   UNL     1      -0.796   9.052   1.069  1.00  0.00    -0.200 F 
ATOM     97  F   UNL     1      -1.580  10.331  -1.210  1.00  0.00    -0.200 F 
ENDBRANCH  63  87
BRANCH  75  98
ATOM     98  C   UNL     1      -7.586   5.783   5.948  1.00  0.00     0.064 A 
ATOM     99  C   UNL     1      -7.107   5.411   7.215  1.00  0.00     0.173 A 
ATOM    100  C   UNL     1      -8.426   6.905   5.873  1.00  0.00     0.173 A 
ATOM    101  F   UNL     1      -6.311   4.340   7.350  1.00  0.00    -0.203 F 
ATOM    102  C   UNL     1      -7.460   6.126   8.357  1.00  0.00     0.198 A 
ATOM    103  C   UNL     1      -8.746   7.640   7.012  1.00  0.00     0.198 A 
ATOM    104  F   UNL     1      -8.907   7.311   4.688  1.00  0.00    -0.203 F 
ATOM    105  F   UNL     1      -7.017   5.729   9.558  1.00  0.00    -0.200 F 
ATOM    106  C   UNL     1      -8.270   7.246   8.254  1.00  0.00     0.200 A 
ATOM    107  F   UNL     1      -9.505   8.740   6.906  1.00  0.00    -0.200 F 
ATOM    108  F   UNL     1      -8.588   7.949   9.350  1.00  0.00    -0.200 F 
ENDBRANCH  75  98
ENDBRANCH  49  50
ENDBRANCH  42  44
ENDBRANCH  41  42
ENDBRANCH  40  41
ENDBRANCH  39  40
ENDBRANCH  38  39
ENDBRANCH  37  38
ENDBRANCH  36  37
ENDBRANCH   1  36
TORSDOF 23
