REMARK SMILES CC[C@@H]1CCCN(S(=O)(=O)c2cc(C(=O)OCCOCCOCCOC(=O)c3ccc(-c4c5nc(c(-c6c(F)c(F)c(F)c(F)c6F)c6ccc([nH]6)c(-c6c(F)c(F)c(F)c(F)c6F)c6nc(c(-c7c(F)c(F)c(F)c(F)c7F)c7ccc4[nH]7)C=C6)C=C5)cc3)ccc2F)C1
REMARK SMILES IDX 20 1 19 2 18 3 17 4 16 5 14 6 15 7 13 8 11 9 12 10 93 11
REMARK SMILES IDX 92 12 94 13 91 14 8 15 9 16 10 17 7 18 3 19 4 20 95 21 5 22
REMARK SMILES IDX 6 23 2 24 1 25 21 26 22 27 23 28 24 29 25 30 26 31 27 32
REMARK SMILES IDX 28 33 29 34 90 35 30 36 89 37 31 38 32 39 33 40 83 41 34 42
REMARK SMILES IDX 88 43 82 44 84 45 35 46 87 47 81 48 80 49 36 51 68 52 48 53
REMARK SMILES IDX 67 54 49 55 52 56 66 57 85 58 50 59 51 60 65 62 86 63 53 64
REMARK SMILES IDX 37 65 38 66 46 67 39 68 40 69 44 70 47 71 41 72 42 73 45 74
REMARK SMILES IDX 43 75 69 76 70 77 78 78 71 79 72 80 76 81 79 82 73 83 74 84
REMARK SMILES IDX 77 85 75 86 54 87 55 88 63 89 56 90 57 91 61 92 64 93 58 94
REMARK SMILES IDX 59 95 62 96 60 97
REMARK H PARENT 84 50 52 61
REMARK Flexibility Score: inf
ROOT
ATOM      1  C   UNL     1      -5.763   7.960   3.056  1.00  0.00     0.188 C 
ENDROOT
BRANCH   1   2
ATOM      2  O   UNL     1      -6.839   7.784   3.956  1.00  0.00    -0.376 OA
BRANCH   2   3
ATOM      3  C   UNL     1      -6.601   7.670   5.349  1.00  0.00     0.202 C 
BRANCH   3   4
ATOM      4  C   UNL     1      -5.409   6.891   5.926  1.00  0.00     0.261 C 
BRANCH   4   5
ATOM      5  O   UNL     1      -4.150   7.132   5.285  1.00  0.00    -0.460 OA
BRANCH   5   6
ATOM      6  C   UNL     1      -3.578   6.053   4.694  1.00  0.00     0.338 C 
ATOM      7  O   UNL     1      -3.995   4.907   4.690  1.00  0.00    -0.246 OA
BRANCH   6   8
ATOM      8  C   UNL     1      -2.444   6.497   3.850  1.00  0.00     0.061 A 
ATOM      9  C   UNL     1      -1.308   6.374   1.717  1.00  0.00     0.119 A 
ATOM     10  C   UNL     1      -2.309   5.917   2.581  1.00  0.00     0.040 A 
ATOM     11  C   UNL     1      -0.465   7.407   2.111  1.00  0.00     0.143 A 
ATOM     12  C   UNL     1      -0.583   7.968   3.381  1.00  0.00     0.041 A 
ATOM     13  F   UNL     1       0.507   7.861   1.310  1.00  0.00    -0.206 F 
ATOM     14  C   UNL     1      -1.575   7.517   4.256  1.00  0.00     0.019 A 
BRANCH   9  15
ATOM     15  S   UNL     1      -1.192   5.707   0.087  1.00  0.00     0.246 S 
ATOM     16  O   UNL     1      -0.668   6.718  -0.804  1.00  0.00    -0.207 OA
ATOM     17  O   UNL     1      -2.471   5.087  -0.202  1.00  0.00    -0.207 OA
BRANCH  15  18
ATOM     18  N   UNL     1      -0.021   4.450   0.234  1.00  0.00    -0.197 NA
ATOM     19  C   UNL     1       0.948   2.394  -0.829  1.00  0.00     0.004 C 
ATOM     20  C   UNL     1       2.343   2.839  -0.362  1.00  0.00     0.006 C 
ATOM     21  C   UNL     1       0.040   3.621  -1.012  1.00  0.00     0.106 C 
ATOM     22  C   UNL     1       2.270   3.745   0.861  1.00  0.00     0.017 C 
ATOM     23  C   UNL     1       1.340   4.927   0.621  1.00  0.00     0.102 C 
BRANCH  19  24
ATOM     24  C   UNL     1       0.305   1.347   0.105  1.00  0.00     0.001 C 
ATOM     25  C   UNL     1       0.927  -0.035  -0.052  1.00  0.00     0.004 C 
ENDBRANCH  19  24
ENDBRANCH  15  18
ENDBRANCH   9  15
ENDBRANCH   6   8
ENDBRANCH   5   6
ENDBRANCH   4   5
ENDBRANCH   3   4
ENDBRANCH   2   3
ENDBRANCH   1   2
BRANCH   1  26
ATOM     26  C   UNL     1      -4.816   9.169   3.194  1.00  0.00     0.188 C 
BRANCH  26  27
ATOM     27  O   UNL     1      -4.915   9.998   4.327  1.00  0.00    -0.376 OA
BRANCH  27  28
ATOM     28  C   UNL     1      -5.981  10.924   4.456  1.00  0.00     0.202 C 
BRANCH  28  29
ATOM     29  C   UNL     1      -6.918  11.388   3.324  1.00  0.00     0.261 C 
BRANCH  29  30
ATOM     30  O   UNL     1      -7.067  10.537   2.187  1.00  0.00    -0.460 OA
BRANCH  30  31
ATOM     31  C   UNL     1      -6.469  10.979   1.052  1.00  0.00     0.338 C 
ATOM     32  O   UNL     1      -5.790  11.980   0.909  1.00  0.00    -0.246 OA
BRANCH  31  33
ATOM     33  C   UNL     1      -6.632   9.955   0.007  1.00  0.00     0.060 A 
ATOM     34  C   UNL     1      -5.508   9.242  -0.433  1.00  0.00     0.016 A 
ATOM     35  C   UNL     1      -7.886   9.732  -0.558  1.00  0.00     0.016 A 
ATOM     36  C   UNL     1      -5.636   8.301  -1.454  1.00  0.00     0.010 A 
ATOM     37  C   UNL     1      -8.007   8.811  -1.598  1.00  0.00     0.010 A 
ATOM     38  C   UNL     1      -6.880   8.109  -2.066  1.00  0.00    -0.014 A 
BRANCH  38  39
ATOM     39  C   UNL     1      -7.003   7.307  -3.305  1.00  0.00     0.031 A 
ATOM     40  C   UNL     1      -7.048   8.031  -4.619  1.00  0.00     0.074 A 
ATOM     41  C   UNL     1      -7.115   5.968  -3.261  1.00  0.00     0.049 A 
ATOM     42  N   UNL     1      -7.340   7.575  -5.809  1.00  0.00    -0.248 NA
ATOM     43  C   UNL     1      -6.729   9.468  -4.585  1.00  0.00     0.031 C 
ATOM     44  C   UNL     1      -7.018   5.151  -2.055  1.00  0.00     0.029 A 
ATOM     45  N   UNL     1      -7.365   5.064  -4.265  1.00  0.00    -0.354 N 
ATOM     46  C   UNL     1      -7.253   8.668  -6.660  1.00  0.00     0.074 A 
ATOM     47  C   UNL     1      -6.902   9.815  -5.853  1.00  0.00     0.031 C 
ATOM     48  C   UNL     1      -7.234   3.866  -2.383  1.00  0.00     0.029 A 
ATOM     49  C   UNL     1      -7.533   3.778  -3.813  1.00  0.00     0.049 A 
ATOM     50  H   UNL     1      -7.418   5.313  -5.216  1.00  0.00     0.167 HD
ATOM     51  C   UNL     1      -7.446   8.703  -7.998  1.00  0.00     0.037 A 
ATOM     52  C   UNL     1      -7.924   2.668  -4.472  1.00  0.00     0.037 A 
ATOM     53  C   UNL     1      -7.785   7.555  -8.794  1.00  0.00     0.049 A 
ATOM     54  C   UNL     1      -8.227   2.752  -5.948  1.00  0.00     0.074 A 
ATOM     55  C   UNL     1      -7.989   7.489 -10.160  1.00  0.00     0.029 A 
ATOM     56  N   UNL     1      -7.969   6.274  -8.295  1.00  0.00    -0.354 N 
ATOM     57  N   UNL     1      -8.148   3.786  -6.750  1.00  0.00    -0.248 NA
ATOM     58  C   UNL     1      -8.681   1.519  -6.611  1.00  0.00     0.031 C 
ATOM     59  C   UNL     1      -8.354   6.181 -10.481  1.00  0.00     0.029 A 
ATOM     60  C   UNL     1      -8.312   5.417  -9.326  1.00  0.00     0.049 A 
ATOM     61  H   UNL     1      -7.870   6.014  -7.351  1.00  0.00     0.167 HD
ATOM     62  C   UNL     1      -8.506   3.324  -8.011  1.00  0.00     0.074 A 
ATOM     63  C   UNL     1      -8.804   1.915  -7.872  1.00  0.00     0.031 C 
ATOM     64  C   UNL     1      -8.577   4.009  -9.177  1.00  0.00     0.037 A 
BRANCH  51  65
ATOM     65  C   UNL     1      -7.312  10.020  -8.699  1.00  0.00     0.064 A 
ATOM     66  C   UNL     1      -8.441  10.642  -9.256  1.00  0.00     0.173 A 
ATOM     67  C   UNL     1      -6.060  10.612  -8.915  1.00  0.00     0.173 A 
ATOM     68  F   UNL     1      -9.661  10.112  -9.082  1.00  0.00    -0.203 F 
ATOM     69  C   UNL     1      -8.315  11.793 -10.028  1.00  0.00     0.198 A 
ATOM     70  C   UNL     1      -5.942  11.780  -9.664  1.00  0.00     0.198 A 
ATOM     71  F   UNL     1      -4.954  10.062  -8.393  1.00  0.00    -0.203 F 
ATOM     72  F   UNL     1      -9.401  12.343 -10.590  1.00  0.00    -0.200 F 
ATOM     73  C   UNL     1      -7.067  12.361 -10.231  1.00  0.00     0.200 A 
ATOM     74  F   UNL     1      -4.738  12.339  -9.844  1.00  0.00    -0.200 F 
ATOM     75  F   UNL     1      -6.947  13.467 -10.979  1.00  0.00    -0.200 F 
ENDBRANCH  51  65
BRANCH  52  76
ATOM     76  C   UNL     1      -8.074   1.386  -3.734  1.00  0.00     0.064 A 
ATOM     77  C   UNL     1      -9.076   1.213  -2.766  1.00  0.00     0.173 A 
ATOM     78  C   UNL     1      -7.216   0.306  -3.981  1.00  0.00     0.173 A 
ATOM     79  F   UNL     1      -9.930   2.212  -2.497  1.00  0.00    -0.203 F 
ATOM     80  C   UNL     1      -9.199   0.018  -2.060  1.00  0.00     0.198 A 
ATOM     81  C   UNL     1      -7.359  -0.899  -3.296  1.00  0.00     0.198 A 
ATOM     82  F   UNL     1      -6.263   0.409  -4.918  1.00  0.00    -0.203 F 
ATOM     83  F   UNL     1     -10.146  -0.109  -1.121  1.00  0.00    -0.200 F 
ATOM     84  C   UNL     1      -8.344  -1.039  -2.329  1.00  0.00     0.200 A 
ATOM     85  F   UNL     1      -6.553  -1.931  -3.583  1.00  0.00    -0.200 F 
ATOM     86  F   UNL     1      -8.475  -2.196  -1.665  1.00  0.00    -0.200 F 
ENDBRANCH  52  76
BRANCH  64  87
ATOM     87  C   UNL     1      -8.948   3.261 -10.425  1.00  0.00     0.064 A 
ATOM     88  C   UNL     1      -7.995   3.068 -11.438  1.00  0.00     0.173 A 
ATOM     89  C   UNL     1     -10.271   2.877 -10.683  1.00  0.00     0.173 A 
ATOM     90  F   UNL     1      -6.718   3.431 -11.243  1.00  0.00    -0.203 F 
ATOM     91  C   UNL     1      -8.361   2.552 -12.677  1.00  0.00     0.198 A 
ATOM     92  C   UNL     1     -10.628   2.335 -11.915  1.00  0.00     0.198 A 
ATOM     93  F   UNL     1     -11.215   3.034  -9.744  1.00  0.00    -0.203 F 
ATOM     94  F   UNL     1      -7.446   2.433 -13.649  1.00  0.00    -0.200 F 
ATOM     95  C   UNL     1      -9.678   2.188 -12.916  1.00  0.00     0.200 A 
ATOM     96  F   UNL     1     -11.897   1.968 -12.141  1.00  0.00    -0.200 F 
ATOM     97  F   UNL     1     -10.033   1.704 -14.114  1.00  0.00    -0.200 F 
ENDBRANCH  64  87
ENDBRANCH  38  39
ENDBRANCH  31  33
ENDBRANCH  30  31
ENDBRANCH  29  30
ENDBRANCH  28  29
ENDBRANCH  27  28
ENDBRANCH  26  27
ENDBRANCH   1  26
TORSDOF 20
