REMARK SMILES O=C(NCc1ccc(C(=O)OCCOCCOCCOC(=O)c2ccc(-c3c4nc(c(-c5c(F)c(F)c(F)c(F)c5F)c5ccc([nH]5)c(-c5c(F)c(F)c(F)c(F)c5F)c5nc(c(-c6c(F)c(F)c(F)c(F)c6F)c6ccc3[nH]6)C=C5)C=C4)cc2)o1)Nc1ccc(F)c(Cl)c1
REMARK SMILES IDX 15 1 14 2 13 3 12 4 11 5 9 6 10 7 8 8 5 9 6 10 86 11 7 12
REMARK SMILES IDX 4 13 3 14 1 15 2 16 87 17 88 20 89 21 95 22 90 23 93 24
REMARK SMILES IDX 91 25 94 26 92 27 16 28 17 29 18 30 19 31 20 32 21 33 22 34
REMARK SMILES IDX 23 35 24 36 85 37 25 38 84 39 26 40 27 41 28 42 78 43 29 44
REMARK SMILES IDX 83 45 77 46 79 47 30 48 82 49 76 50 75 51 31 53 63 54 43 55
REMARK SMILES IDX 62 56 44 57 47 58 61 59 80 60 45 61 46 62 60 64 81 65 48 66
REMARK SMILES IDX 32 67 33 68 41 69 34 70 35 71 39 72 42 73 36 74 37 75 40 76
REMARK SMILES IDX 38 77 64 78 65 79 73 80 66 81 67 82 71 83 74 84 68 85 69 86
REMARK SMILES IDX 72 87 70 88 49 89 50 90 58 91 51 92 52 93 56 94 59 95 53 96
REMARK SMILES IDX 54 97 57 98 55 99
REMARK H PARENT 3 18 87 19 79 52 47 63
REMARK Flexibility Score: inf
ROOT
ATOM      1  C   UNL     1       6.964  -2.679  -4.873  1.00  0.00     0.188 C 
ENDROOT
BRANCH   1   2
ATOM      2  O   UNL     1       6.689  -3.479  -6.017  1.00  0.00    -0.376 OA
BRANCH   2   3
ATOM      3  C   UNL     1       6.436  -2.858  -7.272  1.00  0.00     0.202 C 
BRANCH   3   4
ATOM      4  C   UNL     1       5.172  -2.002  -7.379  1.00  0.00     0.261 C 
BRANCH   4   5
ATOM      5  O   UNL     1       5.248  -0.824  -6.560  1.00  0.00    -0.457 OA
BRANCH   5   6
ATOM      6  C   UNL     1       4.304  -0.725  -5.579  1.00  0.00     0.374 C 
ATOM      7  O   UNL     1       3.343  -1.473  -5.455  1.00  0.00    -0.242 OA
BRANCH   6   8
ATOM      8  C   UNL     1       4.700   0.291  -4.633  1.00  0.00     0.211 A 
ATOM      9  C   UNL     1       4.921   1.087  -2.586  1.00  0.00     0.124 A 
ATOM     10  C   UNL     1       5.558   1.982  -3.417  1.00  0.00     0.048 A 
ATOM     11  O   UNL     1       4.395   0.068  -3.319  1.00  0.00    -0.452 OA
ATOM     12  C   UNL     1       5.426   1.465  -4.733  1.00  0.00     0.058 A 
BRANCH   9  13
ATOM     13  C   UNL     1       4.672   1.021  -1.124  1.00  0.00     0.193 C 
BRANCH  13  14
ATOM     14  N   UNL     1       3.244   1.107  -0.930  1.00  0.00    -0.331 N 
ATOM     15  O   UNL     1       1.199   0.368  -0.535  1.00  0.00    -0.248 OA
ATOM     16  C   UNL     1       2.400   0.249  -0.311  1.00  0.00     0.319 C 
ATOM     17  N   UNL     1       2.960  -0.638   0.569  1.00  0.00    -0.308 N 
ATOM     18  H   UNL     1       2.820   1.912  -1.305  1.00  0.00     0.165 HD
ATOM     19  H   UNL     1       3.927  -0.573   0.743  1.00  0.00     0.171 HD
BRANCH  17  20
ATOM     20  C   UNL     1       2.231  -1.640   1.239  1.00  0.00     0.044 A 
ATOM     21  C   UNL     1       2.662  -2.027   2.513  1.00  0.00     0.029 A 
ATOM     22  C   UNL     1       1.073  -2.209   0.693  1.00  0.00     0.049 A 
ATOM     23  C   UNL     1       1.858  -2.857   3.293  1.00  0.00     0.043 A 
ATOM     24  C   UNL     1       0.289  -3.062   1.462  1.00  0.00     0.078 A 
ATOM     25  C   UNL     1       0.658  -3.331   2.774  1.00  0.00     0.141 A 
ATOM     26  Cl  UNL     1      -1.127  -3.771   0.790  1.00  0.00    -0.081 Cl
ATOM     27  F   UNL     1      -0.147  -4.048   3.567  1.00  0.00    -0.205 F 
ENDBRANCH  17  20
ENDBRANCH  13  14
ENDBRANCH   9  13
ENDBRANCH   6   8
ENDBRANCH   5   6
ENDBRANCH   4   5
ENDBRANCH   3   4
ENDBRANCH   2   3
ENDBRANCH   1   2
BRANCH   1  28
ATOM     28  C   UNL     1       7.907  -1.468  -4.996  1.00  0.00     0.188 C 
BRANCH  28  29
ATOM     29  O   UNL     1       8.736  -1.478  -6.149  1.00  0.00    -0.376 OA
BRANCH  29  30
ATOM     30  C   UNL     1      10.128  -1.627  -5.908  1.00  0.00     0.202 C 
BRANCH  30  31
ATOM     31  C   UNL     1      10.527  -3.084  -5.657  1.00  0.00     0.261 C 
BRANCH  31  32
ATOM     32  O   UNL     1       9.976  -3.649  -4.455  1.00  0.00    -0.460 OA
BRANCH  32  33
ATOM     33  C   UNL     1      10.380  -3.093  -3.293  1.00  0.00     0.338 C 
ATOM     34  O   UNL     1      11.170  -2.177  -3.146  1.00  0.00    -0.246 OA
BRANCH  33  35
ATOM     35  C   UNL     1       9.589  -3.673  -2.192  1.00  0.00     0.060 A 
ATOM     36  C   UNL     1       8.963  -2.804  -1.291  1.00  0.00     0.016 A 
ATOM     37  C   UNL     1       9.510  -5.057  -2.015  1.00  0.00     0.016 A 
ATOM     38  C   UNL     1       8.303  -3.319  -0.174  1.00  0.00     0.010 A 
ATOM     39  C   UNL     1       8.857  -5.571  -0.892  1.00  0.00     0.010 A 
ATOM     40  C   UNL     1       8.288  -4.702   0.056  1.00  0.00    -0.014 A 
BRANCH  40  41
ATOM     41  C   UNL     1       7.878  -5.214   1.387  1.00  0.00     0.031 A 
ATOM     42  C   UNL     1       8.950  -5.421   2.426  1.00  0.00     0.074 A 
ATOM     43  C   UNL     1       6.592  -5.482   1.677  1.00  0.00     0.049 A 
ATOM     44  N   UNL     1       8.838  -5.799   3.674  1.00  0.00    -0.248 NA
ATOM     45  C   UNL     1      10.336  -5.159   2.001  1.00  0.00     0.031 C 
ATOM     46  C   UNL     1       5.468  -5.321   0.759  1.00  0.00     0.029 A 
ATOM     47  N   UNL     1       6.021  -5.969   2.828  1.00  0.00    -0.354 N 
ATOM     48  C   UNL     1      10.130  -5.808   4.181  1.00  0.00     0.074 A 
ATOM     49  C   UNL     1      11.017  -5.438   3.101  1.00  0.00     0.031 C 
ATOM     50  C   UNL     1       4.344  -5.739   1.371  1.00  0.00     0.029 A 
ATOM     51  C   UNL     1       4.672  -6.214   2.715  1.00  0.00     0.049 A 
ATOM     52  H   UNL     1       6.529  -6.128   3.656  1.00  0.00     0.167 HD
ATOM     53  C   UNL     1      10.541  -6.081   5.442  1.00  0.00     0.037 A 
ATOM     54  C   UNL     1       3.817  -6.778   3.595  1.00  0.00     0.037 A 
ATOM     55  C   UNL     1       9.663  -6.450   6.517  1.00  0.00     0.049 A 
ATOM     56  C   UNL     1       4.328  -7.141   4.975  1.00  0.00     0.074 A 
ATOM     57  C   UNL     1       9.972  -6.691   7.844  1.00  0.00     0.029 A 
ATOM     58  N   UNL     1       8.299  -6.650   6.379  1.00  0.00    -0.354 N 
ATOM     59  N   UNL     1       5.516  -6.951   5.499  1.00  0.00    -0.248 NA
ATOM     60  C   UNL     1       3.369  -7.762   5.901  1.00  0.00     0.031 C 
ATOM     61  C   UNL     1       8.798  -7.078   8.501  1.00  0.00     0.029 A 
ATOM     62  C   UNL     1       7.756  -7.045   7.589  1.00  0.00     0.049 A 
ATOM     63  H   UNL     1       7.791  -6.530   5.544  1.00  0.00     0.167 HD
ATOM     64  C   UNL     1       5.419  -7.354   6.827  1.00  0.00     0.074 A 
ATOM     65  C   UNL     1       4.054  -7.784   7.034  1.00  0.00     0.031 C 
ATOM     66  C   UNL     1       6.371  -7.378   7.793  1.00  0.00     0.037 A 
BRANCH  53  67
ATOM     67  C   UNL     1      12.009  -5.992   5.724  1.00  0.00     0.064 A 
ATOM     68  C   UNL     1      12.659  -4.753   5.826  1.00  0.00     0.173 A 
ATOM     69  C   UNL     1      12.768  -7.153   5.928  1.00  0.00     0.173 A 
ATOM     70  F   UNL     1      11.977  -3.615   5.624  1.00  0.00    -0.203 F 
ATOM     71  C   UNL     1      14.021  -4.680   6.104  1.00  0.00     0.198 A 
ATOM     72  C   UNL     1      14.126  -7.076   6.226  1.00  0.00     0.198 A 
ATOM     73  F   UNL     1      12.192  -8.361   5.840  1.00  0.00    -0.203 F 
ATOM     74  F   UNL     1      14.629  -3.487   6.160  1.00  0.00    -0.200 F 
ATOM     75  C   UNL     1      14.752  -5.841   6.309  1.00  0.00     0.200 A 
ATOM     76  F   UNL     1      14.830  -8.198   6.430  1.00  0.00    -0.200 F 
ATOM     77  F   UNL     1      16.062  -5.770   6.580  1.00  0.00    -0.200 F 
ENDBRANCH  53  67
BRANCH  54  78
ATOM     78  C   UNL     1       2.391  -7.038   3.226  1.00  0.00     0.064 A 
ATOM     79  C   UNL     1       1.334  -6.505   3.978  1.00  0.00     0.173 A 
ATOM     80  C   UNL     1       2.048  -7.890   2.165  1.00  0.00     0.173 A 
ATOM     81  F   UNL     1       1.596  -5.690   5.012  1.00  0.00    -0.203 F 
ATOM     82  C   UNL     1       0.005  -6.842   3.714  1.00  0.00     0.198 A 
ATOM     83  C   UNL     1       0.716  -8.177   1.862  1.00  0.00     0.198 A 
ATOM     84  F   UNL     1       3.008  -8.461   1.423  1.00  0.00    -0.203 F 
ATOM     85  F   UNL     1      -0.969  -6.383   4.512  1.00  0.00    -0.200 F 
ATOM     86  C   UNL     1      -0.305  -7.662   2.644  1.00  0.00     0.200 A 
ATOM     87  F   UNL     1       0.425  -8.978   0.828  1.00  0.00    -0.200 F 
ATOM     88  F   UNL     1      -1.581  -7.974   2.382  1.00  0.00    -0.200 F 
ENDBRANCH  54  78
BRANCH  66  89
ATOM     89  C   UNL     1       5.943  -7.773   9.177  1.00  0.00     0.064 A 
ATOM     90  C   UNL     1       5.598  -9.094   9.498  1.00  0.00     0.173 A 
ATOM     91  C   UNL     1       5.897  -6.815  10.202  1.00  0.00     0.173 A 
ATOM     92  F   UNL     1       5.615 -10.044   8.551  1.00  0.00    -0.203 F 
ATOM     93  C   UNL     1       5.184  -9.433  10.783  1.00  0.00     0.198 A 
ATOM     94  C   UNL     1       5.513  -7.164  11.494  1.00  0.00     0.198 A 
ATOM     95  F   UNL     1       6.230  -5.539   9.951  1.00  0.00    -0.203 F 
ATOM     96  F   UNL     1       4.801 -10.689  11.051  1.00  0.00    -0.200 F 
ATOM     97  C   UNL     1       5.146  -8.470  11.781  1.00  0.00     0.200 A 
ATOM     98  F   UNL     1       5.493  -6.235  12.460  1.00  0.00    -0.200 F 
ATOM     99  F   UNL     1       4.748  -8.799  13.017  1.00  0.00    -0.200 F 
ENDBRANCH  66  89
ENDBRANCH  40  41
ENDBRANCH  33  35
ENDBRANCH  32  33
ENDBRANCH  31  32
ENDBRANCH  30  31
ENDBRANCH  29  30
ENDBRANCH  28  29
ENDBRANCH   1  28
TORSDOF 20
