REMARK SMILES CC1(C)C[C@@H](Nc2ccc(Cl)c(C(=O)OCCOCCOCCOC(=O)c3ccc(-c4c5nc(c(-c6c(F)c(F)c(F)c(F)c6F)c6ccc([nH]6)c(-c6c(F)c(F)c(F)c(F)c6F)c6nc(c(-c7c(F)c(F)c(F)c(F)c7F)c7ccc4[nH]7)C=C6)C=C5)cc3)c2)C(C)(C)O1
REMARK SMILES IDX 19 1 18 2 17 3 16 4 15 5 13 6 14 7 12 8 7 9 8 10 90 11 9 12
REMARK SMILES IDX 10 13 11 14 6 15 5 17 1 18 2 19 3 20 4 21 94 22 91 23 92 24
REMARK SMILES IDX 93 25 20 26 21 27 22 28 23 29 24 30 25 31 26 32 27 33 28 34
REMARK SMILES IDX 89 35 29 36 88 37 30 38 31 39 32 40 82 41 33 42 87 43 81 44
REMARK SMILES IDX 83 45 34 46 86 47 80 48 79 49 35 51 67 52 47 53 66 54 48 55
REMARK SMILES IDX 51 56 65 57 84 58 49 59 50 60 64 62 85 63 52 64 36 65 37 66
REMARK SMILES IDX 45 67 38 68 39 69 43 70 46 71 40 72 41 73 44 74 42 75 68 76
REMARK SMILES IDX 69 77 77 78 70 79 71 80 75 81 78 82 72 83 73 84 76 85 74 86
REMARK SMILES IDX 53 87 54 88 62 89 55 90 56 91 60 92 63 93 57 94 58 95 61 96
REMARK SMILES IDX 59 97
REMARK H PARENT 6 16 83 50 51 61
REMARK Flexibility Score: inf
ROOT
ATOM      1  C   UNL     1      -3.429  -8.871  -3.782  1.00  0.00     0.188 C 
ENDROOT
BRANCH   1   2
ATOM      2  O   UNL     1      -4.420  -9.372  -4.674  1.00  0.00    -0.376 OA
BRANCH   2   3
ATOM      3  C   UNL     1      -4.038  -9.766  -5.989  1.00  0.00     0.202 C 
BRANCH   3   4
ATOM      4  C   UNL     1      -3.346  -8.723  -6.873  1.00  0.00     0.261 C 
BRANCH   4   5
ATOM      5  O   UNL     1      -2.157  -8.177  -6.278  1.00  0.00    -0.460 OA
BRANCH   5   6
ATOM      6  C   UNL     1      -2.097  -6.827  -6.193  1.00  0.00     0.339 C 
ATOM      7  O   UNL     1      -2.923  -6.028  -6.601  1.00  0.00    -0.246 OA
BRANCH   6   8
ATOM      8  C   UNL     1      -0.981  -6.419  -5.317  1.00  0.00     0.080 A 
ATOM      9  C   UNL     1      -0.338  -5.122  -3.350  1.00  0.00     0.035 A 
ATOM     10  C   UNL     1       0.992  -5.471  -3.589  1.00  0.00     0.027 A 
ATOM     11  C   UNL     1      -1.316  -5.588  -4.231  1.00  0.00     0.043 A 
ATOM     12  C   UNL     1       1.333  -6.314  -4.654  1.00  0.00     0.023 A 
ATOM     13  C   UNL     1       0.348  -6.792  -5.524  1.00  0.00     0.055 A 
ATOM     14  Cl  UNL     1       0.852  -7.788  -6.838  1.00  0.00    -0.083 Cl
BRANCH   9  15
ATOM     15  N   UNL     1      -0.682  -4.259  -2.320  1.00  0.00    -0.379 N 
ATOM     16  H   UNL     1      -1.173  -4.585  -1.531  1.00  0.00     0.160 HD
BRANCH  15  17
ATOM     17  C   UNL     1      -0.296  -2.852  -2.437  1.00  0.00     0.113 C 
ATOM     18  C   UNL     1       0.787  -0.297   0.032  1.00  0.00     0.042 C 
ATOM     19  C   UNL     1       0.501  -0.910  -1.336  1.00  0.00     0.065 C 
ATOM     20  C   UNL     1       1.385  -0.242  -2.396  1.00  0.00     0.042 C 
ATOM     21  C   UNL     1       0.646  -2.432  -1.325  1.00  0.00     0.062 C 
ATOM     22  O   UNL     1      -0.871  -0.645  -1.686  1.00  0.00    -0.367 OA
ATOM     23  C   UNL     1      -1.455  -1.836  -2.270  1.00  0.00     0.083 C 
ATOM     24  C   UNL     1      -2.570  -2.269  -1.312  1.00  0.00     0.044 C 
ATOM     25  C   UNL     1      -2.062  -1.451  -3.618  1.00  0.00     0.044 C 
ENDBRANCH  15  17
ENDBRANCH   9  15
ENDBRANCH   6   8
ENDBRANCH   5   6
ENDBRANCH   4   5
ENDBRANCH   3   4
ENDBRANCH   2   3
ENDBRANCH   1   2
BRANCH   1  26
ATOM     26  C   UNL     1      -2.070  -9.594  -3.665  1.00  0.00     0.188 C 
BRANCH  26  27
ATOM     27  O   UNL     1      -2.016 -10.824  -4.363  1.00  0.00    -0.376 OA
BRANCH  27  28
ATOM     28  C   UNL     1      -1.934 -12.002  -3.576  1.00  0.00     0.202 C 
BRANCH  28  29
ATOM     29  C   UNL     1      -3.160 -12.335  -2.713  1.00  0.00     0.261 C 
BRANCH  29  30
ATOM     30  O   UNL     1      -3.625 -11.280  -1.854  1.00  0.00    -0.460 OA
BRANCH  30  31
ATOM     31  C   UNL     1      -2.888 -11.015  -0.753  1.00  0.00     0.338 C 
ATOM     32  O   UNL     1      -1.862 -11.566  -0.405  1.00  0.00    -0.246 OA
BRANCH  31  33
ATOM     33  C   UNL     1      -3.443  -9.801  -0.114  1.00  0.00     0.060 A 
ATOM     34  C   UNL     1      -2.608  -8.690   0.051  1.00  0.00     0.016 A 
ATOM     35  C   UNL     1      -4.770  -9.757   0.326  1.00  0.00     0.016 A 
ATOM     36  C   UNL     1      -3.088  -7.546   0.692  1.00  0.00     0.010 A 
ATOM     37  C   UNL     1      -5.246  -8.612   0.979  1.00  0.00     0.010 A 
ATOM     38  C   UNL     1      -4.397  -7.514   1.195  1.00  0.00    -0.014 A 
BRANCH  38  39
ATOM     39  C   UNL     1      -4.805  -6.390   2.076  1.00  0.00     0.031 A 
ATOM     40  C   UNL     1      -4.711  -6.563   3.567  1.00  0.00     0.074 A 
ATOM     41  C   UNL     1      -5.196  -5.210   1.564  1.00  0.00     0.049 A 
ATOM     42  N   UNL     1      -4.902  -5.687   4.522  1.00  0.00    -0.248 NA
ATOM     43  C   UNL     1      -4.355  -7.907   4.045  1.00  0.00     0.031 C 
ATOM     44  C   UNL     1      -5.327  -4.910   0.141  1.00  0.00     0.029 A 
ATOM     45  N   UNL     1      -5.543  -4.038   2.191  1.00  0.00    -0.354 N 
ATOM     46  C   UNL     1      -4.680  -6.370   5.711  1.00  0.00     0.074 A 
ATOM     47  C   UNL     1      -4.384  -7.743   5.359  1.00  0.00     0.031 C 
ATOM     48  C   UNL     1      -5.709  -3.629   0.002  1.00  0.00     0.029 A 
ATOM     49  C   UNL     1      -5.856  -3.022   1.324  1.00  0.00     0.049 A 
ATOM     50  H   UNL     1      -5.564  -3.937   3.170  1.00  0.00     0.167 HD
ATOM     51  C   UNL     1      -4.704  -5.897   6.980  1.00  0.00     0.037 A 
ATOM     52  C   UNL     1      -6.211  -1.746   1.571  1.00  0.00     0.037 A 
ATOM     53  C   UNL     1      -5.015  -4.537   7.335  1.00  0.00     0.049 A 
ATOM     54  C   UNL     1      -6.285  -1.254   2.994  1.00  0.00     0.074 A 
ATOM     55  C   UNL     1      -5.040  -3.954   8.591  1.00  0.00     0.029 A 
ATOM     56  N   UNL     1      -5.373  -3.547   6.431  1.00  0.00    -0.354 N 
ATOM     57  N   UNL     1      -6.012  -1.889   4.108  1.00  0.00    -0.248 NA
ATOM     58  C   UNL     1      -6.710   0.140   3.189  1.00  0.00     0.031 C 
ATOM     59  C   UNL     1      -5.466  -2.628   8.451  1.00  0.00     0.029 A 
ATOM     60  C   UNL     1      -5.649  -2.366   7.103  1.00  0.00     0.049 A 
ATOM     61  H   UNL     1      -5.423  -3.667   5.455  1.00  0.00     0.167 HD
ATOM     62  C   UNL     1      -6.198  -0.967   5.131  1.00  0.00     0.074 A 
ATOM     63  C   UNL     1      -6.597   0.275   4.503  1.00  0.00     0.031 C 
ATOM     64  C   UNL     1      -6.045  -1.133   6.469  1.00  0.00     0.037 A 
BRANCH  51  65
ATOM     65  C   UNL     1      -4.414  -6.878   8.080  1.00  0.00     0.064 A 
ATOM     66  C   UNL     1      -3.131  -7.415   8.270  1.00  0.00     0.173 A 
ATOM     67  C   UNL     1      -5.432  -7.289   8.953  1.00  0.00     0.173 A 
ATOM     68  F   UNL     1      -2.125  -7.066   7.454  1.00  0.00    -0.203 F 
ATOM     69  C   UNL     1      -2.889  -8.358   9.266  1.00  0.00     0.198 A 
ATOM     70  C   UNL     1      -5.179  -8.209   9.967  1.00  0.00     0.198 A 
ATOM     71  F   UNL     1      -6.675  -6.804   8.819  1.00  0.00    -0.203 F 
ATOM     72  F   UNL     1      -1.671  -8.905   9.387  1.00  0.00    -0.200 F 
ATOM     73  C   UNL     1      -3.912  -8.751  10.116  1.00  0.00     0.200 A 
ATOM     74  F   UNL     1      -6.166  -8.579  10.795  1.00  0.00    -0.200 F 
ATOM     75  F   UNL     1      -3.679  -9.662  11.070  1.00  0.00    -0.200 F 
ENDBRANCH  51  65
BRANCH  52  76
ATOM     76  C   UNL     1      -6.484  -0.822   0.439  1.00  0.00     0.064 A 
ATOM     77  C   UNL     1      -5.608   0.232   0.144  1.00  0.00     0.173 A 
ATOM     78  C   UNL     1      -7.623  -0.969  -0.365  1.00  0.00     0.173 A 
ATOM     79  F   UNL     1      -4.521   0.429   0.904  1.00  0.00    -0.203 F 
ATOM     80  C   UNL     1      -5.864   1.107  -0.909  1.00  0.00     0.198 A 
ATOM     81  C   UNL     1      -7.865  -0.108  -1.433  1.00  0.00     0.198 A 
ATOM     82  F   UNL     1      -8.495  -1.958  -0.119  1.00  0.00    -0.203 F 
ATOM     83  F   UNL     1      -5.030   2.130  -1.146  1.00  0.00    -0.200 F 
ATOM     84  C   UNL     1      -6.988   0.932  -1.702  1.00  0.00     0.200 A 
ATOM     85  F   UNL     1      -8.949  -0.285  -2.201  1.00  0.00    -0.200 F 
ATOM     86  F   UNL     1      -7.231   1.770  -2.718  1.00  0.00    -0.200 F 
ENDBRANCH  52  76
BRANCH  64  87
ATOM     87  C   UNL     1      -6.271   0.069   7.343  1.00  0.00     0.064 A 
ATOM     88  C   UNL     1      -7.549   0.611   7.544  1.00  0.00     0.173 A 
ATOM     89  C   UNL     1      -5.191   0.677   8.003  1.00  0.00     0.173 A 
ATOM     90  F   UNL     1      -8.614   0.075   6.928  1.00  0.00    -0.203 F 
ATOM     91  C   UNL     1      -7.733   1.738   8.343  1.00  0.00     0.198 A 
ATOM     92  C   UNL     1      -5.384   1.784   8.826  1.00  0.00     0.198 A 
ATOM     93  F   UNL     1      -3.949   0.195   7.854  1.00  0.00    -0.203 F 
ATOM     94  F   UNL     1      -8.956   2.272   8.472  1.00  0.00    -0.200 F 
ATOM     95  C   UNL     1      -6.652   2.320   8.987  1.00  0.00     0.200 A 
ATOM     96  F   UNL     1      -4.339   2.336   9.459  1.00  0.00    -0.200 F 
ATOM     97  F   UNL     1      -6.831   3.404   9.754  1.00  0.00    -0.200 F 
ENDBRANCH  64  87
ENDBRANCH  38  39
ENDBRANCH  31  33
ENDBRANCH  30  31
ENDBRANCH  29  30
ENDBRANCH  28  29
ENDBRANCH  27  28
ENDBRANCH  26  27
ENDBRANCH   1  26
TORSDOF 19
