REMARK SMILES CC(C)N(c1cc2c(cc1Cl)C=C(C(=O)OCCOCCOCCOC(=O)c1ccc(-c3c4nc(c(-c5c(F)c(F)c(F)c(F)c5F)c5ccc([nH]5)c(-c5c(F)c(F)c(F)c(F)c5F)c5nc(c(-c6c(F)c(F)c(F)c(F)c6F)c6ccc3[nH]6)C=C5)C=C4)cc1)[C@@H](C(F)(F)F)O2)C(C)C
REMARK SMILES IDX 20 1 19 2 18 3 17 4 16 5 14 6 15 7 13 8 5 9 6 10 10 11 7 12
REMARK SMILES IDX 9 13 11 14 8 15 96 16 12 17 91 18 4 19 2 20 1 21 3 22 97 23
REMARK SMILES IDX 98 24 99 25 92 26 93 27 94 28 95 29 21 30 22 31 23 32 24 33
REMARK SMILES IDX 25 34 26 35 27 36 28 37 29 38 90 39 30 40 89 41 31 42 32 43
REMARK SMILES IDX 33 44 83 45 34 46 88 47 82 48 84 49 35 50 87 51 81 52 80 53
REMARK SMILES IDX 36 55 68 56 48 57 67 58 49 59 52 60 66 61 85 62 50 63 51 64
REMARK SMILES IDX 65 66 86 67 53 68 37 69 38 70 46 71 39 72 40 73 44 74 47 75
REMARK SMILES IDX 41 76 42 77 45 78 43 79 69 80 70 81 78 82 71 83 72 84 76 85
REMARK SMILES IDX 79 86 73 87 74 88 77 89 75 90 54 91 55 92 63 93 56 94 57 95
REMARK SMILES IDX 61 96 64 97 58 98 59 99 62 100 60 101
REMARK H PARENT 84 54 52 65
REMARK Flexibility Score: inf
ROOT
ATOM      1  C   UNL     1      -4.663  -8.929   1.044  1.00  0.00     0.188 C 
ENDROOT
BRANCH   1   2
ATOM      2  O   UNL     1      -5.726  -9.835   1.258  1.00  0.00    -0.376 OA
BRANCH   2   3
ATOM      3  C   UNL     1      -7.070  -9.470   0.993  1.00  0.00     0.202 C 
BRANCH   3   4
ATOM      4  C   UNL     1      -7.627  -8.101   1.390  1.00  0.00     0.261 C 
BRANCH   4   5
ATOM      5  O   UNL     1      -6.797  -6.996   1.011  1.00  0.00    -0.460 OA
BRANCH   5   6
ATOM      6  C   UNL     1      -6.360  -6.238   2.044  1.00  0.00     0.338 C 
ATOM      7  O   UNL     1      -6.624  -6.390   3.225  1.00  0.00    -0.246 OA
BRANCH   6   8
ATOM      8  C   UNL     1      -5.370  -5.258   1.564  1.00  0.00     0.087 C 
ATOM      9  C   UNL     1      -1.617  -1.883   1.475  1.00  0.00     0.060 A 
ATOM     10  C   UNL     1      -2.706  -2.201   0.627  1.00  0.00     0.074 A 
ATOM     11  C   UNL     1      -1.364  -2.788   2.532  1.00  0.00     0.065 A 
ATOM     12  C   UNL     1      -3.556  -3.287   0.871  1.00  0.00     0.130 A 
ATOM     13  C   UNL     1      -2.191  -3.900   2.750  1.00  0.00     0.034 A 
ATOM     14  Cl  UNL     1      -0.129  -2.570   3.727  1.00  0.00    -0.082 Cl
ATOM     15  C   UNL     1      -3.308  -4.123   1.950  1.00  0.00     0.019 A 
ATOM     16  O   UNL     1      -4.619  -3.439   0.025  1.00  0.00    -0.475 OA
ATOM     17  C   UNL     1      -4.255  -5.163   2.298  1.00  0.00     0.027 C 
ATOM     18  C   UNL     1      -5.652  -4.417   0.349  1.00  0.00     0.316 C 
BRANCH   9  19
ATOM     19  N   UNL     1      -0.915  -0.677   1.256  1.00  0.00    -0.365 N 
BRANCH  19  20
ATOM     20  C   UNL     1       0.565  -0.716   1.193  1.00  0.00     0.076 C 
ATOM     21  C   UNL     1       1.110  -0.348  -0.187  1.00  0.00     0.030 C 
ATOM     22  C   UNL     1       1.248   0.126   2.271  1.00  0.00     0.030 C 
ENDBRANCH  19  20
BRANCH  19  23
ATOM     23  C   UNL     1      -1.752   0.544   1.136  1.00  0.00     0.076 C 
ATOM     24  C   UNL     1      -1.560   1.520   2.293  1.00  0.00     0.030 C 
ATOM     25  C   UNL     1      -1.616   1.240  -0.214  1.00  0.00     0.030 C 
ENDBRANCH  19  23
ENDBRANCH   9  19
BRANCH  18  26
ATOM     26  C   UNL     1      -7.005  -3.694   0.445  1.00  0.00     0.430 C 
ATOM     27  F   UNL     1      -7.226  -2.912  -0.638  1.00  0.00    -0.167 F 
ATOM     28  F   UNL     1      -8.037  -4.570   0.506  1.00  0.00    -0.167 F 
ATOM     29  F   UNL     1      -7.082  -2.905   1.540  1.00  0.00    -0.167 F 
ENDBRANCH  18  26
ENDBRANCH   6   8
ENDBRANCH   5   6
ENDBRANCH   4   5
ENDBRANCH   3   4
ENDBRANCH   2   3
ENDBRANCH   1   2
BRANCH   1  30
ATOM     30  C   UNL     1      -4.426  -8.270  -0.332  1.00  0.00     0.188 C 
BRANCH  30  31
ATOM     31  O   UNL     1      -5.208  -8.619  -1.456  1.00  0.00    -0.376 OA
BRANCH  31  32
ATOM     32  C   UNL     1      -5.274  -9.974  -1.875  1.00  0.00     0.202 C 
BRANCH  32  33
ATOM     33  C   UNL     1      -3.999 -10.800  -2.062  1.00  0.00     0.261 C 
BRANCH  33  34
ATOM     34  O   UNL     1      -3.156 -10.835  -0.902  1.00  0.00    -0.460 OA
BRANCH  34  35
ATOM     35  C   UNL     1      -1.922 -10.300  -1.067  1.00  0.00     0.338 C 
ATOM     36  O   UNL     1      -1.450  -9.816  -2.083  1.00  0.00    -0.246 OA
BRANCH  35  37
ATOM     37  C   UNL     1      -1.268 -10.198   0.250  1.00  0.00     0.060 A 
ATOM     38  C   UNL     1      -1.079 -11.328   1.046  1.00  0.00     0.016 A 
ATOM     39  C   UNL     1      -0.830  -8.938   0.681  1.00  0.00     0.016 A 
ATOM     40  C   UNL     1      -0.419 -11.198   2.269  1.00  0.00     0.010 A 
ATOM     41  C   UNL     1      -0.186  -8.807   1.911  1.00  0.00     0.010 A 
ATOM     42  C   UNL     1       0.044  -9.942   2.702  1.00  0.00    -0.014 A 
BRANCH  42  43
ATOM     43  C   UNL     1       0.917  -9.854   3.896  1.00  0.00     0.031 A 
ATOM     44  C   UNL     1       0.393  -9.435   5.233  1.00  0.00     0.074 A 
ATOM     45  C   UNL     1       2.218 -10.167   3.746  1.00  0.00     0.049 A 
ATOM     46  N   UNL     1       1.013  -9.413   6.386  1.00  0.00    -0.248 NA
ATOM     47  C   UNL     1      -1.002  -8.975   5.289  1.00  0.00     0.031 C 
ATOM     48  C   UNL     1       2.844 -10.550   2.480  1.00  0.00     0.029 A 
ATOM     49  N   UNL     1       3.240 -10.223   4.657  1.00  0.00    -0.354 N 
ATOM     50  C   UNL     1       0.082  -8.967   7.311  1.00  0.00     0.074 A 
ATOM     51  C   UNL     1      -1.135  -8.680   6.577  1.00  0.00     0.031 C 
ATOM     52  C   UNL     1       4.138 -10.826   2.698  1.00  0.00     0.029 A 
ATOM     53  C   UNL     1       4.435 -10.626   4.114  1.00  0.00     0.049 A 
ATOM     54  H   UNL     1       3.129  -9.997   5.609  1.00  0.00     0.167 HD
ATOM     55  C   UNL     1       0.229  -8.835   8.652  1.00  0.00     0.037 A 
ATOM     56  C   UNL     1       5.634 -10.823   4.692  1.00  0.00     0.037 A 
ATOM     57  C   UNL     1       1.449  -9.111   9.371  1.00  0.00     0.049 A 
ATOM     58  C   UNL     1       5.776 -10.630   6.176  1.00  0.00     0.074 A 
ATOM     59  C   UNL     1       1.675  -9.053  10.736  1.00  0.00     0.029 A 
ATOM     60  N   UNL     1       2.651  -9.481   8.785  1.00  0.00    -0.354 N 
ATOM     61  N   UNL     1       4.864 -10.300   7.056  1.00  0.00    -0.248 NA
ATOM     62  C   UNL     1       7.113 -10.847   6.747  1.00  0.00     0.031 C 
ATOM     63  C   UNL     1       3.024  -9.335  10.971  1.00  0.00     0.029 A 
ATOM     64  C   UNL     1       3.629  -9.622   9.758  1.00  0.00     0.049 A 
ATOM     65  H   UNL     1       2.789  -9.622   7.821  1.00  0.00     0.167 HD
ATOM     66  C   UNL     1       5.507 -10.288   8.286  1.00  0.00     0.074 A 
ATOM     67  C   UNL     1       6.885 -10.663   8.040  1.00  0.00     0.031 C 
ATOM     68  C   UNL     1       4.999  -9.990   9.506  1.00  0.00     0.037 A 
BRANCH  55  69
ATOM     69  C   UNL     1      -0.960  -8.392   9.453  1.00  0.00     0.064 A 
ATOM     70  C   UNL     1      -2.040  -9.257   9.687  1.00  0.00     0.173 A 
ATOM     71  C   UNL     1      -0.972  -7.141  10.088  1.00  0.00     0.173 A 
ATOM     72  F   UNL     1      -2.076 -10.464   9.103  1.00  0.00    -0.203 F 
ATOM     73  C   UNL     1      -3.090  -8.883  10.521  1.00  0.00     0.198 A 
ATOM     74  C   UNL     1      -2.012  -6.780  10.940  1.00  0.00     0.198 A 
ATOM     75  F   UNL     1       0.043  -6.282   9.908  1.00  0.00    -0.203 F 
ATOM     76  F   UNL     1      -4.118  -9.720  10.718  1.00  0.00    -0.200 F 
ATOM     77  C   UNL     1      -3.070  -7.650  11.156  1.00  0.00     0.200 A 
ATOM     78  F   UNL     1      -1.982  -5.596  11.568  1.00  0.00    -0.200 F 
ATOM     79  F   UNL     1      -4.069  -7.302  11.979  1.00  0.00    -0.200 F 
ENDBRANCH  55  69
BRANCH  56  80
ATOM     80  C   UNL     1       6.779 -11.273   3.863  1.00  0.00     0.064 A 
ATOM     81  C   UNL     1       7.286 -12.573   3.984  1.00  0.00     0.173 A 
ATOM     82  C   UNL     1       7.370 -10.424   2.915  1.00  0.00     0.173 A 
ATOM     83  F   UNL     1       6.764 -13.415   4.888  1.00  0.00    -0.203 F 
ATOM     84  C   UNL     1       8.350 -13.005   3.194  1.00  0.00     0.198 A 
ATOM     85  C   UNL     1       8.415 -10.866   2.108  1.00  0.00     0.198 A 
ATOM     86  F   UNL     1       6.914  -9.173   2.758  1.00  0.00    -0.203 F 
ATOM     87  F   UNL     1       8.838 -14.243   3.352  1.00  0.00    -0.200 F 
ATOM     88  C   UNL     1       8.907 -12.155   2.252  1.00  0.00     0.200 A 
ATOM     89  F   UNL     1       8.940 -10.047   1.187  1.00  0.00    -0.200 F 
ATOM     90  F   UNL     1       9.922 -12.575   1.485  1.00  0.00    -0.200 F 
ENDBRANCH  56  80
BRANCH  68  91
ATOM     91  C   UNL     1       5.932 -10.060  10.681  1.00  0.00     0.064 A 
ATOM     92  C   UNL     1       6.931  -9.096  10.879  1.00  0.00     0.173 A 
ATOM     93  C   UNL     1       5.786 -11.064  11.650  1.00  0.00     0.173 A 
ATOM     94  F   UNL     1       7.122  -8.125   9.973  1.00  0.00    -0.203 F 
ATOM     95  C   UNL     1       7.760  -9.143  11.998  1.00  0.00     0.198 A 
ATOM     96  C   UNL     1       6.597 -11.091  12.782  1.00  0.00     0.198 A 
ATOM     97  F   UNL     1       4.842 -12.007  11.511  1.00  0.00    -0.203 F 
ATOM     98  F   UNL     1       8.732  -8.233  12.148  1.00  0.00    -0.200 F 
ATOM     99  C   UNL     1       7.585 -10.134  12.952  1.00  0.00     0.200 A 
ATOM    100  F   UNL     1       6.418 -12.041  13.710  1.00  0.00    -0.200 F 
ATOM    101  F   UNL     1       8.374 -10.168  14.036  1.00  0.00    -0.200 F 
ENDBRANCH  68  91
ENDBRANCH  42  43
ENDBRANCH  35  37
ENDBRANCH  34  35
ENDBRANCH  33  34
ENDBRANCH  32  33
ENDBRANCH  31  32
ENDBRANCH  30  31
ENDBRANCH   1  30
TORSDOF 21
