REMARK SMILES C[C@H]1[NH2+]CC[C@H]1C(=O)N1CC(C(=O)OCCOCCOCCOC(=O)c2ccc(-c3c4nc(c(-c5c(F)c(F)c(F)c(F)c5F)c5ccc([nH]5)c(-c5c(F)c(F)c(F)c(F)c5F)c5nc(c(-c6c(F)c(F)c(F)c(F)c6F)c6ccc3[nH]6)C=C5)C=C4)cc2)C1
REMARK SMILES IDX 19 1 18 2 17 3 16 4 15 5 14 6 12 7 13 8 11 9 7 10 8 11 9 12
REMARK SMILES IDX 10 13 89 14 6 15 1 16 2 17 3 18 4 19 5 22 20 23 21 24 22 25
REMARK SMILES IDX 23 26 24 27 25 28 26 29 27 30 88 31 28 32 87 33 29 34 30 35
REMARK SMILES IDX 31 36 81 37 32 38 86 39 80 40 82 41 33 42 85 43 79 44 78 45
REMARK SMILES IDX 34 47 66 48 46 49 65 50 47 51 50 52 64 53 83 54 48 55 49 56
REMARK SMILES IDX 63 58 84 59 51 60 35 61 36 62 44 63 37 64 38 65 42 66 45 67
REMARK SMILES IDX 39 68 40 69 43 70 41 71 67 72 68 73 76 74 69 75 70 76 74 77
REMARK SMILES IDX 77 78 71 79 72 80 75 81 73 82 52 83 53 84 61 85 54 86 55 87
REMARK SMILES IDX 59 88 62 89 56 90 57 91 60 92 58 93
REMARK H PARENT 3 20 3 21 82 46 50 57
REMARK Flexibility Score: inf
ROOT
ATOM      1  C   UNL     1       4.800   1.516   3.937  1.00  0.00     0.188 C 
ENDROOT
BRANCH   1   2
ATOM      2  C   UNL     1       5.381   2.863   4.407  1.00  0.00     0.188 C 
BRANCH   2   3
ATOM      3  O   UNL     1       5.505   3.125   5.799  1.00  0.00    -0.376 OA
BRANCH   3   4
ATOM      4  C   UNL     1       4.403   2.847   6.659  1.00  0.00     0.202 C 
BRANCH   4   5
ATOM      5  C   UNL     1       3.013   3.401   6.299  1.00  0.00     0.261 C 
BRANCH   5   6
ATOM      6  O   UNL     1       2.597   3.117   4.949  1.00  0.00    -0.463 OA
BRANCH   6   7
ATOM      7  C   UNL     1       2.138   4.166   4.199  1.00  0.00     0.312 C 
ATOM      8  O   UNL     1       1.962   5.293   4.660  1.00  0.00    -0.252 OA
BRANCH   7   9
ATOM      9  C   UNL     1       1.939   3.814   2.714  1.00  0.00     0.138 C 
ATOM     10  C   UNL     1       0.672   2.462   0.106  1.00  0.00     0.231 C 
ATOM     11  O   UNL     1       1.244   3.216  -0.678  1.00  0.00    -0.274 OA
ATOM     12  N   UNL     1       0.691   2.663   1.473  1.00  0.00    -0.340 N 
ATOM     13  C   UNL     1       0.540   3.974   2.128  1.00  0.00     0.136 C 
ATOM     14  C   UNL     1       1.885   2.361   2.263  1.00  0.00     0.136 C 
BRANCH  10  15
ATOM     15  C   UNL     1      -0.070   1.214  -0.358  1.00  0.00     0.142 C 
ATOM     16  C   UNL     1       1.807  -0.389   0.502  1.00  0.00     0.076 C 
ATOM     17  C   UNL     1       0.739  -0.071  -0.539  1.00  0.00     0.192 C 
ATOM     18  N   UNL     1      -0.278  -1.142  -0.542  1.00  0.00    -0.343 N 
ATOM     19  C   UNL     1      -1.483  -0.655   0.129  1.00  0.00     0.261 C 
ATOM     20  H   UNL     1       0.083  -1.958  -0.048  1.00  0.00     0.346 HD
ATOM     21  H   UNL     1      -0.500  -1.403  -1.503  1.00  0.00     0.346 HD
ATOM     22  C   UNL     1      -1.227   0.784   0.531  1.00  0.00     0.081 C 
ENDBRANCH  10  15
ENDBRANCH   7   9
ENDBRANCH   6   7
ENDBRANCH   5   6
ENDBRANCH   4   5
ENDBRANCH   3   4
ENDBRANCH   2   3
ENDBRANCH   1   2
BRANCH   1  23
ATOM     23  O   UNL     1       4.306   0.694   4.963  1.00  0.00    -0.376 OA
BRANCH  23  24
ATOM     24  C   UNL     1       5.020  -0.478   5.313  1.00  0.00     0.202 C 
BRANCH  24  25
ATOM     25  C   UNL     1       6.560  -0.554   5.327  1.00  0.00     0.261 C 
BRANCH  25  26
ATOM     26  O   UNL     1       7.290   0.380   4.523  1.00  0.00    -0.460 OA
BRANCH  26  27
ATOM     27  C   UNL     1       7.561   0.010   3.247  1.00  0.00     0.338 C 
ATOM     28  O   UNL     1       7.212  -1.007   2.683  1.00  0.00    -0.246 OA
BRANCH  27  29
ATOM     29  C   UNL     1       8.195   1.166   2.575  1.00  0.00     0.060 A 
ATOM     30  C   UNL     1       7.516   1.813   1.531  1.00  0.00     0.016 A 
ATOM     31  C   UNL     1       9.457   1.602   2.976  1.00  0.00     0.016 A 
ATOM     32  C   UNL     1       8.108   2.894   0.874  1.00  0.00     0.010 A 
ATOM     33  C   UNL     1      10.059   2.665   2.300  1.00  0.00     0.010 A 
ATOM     34  C   UNL     1       9.401   3.299   1.230  1.00  0.00    -0.014 A 
BRANCH  34  35
ATOM     35  C   UNL     1      10.170   4.231   0.370  1.00  0.00     0.031 A 
ATOM     36  C   UNL     1      11.139   3.638  -0.614  1.00  0.00     0.074 A 
ATOM     37  C   UNL     1      10.046   5.565   0.478  1.00  0.00     0.049 A 
ATOM     38  N   UNL     1      12.056   4.222  -1.340  1.00  0.00    -0.248 NA
ATOM     39  C   UNL     1      11.065   2.178  -0.796  1.00  0.00     0.031 C 
ATOM     40  C   UNL     1       9.098   6.263   1.343  1.00  0.00     0.029 A 
ATOM     41  N   UNL     1      10.749   6.574  -0.135  1.00  0.00    -0.354 N 
ATOM     42  C   UNL     1      12.672   3.204  -2.055  1.00  0.00     0.074 A 
ATOM     43  C   UNL     1      12.049   1.962  -1.655  1.00  0.00     0.031 C 
ATOM     44  C   UNL     1       9.297   7.589   1.225  1.00  0.00     0.029 A 
ATOM     45  C   UNL     1      10.417   7.828   0.316  1.00  0.00     0.049 A 
ATOM     46  H   UNL     1      11.427   6.412  -0.831  1.00  0.00     0.167 HD
ATOM     47  C   UNL     1      13.665   3.298  -2.970  1.00  0.00     0.037 A 
ATOM     48  C   UNL     1      10.984   9.023   0.051  1.00  0.00     0.037 A 
ATOM     49  C   UNL     1      14.293   4.533  -3.355  1.00  0.00     0.049 A 
ATOM     50  C   UNL     1      12.170   9.087  -0.884  1.00  0.00     0.074 A 
ATOM     51  C   UNL     1      15.328   4.734  -4.251  1.00  0.00     0.029 A 
ATOM     52  N   UNL     1      13.941   5.780  -2.862  1.00  0.00    -0.354 N 
ATOM     53  N   UNL     1      12.757   8.123  -1.552  1.00  0.00    -0.248 NA
ATOM     54  C   UNL     1      12.777  10.410  -1.098  1.00  0.00     0.031 C 
ATOM     55  C   UNL     1      15.632   6.098  -4.266  1.00  0.00     0.029 A 
ATOM     56  C   UNL     1      14.746   6.754  -3.427  1.00  0.00     0.049 A 
ATOM     57  H   UNL     1      13.225   5.949  -2.207  1.00  0.00     0.167 HD
ATOM     58  C   UNL     1      13.760   8.729  -2.300  1.00  0.00     0.074 A 
ATOM     59  C   UNL     1      13.704  10.144  -2.006  1.00  0.00     0.031 C 
ATOM     60  C   UNL     1      14.647   8.165  -3.157  1.00  0.00     0.037 A 
BRANCH  47  61
ATOM     61  C   UNL     1      14.146   2.026  -3.604  1.00  0.00     0.064 A 
ATOM     62  C   UNL     1      13.354   1.318  -4.520  1.00  0.00     0.173 A 
ATOM     63  C   UNL     1      15.428   1.530  -3.324  1.00  0.00     0.173 A 
ATOM     64  F   UNL     1      12.114   1.741  -4.808  1.00  0.00    -0.203 F 
ATOM     65  C   UNL     1      13.819   0.150  -5.116  1.00  0.00     0.198 A 
ATOM     66  C   UNL     1      15.903   0.379  -3.946  1.00  0.00     0.198 A 
ATOM     67  F   UNL     1      16.227   2.170  -2.456  1.00  0.00    -0.203 F 
ATOM     68  F   UNL     1      13.027  -0.535  -5.953  1.00  0.00    -0.200 F 
ATOM     69  C   UNL     1      15.096  -0.314  -4.836  1.00  0.00     0.200 A 
ATOM     70  F   UNL     1      17.142  -0.060  -3.685  1.00  0.00    -0.200 F 
ATOM     71  F   UNL     1      15.547  -1.432  -5.420  1.00  0.00    -0.200 F 
ENDBRANCH  47  61
BRANCH  48  72
ATOM     72  C   UNL     1      10.473  10.265   0.694  1.00  0.00     0.064 A 
ATOM     73  C   UNL     1       9.911  11.295  -0.075  1.00  0.00     0.173 A 
ATOM     74  C   UNL     1      10.601  10.483   2.074  1.00  0.00     0.173 A 
ATOM     75  F   UNL     1       9.793  11.149  -1.404  1.00  0.00    -0.203 F 
ATOM     76  C   UNL     1       9.531  12.504   0.504  1.00  0.00     0.198 A 
ATOM     77  C   UNL     1      10.189  11.680   2.657  1.00  0.00     0.198 A 
ATOM     78  F   UNL     1      11.139   9.536   2.857  1.00  0.00    -0.203 F 
ATOM     79  F   UNL     1       9.067  13.497  -0.268  1.00  0.00    -0.200 F 
ATOM     80  C   UNL     1       9.668  12.695   1.870  1.00  0.00     0.200 A 
ATOM     81  F   UNL     1      10.316  11.856   3.979  1.00  0.00    -0.200 F 
ATOM     82  F   UNL     1       9.316  13.863   2.425  1.00  0.00    -0.200 F 
ENDBRANCH  48  72
BRANCH  60  83
ATOM     83  C   UNL     1      15.573   9.077  -3.909  1.00  0.00     0.064 A 
ATOM     84  C   UNL     1      16.642   9.734  -3.283  1.00  0.00     0.173 A 
ATOM     85  C   UNL     1      15.425   9.239  -5.296  1.00  0.00     0.173 A 
ATOM     86  F   UNL     1      16.821   9.623  -1.959  1.00  0.00    -0.203 F 
ATOM     87  C   UNL     1      17.516  10.535  -4.015  1.00  0.00     0.198 A 
ATOM     88  C   UNL     1      16.320  10.013  -6.029  1.00  0.00     0.198 A 
ATOM     89  F   UNL     1      14.425   8.624  -5.945  1.00  0.00    -0.203 F 
ATOM     90  F   UNL     1      18.506  11.187  -3.390  1.00  0.00    -0.200 F 
ATOM     91  C   UNL     1      17.360  10.665  -5.388  1.00  0.00     0.200 A 
ATOM     92  F   UNL     1      16.177  10.121  -7.357  1.00  0.00    -0.200 F 
ATOM     93  F   UNL     1      18.213  11.422  -6.092  1.00  0.00    -0.200 F 
ENDBRANCH  60  83
ENDBRANCH  34  35
ENDBRANCH  27  29
ENDBRANCH  26  27
ENDBRANCH  25  26
ENDBRANCH  24  25
ENDBRANCH  23  24
ENDBRANCH   1  23
TORSDOF 18
