REMARK SMILES NS(=O)(=O)c1ccc(/N=N/c2ccc(O)c(C(=O)OCCOCCOCCOC(=O)c3ccc(-c4c5nc(c(-c6c(F)c(F)c(F)c(F)c6F)c6ccc([nH]6)c(-c6c(F)c(F)c(F)c(F)c6F)c6nc(c(-c7c(F)c(F)c(F)c(F)c7F)c7ccc4[nH]7)C=C6)C=C5)cc3)c2)cc1
REMARK SMILES IDX 23 1 22 2 21 3 20 4 19 5 17 6 18 7 16 8 11 9 12 10 94 11
REMARK SMILES IDX 13 12 14 13 10 14 9 15 8 16 5 17 6 18 96 19 7 20 95 21 2 22
REMARK SMILES IDX 3 23 4 24 1 25 15 28 24 30 25 31 26 32 27 33 28 34 29 35
REMARK SMILES IDX 30 36 31 37 32 38 93 39 33 40 92 41 34 42 35 43 36 44 86 45
REMARK SMILES IDX 37 46 91 47 85 48 87 49 38 50 90 51 84 52 83 53 39 55 71 56
REMARK SMILES IDX 51 57 70 58 52 59 55 60 69 61 88 62 53 63 54 64 68 66 89 67
REMARK SMILES IDX 56 68 40 69 41 70 49 71 42 72 43 73 47 74 50 75 44 76 45 77
REMARK SMILES IDX 48 78 46 79 72 80 73 81 81 82 74 83 75 84 79 85 82 86 76 87
REMARK SMILES IDX 77 88 80 89 78 90 57 91 58 92 66 93 59 94 60 95 64 96 67 97
REMARK SMILES IDX 61 98 62 99 65 100 63 101
REMARK H PARENT 1 26 1 27 15 29 87 54 55 65
REMARK Flexibility Score: inf
ROOT
ATOM      1  C   UNL     1       0.794   7.838 -10.875  1.00  0.00     0.188 C 
ENDROOT
BRANCH   1   2
ATOM      2  O   UNL     1       1.079   7.327 -12.164  1.00  0.00    -0.376 OA
BRANCH   2   3
ATOM      3  C   UNL     1       1.564   6.004 -12.329  1.00  0.00     0.202 C 
BRANCH   3   4
ATOM      4  C   UNL     1       2.631   5.385 -11.408  1.00  0.00     0.261 C 
BRANCH   4   5
ATOM      5  O   UNL     1       2.476   5.616 -10.002  1.00  0.00    -0.460 OA
BRANCH   5   6
ATOM      6  C   UNL     1       3.342   6.501  -9.452  1.00  0.00     0.342 C 
ATOM      7  O   UNL     1       4.225   7.122 -10.025  1.00  0.00    -0.246 OA
BRANCH   6   8
ATOM      8  C   UNL     1       2.914   6.853  -8.084  1.00  0.00     0.104 A 
ATOM      9  C   UNL     1       1.950   6.239  -5.940  1.00  0.00     0.087 A 
ATOM     10  C   UNL     1       1.961   7.589  -5.565  1.00  0.00     0.034 A 
ATOM     11  C   UNL     1       2.412   5.881  -7.216  1.00  0.00     0.049 A 
ATOM     12  C   UNL     1       2.445   8.567  -6.437  1.00  0.00     0.049 A 
ATOM     13  C   UNL     1       2.930   8.197  -7.688  1.00  0.00     0.130 A 
BRANCH   9  14
ATOM     14  N   UNL     1       1.425   5.274  -5.059  1.00  0.00    -0.151 NA
ATOM     15  N   UNL     1       2.263   4.364  -4.886  1.00  0.00    -0.151 NA
BRANCH  15  16
ATOM     16  C   UNL     1       1.766   3.271  -4.153  1.00  0.00     0.086 A 
ATOM     17  C   UNL     1       0.976   1.000  -2.710  1.00  0.00     0.082 A 
ATOM     18  C   UNL     1       1.950   0.882  -3.702  1.00  0.00     0.024 A 
ATOM     19  C   UNL     1       0.373   2.233  -2.446  1.00  0.00     0.024 A 
ATOM     20  C   UNL     1       2.340   2.018  -4.412  1.00  0.00     0.031 A 
ATOM     21  C   UNL     1       0.775   3.364  -3.163  1.00  0.00     0.031 A 
BRANCH  17  22
ATOM     22  S   UNL     1       0.496  -0.422  -1.776  1.00  0.00     0.238 S 
ATOM     23  O   UNL     1       1.196  -1.584  -2.280  1.00  0.00    -0.207 OA
ATOM     24  O   UNL     1      -0.932  -0.397  -1.584  1.00  0.00    -0.207 OA
BRANCH  22  25
ATOM     25  N   UNL     1       1.185  -0.098  -0.280  1.00  0.00    -0.225 NA
ATOM     26  H   UNL     1       0.975  -0.862   0.364  1.00  0.00     0.137 HD
ATOM     27  H   UNL     1       0.802   0.772   0.090  1.00  0.00     0.137 HD
ENDBRANCH  22  25
ENDBRANCH  17  22
ENDBRANCH  15  16
ENDBRANCH   9  14
BRANCH  13  28
ATOM     28  O   UNL     1       3.358   9.212  -8.502  1.00  0.00    -0.507 OA
ATOM     29  H   UNL     1       3.350  10.096  -8.193  1.00  0.00     0.293 HD
ENDBRANCH  13  28
ENDBRANCH   6   8
ENDBRANCH   5   6
ENDBRANCH   4   5
ENDBRANCH   3   4
ENDBRANCH   2   3
ENDBRANCH   1   2
BRANCH   1  30
ATOM     30  C   UNL     1      -0.139   7.072  -9.915  1.00  0.00     0.188 C 
BRANCH  30  31
ATOM     31  O   UNL     1      -0.541   5.793 -10.333  1.00  0.00    -0.376 OA
BRANCH  31  32
ATOM     32  C   UNL     1      -1.673   5.645 -11.174  1.00  0.00     0.202 C 
BRANCH  32  33
ATOM     33  C   UNL     1      -2.472   6.788 -11.840  1.00  0.00     0.261 C 
BRANCH  33  34
ATOM     34  O   UNL     1      -2.010   8.134 -11.696  1.00  0.00    -0.460 OA
BRANCH  34  35
ATOM     35  C   UNL     1      -2.676   8.901 -10.798  1.00  0.00     0.338 C 
ATOM     36  O   UNL     1      -3.595   8.563 -10.073  1.00  0.00    -0.246 OA
BRANCH  35  37
ATOM     37  C   UNL     1      -2.000  10.209 -10.695  1.00  0.00     0.060 A 
ATOM     38  C   UNL     1      -1.301  10.521  -9.521  1.00  0.00     0.016 A 
ATOM     39  C   UNL     1      -2.088  11.135 -11.735  1.00  0.00     0.016 A 
ATOM     40  C   UNL     1      -0.703  11.774  -9.374  1.00  0.00     0.010 A 
ATOM     41  C   UNL     1      -1.508  12.397 -11.577  1.00  0.00     0.010 A 
ATOM     42  C   UNL     1      -0.839  12.734 -10.385  1.00  0.00    -0.014 A 
BRANCH  42  43
ATOM     43  C   UNL     1      -0.438  14.142 -10.131  1.00  0.00     0.031 A 
ATOM     44  C   UNL     1      -1.507  15.142  -9.784  1.00  0.00     0.074 A 
ATOM     45  C   UNL     1       0.847  14.529 -10.199  1.00  0.00     0.049 A 
ATOM     46  N   UNL     1      -1.413  16.434  -9.597  1.00  0.00    -0.248 NA
ATOM     47  C   UNL     1      -2.870  14.610  -9.632  1.00  0.00     0.031 C 
ATOM     48  C   UNL     1       1.981  13.652 -10.477  1.00  0.00     0.029 A 
ATOM     49  N   UNL     1       1.411  15.773 -10.050  1.00  0.00    -0.354 N 
ATOM     50  C   UNL     1      -2.702  16.869  -9.317  1.00  0.00     0.074 A 
ATOM     51  C   UNL     1      -3.566  15.710  -9.392  1.00  0.00     0.031 C 
ATOM     52  C   UNL     1       3.106  14.388 -10.497  1.00  0.00     0.029 A 
ATOM     53  C   UNL     1       2.766  15.793 -10.270  1.00  0.00     0.049 A 
ATOM     54  H   UNL     1       0.892  16.575  -9.809  1.00  0.00     0.167 HD
ATOM     55  C   UNL     1      -3.126  18.120  -9.017  1.00  0.00     0.037 A 
ATOM     56  C   UNL     1       3.626  16.830 -10.310  1.00  0.00     0.037 A 
ATOM     57  C   UNL     1      -2.265  19.271  -8.946  1.00  0.00     0.049 A 
ATOM     58  C   UNL     1       3.115  18.228 -10.057  1.00  0.00     0.074 A 
ATOM     59  C   UNL     1      -2.597  20.578  -8.632  1.00  0.00     0.029 A 
ATOM     60  N   UNL     1      -0.903  19.257  -9.206  1.00  0.00    -0.354 N 
ATOM     61  N   UNL     1       1.901  18.630  -9.767  1.00  0.00    -0.248 NA
ATOM     62  C   UNL     1       4.100  19.317 -10.134  1.00  0.00     0.031 C 
ATOM     63  C   UNL     1      -1.449  21.365  -8.768  1.00  0.00     0.029 A 
ATOM     64  C   UNL     1      -0.386  20.538  -9.092  1.00  0.00     0.049 A 
ATOM     65  H   UNL     1      -0.380  18.455  -9.438  1.00  0.00     0.167 HD
ATOM     66  C   UNL     1       1.983  20.006  -9.591  1.00  0.00     0.074 A 
ATOM     67  C   UNL     1       3.369  20.370  -9.794  1.00  0.00     0.031 C 
ATOM     68  C   UNL     1       0.999  20.889  -9.285  1.00  0.00     0.037 A 
BRANCH  55  69
ATOM     69  C   UNL     1      -4.596  18.315  -8.775  1.00  0.00     0.064 A 
ATOM     70  C   UNL     1      -5.237  17.792  -7.641  1.00  0.00     0.173 A 
ATOM     71  C   UNL     1      -5.369  19.064  -9.676  1.00  0.00     0.173 A 
ATOM     72  F   UNL     1      -4.549  17.058  -6.754  1.00  0.00    -0.203 F 
ATOM     73  C   UNL     1      -6.601  17.985  -7.436  1.00  0.00     0.198 A 
ATOM     74  C   UNL     1      -6.724  19.285  -9.449  1.00  0.00     0.198 A 
ATOM     75  F   UNL     1      -4.806  19.592 -10.774  1.00  0.00    -0.203 F 
ATOM     76  F   UNL     1      -7.203  17.430  -6.375  1.00  0.00    -0.200 F 
ATOM     77  C   UNL     1      -7.342  18.738  -8.335  1.00  0.00     0.200 A 
ATOM     78  F   UNL     1      -7.434  20.027 -10.311  1.00  0.00    -0.200 F 
ATOM     79  F   UNL     1      -8.652  18.931  -8.132  1.00  0.00    -0.200 F 
ENDBRANCH  55  69
BRANCH  56  80
ATOM     80  C   UNL     1       5.064  16.596 -10.617  1.00  0.00     0.064 A 
ATOM     81  C   UNL     1       6.058  16.837  -9.658  1.00  0.00     0.173 A 
ATOM     82  C   UNL     1       5.476  16.161 -11.885  1.00  0.00     0.173 A 
ATOM     83  F   UNL     1       5.718  17.284  -8.439  1.00  0.00    -0.203 F 
ATOM     84  C   UNL     1       7.408  16.675  -9.963  1.00  0.00     0.198 A 
ATOM     85  C   UNL     1       6.824  15.967 -12.178  1.00  0.00     0.198 A 
ATOM     86  F   UNL     1       4.568  15.923 -12.843  1.00  0.00    -0.203 F 
ATOM     87  F   UNL     1       8.339  16.971  -9.045  1.00  0.00    -0.200 F 
ATOM     88  C   UNL     1       7.790  16.234 -11.220  1.00  0.00     0.200 A 
ATOM     89  F   UNL     1       7.188  15.530 -13.392  1.00  0.00    -0.200 F 
ATOM     90  F   UNL     1       9.088  16.079 -11.513  1.00  0.00    -0.200 F 
ENDBRANCH  56  80
BRANCH  68  91
ATOM     91  C   UNL     1       1.388  22.330  -9.097  1.00  0.00     0.064 A 
ATOM     92  C   UNL     1       1.800  23.135 -10.169  1.00  0.00     0.173 A 
ATOM     93  C   UNL     1       1.304  22.925  -7.828  1.00  0.00     0.173 A 
ATOM     94  F   UNL     1       1.910  22.616 -11.401  1.00  0.00    -0.203 F 
ATOM     95  C   UNL     1       2.142  24.471  -9.973  1.00  0.00     0.198 A 
ATOM     96  C   UNL     1       1.610  24.270  -7.642  1.00  0.00     0.198 A 
ATOM     97  F   UNL     1       0.906  22.206  -6.768  1.00  0.00    -0.203 F 
ATOM     98  F   UNL     1       2.586  25.206 -11.002  1.00  0.00    -0.200 F 
ATOM     99  C   UNL     1       2.039  25.040  -8.712  1.00  0.00     0.200 A 
ATOM    100  F   UNL     1       1.490  24.822  -6.426  1.00  0.00    -0.200 F 
ATOM    101  F   UNL     1       2.358  26.328  -8.527  1.00  0.00    -0.200 F 
ENDBRANCH  68  91
ENDBRANCH  42  43
ENDBRANCH  35  37
ENDBRANCH  34  35
ENDBRANCH  33  34
ENDBRANCH  32  33
ENDBRANCH  31  32
ENDBRANCH  30  31
ENDBRANCH   1  30
TORSDOF 22
