REMARK SMILES CN(C1CC1)S(=O)(=O)CC(=O)OCCOCCOCCOC(=O)c1ccc(-c2c3nc(c(-c4c(F)c(F)c(F)c(F)c4F)c4ccc([nH]4)c(-c4c(F)c(F)c(F)c(F)c4F)c4nc(c(-c5c(F)c(F)c(F)c(F)c5F)c5ccc2[nH]5)C=C4)C=C3)cc1
REMARK SMILES IDX 16 1 15 2 14 3 13 4 12 5 10 6 11 7 9 8 6 9 7 10 8 11 2 12
REMARK SMILES IDX 1 13 3 14 4 15 5 16 17 17 18 18 19 19 20 20 21 21 22 22
REMARK SMILES IDX 23 23 24 24 25 25 86 26 26 27 85 28 27 29 28 30 29 31 79 32
REMARK SMILES IDX 30 33 84 34 78 35 80 36 31 37 83 38 77 39 76 40 32 42 64 43
REMARK SMILES IDX 44 44 63 45 45 46 48 47 62 48 81 49 46 50 47 51 61 53 82 54
REMARK SMILES IDX 49 55 33 56 34 57 42 58 35 59 36 60 40 61 43 62 37 63 38 64
REMARK SMILES IDX 41 65 39 66 65 67 66 68 74 69 67 70 68 71 72 72 75 73 69 74
REMARK SMILES IDX 70 75 73 76 71 77 50 78 51 79 59 80 52 81 53 82 57 83 60 84
REMARK SMILES IDX 54 85 55 86 58 87 56 88
REMARK H PARENT 80 41 48 52
REMARK Flexibility Score: inf
ROOT
ATOM      1  C   UNL     1       0.750  -1.587  -4.736  1.00  0.00     0.188 C 
ENDROOT
BRANCH   1   2
ATOM      2  O   UNL     1       1.664  -2.080  -5.691  1.00  0.00    -0.376 OA
BRANCH   2   3
ATOM      3  C   UNL     1       2.865  -1.351  -5.914  1.00  0.00     0.202 C 
BRANCH   3   4
ATOM      4  C   UNL     1       2.821   0.182  -6.004  1.00  0.00     0.261 C 
BRANCH   4   5
ATOM      5  O   UNL     1       2.439   0.862  -4.778  1.00  0.00    -0.462 OA
BRANCH   5   6
ATOM      6  C   UNL     1       1.480   1.807  -4.888  1.00  0.00     0.322 C 
ATOM      7  O   UNL     1       0.919   2.050  -5.960  1.00  0.00    -0.251 OA
BRANCH   6   8
ATOM      8  C   UNL     1       1.043   2.570  -3.685  1.00  0.00     0.276 C 
BRANCH   8   9
ATOM      9  S   UNL     1       1.776   2.348  -2.097  1.00  0.00     0.224 S 
ATOM     10  O   UNL     1       1.513   3.556  -1.339  1.00  0.00    -0.212 OA
ATOM     11  O   UNL     1       3.143   1.890  -2.245  1.00  0.00    -0.212 OA
BRANCH   9  12
ATOM     12  N   UNL     1       0.851   1.113  -1.329  1.00  0.00    -0.201 NA
ATOM     13  C   UNL     1       1.533   0.548  -0.127  1.00  0.00     0.124 C 
BRANCH  12  14
ATOM     14  C   UNL     1      -0.560   1.458  -1.003  1.00  0.00     0.072 C 
ATOM     15  C   UNL     1      -1.696   1.121  -1.931  1.00  0.00     0.022 C 
ATOM     16  C   UNL     1      -1.532   0.355  -0.654  1.00  0.00     0.022 C 
ENDBRANCH  12  14
ENDBRANCH   9  12
ENDBRANCH   8   9
ENDBRANCH   6   8
ENDBRANCH   5   6
ENDBRANCH   4   5
ENDBRANCH   3   4
ENDBRANCH   2   3
ENDBRANCH   1   2
BRANCH   1  17
ATOM     17  C   UNL     1       1.250  -1.287  -3.315  1.00  0.00     0.188 C 
BRANCH  17  18
ATOM     18  O   UNL     1       2.583  -1.520  -2.940  1.00  0.00    -0.376 OA
BRANCH  18  19
ATOM     19  C   UNL     1       3.050  -2.852  -2.832  1.00  0.00     0.202 C 
BRANCH  19  20
ATOM     20  C   UNL     1       2.152  -4.019  -2.390  1.00  0.00     0.261 C 
BRANCH  20  21
ATOM     21  O   UNL     1       0.766  -3.942  -2.761  1.00  0.00    -0.460 OA
BRANCH  21  22
ATOM     22  C   UNL     1      -0.099  -4.019  -1.720  1.00  0.00     0.338 C 
ATOM     23  O   UNL     1       0.174  -4.164  -0.539  1.00  0.00    -0.246 OA
BRANCH  22  24
ATOM     24  C   UNL     1      -1.495  -3.828  -2.151  1.00  0.00     0.060 A 
ATOM     25  C   UNL     1      -1.948  -2.551  -2.476  1.00  0.00     0.016 A 
ATOM     26  C   UNL     1      -2.415  -4.855  -1.962  1.00  0.00     0.016 A 
ATOM     27  C   UNL     1      -3.303  -2.262  -2.507  1.00  0.00     0.010 A 
ATOM     28  C   UNL     1      -3.784  -4.586  -2.085  1.00  0.00     0.010 A 
ATOM     29  C   UNL     1      -4.241  -3.275  -2.314  1.00  0.00    -0.014 A 
BRANCH  29  30
ATOM     30  C   UNL     1      -5.682  -2.927  -2.239  1.00  0.00     0.031 A 
ATOM     31  C   UNL     1      -6.448  -3.236  -0.985  1.00  0.00     0.074 A 
ATOM     32  C   UNL     1      -6.291  -2.281  -3.253  1.00  0.00     0.049 A 
ATOM     33  N   UNL     1      -7.739  -3.264  -0.785  1.00  0.00    -0.248 NA
ATOM     34  C   UNL     1      -5.648  -3.568   0.206  1.00  0.00     0.031 C 
ATOM     35  C   UNL     1      -5.636  -1.804  -4.473  1.00  0.00     0.029 A 
ATOM     36  N   UNL     1      -7.602  -1.910  -3.416  1.00  0.00    -0.354 N 
ATOM     37  C   UNL     1      -7.909  -3.689   0.527  1.00  0.00     0.074 A 
ATOM     38  C   UNL     1      -6.588  -3.895   1.081  1.00  0.00     0.031 C 
ATOM     39  C   UNL     1      -6.540  -1.185  -5.246  1.00  0.00     0.029 A 
ATOM     40  C   UNL     1      -7.856  -1.336  -4.638  1.00  0.00     0.049 A 
ATOM     41  H   UNL     1      -8.292  -2.041  -2.726  1.00  0.00     0.167 HD
ATOM     42  C   UNL     1      -9.069  -3.899   1.193  1.00  0.00     0.037 A 
ATOM     43  C   UNL     1      -9.024  -1.042  -5.239  1.00  0.00     0.037 A 
ATOM     44  C   UNL     1     -10.369  -3.637   0.630  1.00  0.00     0.049 A 
ATOM     45  C   UNL     1     -10.303  -1.363  -4.518  1.00  0.00     0.074 A 
ATOM     46  C   UNL     1     -11.615  -3.830   1.200  1.00  0.00     0.029 A 
ATOM     47  N   UNL     1     -10.586  -3.108  -0.636  1.00  0.00    -0.354 N 
ATOM     48  N   UNL     1     -10.472  -1.872  -3.322  1.00  0.00    -0.248 NA
ATOM     49  C   UNL     1     -11.552  -1.093  -5.240  1.00  0.00     0.031 C 
ATOM     50  C   UNL     1     -12.585  -3.466   0.260  1.00  0.00     0.029 A 
ATOM     51  C   UNL     1     -11.946  -2.984  -0.871  1.00  0.00     0.049 A 
ATOM     52  H   UNL     1      -9.878  -2.858  -1.272  1.00  0.00     0.167 HD
ATOM     53  C   UNL     1     -11.844  -1.968  -3.139  1.00  0.00     0.074 A 
ATOM     54  C   UNL     1     -12.460  -1.444  -4.341  1.00  0.00     0.031 C 
ATOM     55  C   UNL     1     -12.533  -2.451  -2.075  1.00  0.00     0.037 A 
BRANCH  42  56
ATOM     56  C   UNL     1      -8.986  -4.500   2.568  1.00  0.00     0.064 A 
ATOM     57  C   UNL     1      -8.475  -3.797   3.669  1.00  0.00     0.173 A 
ATOM     58  C   UNL     1      -9.442  -5.810   2.786  1.00  0.00     0.173 A 
ATOM     59  F   UNL     1      -8.009  -2.548   3.515  1.00  0.00    -0.203 F 
ATOM     60  C   UNL     1      -8.394  -4.393   4.926  1.00  0.00     0.198 A 
ATOM     61  C   UNL     1      -9.392  -6.391   4.051  1.00  0.00     0.198 A 
ATOM     62  F   UNL     1      -9.943  -6.530   1.771  1.00  0.00    -0.203 F 
ATOM     63  F   UNL     1      -7.847  -3.722   5.950  1.00  0.00    -0.200 F 
ATOM     64  C   UNL     1      -8.858  -5.686   5.118  1.00  0.00     0.200 A 
ATOM     65  F   UNL     1      -9.855  -7.635   4.234  1.00  0.00    -0.200 F 
ATOM     66  F   UNL     1      -8.783  -6.255   6.328  1.00  0.00    -0.200 F 
ENDBRANCH  42  56
BRANCH  43  67
ATOM     67  C   UNL     1      -9.029  -0.497  -6.624  1.00  0.00     0.064 A 
ATOM     68  C   UNL     1      -9.505   0.792  -6.896  1.00  0.00     0.173 A 
ATOM     69  C   UNL     1      -8.550  -1.253  -7.707  1.00  0.00     0.173 A 
ATOM     70  F   UNL     1      -9.998   1.547  -5.903  1.00  0.00    -0.203 F 
ATOM     71  C   UNL     1      -9.511   1.300  -8.195  1.00  0.00     0.198 A 
ATOM     72  C   UNL     1      -8.519  -0.731  -8.997  1.00  0.00     0.198 A 
ATOM     73  F   UNL     1      -8.085  -2.495  -7.506  1.00  0.00    -0.203 F 
ATOM     74  F   UNL     1     -10.014   2.518  -8.433  1.00  0.00    -0.200 F 
ATOM     75  C   UNL     1      -9.008   0.542  -9.242  1.00  0.00     0.200 A 
ATOM     76  F   UNL     1      -8.012  -1.460 -10.000  1.00  0.00    -0.200 F 
ATOM     77  F   UNL     1      -8.999   1.036 -10.487  1.00  0.00    -0.200 F 
ENDBRANCH  43  67
BRANCH  55  78
ATOM     78  C   UNL     1     -14.031  -2.385  -2.148  1.00  0.00     0.064 A 
ATOM     79  C   UNL     1     -14.768  -3.215  -3.005  1.00  0.00     0.173 A 
ATOM     80  C   UNL     1     -14.738  -1.494  -1.326  1.00  0.00     0.173 A 
ATOM     81  F   UNL     1     -14.137  -4.071  -3.823  1.00  0.00    -0.203 F 
ATOM     82  C   UNL     1     -16.157  -3.134  -3.058  1.00  0.00     0.198 A 
ATOM     83  C   UNL     1     -16.128  -1.441  -1.356  1.00  0.00     0.198 A 
ATOM     84  F   UNL     1     -14.080  -0.682  -0.485  1.00  0.00    -0.203 F 
ATOM     85  F   UNL     1     -16.837  -3.897  -3.924  1.00  0.00    -0.200 F 
ATOM     86  C   UNL     1     -16.835  -2.254  -2.228  1.00  0.00     0.200 A 
ATOM     87  F   UNL     1     -16.782  -0.600  -0.543  1.00  0.00    -0.200 F 
ATOM     88  F   UNL     1     -18.173  -2.182  -2.276  1.00  0.00    -0.200 F 
ENDBRANCH  55  78
ENDBRANCH  29  30
ENDBRANCH  22  24
ENDBRANCH  21  22
ENDBRANCH  20  21
ENDBRANCH  19  20
ENDBRANCH  18  19
ENDBRANCH  17  18
ENDBRANCH   1  17
TORSDOF 20
