REMARK SMILES Cc1c(Cl)cc2c(c1C)O[C@@H](C(F)(F)F)C(C(=O)OCCOCCOCCOC(=O)c1ccc(-c3c4nc(c(-c5c(F)c(F)c(F)c(F)c5F)c5ccc([nH]5)c(-c5c(F)c(F)c(F)c(F)c5F)c5nc(c(-c6c(F)c(F)c(F)c(F)c6F)c6ccc3[nH]6)C=C5)C=C4)cc1)=C2
REMARK SMILES IDX 24 1 23 2 22 3 21 4 20 5 19 6 17 7 18 8 16 9 1 10 2 11 3 12
REMARK SMILES IDX 8 13 4 14 5 15 7 16 9 17 6 18 10 19 94 20 11 21 12 22 13 23
REMARK SMILES IDX 14 24 15 25 25 26 26 27 27 28 28 29 29 30 30 31 31 32 32 33
REMARK SMILES IDX 93 34 33 35 92 36 34 37 35 38 36 39 86 40 37 41 91 42 85 43
REMARK SMILES IDX 87 44 38 45 90 46 84 47 83 48 39 50 71 51 51 52 70 53 52 54
REMARK SMILES IDX 55 55 69 56 88 57 53 58 54 59 68 61 89 62 56 63 40 64 41 65
REMARK SMILES IDX 49 66 42 67 43 68 47 69 50 70 44 71 45 72 48 73 46 74 72 75
REMARK SMILES IDX 73 76 81 77 74 78 75 79 79 80 82 81 76 82 77 83 80 84 78 85
REMARK SMILES IDX 57 86 58 87 66 88 59 89 60 90 64 91 67 92 61 93 62 94 65 95
REMARK SMILES IDX 63 96
REMARK H PARENT 87 49 55 60
REMARK Flexibility Score: inf
ROOT
ATOM      1  C   UNL     1      -3.592   1.358  -7.419  1.00  0.00     0.188 C 
ENDROOT
BRANCH   1   2
ATOM      2  C   UNL     1      -2.805   2.487  -8.111  1.00  0.00     0.188 C 
BRANCH   2   3
ATOM      3  O   UNL     1      -2.782   2.564  -9.530  1.00  0.00    -0.376 OA
BRANCH   3   4
ATOM      4  C   UNL     1      -2.559   1.385 -10.295  1.00  0.00     0.202 C 
BRANCH   4   5
ATOM      5  C   UNL     1      -1.357   0.484  -9.964  1.00  0.00     0.261 C 
BRANCH   5   6
ATOM      6  O   UNL     1      -1.303   0.022  -8.599  1.00  0.00    -0.460 OA
BRANCH   6   7
ATOM      7  C   UNL     1      -0.204   0.378  -7.900  1.00  0.00     0.338 C 
ATOM      8  O   UNL     1       0.770   0.970  -8.340  1.00  0.00    -0.246 OA
BRANCH   7   9
ATOM      9  C   UNL     1      -0.374   0.103  -6.459  1.00  0.00     0.087 C 
ATOM     10  C   UNL     1       0.848   0.080  -0.046  1.00  0.00     0.046 C 
ATOM     11  C   UNL     1       0.468   0.342  -1.484  1.00  0.00    -0.026 A 
ATOM     12  C   UNL     1       0.484   1.661  -1.986  1.00  0.00     0.045 A 
ATOM     13  C   UNL     1       0.207  -0.722  -2.387  1.00  0.00    -0.004 A 
ATOM     14  Cl  UNL     1       0.867   3.025  -0.991  1.00  0.00    -0.084 Cl
ATOM     15  C   UNL     1       0.234   1.927  -3.335  1.00  0.00     0.032 A 
ATOM     16  C   UNL     1      -0.020  -0.436  -3.752  1.00  0.00     0.131 A 
ATOM     17  C   UNL     1       0.140  -2.168  -1.957  1.00  0.00     0.049 C 
ATOM     18  C   UNL     1      -0.001   0.879  -4.223  1.00  0.00     0.019 A 
ATOM     19  O   UNL     1      -0.151  -1.508  -4.601  1.00  0.00    -0.475 OA
ATOM     20  C   UNL     1      -0.083   1.133  -5.651  1.00  0.00     0.027 C 
ATOM     21  C   UNL     1      -0.667  -1.280  -5.945  1.00  0.00     0.316 C 
BRANCH  21  22
ATOM     22  C   UNL     1      -2.143  -1.720  -5.969  1.00  0.00     0.430 C 
ATOM     23  F   UNL     1      -2.947  -0.864  -5.297  1.00  0.00    -0.167 F 
ATOM     24  F   UNL     1      -2.617  -1.845  -7.226  1.00  0.00    -0.167 F 
ATOM     25  F   UNL     1      -2.291  -2.938  -5.386  1.00  0.00    -0.167 F 
ENDBRANCH  21  22
ENDBRANCH   7   9
ENDBRANCH   6   7
ENDBRANCH   5   6
ENDBRANCH   4   5
ENDBRANCH   3   4
ENDBRANCH   2   3
ENDBRANCH   1   2
BRANCH   1  26
ATOM     26  O   UNL     1      -4.214   0.458  -8.296  1.00  0.00    -0.376 OA
BRANCH  26  27
ATOM     27  C   UNL     1      -5.604   0.560  -8.543  1.00  0.00     0.202 C 
BRANCH  27  28
ATOM     28  C   UNL     1      -6.402   1.879  -8.478  1.00  0.00     0.261 C 
BRANCH  28  29
ATOM     29  O   UNL     1      -5.801   3.001  -7.823  1.00  0.00    -0.460 OA
BRANCH  29  30
ATOM     30  C   UNL     1      -6.113   3.192  -6.516  1.00  0.00     0.338 C 
ATOM     31  O   UNL     1      -6.834   2.514  -5.819  1.00  0.00    -0.246 OA
BRANCH  30  32
ATOM     32  C   UNL     1      -5.240   4.277  -6.016  1.00  0.00     0.060 A 
ATOM     33  C   UNL     1      -4.213   3.962  -5.115  1.00  0.00     0.016 A 
ATOM     34  C   UNL     1      -5.415   5.589  -6.461  1.00  0.00     0.016 A 
ATOM     35  C   UNL     1      -3.351   4.960  -4.661  1.00  0.00     0.010 A 
ATOM     36  C   UNL     1      -4.573   6.595  -5.978  1.00  0.00     0.010 A 
ATOM     37  C   UNL     1      -3.550   6.288  -5.062  1.00  0.00    -0.014 A 
BRANCH  37  38
ATOM     38  C   UNL     1      -2.836   7.374  -4.348  1.00  0.00     0.031 A 
ATOM     39  C   UNL     1      -3.526   8.018  -3.179  1.00  0.00     0.074 A 
ATOM     40  C   UNL     1      -1.593   7.752  -4.694  1.00  0.00     0.049 A 
ATOM     41  N   UNL     1      -3.115   8.983  -2.397  1.00  0.00    -0.248 NA
ATOM     42  C   UNL     1      -4.864   7.501  -2.845  1.00  0.00     0.031 C 
ATOM     43  C   UNL     1      -0.802   7.173  -5.776  1.00  0.00     0.029 A 
ATOM     44  N   UNL     1      -0.776   8.719  -4.159  1.00  0.00    -0.354 N 
ATOM     45  C   UNL     1      -4.135   9.177  -1.477  1.00  0.00     0.074 A 
ATOM     46  C   UNL     1      -5.205   8.269  -1.823  1.00  0.00     0.031 C 
ATOM     47  C   UNL     1       0.389   7.796  -5.826  1.00  0.00     0.029 A 
ATOM     48  C   UNL     1       0.434   8.837  -4.797  1.00  0.00     0.049 A 
ATOM     49  H   UNL     1      -1.034   9.275  -3.389  1.00  0.00     0.167 HD
ATOM     50  C   UNL     1      -4.168  10.024  -0.423  1.00  0.00     0.037 A 
ATOM     51  C   UNL     1       1.452   9.696  -4.582  1.00  0.00     0.037 A 
ATOM     52  C   UNL     1      -3.106  10.928  -0.080  1.00  0.00     0.049 A 
ATOM     53  C   UNL     1       1.342  10.711  -3.468  1.00  0.00     0.074 A 
ATOM     54  C   UNL     1      -3.042  11.816   0.979  1.00  0.00     0.029 A 
ATOM     55  N   UNL     1      -1.926  11.067  -0.795  1.00  0.00    -0.354 N 
ATOM     56  N   UNL     1       0.393  10.863  -2.577  1.00  0.00    -0.248 NA
ATOM     57  C   UNL     1       2.443  11.678  -3.335  1.00  0.00     0.031 C 
ATOM     58  C   UNL     1      -1.849  12.534   0.872  1.00  0.00     0.029 A 
ATOM     59  C   UNL     1      -1.145  12.057  -0.223  1.00  0.00     0.049 A 
ATOM     60  H   UNL     1      -1.680  10.540  -1.589  1.00  0.00     0.167 HD
ATOM     61  C   UNL     1       0.787  11.925  -1.771  1.00  0.00     0.074 A 
ATOM     62  C   UNL     1       2.074  12.369  -2.264  1.00  0.00     0.031 C 
ATOM     63  C   UNL     1       0.137  12.486  -0.722  1.00  0.00     0.037 A 
BRANCH  50  64
ATOM     64  C   UNL     1      -5.396  10.017   0.436  1.00  0.00     0.064 A 
ATOM     65  C   UNL     1      -5.687   8.942   1.289  1.00  0.00     0.173 A 
ATOM     66  C   UNL     1      -6.262  11.120   0.449  1.00  0.00     0.173 A 
ATOM     67  F   UNL     1      -4.898   7.857   1.301  1.00  0.00    -0.203 F 
ATOM     68  C   UNL     1      -6.809   8.965   2.112  1.00  0.00     0.198 A 
ATOM     69  C   UNL     1      -7.366  11.153   1.296  1.00  0.00     0.198 A 
ATOM     70  F   UNL     1      -6.027  12.174  -0.347  1.00  0.00    -0.203 F 
ATOM     71  F   UNL     1      -7.088   7.910   2.890  1.00  0.00    -0.200 F 
ATOM     72  C   UNL     1      -7.641  10.074   2.123  1.00  0.00     0.200 A 
ATOM     73  F   UNL     1      -8.162  12.231   1.316  1.00  0.00    -0.200 F 
ATOM     74  F   UNL     1      -8.711  10.102   2.928  1.00  0.00    -0.200 F 
ENDBRANCH  50  64
BRANCH  51  75
ATOM     75  C   UNL     1       2.668   9.640  -5.437  1.00  0.00     0.064 A 
ATOM     76  C   UNL     1       3.906   9.253  -4.906  1.00  0.00     0.173 A 
ATOM     77  C   UNL     1       2.623   9.983  -6.797  1.00  0.00     0.173 A 
ATOM     78  F   UNL     1       4.009   8.947  -3.604  1.00  0.00    -0.203 F 
ATOM     79  C   UNL     1       5.052   9.217  -5.699  1.00  0.00     0.198 A 
ATOM     80  C   UNL     1       3.764   9.919  -7.596  1.00  0.00     0.198 A 
ATOM     81  F   UNL     1       1.467  10.372  -7.354  1.00  0.00    -0.203 F 
ATOM     82  F   UNL     1       6.230   8.883  -5.155  1.00  0.00    -0.200 F 
ATOM     83  C   UNL     1       4.979   9.541  -7.045  1.00  0.00     0.200 A 
ATOM     84  F   UNL     1       3.686  10.227  -8.898  1.00  0.00    -0.200 F 
ATOM     85  F   UNL     1       6.079   9.499  -7.808  1.00  0.00    -0.200 F 
ENDBRANCH  51  75
BRANCH  63  86
ATOM     86  C   UNL     1       0.783  13.649  -0.025  1.00  0.00     0.064 A 
ATOM     87  C   UNL     1       0.823  14.918  -0.619  1.00  0.00     0.173 A 
ATOM     88  C   UNL     1       1.244  13.527   1.295  1.00  0.00     0.173 A 
ATOM     89  F   UNL     1       0.403  15.086  -1.882  1.00  0.00    -0.203 F 
ATOM     90  C   UNL     1       1.299  16.023   0.083  1.00  0.00     0.198 A 
ATOM     91  C   UNL     1       1.691  14.638   2.004  1.00  0.00     0.198 A 
ATOM     92  F   UNL     1       1.216  12.336   1.914  1.00  0.00    -0.203 F 
ATOM     93  F   UNL     1       1.342  17.224  -0.510  1.00  0.00    -0.200 F 
ATOM     94  C   UNL     1       1.717  15.885   1.398  1.00  0.00     0.200 A 
ATOM     95  F   UNL     1       2.074  14.507   3.282  1.00  0.00    -0.200 F 
ATOM     96  F   UNL     1       2.142  16.956   2.083  1.00  0.00    -0.200 F 
ENDBRANCH  63  86
ENDBRANCH  37  38
ENDBRANCH  30  32
ENDBRANCH  29  30
ENDBRANCH  28  29
ENDBRANCH  27  28
ENDBRANCH  26  27
ENDBRANCH   1  26
TORSDOF 18
