REMARK SMILES CC(=O)Oc1ccccc1C(=O)OCCOCCOCCOC(=O)c1ccc(-c2c3nc(c(-c4c(F)c(F)c(F)c(F)c4F)c4ccc([nH]4)c(-c4c(F)c(F)c(F)c(F)c4F)c4nc(c(-c5c(F)c(F)c(F)c(F)c5F)c5ccc2[nH]5)C=C4)C=C3)cc1
REMARK SMILES IDX 17 1 16 2 15 3 14 4 13 5 11 6 12 7 10 8 5 9 6 10 7 11 9 12
REMARK SMILES IDX 8 13 4 14 2 15 1 16 3 17 18 18 19 19 20 20 21 21 22 22 23 23
REMARK SMILES IDX 24 24 25 25 26 26 87 27 27 28 86 29 28 30 29 31 30 32 80 33
REMARK SMILES IDX 31 34 85 35 79 36 81 37 32 38 84 39 78 40 77 41 33 43 65 44
REMARK SMILES IDX 45 45 64 46 46 47 49 48 63 49 82 50 47 51 48 52 62 54 83 55
REMARK SMILES IDX 50 56 34 57 35 58 43 59 36 60 37 61 41 62 44 63 38 64 39 65
REMARK SMILES IDX 42 66 40 67 66 68 67 69 75 70 68 71 69 72 73 73 76 74 70 75
REMARK SMILES IDX 71 76 74 77 72 78 51 79 52 80 60 81 53 82 54 83 58 84 61 85
REMARK SMILES IDX 55 86 56 87 59 88 57 89
REMARK H PARENT 81 42 49 53
REMARK Flexibility Score: inf
ROOT
ATOM      1  C   UNL     1      -3.628   0.522   2.378  1.00  0.00     0.188 C 
ENDROOT
BRANCH   1   2
ATOM      2  O   UNL     1      -4.218   0.890   1.136  1.00  0.00    -0.376 OA
BRANCH   2   3
ATOM      3  C   UNL     1      -3.370   1.185   0.030  1.00  0.00     0.202 C 
BRANCH   3   4
ATOM      4  C   UNL     1      -2.325   2.287   0.223  1.00  0.00     0.261 C 
BRANCH   4   5
ATOM      5  O   UNL     1      -1.397   1.975   1.277  1.00  0.00    -0.460 OA
BRANCH   5   6
ATOM      6  C   UNL     1      -1.189   2.957   2.188  1.00  0.00     0.342 C 
ATOM      7  O   UNL     1      -1.671   4.081   2.153  1.00  0.00    -0.246 OA
BRANCH   6   8
ATOM      8  C   UNL     1      -0.463   2.448   3.379  1.00  0.00     0.102 A 
ATOM      9  C   UNL     1       0.543   1.471   3.379  1.00  0.00     0.145 A 
ATOM     10  C   UNL     1       1.120   1.043   4.583  1.00  0.00     0.048 A 
ATOM     11  C   UNL     1       0.686   1.573   5.798  1.00  0.00     0.004 A 
ATOM     12  C   UNL     1      -0.892   2.965   4.615  1.00  0.00     0.019 A 
ATOM     13  C   UNL     1      -0.331   2.523   5.815  1.00  0.00     0.001 A 
BRANCH   9  14
ATOM     14  O   UNL     1       0.909   0.708   2.256  1.00  0.00    -0.426 OA
BRANCH  14  15
ATOM     15  C   UNL     1       1.393   1.350   1.125  1.00  0.00     0.308 C 
ATOM     16  C   UNL     1       1.535   0.344   0.020  1.00  0.00     0.139 C 
ATOM     17  O   UNL     1       1.682   2.535   1.037  1.00  0.00    -0.252 OA
ENDBRANCH  14  15
ENDBRANCH   9  14
ENDBRANCH   6   8
ENDBRANCH   5   6
ENDBRANCH   4   5
ENDBRANCH   3   4
ENDBRANCH   2   3
ENDBRANCH   1   2
BRANCH   1  18
ATOM     18  C   UNL     1      -2.521  -0.551   2.401  1.00  0.00     0.188 C 
BRANCH  18  19
ATOM     19  O   UNL     1      -2.303  -1.207   1.163  1.00  0.00    -0.376 OA
BRANCH  19  20
ATOM     20  C   UNL     1      -2.654  -2.584   1.128  1.00  0.00     0.202 C 
BRANCH  20  21
ATOM     21  C   UNL     1      -4.165  -2.852   1.124  1.00  0.00     0.261 C 
BRANCH  21  22
ATOM     22  O   UNL     1      -4.873  -2.354   2.273  1.00  0.00    -0.460 OA
BRANCH  22  23
ATOM     23  C   UNL     1      -4.594  -2.927   3.464  1.00  0.00     0.338 C 
ATOM     24  O   UNL     1      -3.817  -3.839   3.679  1.00  0.00    -0.246 OA
BRANCH  23  25
ATOM     25  C   UNL     1      -5.255  -2.128   4.518  1.00  0.00     0.060 A 
ATOM     26  C   UNL     1      -4.482  -1.633   5.575  1.00  0.00     0.016 A 
ATOM     27  C   UNL     1      -6.626  -1.859   4.459  1.00  0.00     0.016 A 
ATOM     28  C   UNL     1      -5.086  -0.892   6.594  1.00  0.00     0.010 A 
ATOM     29  C   UNL     1      -7.232  -1.131   5.487  1.00  0.00     0.010 A 
ATOM     30  C   UNL     1      -6.470  -0.669   6.574  1.00  0.00    -0.014 A 
BRANCH  30  31
ATOM     31  C   UNL     1      -7.143  -0.108   7.772  1.00  0.00     0.031 A 
ATOM     32  C   UNL     1      -7.729  -1.058   8.779  1.00  0.00     0.074 A 
ATOM     33  C   UNL     1      -7.228   1.219   7.973  1.00  0.00     0.049 A 
ATOM     34  N   UNL     1      -8.354  -0.804   9.900  1.00  0.00    -0.248 NA
ATOM     35  C   UNL     1      -7.592  -2.491   8.476  1.00  0.00     0.031 C 
ATOM     36  C   UNL     1      -6.700   2.246   7.079  1.00  0.00     0.029 A 
ATOM     37  N   UNL     1      -7.807   1.926   8.999  1.00  0.00    -0.354 N 
ATOM     38  C   UNL     1      -8.676  -2.042  10.440  1.00  0.00     0.074 A 
ATOM     39  C   UNL     1      -8.213  -3.046   9.505  1.00  0.00     0.031 C 
ATOM     40  C   UNL     1      -6.995   3.456   7.587  1.00  0.00     0.029 A 
ATOM     41  C   UNL     1      -7.744   3.287   8.832  1.00  0.00     0.049 A 
ATOM     42  H   UNL     1      -8.226   1.497   9.779  1.00  0.00     0.167 HD
ATOM     43  C   UNL     1      -9.290  -2.321  11.614  1.00  0.00     0.037 A 
ATOM     44  C   UNL     1      -8.248   4.280   9.592  1.00  0.00     0.037 A 
ATOM     45  C   UNL     1      -9.770  -1.329  12.537  1.00  0.00     0.049 A 
ATOM     46  C   UNL     1      -8.975   3.946  10.870  1.00  0.00     0.074 A 
ATOM     47  C   UNL     1     -10.389  -1.514  13.761  1.00  0.00     0.029 A 
ATOM     48  N   UNL     1      -9.699   0.041  12.329  1.00  0.00    -0.354 N 
ATOM     49  N   UNL     1      -9.226   2.774  11.400  1.00  0.00    -0.248 NA
ATOM     50  C   UNL     1      -9.479   5.079  11.661  1.00  0.00     0.031 C 
ATOM     51  C   UNL     1     -10.733  -0.257  14.273  1.00  0.00     0.029 A 
ATOM     52  C   UNL     1     -10.284   0.712  13.390  1.00  0.00     0.049 A 
ATOM     53  H   UNL     1      -9.292   0.472  11.543  1.00  0.00     0.167 HD
ATOM     54  C   UNL     1      -9.896   3.026  12.591  1.00  0.00     0.074 A 
ATOM     55  C   UNL     1      -9.997   4.465  12.716  1.00  0.00     0.031 C 
ATOM     56  C   UNL     1     -10.382   2.146  13.501  1.00  0.00     0.037 A 
BRANCH  43  57
ATOM     57  C   UNL     1      -9.492  -3.769  11.950  1.00  0.00     0.064 A 
ATOM     58  C   UNL     1      -8.416  -4.595  12.311  1.00  0.00     0.173 A 
ATOM     59  C   UNL     1     -10.774  -4.336  11.916  1.00  0.00     0.173 A 
ATOM     60  F   UNL     1      -7.168  -4.104  12.341  1.00  0.00    -0.203 F 
ATOM     61  C   UNL     1      -8.613  -5.944  12.594  1.00  0.00     0.198 A 
ATOM     62  C   UNL     1     -10.971  -5.679  12.226  1.00  0.00     0.198 A 
ATOM     63  F   UNL     1     -11.835  -3.589  11.578  1.00  0.00    -0.203 F 
ATOM     64  F   UNL     1      -7.564  -6.726  12.884  1.00  0.00    -0.200 F 
ATOM     65  C   UNL     1      -9.890  -6.483  12.556  1.00  0.00     0.200 A 
ATOM     66  F   UNL     1     -12.206  -6.198  12.197  1.00  0.00    -0.200 F 
ATOM     67  F   UNL     1     -10.078  -7.782  12.827  1.00  0.00    -0.200 F 
ENDBRANCH  43  57
BRANCH  44  68
ATOM     68  C   UNL     1      -8.087   5.693   9.161  1.00  0.00     0.064 A 
ATOM     69  C   UNL     1      -7.239   6.570   9.849  1.00  0.00     0.173 A 
ATOM     70  C   UNL     1      -8.795   6.197   8.060  1.00  0.00     0.173 A 
ATOM     71  F   UNL     1      -6.564   6.142  10.926  1.00  0.00    -0.203 F 
ATOM     72  C   UNL     1      -7.115   7.903   9.461  1.00  0.00     0.198 A 
ATOM     73  C   UNL     1      -8.652   7.522   7.658  1.00  0.00     0.198 A 
ATOM     74  F   UNL     1      -9.625   5.398   7.373  1.00  0.00    -0.203 F 
ATOM     75  F   UNL     1      -6.331   8.733  10.163  1.00  0.00    -0.200 F 
ATOM     76  C   UNL     1      -7.817   8.377   8.362  1.00  0.00     0.200 A 
ATOM     77  F   UNL     1      -9.327   7.974   6.592  1.00  0.00    -0.200 F 
ATOM     78  F   UNL     1      -7.696   9.658   7.989  1.00  0.00    -0.200 F 
ENDBRANCH  44  68
BRANCH  56  79
ATOM     79  C   UNL     1     -11.047   2.711  14.723  1.00  0.00     0.064 A 
ATOM     80  C   UNL     1     -12.311   3.316  14.659  1.00  0.00     0.173 A 
ATOM     81  C   UNL     1     -10.428   2.615  15.979  1.00  0.00     0.173 A 
ATOM     82  F   UNL     1     -12.940   3.444  13.481  1.00  0.00    -0.203 F 
ATOM     83  C   UNL     1     -12.918   3.828  15.804  1.00  0.00     0.198 A 
ATOM     84  C   UNL     1     -11.050   3.103  17.125  1.00  0.00     0.198 A 
ATOM     85  F   UNL     1      -9.222   2.039  16.096  1.00  0.00    -0.203 F 
ATOM     86  F   UNL     1     -14.105   4.443  15.712  1.00  0.00    -0.200 F 
ATOM     87  C   UNL     1     -12.290   3.716  17.035  1.00  0.00     0.200 A 
ATOM     88  F   UNL     1     -10.447   2.982  18.316  1.00  0.00    -0.200 F 
ATOM     89  F   UNL     1     -12.878   4.205  18.136  1.00  0.00    -0.200 F 
ENDBRANCH  56  79
ENDBRANCH  30  31
ENDBRANCH  23  25
ENDBRANCH  22  23
ENDBRANCH  21  22
ENDBRANCH  20  21
ENDBRANCH  19  20
ENDBRANCH  18  19
ENDBRANCH   1  18
TORSDOF 19
