REMARK SMILES COC(=O)c1ccc2c(c1)=N[C@H](c1cn(CCC(=O)OCCOCCOCCOC(=O)c3ccc(-c4c5nc(c(-c6c(F)c(F)c(F)c(F)c6F)c6ccc([nH]6)c(-c6c(F)c(F)c(F)c(F)c6F)c6nc(c(-c7c(F)c(F)c(F)c(F)c7F)c7ccc4[nH]7)C=C6)C=C5)cc3)c3ccccc13)N=2
REMARK SMILES IDX 23 1 22 2 21 3 20 4 18 5 19 6 17 7 16 8 15 9 13 10 14 11
REMARK SMILES IDX 100 12 95 13 99 14 96 15 98 16 97 17 12 18 5 19 6 20 10 21
REMARK SMILES IDX 7 22 9 23 8 24 11 25 101 26 3 27 4 28 2 29 1 30 24 31 25 32
REMARK SMILES IDX 26 33 27 34 28 35 29 36 30 37 31 38 32 39 33 40 94 41 34 42
REMARK SMILES IDX 93 43 35 44 36 45 37 46 87 47 38 48 92 49 86 50 88 51 39 52
REMARK SMILES IDX 91 53 85 54 84 55 40 57 72 58 52 59 71 60 53 61 56 62 70 63
REMARK SMILES IDX 89 64 54 65 55 66 69 68 90 69 57 70 41 71 42 72 50 73 43 74
REMARK SMILES IDX 44 75 48 76 51 77 45 78 46 79 49 80 47 81 73 82 74 83 82 84
REMARK SMILES IDX 75 85 76 86 80 87 83 88 77 89 78 90 81 91 79 92 58 93 59 94
REMARK SMILES IDX 67 95 60 96 61 97 65 98 68 99 62 100 63 101 66 102 64 103
REMARK H PARENT 88 56 56 67
REMARK Flexibility Score: inf
ROOT
ATOM      1  O   UNL     1      -4.378 -12.955   4.480  1.00  0.00    -0.376 OA
ENDROOT
BRANCH   1   2
ATOM      2  C   UNL     1      -4.783 -11.690   5.012  1.00  0.00     0.202 C 
BRANCH   2   3
ATOM      3  C   UNL     1      -4.129 -11.299   6.341  1.00  0.00     0.261 C 
BRANCH   3   4
ATOM      4  O   UNL     1      -2.800 -10.782   6.064  1.00  0.00    -0.463 OA
BRANCH   4   5
ATOM      5  C   UNL     1      -1.871 -11.059   6.995  1.00  0.00     0.307 C 
ATOM      6  O   UNL     1      -2.133 -11.585   8.078  1.00  0.00    -0.252 OA
BRANCH   5   7
ATOM      7  C   UNL     1      -0.430 -10.963   6.548  1.00  0.00     0.144 C 
BRANCH   7   8
ATOM      8  C   UNL     1       0.264 -10.194   5.447  1.00  0.00     0.134 C 
BRANCH   8   9
ATOM      9  N   UNL     1      -0.002  -8.791   5.500  1.00  0.00    -0.346 N 
ATOM     10  C   UNL     1      -0.431  -6.886   6.454  1.00  0.00     0.024 A 
ATOM     11  C   UNL     1       0.528  -7.891   6.379  1.00  0.00     0.094 A 
ATOM     12  C   UNL     1      -1.617  -7.458   5.896  1.00  0.00     0.007 A 
ATOM     13  C   UNL     1      -1.074  -8.220   4.879  1.00  0.00     0.048 A 
ATOM     14  C   UNL     1      -2.979  -7.147   5.832  1.00  0.00     0.011 A 
ATOM     15  C   UNL     1      -1.643  -8.333   3.619  1.00  0.00     0.027 A 
ATOM     16  C   UNL     1      -3.631  -7.348   4.612  1.00  0.00     0.001 A 
ATOM     17  C   UNL     1      -2.932  -7.816   3.495  1.00  0.00     0.002 A 
BRANCH  10  18
ATOM     18  C   UNL     1      -0.164  -5.419   6.652  1.00  0.00     0.255 C 
ATOM     19  C   UNL     1       0.295  -2.982   2.858  1.00  0.00     0.062 A 
ATOM     20  C   UNL     1      -1.102  -2.699   3.173  1.00  0.00     0.018 A 
ATOM     21  C   UNL     1       1.040  -3.819   3.602  1.00  0.00     0.046 A 
ATOM     22  C   UNL     1      -1.747  -3.228   4.224  1.00  0.00     0.031 A 
ATOM     23  C   UNL     1       0.431  -4.386   4.815  1.00  0.00     0.087 A 
ATOM     24  C   UNL     1      -0.983  -4.096   5.126  1.00  0.00     0.086 A 
ATOM     25  N   UNL     1       0.988  -5.075   5.749  1.00  0.00    -0.252 NA
ATOM     26  N   UNL     1      -1.352  -4.612   6.246  1.00  0.00    -0.252 NA
BRANCH  19  27
ATOM     27  C   UNL     1       0.978  -2.345   1.684  1.00  0.00     0.337 C 
ATOM     28  O   UNL     1       1.925  -2.823   1.095  1.00  0.00    -0.246 OA
BRANCH  27  29
ATOM     29  O   UNL     1       0.401  -1.139   1.424  1.00  0.00    -0.465 OA
ATOM     30  C   UNL     1       0.996  -0.410   0.347  1.00  0.00     0.282 C 
ENDBRANCH  27  29
ENDBRANCH  19  27
ENDBRANCH  10  18
ENDBRANCH   8   9
ENDBRANCH   7   8
ENDBRANCH   5   7
ENDBRANCH   4   5
ENDBRANCH   3   4
ENDBRANCH   2   3
ENDBRANCH   1   2
BRANCH   1  31
ATOM     31  C   UNL     1      -3.009 -13.254   4.632  1.00  0.00     0.188 C 
BRANCH  31  32
ATOM     32  C   UNL     1      -2.050 -12.510   3.718  1.00  0.00     0.188 C 
BRANCH  32  33
ATOM     33  O   UNL     1      -2.289 -11.240   3.153  1.00  0.00    -0.376 OA
BRANCH  33  34
ATOM     34  C   UNL     1      -2.946 -11.244   1.885  1.00  0.00     0.202 C 
BRANCH  34  35
ATOM     35  C   UNL     1      -2.243 -11.912   0.663  1.00  0.00     0.261 C 
BRANCH  35  36
ATOM     36  O   UNL     1      -1.501 -13.115   0.963  1.00  0.00    -0.460 OA
BRANCH  36  37
ATOM     37  C   UNL     1      -0.140 -12.994   0.982  1.00  0.00     0.338 C 
ATOM     38  O   UNL     1       0.510 -12.235   0.297  1.00  0.00    -0.246 OA
BRANCH  37  39
ATOM     39  C   UNL     1       0.420 -13.689   2.196  1.00  0.00     0.060 A 
ATOM     40  C   UNL     1      -0.192 -14.790   2.811  1.00  0.00     0.016 A 
ATOM     41  C   UNL     1       1.454 -13.027   2.878  1.00  0.00     0.016 A 
ATOM     42  C   UNL     1       0.129 -15.111   4.142  1.00  0.00     0.010 A 
ATOM     43  C   UNL     1       1.796 -13.374   4.197  1.00  0.00     0.010 A 
ATOM     44  C   UNL     1       1.106 -14.388   4.865  1.00  0.00    -0.014 A 
BRANCH  44  45
ATOM     45  C   UNL     1       1.590 -14.938   6.160  1.00  0.00     0.031 A 
ATOM     46  C   UNL     1       2.058 -16.329   6.003  1.00  0.00     0.074 A 
ATOM     47  C   UNL     1       1.766 -14.378   7.384  1.00  0.00     0.049 A 
ATOM     48  N   UNL     1       1.504 -17.367   6.534  1.00  0.00    -0.248 NA
ATOM     49  C   UNL     1       3.136 -16.625   5.052  1.00  0.00     0.031 C 
ATOM     50  C   UNL     1       1.452 -13.028   7.789  1.00  0.00     0.029 A 
ATOM     51  N   UNL     1       2.308 -14.871   8.553  1.00  0.00    -0.354 N 
ATOM     52  C   UNL     1       2.307 -18.432   6.167  1.00  0.00     0.074 A 
ATOM     53  C   UNL     1       3.189 -17.956   5.132  1.00  0.00     0.031 C 
ATOM     54  C   UNL     1       2.117 -12.653   8.901  1.00  0.00     0.029 A 
ATOM     55  C   UNL     1       2.655 -13.873   9.472  1.00  0.00     0.049 A 
ATOM     56  H   UNL     1       2.439 -15.831   8.724  1.00  0.00     0.167 HD
ATOM     57  C   UNL     1       2.373 -19.533   6.959  1.00  0.00     0.037 A 
ATOM     58  C   UNL     1       3.104 -13.960  10.748  1.00  0.00     0.037 A 
ATOM     59  C   UNL     1       1.314 -19.571   7.929  1.00  0.00     0.049 A 
ATOM     60  C   UNL     1       2.718 -15.277  11.274  1.00  0.00     0.074 A 
ATOM     61  C   UNL     1       0.005 -19.998   7.978  1.00  0.00     0.029 A 
ATOM     62  N   UNL     1       1.507 -18.743   9.000  1.00  0.00    -0.354 N 
ATOM     63  N   UNL     1       1.488 -15.606  11.552  1.00  0.00    -0.248 NA
ATOM     64  C   UNL     1       3.666 -16.377  11.168  1.00  0.00     0.031 C 
ATOM     65  C   UNL     1      -0.602 -19.337   9.089  1.00  0.00     0.029 A 
ATOM     66  C   UNL     1       0.355 -18.547   9.714  1.00  0.00     0.049 A 
ATOM     67  H   UNL     1       2.373 -18.336   9.230  1.00  0.00     0.167 HD
ATOM     68  C   UNL     1       1.429 -16.945  11.232  1.00  0.00     0.074 A 
ATOM     69  C   UNL     1       2.811 -17.400  11.162  1.00  0.00     0.031 C 
ATOM     70  C   UNL     1       0.304 -17.488  10.692  1.00  0.00     0.037 A 
BRANCH  57  71
ATOM     71  C   UNL     1       3.643 -20.304   7.163  1.00  0.00     0.064 A 
ATOM     72  C   UNL     1       3.600 -21.603   7.696  1.00  0.00     0.173 A 
ATOM     73  C   UNL     1       4.917 -19.695   7.114  1.00  0.00     0.173 A 
ATOM     74  F   UNL     1       2.428 -22.237   7.846  1.00  0.00    -0.203 F 
ATOM     75  C   UNL     1       4.756 -22.246   8.146  1.00  0.00     0.198 A 
ATOM     76  C   UNL     1       6.073 -20.358   7.513  1.00  0.00     0.198 A 
ATOM     77  F   UNL     1       5.066 -18.405   6.785  1.00  0.00    -0.203 F 
ATOM     78  F   UNL     1       4.666 -23.451   8.725  1.00  0.00    -0.200 F 
ATOM     79  C   UNL     1       5.992 -21.628   8.045  1.00  0.00     0.200 A 
ATOM     80  F   UNL     1       7.254 -19.727   7.441  1.00  0.00    -0.200 F 
ATOM     81  F   UNL     1       7.096 -22.232   8.503  1.00  0.00    -0.200 F 
ENDBRANCH  57  71
BRANCH  58  82
ATOM     82  C   UNL     1       4.049 -13.052  11.443  1.00  0.00     0.064 A 
ATOM     83  C   UNL     1       4.260 -13.137  12.829  1.00  0.00     0.173 A 
ATOM     84  C   UNL     1       4.987 -12.297  10.712  1.00  0.00     0.173 A 
ATOM     85  F   UNL     1       3.414 -13.836  13.600  1.00  0.00    -0.203 F 
ATOM     86  C   UNL     1       5.388 -12.573  13.435  1.00  0.00     0.198 A 
ATOM     87  C   UNL     1       6.112 -11.735  11.317  1.00  0.00     0.198 A 
ATOM     88  F   UNL     1       4.884 -12.176   9.380  1.00  0.00    -0.203 F 
ATOM     89  F   UNL     1       5.602 -12.749  14.746  1.00  0.00    -0.200 F 
ATOM     90  C   UNL     1       6.326 -11.896  12.673  1.00  0.00     0.200 A 
ATOM     91  F   UNL     1       7.024 -11.102  10.565  1.00  0.00    -0.200 F 
ATOM     92  F   UNL     1       7.454 -11.439  13.235  1.00  0.00    -0.200 F 
ENDBRANCH  58  82
BRANCH  70  93
ATOM     93  C   UNL     1      -1.010 -16.859  11.023  1.00  0.00     0.064 A 
ATOM     94  C   UNL     1      -1.427 -15.594  10.583  1.00  0.00     0.173 A 
ATOM     95  C   UNL     1      -1.914 -17.618  11.779  1.00  0.00     0.173 A 
ATOM     96  F   UNL     1      -0.634 -14.840   9.807  1.00  0.00    -0.203 F 
ATOM     97  C   UNL     1      -2.694 -15.107  10.911  1.00  0.00     0.198 A 
ATOM     98  C   UNL     1      -3.186 -17.143  12.078  1.00  0.00     0.198 A 
ATOM     99  F   UNL     1      -1.571 -18.845  12.203  1.00  0.00    -0.203 F 
ATOM    100  F   UNL     1      -3.079 -13.892  10.495  1.00  0.00    -0.200 F 
ATOM    101  C   UNL     1      -3.574 -15.885  11.650  1.00  0.00     0.200 A 
ATOM    102  F   UNL     1      -4.040 -17.915  12.764  1.00  0.00    -0.200 F 
ATOM    103  F   UNL     1      -4.803 -15.432  11.935  1.00  0.00    -0.200 F 
ENDBRANCH  70  93
ENDBRANCH  44  45
ENDBRANCH  37  39
ENDBRANCH  36  37
ENDBRANCH  35  36
ENDBRANCH  34  35
ENDBRANCH  33  34
ENDBRANCH  32  33
ENDBRANCH  31  32
ENDBRANCH   1  31
TORSDOF 22
